MODEL 1
REMARK VINA RESULT: -7.035717342      0.000      0.000
REMARK  10 active torsions:
REMARK  status: ('A' for Active; 'I' for Inactive)
REMARK    1  A    between atoms: C2_2  and  O1_3 
REMARK    2  A    between atoms: C2_2  and  C4_5 
REMARK    3  A    between atoms: C6_8  and  C7_9 
REMARK    4  A    between atoms: C7_9  and  C8_10 
REMARK    5  A    between atoms: C8_10  and  O3_11 
REMARK    6  A    between atoms: N1_13  and  O4_15 
REMARK    7  A    between atoms: C9_17  and  C10_18 
REMARK    8  A    between atoms: C10_18  and  O5_19 
REMARK    9  A    between atoms: C11_22  and  O7_23 
REMARK   10  A    between atoms: O7_23  and  C12_24 
ROOT
HETATM    1  C4  UNL     1      -3.839   5.432  14.465  1.00  0.00     0.167 C 
HETATM    2  C5  UNL     1      -3.361   4.108  14.875  1.00  0.00     0.149 C 
HETATM    3  O2  UNL     1      -2.243   3.689  14.960  1.00  0.00    -0.296 OA
HETATM    4  C6  UNL     1      -4.540   3.193  15.228  1.00  0.00     0.095 C 
HETATM    5  C9  UNL     1      -5.379   3.068  13.984  1.00  0.00     0.159 C 
HETATM    6  O6  UNL     1      -5.793   4.340  13.584  1.00  0.00    -0.351 OA
HETATM    7  C11 UNL     1      -4.833   5.274  13.348  1.00  0.00     0.287 C 
ENDROOT
BRANCH   4   8
HETATM    8  C7  UNL     1      -4.125   2.004  15.939  1.00  0.00     0.100 C 
BRANCH   8   9
HETATM    9  C8  UNL     1      -5.185   0.991  16.100  1.00  0.00     0.136 C 
HETATM   10  N1  UNL     1      -6.255   1.178  16.771  1.00  0.00    -0.251 N 
ATOM     11  H1  UNL     1      -6.421   2.069  17.239  1.00  0.00     0.196 HD
BRANCH   9  12
HETATM   12  O3  UNL     1      -4.948  -0.237  15.448  1.00  0.00    -0.348 OA
ATOM     13  H3  UNL     1      -4.906  -0.192  14.501  1.00  0.00     0.219 HD
ENDBRANCH   9  12
BRANCH  10  14
HETATM   14  O4  UNL     1      -7.180   0.166  16.858  1.00  0.00    -0.288 OA
ATOM     15  H4  UNL     1      -8.028   0.274  16.444  1.00  0.00     0.244 HD
ENDBRANCH  10  14
ENDBRANCH   8   9
ENDBRANCH   4   8
BRANCH   5  16
HETATM   16  C10 UNL     1      -4.698   2.343  12.847  1.00  0.00     0.197 C 
BRANCH  16  17
HETATM   17  O5  UNL     1      -5.400   2.366  11.650  1.00  0.00    -0.398 OA
ATOM     18  H5  UNL     1      -4.986   1.885  10.943  1.00  0.00     0.209 HD
ENDBRANCH  16  17
ENDBRANCH   5  16
BRANCH   1  19
HETATM   19  C2  UNL     1      -2.874   6.495  14.258  1.00  0.00     0.052 C 
HETATM   20  C1  UNL     1      -1.929   6.550  13.393  1.00  0.00     0.047 C 
BRANCH  19  21
HETATM   21  O1  UNL     1      -3.021   7.607  15.151  1.00  0.00    -0.360 OA
HETATM   22  C3  UNL     1      -1.956   8.549  15.238  1.00  0.00     0.209 C 
ENDBRANCH  19  21
ENDBRANCH   1  19
BRANCH   7  23
HETATM   23  O7  UNL     1      -4.280   5.233  12.069  1.00  0.00    -0.289 OA
BRANCH  23  24
HETATM   24  C12 UNL     1      -4.894   5.796  10.978  1.00  0.00     0.257 C 
HETATM   25  C13 UNL     1      -5.077   7.271  10.817  1.00  0.00     0.126 C 
HETATM   26  O8  UNL     1      -5.333   5.065  10.058  1.00  0.00    -0.266 OA
ENDBRANCH  23  24
ENDBRANCH   7  23
TORSDOF 10
ENDMDL
MODEL 2
REMARK VINA RESULT: -6.685054969      1.036      1.346
REMARK  10 active torsions:
REMARK  status: ('A' for Active; 'I' for Inactive)
REMARK    1  A    between atoms: C2_2  and  O1_3 
REMARK    2  A    between atoms: C2_2  and  C4_5 
REMARK    3  A    between atoms: C6_8  and  C7_9 
REMARK    4  A    between atoms: C7_9  and  C8_10 
REMARK    5  A    between atoms: C8_10  and  O3_11 
REMARK    6  A    between atoms: N1_13  and  O4_15 
REMARK    7  A    between atoms: C9_17  and  C10_18 
REMARK    8  A    between atoms: C10_18  and  O5_19 
REMARK    9  A    between atoms: C11_22  and  O7_23 
REMARK   10  A    between atoms: O7_23  and  C12_24 
ROOT
HETATM    1  C4  UNL     1      -3.612   5.572  14.293  1.00  0.00     0.167 C 
HETATM    2  C5  UNL     1      -3.167   4.256  14.762  1.00  0.00     0.149 C 
HETATM    3  O2  UNL     1      -2.065   3.797  14.825  1.00  0.00    -0.296 OA
HETATM    4  C6  UNL     1      -4.364   3.414  15.220  1.00  0.00     0.095 C 
HETATM    5  C9  UNL     1      -5.263   3.250  14.023  1.00  0.00     0.159 C 
HETATM    6  O6  UNL     1      -5.644   4.511  13.564  1.00  0.00    -0.351 OA
HETATM    7  C11 UNL     1      -4.661   5.389  13.231  1.00  0.00     0.287 C 
ENDROOT
BRANCH   4   8
HETATM    8  C7  UNL     1      -3.964   2.252  15.984  1.00  0.00     0.100 C 
BRANCH   8   9
HETATM    9  C8  UNL     1      -5.080   1.537  16.631  1.00  0.00     0.136 C 
HETATM   10  N1  UNL     1      -5.250   0.273  16.567  1.00  0.00    -0.251 N 
ATOM     11  H1  UNL     1      -4.595  -0.310  16.046  1.00  0.00     0.196 HD
BRANCH   9  12
HETATM   12  O3  UNL     1      -5.979   2.350  17.351  1.00  0.00    -0.348 OA
ATOM     13  H3  UNL     1      -6.661   1.884  17.821  1.00  0.00     0.219 HD
ENDBRANCH   9  12
BRANCH  10  14
HETATM   14  O4  UNL     1      -6.326  -0.294  17.207  1.00  0.00    -0.288 OA
ATOM     15  H4  UNL     1      -6.211  -0.654  18.079  1.00  0.00     0.244 HD
ENDBRANCH  10  14
ENDBRANCH   8   9
ENDBRANCH   4   8
BRANCH   5  16
HETATM   16  C10 UNL     1      -4.662   2.431  12.905  1.00  0.00     0.197 C 
BRANCH  16  17
HETATM   17  O5  UNL     1      -5.407   2.425  11.734  1.00  0.00    -0.398 OA
ATOM     18  H5  UNL     1      -4.965   2.034  10.990  1.00  0.00     0.209 HD
ENDBRANCH  16  17
ENDBRANCH   5  16
BRANCH   1  19
HETATM   19  C2  UNL     1      -2.617   6.580  13.980  1.00  0.00     0.052 C 
HETATM   20  C1  UNL     1      -2.462   7.735  14.516  1.00  0.00     0.047 C 
BRANCH  19  21
HETATM   21  O1  UNL     1      -1.711   6.209  12.932  1.00  0.00    -0.360 OA
HETATM   22  C3  UNL     1      -1.188   7.237  12.096  1.00  0.00     0.209 C 
ENDBRANCH  19  21
ENDBRANCH   1  19
BRANCH   7  23
HETATM   23  O7  UNL     1      -4.167   5.249  11.934  1.00  0.00    -0.289 OA
BRANCH  23  24
HETATM   24  C12 UNL     1      -4.784   5.810  10.843  1.00  0.00     0.257 C 
HETATM   25  C13 UNL     1      -4.602   7.240  10.449  1.00  0.00     0.126 C 
HETATM   26  O8  UNL     1      -5.541   5.114  10.124  1.00  0.00    -0.266 OA
ENDBRANCH  23  24
ENDBRANCH   7  23
TORSDOF 10
ENDMDL
MODEL 3
REMARK VINA RESULT: -6.457791061      1.954      3.990
REMARK  10 active torsions:
REMARK  status: ('A' for Active; 'I' for Inactive)
REMARK    1  A    between atoms: C2_2  and  O1_3 
REMARK    2  A    between atoms: C2_2  and  C4_5 
REMARK    3  A    between atoms: C6_8  and  C7_9 
REMARK    4  A    between atoms: C7_9  and  C8_10 
REMARK    5  A    between atoms: C8_10  and  O3_11 
REMARK    6  A    between atoms: N1_13  and  O4_15 
REMARK    7  A    between atoms: C9_17  and  C10_18 
REMARK    8  A    between atoms: C10_18  and  O5_19 
REMARK    9  A    between atoms: C11_22  and  O7_23 
REMARK   10  A    between atoms: O7_23  and  C12_24 
ROOT
HETATM    1  C4  UNL     1      -3.730   2.315  12.363  1.00  0.00     0.167 C 
HETATM    2  C5  UNL     1      -4.760   2.401  13.404  1.00  0.00     0.149 C 
HETATM    3  O2  UNL     1      -5.905   2.056  13.380  1.00  0.00    -0.296 OA
HETATM    4  C6  UNL     1      -4.191   3.044  14.674  1.00  0.00     0.095 C 
HETATM    5  C9  UNL     1      -3.735   4.427  14.293  1.00  0.00     0.159 C 
HETATM    6  O6  UNL     1      -2.785   4.330  13.275  1.00  0.00    -0.351 OA
HETATM    7  C11 UNL     1      -3.142   3.680  12.136  1.00  0.00     0.287 C 
ENDROOT
BRANCH   4   8
HETATM    8  C7  UNL     1      -5.052   2.859  15.822  1.00  0.00     0.100 C 
BRANCH   8   9
HETATM    9  C8  UNL     1      -5.041   1.493  16.377  1.00  0.00     0.136 C 
HETATM   10  N1  UNL     1      -6.084   0.879  16.784  1.00  0.00    -0.251 N 
ATOM     11  H1  UNL     1      -6.998   1.329  16.738  1.00  0.00     0.196 HD
BRANCH   9  12
HETATM   12  O3  UNL     1      -3.774   0.877  16.434  1.00  0.00    -0.348 OA
ATOM     13  H3  UNL     1      -3.285   0.876  15.620  1.00  0.00     0.219 HD
ENDBRANCH   9  12
BRANCH  10  14
HETATM   14  O4  UNL     1      -5.962  -0.394  17.285  1.00  0.00    -0.288 OA
ATOM     15  H4  UNL     1      -6.739  -0.933  17.380  1.00  0.00     0.244 HD
ENDBRANCH  10  14
ENDBRANCH   8   9
ENDBRANCH   4   8
BRANCH   5  16
HETATM   16  C10 UNL     1      -4.854   5.361  13.897  1.00  0.00     0.197 C 
BRANCH  16  17
HETATM   17  O5  UNL     1      -4.436   6.508  13.237  1.00  0.00    -0.398 OA
ATOM     18  H5  UNL     1      -5.137   7.111  13.017  1.00  0.00     0.209 HD
ENDBRANCH  16  17
ENDBRANCH   5  16
BRANCH   1  19
HETATM   19  C2  UNL     1      -4.020   1.581  11.146  1.00  0.00     0.052 C 
HETATM   20  C1  UNL     1      -5.145   1.103  10.757  1.00  0.00     0.047 C 
BRANCH  19  21
HETATM   21  O1  UNL     1      -2.885   1.378  10.294  1.00  0.00    -0.360 OA
HETATM   22  C3  UNL     1      -1.833   0.537  10.760  1.00  0.00     0.209 C 
ENDBRANCH  19  21
ENDBRANCH   1  19
BRANCH   7  23
HETATM   23  O7  UNL     1      -3.820   4.465  11.203  1.00  0.00    -0.289 OA
BRANCH  23  24
HETATM   24  C12 UNL     1      -3.252   4.862  10.018  1.00  0.00     0.257 C 
HETATM   25  C13 UNL     1      -2.114   5.829   9.943  1.00  0.00     0.126 C 
HETATM   26  O8  UNL     1      -3.687   4.411   8.931  1.00  0.00    -0.266 OA
ENDBRANCH  23  24
ENDBRANCH   7  23
TORSDOF 10
ENDMDL
MODEL 4
REMARK VINA RESULT: -6.431260592      1.946      4.004
REMARK  10 active torsions:
REMARK  status: ('A' for Active; 'I' for Inactive)
REMARK    1  A    between atoms: C2_2  and  O1_3 
REMARK    2  A    between atoms: C2_2  and  C4_5 
REMARK    3  A    between atoms: C6_8  and  C7_9 
REMARK    4  A    between atoms: C7_9  and  C8_10 
REMARK    5  A    between atoms: C8_10  and  O3_11 
REMARK    6  A    between atoms: N1_13  and  O4_15 
REMARK    7  A    between atoms: C9_17  and  C10_18 
REMARK    8  A    between atoms: C10_18  and  O5_19 
REMARK    9  A    between atoms: C11_22  and  O7_23 
REMARK   10  A    between atoms: O7_23  and  C12_24 
ROOT
HETATM    1  C4  UNL     1      -3.513   2.552  12.520  1.00  0.00     0.167 C 
HETATM    2  C5  UNL     1      -4.589   2.654  13.511  1.00  0.00     0.149 C 
HETATM    3  O2  UNL     1      -5.771   2.524  13.375  1.00  0.00    -0.296 OA
HETATM    4  C6  UNL     1      -4.019   2.978  14.896  1.00  0.00     0.095 C 
HETATM    5  C9  UNL     1      -3.311   4.301  14.776  1.00  0.00     0.159 C 
HETATM    6  O6  UNL     1      -2.317   4.200  13.802  1.00  0.00    -0.351 OA
HETATM    7  C11 UNL     1      -2.690   3.811  12.554  1.00  0.00     0.287 C 
ENDROOT
BRANCH   4   8
HETATM    8  C7  UNL     1      -4.983   2.770  15.955  1.00  0.00     0.100 C 
BRANCH   8   9
HETATM    9  C8  UNL     1      -5.052   1.382  16.450  1.00  0.00     0.136 C 
HETATM   10  N1  UNL     1      -6.099   0.856  16.957  1.00  0.00    -0.251 N 
ATOM     11  H1  UNL     1      -6.959   1.398  17.041  1.00  0.00     0.196 HD
BRANCH   9  12
HETATM   12  O3  UNL     1      -3.859   0.640  16.328  1.00  0.00    -0.348 OA
ATOM     13  H3  UNL     1      -3.954  -0.300  16.430  1.00  0.00     0.219 HD
ENDBRANCH   9  12
BRANCH  10  14
HETATM   14  O4  UNL     1      -6.056  -0.447  17.389  1.00  0.00    -0.288 OA
ATOM     15  H4  UNL     1      -6.508  -0.687  18.189  1.00  0.00     0.244 HD
ENDBRANCH  10  14
ENDBRANCH   8   9
ENDBRANCH   4   8
BRANCH   5  16
HETATM   16  C10 UNL     1      -4.226   5.469  14.490  1.00  0.00     0.197 C 
BRANCH  16  17
HETATM   17  O5  UNL     1      -3.568   6.664  14.239  1.00  0.00    -0.398 OA
ATOM     18  H5  UNL     1      -3.965   7.195  13.559  1.00  0.00     0.209 HD
ENDBRANCH  16  17
ENDBRANCH   5  16
BRANCH   1  19
HETATM   19  C2  UNL     1      -3.829   2.082  11.184  1.00  0.00     0.052 C 
HETATM   20  C1  UNL     1      -4.964   1.702  10.725  1.00  0.00     0.047 C 
BRANCH  19  21
HETATM   21  O1  UNL     1      -2.707   2.046  10.291  1.00  0.00    -0.360 OA
HETATM   22  C3  UNL     1      -1.736   1.019  10.467  1.00  0.00     0.209 C 
ENDBRANCH  19  21
ENDBRANCH   1  19
BRANCH   7  23
HETATM   23  O7  UNL     1      -3.156   4.840  11.735  1.00  0.00    -0.289 OA
BRANCH  23  24
HETATM   24  C12 UNL     1      -2.315   5.732  11.117  1.00  0.00     0.257 C 
HETATM   25  C13 UNL     1      -1.436   5.360   9.966  1.00  0.00     0.126 C 
HETATM   26  O8  UNL     1      -2.259   6.920  11.514  1.00  0.00    -0.266 OA
ENDBRANCH  23  24
ENDBRANCH   7  23
TORSDOF 10
ENDMDL
MODEL 5
REMARK VINA RESULT: -6.285049647      1.860      4.056
REMARK  10 active torsions:
REMARK  status: ('A' for Active; 'I' for Inactive)
REMARK    1  A    between atoms: C2_2  and  O1_3 
REMARK    2  A    between atoms: C2_2  and  C4_5 
REMARK    3  A    between atoms: C6_8  and  C7_9 
REMARK    4  A    between atoms: C7_9  and  C8_10 
REMARK    5  A    between atoms: C8_10  and  O3_11 
REMARK    6  A    between atoms: N1_13  and  O4_15 
REMARK    7  A    between atoms: C9_17  and  C10_18 
REMARK    8  A    between atoms: C10_18  and  O5_19 
REMARK    9  A    between atoms: C11_22  and  O7_23 
REMARK   10  A    between atoms: O7_23  and  C12_24 
ROOT
HETATM    1  C4  UNL     1      -3.047   2.981  12.400  1.00  0.00     0.167 C 
HETATM    2  C5  UNL     1      -4.351   2.900  13.068  1.00  0.00     0.149 C 
HETATM    3  O2  UNL     1      -5.451   2.860  12.600  1.00  0.00    -0.296 OA
HETATM    4  C6  UNL     1      -4.176   2.869  14.591  1.00  0.00     0.095 C 
HETATM    5  C9  UNL     1      -3.485   4.151  14.975  1.00  0.00     0.159 C 
HETATM    6  O6  UNL     1      -2.266   4.232  14.301  1.00  0.00    -0.351 OA
HETATM    7  C11 UNL     1      -2.286   4.158  12.943  1.00  0.00     0.287 C 
ENDROOT
BRANCH   4   8
HETATM    8  C7  UNL     1      -5.383   2.468  15.279  1.00  0.00     0.100 C 
BRANCH   8   9
HETATM    9  C8  UNL     1      -5.236   1.256  16.107  1.00  0.00     0.136 C 
HETATM   10  N1  UNL     1      -6.204   0.681  16.709  1.00  0.00    -0.251 N 
ATOM     11  H1  UNL     1      -7.151   1.053  16.636  1.00  0.00     0.196 HD
BRANCH   9  12
HETATM   12  O3  UNL     1      -3.924   0.748  16.202  1.00  0.00    -0.348 OA
ATOM     13  H3  UNL     1      -3.648   0.200  15.477  1.00  0.00     0.219 HD
ENDBRANCH   9  12
BRANCH  10  14
HETATM   14  O4  UNL     1      -5.957  -0.445  17.458  1.00  0.00    -0.288 OA
ATOM     15  H4  UNL     1      -5.148  -0.506  17.952  1.00  0.00     0.244 HD
ENDBRANCH  10  14
ENDBRANCH   8   9
ENDBRANCH   4   8
BRANCH   5  16
HETATM   16  C10 UNL     1      -4.312   5.394  14.740  1.00  0.00     0.197 C 
BRANCH  16  17
HETATM   17  O5  UNL     1      -3.622   6.584  14.927  1.00  0.00    -0.398 OA
ATOM     18  H5  UNL     1      -3.438   7.060  14.125  1.00  0.00     0.209 HD
ENDBRANCH  16  17
ENDBRANCH   5  16
BRANCH   1  19
HETATM   19  C2  UNL     1      -2.988   2.846  10.957  1.00  0.00     0.052 C 
HETATM   20  C1  UNL     1      -3.006   3.775  10.073  1.00  0.00     0.047 C 
BRANCH  19  21
HETATM   21  O1  UNL     1      -2.902   1.492  10.494  1.00  0.00    -0.360 OA
HETATM   22  C3  UNL     1      -1.760   0.723  10.860  1.00  0.00     0.209 C 
ENDBRANCH  19  21
ENDBRANCH   1  19
BRANCH   7  23
HETATM   23  O7  UNL     1      -2.534   5.369  12.296  1.00  0.00    -0.289 OA
BRANCH  23  24
HETATM   24  C12 UNL     1      -1.612   6.384  12.245  1.00  0.00     0.257 C 
HETATM   25  C13 UNL     1      -0.212   6.190  11.756  1.00  0.00     0.126 C 
HETATM   26  O8  UNL     1      -1.927   7.538  12.620  1.00  0.00    -0.266 OA
ENDBRANCH  23  24
ENDBRANCH   7  23
TORSDOF 10
ENDMDL
