MODEL 1
REMARK VINA RESULT: -7.652969786      0.000      0.000
REMARK  9 active torsions:
REMARK  status: ('A' for Active; 'I' for Inactive)
REMARK    1  A    between atoms: O1_2  and  C2_3 
REMARK    2  A    between atoms: C3_4  and  O2_5 
REMARK    3  A    between atoms: O2_5  and  C4_6 
REMARK    4  A    between atoms: C4_6  and  C5_7 
REMARK    5  A    between atoms: C6_10  and  C7_11 
REMARK    6  A    between atoms: C12_18  and  C13_19 
REMARK    7  A    between atoms: C13_19  and  O5_20 
REMARK    8  A    between atoms: C14_22  and  O6_23 
REMARK    9  A    between atoms: C15_25  and  O7_26 
ROOT
HETATM    1  C2  UNL     1      -4.463   3.171  11.610  1.00  0.00     0.207 C 
HETATM    2  C3  UNL     1      -3.315   3.022  12.642  1.00  0.00     0.292 C 
HETATM    3  O4  UNL     1      -2.361   2.317  11.975  1.00  0.00    -0.348 OA
HETATM    4  C12 UNL     1      -2.677   1.014  11.713  1.00  0.00     0.179 C 
HETATM    5  C14 UNL     1      -4.126   0.675  11.823  1.00  0.00     0.180 C 
HETATM    6  C15 UNL     1      -5.110   1.795  11.716  1.00  0.00     0.183 C 
ENDROOT
BRANCH   2   7
HETATM    7  O2  UNL     1      -2.796   4.218  13.046  1.00  0.00    -0.351 OA
BRANCH   7   8
HETATM    8  C4  UNL     1      -2.841   4.228  14.452  1.00  0.00     0.255 C 
BRANCH   8   9
HETATM    9  C5  UNL     1      -4.171   3.894  14.988  1.00  0.00     0.147 A 
HETATM   10  N1  UNL     1      -4.371   2.865  15.840  1.00  0.00    -0.340 N 
HETATM   11  C6  UNL     1      -5.698   2.824  16.148  1.00  0.00     0.041 A 
ATOM     12  H1  UNL     1      -3.655   2.231  16.192  1.00  0.00     0.167 HD
HETATM   13  C11 UNL     1      -6.259   3.827  15.479  1.00  0.00     0.169 A 
HETATM   14  O3  UNL     1      -5.316   4.465  14.783  1.00  0.00    -0.305 OA
BRANCH  11  15
HETATM   15  C7  UNL     1      -6.268   1.784  17.051  1.00  0.00    -0.007 C 
HETATM   16  C8  UNL     1      -7.698   1.462  16.652  1.00  0.00     0.021 C 
HETATM   17  C9  UNL     1      -6.231   2.262  18.449  1.00  0.00     0.021 C 
HETATM   18  C10 UNL     1      -5.476   0.522  16.795  1.00  0.00     0.021 C 
ENDBRANCH  11  15
ENDBRANCH   8   9
ENDBRANCH   7   8
ENDBRANCH   2   7
BRANCH   1  19
HETATM   19  O1  UNL     1      -3.941   3.270  10.342  1.00  0.00    -0.383 OA
HETATM   20  C1  UNL     1      -3.818   4.502   9.798  1.00  0.00     0.202 C 
ENDBRANCH   1  19
BRANCH   6  21
HETATM   21  O7  UNL     1      -6.087   1.609  10.748  1.00  0.00    -0.390 OA
ATOM     22  H7  UNL     1      -6.710   2.326  10.735  1.00  0.00     0.210 HD
ENDBRANCH   6  21
BRANCH   4  23
HETATM   23  C13 UNL     1      -2.067   0.602  10.405  1.00  0.00     0.198 C 
BRANCH  23  24
HETATM   24  O5  UNL     1      -2.981  -0.166   9.645  1.00  0.00    -0.398 OA
ATOM     25  H5  UNL     1      -3.502   0.392   9.082  1.00  0.00     0.209 HD
ENDBRANCH  23  24
ENDBRANCH   4  23
BRANCH   5  26
HETATM   26  O6  UNL     1      -4.395  -0.017  13.016  1.00  0.00    -0.390 OA
ATOM     27  H6  UNL     1      -5.065  -0.677  12.886  1.00  0.00     0.210 HD
ENDBRANCH   5  26
TORSDOF 9
ENDMDL
MODEL 2
REMARK VINA RESULT: -7.647681673      0.933      1.436
REMARK  9 active torsions:
REMARK  status: ('A' for Active; 'I' for Inactive)
REMARK    1  A    between atoms: O1_2  and  C2_3 
REMARK    2  A    between atoms: C3_4  and  O2_5 
REMARK    3  A    between atoms: O2_5  and  C4_6 
REMARK    4  A    between atoms: C4_6  and  C5_7 
REMARK    5  A    between atoms: C6_10  and  C7_11 
REMARK    6  A    between atoms: C12_18  and  C13_19 
REMARK    7  A    between atoms: C13_19  and  O5_20 
REMARK    8  A    between atoms: C14_22  and  O6_23 
REMARK    9  A    between atoms: C15_25  and  O7_26 
ROOT
HETATM    1  C2  UNL     1      -4.328   3.017  11.720  1.00  0.00     0.207 C 
HETATM    2  C3  UNL     1      -3.167   2.679  12.691  1.00  0.00     0.292 C 
HETATM    3  O4  UNL     1      -2.301   1.955  11.930  1.00  0.00    -0.348 OA
HETATM    4  C12 UNL     1      -2.741   0.712  11.570  1.00  0.00     0.179 C 
HETATM    5  C14 UNL     1      -4.210   0.492  11.707  1.00  0.00     0.180 C 
HETATM    6  C15 UNL     1      -5.093   1.698  11.734  1.00  0.00     0.183 C 
ENDROOT
BRANCH   2   7
HETATM    7  O2  UNL     1      -2.531   3.785  13.174  1.00  0.00    -0.351 OA
BRANCH   7   8
HETATM    8  C4  UNL     1      -3.401   4.381  14.107  1.00  0.00     0.255 C 
BRANCH   8   9
HETATM    9  C5  UNL     1      -3.948   3.419  15.079  1.00  0.00     0.147 A 
HETATM   10  N1  UNL     1      -5.185   3.548  15.606  1.00  0.00    -0.340 N 
HETATM   11  C6  UNL     1      -5.389   2.507  16.462  1.00  0.00     0.041 A 
ATOM     12  H1  UNL     1      -5.850   4.293  15.400  1.00  0.00     0.167 HD
HETATM   13  C11 UNL     1      -4.276   1.780  16.424  1.00  0.00     0.169 A 
HETATM   14  O3  UNL     1      -3.415   2.349  15.578  1.00  0.00    -0.305 OA
BRANCH  11  15
HETATM   15  C7  UNL     1      -6.652   2.358  17.238  1.00  0.00    -0.007 C 
HETATM   16  C8  UNL     1      -6.349   2.196  18.718  1.00  0.00     0.021 C 
HETATM   17  C9  UNL     1      -7.406   1.185  16.748  1.00  0.00     0.021 C 
HETATM   18  C10 UNL     1      -7.385   3.675  17.111  1.00  0.00     0.021 C 
ENDBRANCH  11  15
ENDBRANCH   8   9
ENDBRANCH   7   8
ENDBRANCH   2   7
BRANCH   1  19
HETATM   19  O1  UNL     1      -3.839   3.181  10.446  1.00  0.00    -0.383 OA
HETATM   20  C1  UNL     1      -3.696   4.442   9.976  1.00  0.00     0.202 C 
ENDBRANCH   1  19
BRANCH   6  21
HETATM   21  O7  UNL     1      -6.112   1.684  10.792  1.00  0.00    -0.390 OA
ATOM     22  H7  UNL     1      -6.213   0.826  10.395  1.00  0.00     0.210 HD
ENDBRANCH   6  21
BRANCH   4  23
HETATM   23  C13 UNL     1      -2.211   0.366  10.210  1.00  0.00     0.198 C 
BRANCH  23  24
HETATM   24  O5  UNL     1      -3.154  -0.399   9.484  1.00  0.00    -0.398 OA
ATOM     25  H5  UNL     1      -3.641   0.150   8.882  1.00  0.00     0.209 HD
ENDBRANCH  23  24
ENDBRANCH   4  23
BRANCH   5  26
HETATM   26  O6  UNL     1      -4.503  -0.277  12.846  1.00  0.00    -0.390 OA
ATOM     27  H6  UNL     1      -5.431  -0.470  12.900  1.00  0.00     0.210 HD
ENDBRANCH   5  26
TORSDOF 9
ENDMDL
MODEL 3
REMARK VINA RESULT: -7.621979366      1.062      1.534
REMARK  9 active torsions:
REMARK  status: ('A' for Active; 'I' for Inactive)
REMARK    1  A    between atoms: O1_2  and  C2_3 
REMARK    2  A    between atoms: C3_4  and  O2_5 
REMARK    3  A    between atoms: O2_5  and  C4_6 
REMARK    4  A    between atoms: C4_6  and  C5_7 
REMARK    5  A    between atoms: C6_10  and  C7_11 
REMARK    6  A    between atoms: C12_18  and  C13_19 
REMARK    7  A    between atoms: C13_19  and  O5_20 
REMARK    8  A    between atoms: C14_22  and  O6_23 
REMARK    9  A    between atoms: C15_25  and  O7_26 
ROOT
HETATM    1  C2  UNL     1      -2.920   3.860  11.349  1.00  0.00     0.207 C 
HETATM    2  C3  UNL     1      -3.225   3.068  12.646  1.00  0.00     0.292 C 
HETATM    3  O4  UNL     1      -2.842   1.795  12.354  1.00  0.00    -0.348 OA
HETATM    4  C12 UNL     1      -3.622   1.149  11.436  1.00  0.00     0.179 C 
HETATM    5  C14 UNL     1      -4.501   2.030  10.613  1.00  0.00     0.180 C 
HETATM    6  C15 UNL     1      -4.124   3.472  10.498  1.00  0.00     0.183 C 
ENDROOT
BRANCH   2   7
HETATM    7  O2  UNL     1      -2.523   3.516  13.727  1.00  0.00    -0.351 OA
BRANCH   7   8
HETATM    8  C4  UNL     1      -3.308   4.509  14.341  1.00  0.00     0.255 C 
BRANCH   8   9
HETATM    9  C5  UNL     1      -4.573   3.988  14.886  1.00  0.00     0.147 A 
HETATM   10  N1  UNL     1      -4.612   3.017  15.824  1.00  0.00    -0.340 N 
HETATM   11  C6  UNL     1      -5.919   2.764  16.116  1.00  0.00     0.041 A 
ATOM     12  H1  UNL     1      -3.804   2.555  16.241  1.00  0.00     0.167 HD
HETATM   13  C11 UNL     1      -6.629   3.589  15.353  1.00  0.00     0.169 A 
HETATM   14  O3  UNL     1      -5.795   4.324  14.615  1.00  0.00    -0.305 OA
BRANCH  11  15
HETATM   15  C7  UNL     1      -6.320   1.720  17.101  1.00  0.00    -0.007 C 
HETATM   16  C8  UNL     1      -7.734   1.241  16.818  1.00  0.00     0.021 C 
HETATM   17  C9  UNL     1      -6.240   2.267  18.471  1.00  0.00     0.021 C 
HETATM   18  C10 UNL     1      -5.424   0.529  16.844  1.00  0.00     0.021 C 
ENDBRANCH  11  15
ENDBRANCH   8   9
ENDBRANCH   7   8
ENDBRANCH   2   7
BRANCH   1  19
HETATM   19  O1  UNL     1      -1.809   3.336  10.732  1.00  0.00    -0.383 OA
HETATM   20  C1  UNL     1      -0.682   4.083  10.706  1.00  0.00     0.202 C 
ENDBRANCH   1  19
BRANCH   6  21
HETATM   21  O7  UNL     1      -4.003   3.931   9.194  1.00  0.00    -0.390 OA
ATOM     22  H7  UNL     1      -4.719   3.632   8.647  1.00  0.00     0.210 HD
ENDBRANCH   6  21
BRANCH   4  23
HETATM   23  C13 UNL     1      -2.772   0.222  10.617  1.00  0.00     0.198 C 
BRANCH  23  24
HETATM   24  O5  UNL     1      -3.516  -0.325   9.545  1.00  0.00    -0.398 OA
ATOM     25  H5  UNL     1      -2.945  -0.553   8.821  1.00  0.00     0.209 HD
ENDBRANCH  23  24
ENDBRANCH   4  23
BRANCH   5  26
HETATM   26  O6  UNL     1      -5.833   1.971  11.054  1.00  0.00    -0.390 OA
ATOM     27  H6  UNL     1      -6.366   2.627  10.622  1.00  0.00     0.210 HD
ENDBRANCH   5  26
TORSDOF 9
ENDMDL
MODEL 4
REMARK VINA RESULT: -7.139999141      0.820      1.302
REMARK  9 active torsions:
REMARK  status: ('A' for Active; 'I' for Inactive)
REMARK    1  A    between atoms: O1_2  and  C2_3 
REMARK    2  A    between atoms: C3_4  and  O2_5 
REMARK    3  A    between atoms: O2_5  and  C4_6 
REMARK    4  A    between atoms: C4_6  and  C5_7 
REMARK    5  A    between atoms: C6_10  and  C7_11 
REMARK    6  A    between atoms: C12_18  and  C13_19 
REMARK    7  A    between atoms: C13_19  and  O5_20 
REMARK    8  A    between atoms: C14_22  and  O6_23 
REMARK    9  A    between atoms: C15_25  and  O7_26 
ROOT
HETATM    1  C2  UNL     1      -4.277   3.161  11.382  1.00  0.00     0.207 C 
HETATM    2  C3  UNL     1      -3.183   3.216  12.479  1.00  0.00     0.292 C 
HETATM    3  O4  UNL     1      -2.038   2.892  11.820  1.00  0.00    -0.348 OA
HETATM    4  C12 UNL     1      -1.955   1.593  11.401  1.00  0.00     0.179 C 
HETATM    5  C14 UNL     1      -3.250   0.852  11.364  1.00  0.00     0.180 C 
HETATM    6  C15 UNL     1      -4.507   1.657  11.296  1.00  0.00     0.183 C 
ENDROOT
BRANCH   2   7
HETATM    7  O2  UNL     1      -3.047   4.451  13.042  1.00  0.00    -0.351 OA
BRANCH   7   8
HETATM    8  C4  UNL     1      -3.053   4.267  14.437  1.00  0.00     0.255 C 
BRANCH   8   9
HETATM    9  C5  UNL     1      -4.369   3.862  14.959  1.00  0.00     0.147 A 
HETATM   10  N1  UNL     1      -4.518   2.854  15.846  1.00  0.00    -0.340 N 
HETATM   11  C6  UNL     1      -5.845   2.731  16.128  1.00  0.00     0.041 A 
ATOM     12  H1  UNL     1      -3.768   2.284  16.237  1.00  0.00     0.167 HD
HETATM   13  C11 UNL     1      -6.458   3.668  15.409  1.00  0.00     0.169 A 
HETATM   14  O3  UNL     1      -5.546   4.344  14.709  1.00  0.00    -0.305 OA
BRANCH  11  15
HETATM   15  C7  UNL     1      -6.363   1.689  17.059  1.00  0.00    -0.007 C 
HETATM   16  C8  UNL     1      -5.499   0.442  16.990  1.00  0.00     0.021 C 
HETATM   17  C9  UNL     1      -7.759   1.354  16.709  1.00  0.00     0.021 C 
HETATM   18  C10 UNL     1      -6.178   2.241  18.455  1.00  0.00     0.021 C 
ENDBRANCH  11  15
ENDBRANCH   8   9
ENDBRANCH   7   8
ENDBRANCH   2   7
BRANCH   1  19
HETATM   19  O1  UNL     1      -3.750   3.554  10.175  1.00  0.00    -0.383 OA
HETATM   20  C1  UNL     1      -3.983   4.820   9.759  1.00  0.00     0.202 C 
ENDBRANCH   1  19
BRANCH   6  21
HETATM   21  O7  UNL     1      -5.346   1.323  10.242  1.00  0.00    -0.390 OA
ATOM     22  H7  UNL     1      -5.102   0.494   9.846  1.00  0.00     0.210 HD
ENDBRANCH   6  21
BRANCH   4  23
HETATM   23  C13 UNL     1      -1.194   1.528  10.109  1.00  0.00     0.198 C 
BRANCH  23  24
HETATM   24  O5  UNL     1      -1.018   2.823   9.566  1.00  0.00    -0.398 OA
ATOM     25  H5  UNL     1      -1.843   3.169   9.247  1.00  0.00     0.209 HD
ENDBRANCH  23  24
ENDBRANCH   4  23
BRANCH   5  26
HETATM   26  O6  UNL     1      -3.362  -0.026  12.455  1.00  0.00    -0.390 OA
ATOM     27  H6  UNL     1      -2.521  -0.410  12.673  1.00  0.00     0.210 HD
ENDBRANCH   5  26
TORSDOF 9
ENDMDL
MODEL 5
REMARK VINA RESULT: -6.825426918      3.134      6.160
REMARK  9 active torsions:
REMARK  status: ('A' for Active; 'I' for Inactive)
REMARK    1  A    between atoms: O1_2  and  C2_3 
REMARK    2  A    between atoms: C3_4  and  O2_5 
REMARK    3  A    between atoms: O2_5  and  C4_6 
REMARK    4  A    between atoms: C4_6  and  C5_7 
REMARK    5  A    between atoms: C6_10  and  C7_11 
REMARK    6  A    between atoms: C12_18  and  C13_19 
REMARK    7  A    between atoms: C13_19  and  O5_20 
REMARK    8  A    between atoms: C14_22  and  O6_23 
REMARK    9  A    between atoms: C15_25  and  O7_26 
ROOT
HETATM    1  C2  UNL     1      -3.819   1.786  11.507  1.00  0.00     0.207 C 
HETATM    2  C3  UNL     1      -4.170   3.238  11.089  1.00  0.00     0.292 C 
HETATM    3  O4  UNL     1      -3.371   4.010  11.875  1.00  0.00    -0.348 OA
HETATM    4  C12 UNL     1      -3.689   4.012  13.205  1.00  0.00     0.179 C 
HETATM    5  C14 UNL     1      -4.572   2.894  13.650  1.00  0.00     0.180 C 
HETATM    6  C15 UNL     1      -4.622   1.668  12.797  1.00  0.00     0.183 C 
ENDROOT
BRANCH   2   7
HETATM    7  O2  UNL     1      -3.903   3.499   9.777  1.00  0.00    -0.351 OA
BRANCH   7   8
HETATM    8  C4  UNL     1      -3.466   4.835   9.708  1.00  0.00     0.255 C 
BRANCH   8   9
HETATM    9  C5  UNL     1      -4.488   5.748   9.168  1.00  0.00     0.147 A 
HETATM   10  N1  UNL     1      -5.268   6.513   9.962  1.00  0.00    -0.340 N 
HETATM   11  C6  UNL     1      -6.100   7.239   9.163  1.00  0.00     0.041 A 
ATOM     12  H1  UNL     1      -5.239   6.543  10.981  1.00  0.00     0.167 HD
HETATM   13  C11 UNL     1      -5.797   6.896   7.914  1.00  0.00     0.169 A 
HETATM   14  O3  UNL     1      -4.816   5.993   7.938  1.00  0.00    -0.305 OA
BRANCH  11  15
HETATM   15  C7  UNL     1      -7.116   8.174   9.723  1.00  0.00    -0.007 C 
HETATM   16  C8  UNL     1      -6.689   9.615   9.501  1.00  0.00     0.021 C 
HETATM   17  C9  UNL     1      -7.289   7.918  11.168  1.00  0.00     0.021 C 
HETATM   18  C10 UNL     1      -8.367   7.984   8.895  1.00  0.00     0.021 C 
ENDBRANCH  11  15
ENDBRANCH   8   9
ENDBRANCH   7   8
ENDBRANCH   2   7
BRANCH   1  19
HETATM   19  O1  UNL     1      -2.491   1.708  11.854  1.00  0.00    -0.383 OA
HETATM   20  C1  UNL     1      -1.657   1.028  11.034  1.00  0.00     0.202 C 
ENDBRANCH   1  19
BRANCH   6  21
HETATM   21  O7  UNL     1      -4.342   0.488  13.472  1.00  0.00    -0.390 OA
ATOM     22  H7  UNL     1      -3.734   0.628  14.189  1.00  0.00     0.210 HD
ENDBRANCH   6  21
BRANCH   4  23
HETATM   23  C13 UNL     1      -2.437   4.144  14.021  1.00  0.00     0.198 C 
BRANCH  23  24
HETATM   24  O5  UNL     1      -1.299   3.802  13.253  1.00  0.00    -0.398 OA
ATOM     25  H5  UNL     1      -1.076   4.503  12.652  1.00  0.00     0.209 HD
ENDBRANCH  23  24
ENDBRANCH   4  23
BRANCH   5  26
HETATM   26  O6  UNL     1      -5.892   3.337  13.840  1.00  0.00    -0.390 OA
ATOM     27  H6  UNL     1      -6.354   2.780  14.455  1.00  0.00     0.210 HD
ENDBRANCH   5  26
TORSDOF 9
ENDMDL
