MODEL 1
REMARK VINA RESULT: -7.547864921      0.000      0.000
REMARK  10 active torsions:
REMARK  status: ('A' for Active; 'I' for Inactive)
REMARK    1  A    between atoms: C2_2  and  O1_5 
REMARK    2  A    between atoms: O1_5  and  C5_6 
REMARK    3  A    between atoms: C5_6  and  O2_7 
REMARK    4  A    between atoms: C5_6  and  C6_9 
REMARK    5  A    between atoms: C6_9  and  C7_10 
REMARK    6  A    between atoms: C7_10  and  O3_11 
REMARK    7  A    between atoms: O3_11  and  C8_12 
REMARK    8  A    between atoms: C10_14  and  O4_15 
REMARK    9  A    between atoms: C10_14  and  C11_17 
REMARK   10  A    between atoms: C15_22  and  O6_23 
ROOT
HETATM    1  C8  UNL     1      -3.825   3.810  12.615  1.00  0.00     0.185 C 
HETATM    2  C9  UNL     1      -4.519   2.712  12.457  1.00  0.00     0.105 C 
HETATM    3  C10 UNL     1      -4.629   2.052  11.163  1.00  0.00     0.197 C 
HETATM    4  O5  UNL     1      -4.232   2.748  10.082  1.00  0.00    -0.297 OA
HETATM    5  C15 UNL     1      -3.421   3.805  10.219  1.00  0.00     0.421 C 
HETATM    6  O7  UNL     1      -3.198   4.315  11.482  1.00  0.00    -0.275 OA
ENDROOT
BRANCH   1   7
HETATM    7  O3  UNL     1      -3.701   4.462  13.834  1.00  0.00    -0.330 OA
BRANCH   7   8
HETATM    8  C7  UNL     1      -4.345   3.879  14.951  1.00  0.00     0.182 C 
BRANCH   8   9
HETATM    9  C6  UNL     1      -3.426   2.907  15.668  1.00  0.00     0.087 C 
BRANCH   9  10
HETATM   10  C5  UNL     1      -4.337   1.918  16.401  1.00  0.00     0.259 C 
BRANCH  10  11
HETATM   11  O1  UNL     1      -5.630   2.083  15.975  1.00  0.00    -0.352 OA
BRANCH  11  12
HETATM   12  C2  UNL     1      -6.563   2.115  16.990  1.00  0.00     0.053 C 
HETATM   13  C1  UNL     1      -7.234   3.485  16.963  1.00  0.00     0.045 C 
HETATM   14  C3  UNL     1      -5.994   1.923  18.357  1.00  0.00     0.045 C 
HETATM   15  C4  UNL     1      -7.682   1.097  16.775  1.00  0.00     0.045 C 
ENDBRANCH  11  12
ENDBRANCH  10  11
BRANCH  10  16
HETATM   16  O2  UNL     1      -3.822   0.643  16.082  1.00  0.00    -0.371 OA
ATOM     17  H2  UNL     1      -2.960   0.688  15.685  1.00  0.00     0.212 HD
ENDBRANCH  10  16
ENDBRANCH   9  10
ENDBRANCH   8   9
ENDBRANCH   7   8
ENDBRANCH   1   7
BRANCH   3  18
HETATM   18  O4  UNL     1      -5.989   1.703  10.986  1.00  0.00    -0.361 OA
ATOM     19  H4  UNL     1      -6.215   1.095  11.680  1.00  0.00     0.213 HD
ENDBRANCH   3  18
BRANCH   3  20
HETATM   20  C11 UNL     1      -3.891   0.709  11.241  1.00  0.00     0.009 C 
HETATM   21  C12 UNL     1      -4.494  -0.189  10.172  1.00  0.00     0.020 C 
HETATM   22  C13 UNL     1      -2.419   0.861  11.033  1.00  0.00     0.020 C 
HETATM   23  C14 UNL     1      -4.124   0.058  12.595  1.00  0.00     0.020 C 
ENDBRANCH   3  20
BRANCH   5  24
HETATM   24  O6  UNL     1      -3.897   4.858   9.409  1.00  0.00    -0.349 OA
ATOM     25  H6  UNL     1      -4.720   5.174   9.763  1.00  0.00     0.215 HD
ENDBRANCH   5  24
TORSDOF 10
ENDMDL
MODEL 2
REMARK VINA RESULT: -7.503055616      1.225      1.654
REMARK  10 active torsions:
REMARK  status: ('A' for Active; 'I' for Inactive)
REMARK    1  A    between atoms: C2_2  and  O1_5 
REMARK    2  A    between atoms: O1_5  and  C5_6 
REMARK    3  A    between atoms: C5_6  and  O2_7 
REMARK    4  A    between atoms: C5_6  and  C6_9 
REMARK    5  A    between atoms: C6_9  and  C7_10 
REMARK    6  A    between atoms: C7_10  and  O3_11 
REMARK    7  A    between atoms: O3_11  and  C8_12 
REMARK    8  A    between atoms: C10_14  and  O4_15 
REMARK    9  A    between atoms: C10_14  and  C11_17 
REMARK   10  A    between atoms: C15_22  and  O6_23 
ROOT
HETATM    1  C8  UNL     1      -3.954   3.738  12.625  1.00  0.00     0.185 C 
HETATM    2  C9  UNL     1      -4.561   2.597  12.421  1.00  0.00     0.105 C 
HETATM    3  C10 UNL     1      -4.566   1.952  11.115  1.00  0.00     0.197 C 
HETATM    4  O5  UNL     1      -4.172   2.692  10.063  1.00  0.00    -0.297 OA
HETATM    5  C15 UNL     1      -3.445   3.801  10.250  1.00  0.00     0.421 C 
HETATM    6  O7  UNL     1      -3.315   4.304  11.528  1.00  0.00    -0.275 OA
ENDROOT
BRANCH   1   7
HETATM    7  O3  UNL     1      -3.931   4.377  13.857  1.00  0.00    -0.330 OA
BRANCH   7   8
HETATM    8  C7  UNL     1      -4.899   5.384  14.083  1.00  0.00     0.182 C 
BRANCH   8   9
HETATM    9  C6  UNL     1      -5.602   5.180  15.413  1.00  0.00     0.087 C 
BRANCH   9  10
HETATM   10  C5  UNL     1      -6.137   3.746  15.399  1.00  0.00     0.259 C 
BRANCH  10  11
HETATM   11  O1  UNL     1      -6.787   3.487  16.578  1.00  0.00    -0.352 OA
BRANCH  11  12
HETATM   12  C2  UNL     1      -6.431   2.295  17.174  1.00  0.00     0.053 C 
HETATM   13  C1  UNL     1      -7.494   1.260  16.817  1.00  0.00     0.045 C 
HETATM   14  C3  UNL     1      -6.344   2.351  18.663  1.00  0.00     0.045 C 
HETATM   15  C4  UNL     1      -5.115   1.748  16.624  1.00  0.00     0.045 C 
ENDBRANCH  11  12
ENDBRANCH  10  11
BRANCH  10  16
HETATM   16  O2  UNL     1      -7.000   3.689  14.283  1.00  0.00    -0.371 OA
ATOM     17  H2  UNL     1      -6.584   3.995  13.486  1.00  0.00     0.212 HD
ENDBRANCH  10  16
ENDBRANCH   9  10
ENDBRANCH   8   9
ENDBRANCH   7   8
ENDBRANCH   1   7
BRANCH   3  18
HETATM   18  O4  UNL     1      -5.889   1.511  10.871  1.00  0.00    -0.361 OA
ATOM     19  H4  UNL     1      -6.126   0.931  11.585  1.00  0.00     0.213 HD
ENDBRANCH   3  18
BRANCH   3  20
HETATM   20  C11 UNL     1      -3.739   0.663  11.208  1.00  0.00     0.009 C 
HETATM   21  C12 UNL     1      -4.170  -0.223  10.051  1.00  0.00     0.020 C 
HETATM   22  C13 UNL     1      -2.270   0.930  11.149  1.00  0.00     0.020 C 
HETATM   23  C14 UNL     1      -4.046  -0.066  12.506  1.00  0.00     0.020 C 
ENDBRANCH   3  20
BRANCH   5  24
HETATM   24  O6  UNL     1      -3.958   4.831   9.433  1.00  0.00    -0.349 OA
ATOM     25  H6  UNL     1      -3.978   5.640   9.931  1.00  0.00     0.215 HD
ENDBRANCH   5  24
TORSDOF 10
ENDMDL
MODEL 3
REMARK VINA RESULT: -7.176193525      1.067      1.705
REMARK  10 active torsions:
REMARK  status: ('A' for Active; 'I' for Inactive)
REMARK    1  A    between atoms: C2_2  and  O1_5 
REMARK    2  A    between atoms: O1_5  and  C5_6 
REMARK    3  A    between atoms: C5_6  and  O2_7 
REMARK    4  A    between atoms: C5_6  and  C6_9 
REMARK    5  A    between atoms: C6_9  and  C7_10 
REMARK    6  A    between atoms: C7_10  and  O3_11 
REMARK    7  A    between atoms: O3_11  and  C8_12 
REMARK    8  A    between atoms: C10_14  and  O4_15 
REMARK    9  A    between atoms: C10_14  and  C11_17 
REMARK   10  A    between atoms: C15_22  and  O6_23 
ROOT
HETATM    1  C8  UNL     1      -3.407   3.734  12.446  1.00  0.00     0.185 C 
HETATM    2  C9  UNL     1      -4.147   2.655  12.436  1.00  0.00     0.105 C 
HETATM    3  C10 UNL     1      -4.447   1.942  11.201  1.00  0.00     0.197 C 
HETATM    4  O5  UNL     1      -4.180   2.576  10.045  1.00  0.00    -0.297 OA
HETATM    5  C15 UNL     1      -3.329   3.610  10.021  1.00  0.00     0.421 C 
HETATM    6  O7  UNL     1      -2.925   4.167  11.217  1.00  0.00    -0.275 OA
ENDROOT
BRANCH   1   7
HETATM    7  O3  UNL     1      -3.103   4.435  13.605  1.00  0.00    -0.330 OA
BRANCH   7   8
HETATM    8  C7  UNL     1      -3.588   3.911  14.827  1.00  0.00     0.182 C 
BRANCH   8   9
HETATM    9  C6  UNL     1      -4.914   4.544  15.207  1.00  0.00     0.087 C 
BRANCH   9  10
HETATM   10  C5  UNL     1      -5.935   3.404  15.250  1.00  0.00     0.259 C 
BRANCH  10  11
HETATM   11  O1  UNL     1      -6.477   3.319  16.507  1.00  0.00    -0.352 OA
BRANCH  11  12
HETATM   12  C2  UNL     1      -6.392   2.068  17.079  1.00  0.00     0.053 C 
HETATM   13  C1  UNL     1      -6.345   2.250  18.593  1.00  0.00     0.045 C 
HETATM   14  C3  UNL     1      -5.180   1.290  16.685  1.00  0.00     0.045 C 
HETATM   15  C4  UNL     1      -7.633   1.221  16.799  1.00  0.00     0.045 C 
ENDBRANCH  11  12
ENDBRANCH  10  11
BRANCH  10  16
HETATM   16  O2  UNL     1      -6.895   3.737  14.270  1.00  0.00    -0.371 OA
ATOM     17  H2  UNL     1      -6.850   4.651  14.013  1.00  0.00     0.212 HD
ENDBRANCH  10  16
ENDBRANCH   9  10
ENDBRANCH   8   9
ENDBRANCH   7   8
ENDBRANCH   1   7
BRANCH   3  18
HETATM   18  O4  UNL     1      -5.828   1.631  11.223  1.00  0.00    -0.361 OA
ATOM     19  H4  UNL     1      -6.060   1.325  10.354  1.00  0.00     0.213 HD
ENDBRANCH   3  18
BRANCH   3  20
HETATM   20  C11 UNL     1      -3.743   0.580  11.245  1.00  0.00     0.009 C 
HETATM   21  C12 UNL     1      -4.102  -0.060  12.576  1.00  0.00     0.020 C 
HETATM   22  C13 UNL     1      -4.149  -0.302  10.109  1.00  0.00     0.020 C 
HETATM   23  C14 UNL     1      -2.235   0.766  11.198  1.00  0.00     0.020 C 
ENDBRANCH   3  20
BRANCH   5  24
HETATM   24  O6  UNL     1      -3.881   4.642   9.231  1.00  0.00    -0.349 OA
ATOM     25  H6  UNL     1      -3.559   4.556   8.342  1.00  0.00     0.215 HD
ENDBRANCH   5  24
TORSDOF 10
ENDMDL
MODEL 4
REMARK VINA RESULT: -7.123727294      1.552      6.366
REMARK  10 active torsions:
REMARK  status: ('A' for Active; 'I' for Inactive)
REMARK    1  A    between atoms: C2_2  and  O1_5 
REMARK    2  A    between atoms: O1_5  and  C5_6 
REMARK    3  A    between atoms: C5_6  and  O2_7 
REMARK    4  A    between atoms: C5_6  and  C6_9 
REMARK    5  A    between atoms: C6_9  and  C7_10 
REMARK    6  A    between atoms: C7_10  and  O3_11 
REMARK    7  A    between atoms: O3_11  and  C8_12 
REMARK    8  A    between atoms: C10_14  and  O4_15 
REMARK    9  A    between atoms: C10_14  and  C11_17 
REMARK   10  A    between atoms: C15_22  and  O6_23 
ROOT
HETATM    1  C8  UNL     1      -4.748   1.614  13.943  1.00  0.00     0.185 C 
HETATM    2  C9  UNL     1      -5.187   1.074  15.051  1.00  0.00     0.105 C 
HETATM    3  C10 UNL     1      -4.998   1.717  16.346  1.00  0.00     0.197 C 
HETATM    4  O5  UNL     1      -4.121   2.734  16.404  1.00  0.00    -0.297 OA
HETATM    5  C15 UNL     1      -3.754   3.376  15.288  1.00  0.00     0.421 C 
HETATM    6  O7  UNL     1      -4.090   2.832  14.065  1.00  0.00    -0.275 OA
ENDROOT
BRANCH   1   7
HETATM    7  O3  UNL     1      -4.912   1.028  12.696  1.00  0.00    -0.330 OA
BRANCH   7   8
HETATM    8  C7  UNL     1      -4.194  -0.165  12.440  1.00  0.00     0.182 C 
BRANCH   8   9
HETATM    9  C6  UNL     1      -3.209   0.022  11.301  1.00  0.00     0.087 C 
BRANCH   9  10
HETATM   10  C5  UNL     1      -3.438   1.438  10.764  1.00  0.00     0.259 C 
BRANCH  10  11
HETATM   11  O1  UNL     1      -2.370   1.813   9.989  1.00  0.00    -0.352 OA
BRANCH  11  12
HETATM   12  C2  UNL     1      -1.766   2.988  10.385  1.00  0.00     0.053 C 
HETATM   13  C1  UNL     1      -0.911   3.486   9.224  1.00  0.00     0.045 C 
HETATM   14  C3  UNL     1      -0.871   2.852  11.573  1.00  0.00     0.045 C 
HETATM   15  C4  UNL     1      -2.783   4.094  10.660  1.00  0.00     0.045 C 
ENDBRANCH  11  12
ENDBRANCH  10  11
BRANCH  10  16
HETATM   16  O2  UNL     1      -4.638   1.359  10.026  1.00  0.00    -0.371 OA
ATOM     17  H2  UNL     1      -5.319   1.920  10.379  1.00  0.00     0.212 HD
ENDBRANCH  10  16
ENDBRANCH   9  10
ENDBRANCH   8   9
ENDBRANCH   7   8
ENDBRANCH   1   7
BRANCH   3  18
HETATM   18  O4  UNL     1      -4.572   0.715  17.250  1.00  0.00    -0.361 OA
ATOM     19  H4  UNL     1      -3.733   0.993  17.600  1.00  0.00     0.213 HD
ENDBRANCH   3  18
BRANCH   3  20
HETATM   20  C11 UNL     1      -6.371   2.156  16.872  1.00  0.00     0.009 C 
HETATM   21  C12 UNL     1      -6.230   2.335  18.375  1.00  0.00     0.020 C 
HETATM   22  C13 UNL     1      -6.842   3.421  16.232  1.00  0.00     0.020 C 
HETATM   23  C14 UNL     1      -7.404   1.070  16.618  1.00  0.00     0.020 C 
ENDBRANCH   3  20
BRANCH   5  24
HETATM   24  O6  UNL     1      -2.354   3.564  15.304  1.00  0.00    -0.349 OA
ATOM     25  H6  UNL     1      -2.129   4.264  14.702  1.00  0.00     0.215 HD
ENDBRANCH   5  24
TORSDOF 10
ENDMDL
MODEL 5
REMARK VINA RESULT: -7.074749168      1.923      3.041
REMARK  10 active torsions:
REMARK  status: ('A' for Active; 'I' for Inactive)
REMARK    1  A    between atoms: C2_2  and  O1_5 
REMARK    2  A    between atoms: O1_5  and  C5_6 
REMARK    3  A    between atoms: C5_6  and  O2_7 
REMARK    4  A    between atoms: C5_6  and  C6_9 
REMARK    5  A    between atoms: C6_9  and  C7_10 
REMARK    6  A    between atoms: C7_10  and  O3_11 
REMARK    7  A    between atoms: O3_11  and  C8_12 
REMARK    8  A    between atoms: C10_14  and  O4_15 
REMARK    9  A    between atoms: C10_14  and  C11_17 
REMARK   10  A    between atoms: C15_22  and  O6_23 
ROOT
HETATM    1  C8  UNL     1      -3.642   4.089  12.727  1.00  0.00     0.185 C 
HETATM    2  C9  UNL     1      -2.456   3.620  12.432  1.00  0.00     0.105 C 
HETATM    3  C10 UNL     1      -2.210   2.869  11.207  1.00  0.00     0.197 C 
HETATM    4  O5  UNL     1      -3.286   2.431  10.529  1.00  0.00    -0.297 OA
HETATM    5  C15 UNL     1      -4.488   2.985  10.735  1.00  0.00     0.421 C 
HETATM    6  O7  UNL     1      -4.656   3.830  11.813  1.00  0.00    -0.275 OA
ENDROOT
BRANCH   1   7
HETATM    7  O3  UNL     1      -3.908   4.807  13.885  1.00  0.00    -0.330 OA
BRANCH   7   8
HETATM    8  C7  UNL     1      -5.166   5.449  13.975  1.00  0.00     0.182 C 
BRANCH   8   9
HETATM    9  C6  UNL     1      -5.845   5.141  15.297  1.00  0.00     0.087 C 
BRANCH   9  10
HETATM   10  C5  UNL     1      -6.039   3.623  15.335  1.00  0.00     0.259 C 
BRANCH  10  11
HETATM   11  O1  UNL     1      -6.865   3.292  16.379  1.00  0.00    -0.352 OA
BRANCH  11  12
HETATM   12  C2  UNL     1      -6.436   2.214  17.123  1.00  0.00     0.053 C 
HETATM   13  C1  UNL     1      -7.403   1.060  16.872  1.00  0.00     0.045 C 
HETATM   14  C3  UNL     1      -6.403   2.455  18.597  1.00  0.00     0.045 C 
HETATM   15  C4  UNL     1      -5.064   1.714  16.675  1.00  0.00     0.045 C 
ENDBRANCH  11  12
ENDBRANCH  10  11
BRANCH  10  16
HETATM   16  O2  UNL     1      -6.597   3.294  14.081  1.00  0.00    -0.371 OA
ATOM     17  H2  UNL     1      -5.934   3.104  13.427  1.00  0.00     0.212 HD
ENDBRANCH  10  16
ENDBRANCH   9  10
ENDBRANCH   8   9
ENDBRANCH   7   8
ENDBRANCH   1   7
BRANCH   3  18
HETATM   18  O4  UNL     1      -1.423   1.746  11.557  1.00  0.00    -0.361 OA
ATOM     19  H4  UNL     1      -1.708   1.023  11.010  1.00  0.00     0.213 HD
ENDBRANCH   3  18
BRANCH   3  20
HETATM   20  C11 UNL     1      -1.304   3.710  10.298  1.00  0.00     0.009 C 
HETATM   21  C12 UNL     1      -0.701   2.760   9.276  1.00  0.00     0.020 C 
HETATM   22  C13 UNL     1      -2.053   4.810   9.619  1.00  0.00     0.020 C 
HETATM   23  C14 UNL     1      -0.171   4.322  11.105  1.00  0.00     0.020 C 
ENDBRANCH   3  20
BRANCH   5  24
HETATM   24  O6  UNL     1      -5.455   1.961  10.837  1.00  0.00    -0.349 OA
ATOM     25  H6  UNL     1      -6.312   2.356  10.949  1.00  0.00     0.215 HD
ENDBRANCH   5  24
TORSDOF 10
ENDMDL
