MODEL 1
REMARK VINA RESULT: -6.017857809      0.000      0.000
REMARK  10 active torsions:
REMARK  status: ('A' for Active; 'I' for Inactive)
REMARK    1  A    between atoms: C2_2  and  S1_4 
REMARK    2  A    between atoms: S1_4  and  S2_5 
REMARK    3  A    between atoms: S2_5  and  C3_6 
REMARK    4  A    between atoms: C4_8  and  C5_9 
REMARK    5  A    between atoms: C5_9  and  O3_10 
REMARK    6  A    between atoms: C6_12  and  O4_13 
REMARK    7  A    between atoms: C7_15  and  O5_16 
REMARK    8  A    between atoms: C8_18  and  C9_19 
REMARK    9  A    between atoms: C9_19  and  N1_20 
REMARK   10  A    between atoms: N1_20  and  C10_22 
ROOT
HETATM    1  C3  UNL     1      -4.490   1.924  13.178  1.00  0.00     0.203 C 
HETATM    2  O2  UNL     1      -5.292   1.012  12.558  1.00  0.00    -0.364 OA
HETATM    3  C4  UNL     1      -4.607   0.302  11.610  1.00  0.00     0.177 C 
HETATM    4  C6  UNL     1      -3.879   1.122  10.587  1.00  0.00     0.178 C 
HETATM    5  C7  UNL     1      -3.045   2.232  11.162  1.00  0.00     0.158 C 
HETATM    6  C8  UNL     1      -3.898   2.940  12.192  1.00  0.00     0.074 C 
ENDROOT
BRANCH   1   7
HETATM    7  S2  UNL     1      -5.277   2.843  14.499  1.00  0.00    -0.057 SA
BRANCH   7   8
HETATM    8  S1  UNL     1      -4.748   1.954  16.357  1.00  0.00    -0.018 SA
BRANCH   8   9
HETATM    9  C2  UNL     1      -6.087   0.858  16.817  1.00  0.00     0.192 C 
HETATM   10  C1  UNL     1      -7.465   1.434  16.916  1.00  0.00     0.105 C 
HETATM   11  O1  UNL     1      -5.946  -0.311  17.052  1.00  0.00    -0.285 OA
ENDBRANCH   8   9
ENDBRANCH   7   8
ENDBRANCH   1   7
BRANCH   6  12
HETATM   12  C9  UNL     1      -3.149   3.950  12.998  1.00  0.00     0.130 C 
BRANCH  12  13
HETATM   13  N1  UNL     1      -1.730   3.890  12.834  1.00  0.00    -0.390 N 
ATOM     14  H1  UNL     1      -1.281   2.976  12.888  1.00  0.00     0.159 HD
BRANCH  13  15
HETATM   15  C10 UNL     1      -0.994   4.902  12.626  1.00  0.00     0.165 C 
HETATM   16  S3  UNL     1      -0.129   6.036  11.845  1.00  0.00    -0.075 SA
ENDBRANCH  13  15
ENDBRANCH  12  13
ENDBRANCH   6  12
BRANCH   3  17
HETATM   17  C5  UNL     1      -3.671  -0.735  12.180  1.00  0.00     0.198 C 
BRANCH  17  18
HETATM   18  O3  UNL     1      -3.848  -1.951  11.527  1.00  0.00    -0.398 OA
ATOM     19  H3  UNL     1      -3.093  -2.144  10.983  1.00  0.00     0.209 HD
ENDBRANCH  17  18
ENDBRANCH   3  17
BRANCH   5  20
HETATM   20  O5  UNL     1      -2.800   3.141  10.132  1.00  0.00    -0.392 OA
ATOM     21  H5  UNL     1      -2.645   3.988  10.534  1.00  0.00     0.210 HD
ENDBRANCH   5  20
BRANCH   4  22
HETATM   22  O4  UNL     1      -3.012   0.250   9.901  1.00  0.00    -0.390 OA
ATOM     23  H4  UNL     1      -2.348   0.789   9.487  1.00  0.00     0.210 HD
ENDBRANCH   4  22
TORSDOF 10
ENDMDL
MODEL 2
REMARK VINA RESULT: -5.959821800      1.849      2.246
REMARK  10 active torsions:
REMARK  status: ('A' for Active; 'I' for Inactive)
REMARK    1  A    between atoms: C2_2  and  S1_4 
REMARK    2  A    between atoms: S1_4  and  S2_5 
REMARK    3  A    between atoms: S2_5  and  C3_6 
REMARK    4  A    between atoms: C4_8  and  C5_9 
REMARK    5  A    between atoms: C5_9  and  O3_10 
REMARK    6  A    between atoms: C6_12  and  O4_13 
REMARK    7  A    between atoms: C7_15  and  O5_16 
REMARK    8  A    between atoms: C8_18  and  C9_19 
REMARK    9  A    between atoms: C9_19  and  N1_20 
REMARK   10  A    between atoms: N1_20  and  C10_22 
ROOT
HETATM    1  C3  UNL     1      -4.585   2.970  13.327  1.00  0.00     0.203 C 
HETATM    2  O2  UNL     1      -5.246   2.389  12.286  1.00  0.00    -0.364 OA
HETATM    3  C4  UNL     1      -4.449   2.287  11.178  1.00  0.00     0.177 C 
HETATM    4  C6  UNL     1      -3.805   3.564  10.726  1.00  0.00     0.178 C 
HETATM    5  C7  UNL     1      -3.136   4.343  11.823  1.00  0.00     0.158 C 
HETATM    6  C8  UNL     1      -4.100   4.386  12.988  1.00  0.00     0.074 C 
ENDROOT
BRANCH   1   7
HETATM    7  S2  UNL     1      -5.519   3.065  14.852  1.00  0.00    -0.057 SA
BRANCH   7   8
HETATM    8  S1  UNL     1      -4.699   1.679  16.242  1.00  0.00    -0.018 SA
BRANCH   8   9
HETATM    9  C2  UNL     1      -6.064   0.728  16.904  1.00  0.00     0.192 C 
HETATM   10  C1  UNL     1      -7.405   1.387  16.988  1.00  0.00     0.105 C 
HETATM   11  O1  UNL     1      -5.968  -0.407  17.285  1.00  0.00    -0.285 OA
ENDBRANCH   8   9
ENDBRANCH   7   8
ENDBRANCH   1   7
BRANCH   6  12
HETATM   12  C9  UNL     1      -3.509   4.959  14.234  1.00  0.00     0.130 C 
BRANCH  12  13
HETATM   13  N1  UNL     1      -3.700   6.369  14.374  1.00  0.00    -0.390 N 
ATOM     14  H1  UNL     1      -4.657   6.721  14.407  1.00  0.00     0.159 HD
BRANCH  13  15
HETATM   15  C10 UNL     1      -2.755   7.209  14.461  1.00  0.00     0.165 C 
HETATM   16  S3  UNL     1      -1.840   8.442  15.001  1.00  0.00    -0.075 SA
ENDBRANCH  13  15
ENDBRANCH  12  13
ENDBRANCH   6  12
BRANCH   3  17
HETATM   17  C5  UNL     1      -3.404   1.204  11.271  1.00  0.00     0.198 C 
BRANCH  17  18
HETATM   18  O3  UNL     1      -3.448   0.397  10.139  1.00  0.00    -0.398 OA
ATOM     19  H3  UNL     1      -3.306  -0.512  10.378  1.00  0.00     0.209 HD
ENDBRANCH  17  18
ENDBRANCH   3  17
BRANCH   5  20
HETATM   20  O5  UNL     1      -2.980   5.652  11.365  1.00  0.00    -0.392 OA
ATOM     21  H5  UNL     1      -3.610   6.190  11.831  1.00  0.00     0.210 HD
ENDBRANCH   5  20
BRANCH   4  22
HETATM   22  O4  UNL     1      -2.814   3.215   9.788  1.00  0.00    -0.390 OA
ATOM     23  H4  UNL     1      -2.206   2.635  10.229  1.00  0.00     0.210 HD
ENDBRANCH   4  22
TORSDOF 10
ENDMDL
MODEL 3
REMARK VINA RESULT: -5.895446583      1.428      1.542
REMARK  10 active torsions:
REMARK  status: ('A' for Active; 'I' for Inactive)
REMARK    1  A    between atoms: C2_2  and  S1_4 
REMARK    2  A    between atoms: S1_4  and  S2_5 
REMARK    3  A    between atoms: S2_5  and  C3_6 
REMARK    4  A    between atoms: C4_8  and  C5_9 
REMARK    5  A    between atoms: C5_9  and  O3_10 
REMARK    6  A    between atoms: C6_12  and  O4_13 
REMARK    7  A    between atoms: C7_15  and  O5_16 
REMARK    8  A    between atoms: C8_18  and  C9_19 
REMARK    9  A    between atoms: C9_19  and  N1_20 
REMARK   10  A    between atoms: N1_20  and  C10_22 
ROOT
HETATM    1  C3  UNL     1      -4.497   1.972  13.207  1.00  0.00     0.203 C 
HETATM    2  O2  UNL     1      -5.298   1.068  12.574  1.00  0.00    -0.364 OA
HETATM    3  C4  UNL     1      -4.612   0.368  11.620  1.00  0.00     0.177 C 
HETATM    4  C6  UNL     1      -3.880   1.200  10.609  1.00  0.00     0.178 C 
HETATM    5  C7  UNL     1      -3.046   2.302  11.199  1.00  0.00     0.158 C 
HETATM    6  C8  UNL     1      -3.900   2.998  12.236  1.00  0.00     0.074 C 
ENDROOT
BRANCH   1   7
HETATM    7  S2  UNL     1      -5.286   2.876  14.537  1.00  0.00    -0.057 SA
BRANCH   7   8
HETATM    8  S1  UNL     1      -4.762   1.965  16.386  1.00  0.00    -0.018 SA
BRANCH   8   9
HETATM    9  C2  UNL     1      -6.103   0.864  16.830  1.00  0.00     0.192 C 
HETATM   10  C1  UNL     1      -7.484   1.435  16.908  1.00  0.00     0.105 C 
HETATM   11  O1  UNL     1      -5.960  -0.303  17.070  1.00  0.00    -0.285 OA
ENDBRANCH   8   9
ENDBRANCH   7   8
ENDBRANCH   1   7
BRANCH   6  12
HETATM   12  C9  UNL     1      -3.152   3.998  13.055  1.00  0.00     0.130 C 
BRANCH  12  13
HETATM   13  N1  UNL     1      -3.207   5.331  12.542  1.00  0.00    -0.390 N 
ATOM     14  H1  UNL     1      -2.327   5.797  12.326  1.00  0.00     0.159 HD
BRANCH  13  15
HETATM   15  C10 UNL     1      -4.284   5.970  12.339  1.00  0.00     0.165 C 
HETATM   16  S3  UNL     1      -5.414   6.880  11.603  1.00  0.00    -0.075 SA
ENDBRANCH  13  15
ENDBRANCH  12  13
ENDBRANCH   6  12
BRANCH   3  17
HETATM   17  C5  UNL     1      -3.679  -0.677  12.180  1.00  0.00     0.198 C 
BRANCH  17  18
HETATM   18  O3  UNL     1      -3.848  -1.881  11.505  1.00  0.00    -0.398 OA
ATOM     19  H3  UNL     1      -4.144  -2.555  12.106  1.00  0.00     0.209 HD
ENDBRANCH  17  18
ENDBRANCH   3  17
BRANCH   5  20
HETATM   20  O5  UNL     1      -2.796   3.222  10.181  1.00  0.00    -0.392 OA
ATOM     21  H5  UNL     1      -2.810   2.745   9.359  1.00  0.00     0.210 HD
ENDBRANCH   5  20
BRANCH   4  22
HETATM   22  O4  UNL     1      -3.012   0.335   9.915  1.00  0.00    -0.390 OA
ATOM     23  H4  UNL     1      -2.411   0.882   9.423  1.00  0.00     0.210 HD
ENDBRANCH   4  22
TORSDOF 10
ENDMDL
MODEL 4
REMARK VINA RESULT: -5.892422908      1.395      1.437
REMARK  10 active torsions:
REMARK  status: ('A' for Active; 'I' for Inactive)
REMARK    1  A    between atoms: C2_2  and  S1_4 
REMARK    2  A    between atoms: S1_4  and  S2_5 
REMARK    3  A    between atoms: S2_5  and  C3_6 
REMARK    4  A    between atoms: C4_8  and  C5_9 
REMARK    5  A    between atoms: C5_9  and  O3_10 
REMARK    6  A    between atoms: C6_12  and  O4_13 
REMARK    7  A    between atoms: C7_15  and  O5_16 
REMARK    8  A    between atoms: C8_18  and  C9_19 
REMARK    9  A    between atoms: C9_19  and  N1_20 
REMARK   10  A    between atoms: N1_20  and  C10_22 
ROOT
HETATM    1  C3  UNL     1      -3.893   2.595  13.325  1.00  0.00     0.203 C 
HETATM    2  O2  UNL     1      -5.046   1.934  13.018  1.00  0.00    -0.364 OA
HETATM    3  C4  UNL     1      -4.845   1.003  12.036  1.00  0.00     0.177 C 
HETATM    4  C6  UNL     1      -4.197   1.513  10.783  1.00  0.00     0.178 C 
HETATM    5  C7  UNL     1      -2.971   2.350  11.016  1.00  0.00     0.158 C 
HETATM    6  C8  UNL     1      -3.308   3.334  12.115  1.00  0.00     0.074 C 
ENDROOT
BRANCH   1   7
HETATM    7  S2  UNL     1      -4.037   3.775  14.666  1.00  0.00    -0.057 SA
BRANCH   7   8
HETATM    8  S1  UNL     1      -5.479   3.056  16.055  1.00  0.00    -0.018 SA
BRANCH   8   9
HETATM    9  C2  UNL     1      -4.975   1.406  16.531  1.00  0.00     0.192 C 
HETATM   10  C1  UNL     1      -5.976   0.539  17.228  1.00  0.00     0.105 C 
HETATM   11  O1  UNL     1      -3.882   0.953  16.327  1.00  0.00    -0.285 OA
ENDBRANCH   8   9
ENDBRANCH   7   8
ENDBRANCH   1   7
BRANCH   6  12
HETATM   12  C9  UNL     1      -2.130   4.113  12.602  1.00  0.00     0.130 C 
BRANCH  12  13
HETATM   13  N1  UNL     1      -0.868   3.534  12.265  1.00  0.00    -0.390 N 
ATOM     14  H1  UNL     1      -0.666   2.595  12.606  1.00  0.00     0.159 HD
BRANCH  13  15
HETATM   15  C10 UNL     1       0.018   4.116  11.568  1.00  0.00     0.165 C 
HETATM   16  S3  UNL     1       1.292   4.342  10.582  1.00  0.00    -0.075 SA
ENDBRANCH  13  15
ENDBRANCH  12  13
ENDBRANCH   6  12
BRANCH   3  17
HETATM   17  C5  UNL     1      -4.123  -0.236  12.505  1.00  0.00     0.198 C 
BRANCH  17  18
HETATM   18  O3  UNL     1      -4.584  -0.612  13.762  1.00  0.00    -0.398 OA
ATOM     19  H3  UNL     1      -3.975  -1.221  14.165  1.00  0.00     0.209 HD
ENDBRANCH  17  18
ENDBRANCH   3  17
BRANCH   5  20
HETATM   20  O5  UNL     1      -2.748   3.089   9.853  1.00  0.00    -0.392 OA
ATOM     21  H5  UNL     1      -3.200   3.919   9.955  1.00  0.00     0.210 HD
ENDBRANCH   5  20
BRANCH   4  22
HETATM   22  O4  UNL     1      -3.807   0.387  10.033  1.00  0.00    -0.390 OA
ATOM     23  H4  UNL     1      -4.518   0.192   9.436  1.00  0.00     0.210 HD
ENDBRANCH   4  22
TORSDOF 10
ENDMDL
MODEL 5
REMARK VINA RESULT: -5.881672300      2.550      4.300
REMARK  10 active torsions:
REMARK  status: ('A' for Active; 'I' for Inactive)
REMARK    1  A    between atoms: C2_2  and  S1_4 
REMARK    2  A    between atoms: S1_4  and  S2_5 
REMARK    3  A    between atoms: S2_5  and  C3_6 
REMARK    4  A    between atoms: C4_8  and  C5_9 
REMARK    5  A    between atoms: C5_9  and  O3_10 
REMARK    6  A    between atoms: C6_12  and  O4_13 
REMARK    7  A    between atoms: C7_15  and  O5_16 
REMARK    8  A    between atoms: C8_18  and  C9_19 
REMARK    9  A    between atoms: C9_19  and  N1_20 
REMARK   10  A    between atoms: N1_20  and  C10_22 
ROOT
HETATM    1  C3  UNL     1      -4.033   3.325  13.166  1.00  0.00     0.203 C 
HETATM    2  O2  UNL     1      -2.930   3.604  13.918  1.00  0.00    -0.364 OA
HETATM    3  C4  UNL     1      -1.981   4.270  13.192  1.00  0.00     0.177 C 
HETATM    4  C6  UNL     1      -1.572   3.615  11.907  1.00  0.00     0.178 C 
HETATM    5  C7  UNL     1      -2.719   3.167  11.046  1.00  0.00     0.158 C 
HETATM    6  C8  UNL     1      -3.699   2.452  11.950  1.00  0.00     0.074 C 
ENDROOT
BRANCH   1   7
HETATM    7  S2  UNL     1      -5.369   2.531  14.056  1.00  0.00    -0.057 SA
BRANCH   7   8
HETATM    8  S1  UNL     1      -4.651   1.918  15.962  1.00  0.00    -0.018 SA
BRANCH   8   9
HETATM    9  C2  UNL     1      -5.918   0.889  16.697  1.00  0.00     0.192 C 
HETATM   10  C1  UNL     1      -7.220   1.531  17.063  1.00  0.00     0.105 C 
HETATM   11  O1  UNL     1      -5.786  -0.285  16.915  1.00  0.00    -0.285 OA
ENDBRANCH   8   9
ENDBRANCH   7   8
ENDBRANCH   1   7
BRANCH   6  12
HETATM   12  C9  UNL     1      -4.992   2.113  11.283  1.00  0.00     0.130 C 
BRANCH  12  13
HETATM   13  N1  UNL     1      -4.987   0.853  10.608  1.00  0.00    -0.390 N 
ATOM     14  H1  UNL     1      -5.377   0.813   9.667  1.00  0.00     0.159 HD
BRANCH  13  15
HETATM   15  C10 UNL     1      -4.527  -0.219  11.106  1.00  0.00     0.165 C 
HETATM   16  S3  UNL     1      -3.492  -1.415  11.486  1.00  0.00    -0.075 SA
ENDBRANCH  13  15
ENDBRANCH  12  13
ENDBRANCH   6  12
BRANCH   3  17
HETATM   17  C5  UNL     1      -2.313   5.718  12.932  1.00  0.00     0.198 C 
BRANCH  17  18
HETATM   18  O3  UNL     1      -1.257   6.531  13.330  1.00  0.00    -0.398 OA
ATOM     19  H3  UNL     1      -1.329   6.733  14.256  1.00  0.00     0.209 HD
ENDBRANCH  17  18
ENDBRANCH   3  17
BRANCH   5  20
HETATM   20  O5  UNL     1      -2.219   2.224  10.148  1.00  0.00    -0.392 OA
ATOM     21  H5  UNL     1      -2.959   1.720   9.827  1.00  0.00     0.210 HD
ENDBRANCH   5  20
BRANCH   4  22
HETATM   22  O4  UNL     1      -0.837   4.567  11.175  1.00  0.00    -0.390 OA
ATOM     23  H4  UNL     1      -1.101   4.482  10.266  1.00  0.00     0.210 HD
ENDBRANCH   4  22
TORSDOF 10
ENDMDL
