MODEL 1
REMARK VINA RESULT: -6.695398826      0.000      0.000
REMARK  7 active torsions:
REMARK  status: ('A' for Active; 'I' for Inactive)
REMARK    1  A    between atoms: C6_6  and  O1_7 
REMARK    2  A    between atoms: C7_9  and  C8_10 
REMARK    3  A    between atoms: C8_10  and  N1_11 
REMARK    4  A    between atoms: N1_11  and  C9_14 
REMARK    5  A    between atoms: C9_14  and  C10_15 
REMARK    6  A    between atoms: C10_15  and  C11_16 
REMARK    7  A    between atoms: C11_16  and  N2_17 
ROOT
HETATM    1  C1  UNL     1      -5.956   5.186  15.202  1.00  0.00     0.010 C 
HETATM    2  C2  UNL     1      -4.494   5.224  14.900  1.00  0.00    -0.005 C 
HETATM    3  C3  UNL     1      -4.103   6.341  13.957  1.00  0.00     0.076 C 
HETATM    4  C4  UNL     1      -4.556   6.030  12.590  1.00  0.00     0.203 C 
HETATM    5  C5  UNL     1      -3.987   4.759  12.062  1.00  0.00     0.103 C 
HETATM    6  C6  UNL     1      -4.253   3.605  13.002  1.00  0.00     0.129 C 
HETATM    7  C7  UNL     1      -3.914   3.932  14.413  1.00  0.00     0.044 C 
HETATM    8  O2  UNL     1      -5.935   5.976  12.397  1.00  0.00    -0.197 OA
HETATM    9  O3  UNL     1      -5.930   5.995  11.052  1.00  0.00    -0.197 OA
HETATM   10  C12 UNL     1      -5.256   7.192  10.836  1.00  0.00     0.204 C 
HETATM   11  C13 UNL     1      -6.235   8.296  11.100  1.00  0.00     0.098 C 
HETATM   12  C14 UNL     1      -6.029   9.562  10.369  1.00  0.00     0.173 C 
HETATM   13  O4  UNL     1      -5.144   9.520   9.315  1.00  0.00    -0.391 OA
HETATM   14  C15 UNL     1      -5.222   8.330   8.590  1.00  0.00     0.173 C 
HETATM   15  C16 UNL     1      -4.636   7.249   9.464  1.00  0.00     0.098 C 
HETATM   16  O5  UNL     1      -4.225   7.115  11.771  1.00  0.00    -0.313 OA
ENDROOT
BRANCH   7  17
HETATM   17  C8  UNL     1      -4.237   2.848  15.389  1.00  0.00     0.239 C 
BRANCH  17  18
HETATM   18  N1  UNL     1      -4.176   1.535  14.849  1.00  0.00    -0.075 N 
ATOM     19  H12 UNL     1      -4.636   1.483  13.941  1.00  0.00     0.277 HD
ATOM     20  H11 UNL     1      -3.228   1.294  14.559  1.00  0.00     0.277 HD
BRANCH  18  21
HETATM   21  C9  UNL     1      -4.707   0.565  15.765  1.00  0.00     0.233 C 
BRANCH  21  22
HETATM   22  C10 UNL     1      -5.308   1.254  16.944  1.00  0.00     0.055 C 
BRANCH  22  23
HETATM   23  C11 UNL     1      -6.749   0.819  17.129  1.00  0.00     0.231 C 
BRANCH  23  24
HETATM   24  N2  UNL     1      -7.576   1.960  16.753  1.00  0.00    -0.079 N 
ATOM     25  H23 UNL     1      -8.099   2.354  17.535  1.00  0.00     0.274 HD
ATOM     26  H22 UNL     1      -7.035   2.794  16.529  1.00  0.00     0.274 HD
ATOM     27  H21 UNL     1      -8.171   1.645  15.987  1.00  0.00     0.274 HD
ENDBRANCH  23  24
ENDBRANCH  22  23
ENDBRANCH  21  22
ENDBRANCH  18  21
ENDBRANCH  17  18
ENDBRANCH   7  17
BRANCH   6  28
HETATM   28  O1  UNL     1      -5.508   3.076  12.929  1.00  0.00    -0.395 OA
ATOM     29  H1  UNL     1      -6.182   3.576  13.373  1.00  0.00     0.210 HD
ENDBRANCH   6  28
TORSDOF 7
ENDMDL
MODEL 2
REMARK VINA RESULT: -6.475452558      2.874      7.164
REMARK  7 active torsions:
REMARK  status: ('A' for Active; 'I' for Inactive)
REMARK    1  A    between atoms: C6_6  and  O1_7 
REMARK    2  A    between atoms: C7_9  and  C8_10 
REMARK    3  A    between atoms: C8_10  and  N1_11 
REMARK    4  A    between atoms: N1_11  and  C9_14 
REMARK    5  A    between atoms: C9_14  and  C10_15 
REMARK    6  A    between atoms: C10_15  and  C11_16 
REMARK    7  A    between atoms: C11_16  and  N2_17 
ROOT
HETATM    1  C1  UNL     1      -3.824   4.497  10.304  1.00  0.00     0.010 C 
HETATM    2  C2  UNL     1      -2.982   5.161  11.344  1.00  0.00    -0.005 C 
HETATM    3  C3  UNL     1      -2.665   4.267  12.522  1.00  0.00     0.076 C 
HETATM    4  C4  UNL     1      -3.865   4.087  13.358  1.00  0.00     0.203 C 
HETATM    5  C5  UNL     1      -4.407   5.370  13.883  1.00  0.00     0.103 C 
HETATM    6  C6  UNL     1      -4.660   6.359  12.768  1.00  0.00     0.129 C 
HETATM    7  C7  UNL     1      -3.505   6.474  11.839  1.00  0.00     0.044 C 
HETATM    8  O2  UNL     1      -4.926   3.401  12.769  1.00  0.00    -0.197 OA
HETATM    9  O3  UNL     1      -5.640   3.178  13.886  1.00  0.00    -0.197 OA
HETATM   10  C12 UNL     1      -4.699   2.473  14.629  1.00  0.00     0.204 C 
HETATM   11  C13 UNL     1      -4.660   1.081  14.073  1.00  0.00     0.098 C 
HETATM   12  C14 UNL     1      -4.279  -0.000  15.003  1.00  0.00     0.173 C 
HETATM   13  O4  UNL     1      -4.273   0.321  16.342  1.00  0.00    -0.391 OA
HETATM   14  C15 UNL     1      -5.316   1.176  16.697  1.00  0.00     0.173 C 
HETATM   15  C16 UNL     1      -4.994   2.526  16.106  1.00  0.00     0.098 C 
HETATM   16  O5  UNL     1      -3.538   3.208  14.396  1.00  0.00    -0.313 OA
ENDROOT
BRANCH   7  17
HETATM   17  C8  UNL     1      -3.742   7.380  10.675  1.00  0.00     0.239 C 
BRANCH  17  18
HETATM   18  N1  UNL     1      -4.402   8.595  11.001  1.00  0.00    -0.075 N 
ATOM     19  H12 UNL     1      -4.877   8.531  11.901  1.00  0.00     0.277 HD
ATOM     20  H11 UNL     1      -3.735   9.333  11.227  1.00  0.00     0.277 HD
BRANCH  18  21
HETATM   21  C9  UNL     1      -5.303   9.000   9.959  1.00  0.00     0.233 C 
BRANCH  21  22
HETATM   22  C10 UNL     1      -6.711   8.922  10.445  1.00  0.00     0.055 C 
BRANCH  22  23
HETATM   23  C11 UNL     1      -7.565   8.149   9.457  1.00  0.00     0.231 C 
BRANCH  23  24
HETATM   24  N2  UNL     1      -7.018   6.798   9.409  1.00  0.00    -0.079 N 
ATOM     25  H23 UNL     1      -6.653   6.477  10.305  1.00  0.00     0.274 HD
ATOM     26  H22 UNL     1      -7.731   6.078   9.297  1.00  0.00     0.274 HD
ATOM     27  H21 UNL     1      -6.321   6.796   8.665  1.00  0.00     0.274 HD
ENDBRANCH  23  24
ENDBRANCH  22  23
ENDBRANCH  21  22
ENDBRANCH  18  21
ENDBRANCH  17  18
ENDBRANCH   7  17
BRANCH   6  28
HETATM   28  O1  UNL     1      -5.812   6.158  12.066  1.00  0.00    -0.395 OA
ATOM     29  H1  UNL     1      -5.874   6.637  11.249  1.00  0.00     0.210 HD
ENDBRANCH   6  28
TORSDOF 7
ENDMDL
MODEL 3
REMARK VINA RESULT: -6.446740488      1.118      1.333
REMARK  7 active torsions:
REMARK  status: ('A' for Active; 'I' for Inactive)
REMARK    1  A    between atoms: C6_6  and  O1_7 
REMARK    2  A    between atoms: C7_9  and  C8_10 
REMARK    3  A    between atoms: C8_10  and  N1_11 
REMARK    4  A    between atoms: N1_11  and  C9_14 
REMARK    5  A    between atoms: C9_14  and  C10_15 
REMARK    6  A    between atoms: C10_15  and  C11_16 
REMARK    7  A    between atoms: C11_16  and  N2_17 
ROOT
HETATM    1  C1  UNL     1      -5.754   5.348  14.606  1.00  0.00     0.010 C 
HETATM    2  C2  UNL     1      -4.274   5.181  14.497  1.00  0.00    -0.005 C 
HETATM    3  C3  UNL     1      -3.664   5.952  13.346  1.00  0.00     0.076 C 
HETATM    4  C4  UNL     1      -4.008   5.306  12.067  1.00  0.00     0.203 C 
HETATM    5  C5  UNL     1      -3.536   3.896  11.981  1.00  0.00     0.103 C 
HETATM    6  C6  UNL     1      -4.026   3.079  13.155  1.00  0.00     0.129 C 
HETATM    7  C7  UNL     1      -3.797   3.762  14.456  1.00  0.00     0.044 C 
HETATM    8  O2  UNL     1      -5.357   5.312  11.719  1.00  0.00    -0.197 OA
HETATM    9  O3  UNL     1      -5.213   4.950  10.432  1.00  0.00    -0.197 OA
HETATM   10  C12 UNL     1      -4.389   5.980   9.990  1.00  0.00     0.204 C 
HETATM   11  C13 UNL     1      -5.258   7.189   9.816  1.00  0.00     0.098 C 
HETATM   12  C14 UNL     1      -4.836   8.176   8.803  1.00  0.00     0.173 C 
HETATM   13  O4  UNL     1      -3.859   7.767   7.924  1.00  0.00    -0.391 OA
HETATM   14  C15 UNL     1      -3.997   6.432   7.544  1.00  0.00     0.173 C 
HETATM   15  C16 UNL     1      -3.630   5.597   8.745  1.00  0.00     0.098 C 
HETATM   16  O5  UNL     1      -3.474   6.085  11.036  1.00  0.00    -0.313 OA
ENDROOT
BRANCH   7  17
HETATM   17  C8  UNL     1      -4.340   3.027  15.638  1.00  0.00     0.239 C 
BRANCH  17  18
HETATM   18  N1  UNL     1      -3.873   1.690  15.763  1.00  0.00    -0.075 N 
ATOM     19  H12 UNL     1      -3.291   1.423  14.970  1.00  0.00     0.277 HD
ATOM     20  H11 UNL     1      -3.178   1.605  16.505  1.00  0.00     0.277 HD
BRANCH  18  21
HETATM   21  C9  UNL     1      -4.959   0.770  15.953  1.00  0.00     0.233 C 
BRANCH  21  22
HETATM   22  C10 UNL     1      -5.638   1.046  17.252  1.00  0.00     0.055 C 
BRANCH  22  23
HETATM   23  C11 UNL     1      -7.144   0.988  17.080  1.00  0.00     0.231 C 
BRANCH  23  24
HETATM   24  N2  UNL     1      -7.569   2.331  16.706  1.00  0.00    -0.079 N 
ATOM     25  H23 UNL     1      -6.795   2.990  16.618  1.00  0.00     0.274 HD
ATOM     26  H22 UNL     1      -7.901   2.397  15.745  1.00  0.00     0.274 HD
ATOM     27  H21 UNL     1      -8.264   2.616  17.395  1.00  0.00     0.274 HD
ENDBRANCH  23  24
ENDBRANCH  22  23
ENDBRANCH  21  22
ENDBRANCH  18  21
ENDBRANCH  17  18
ENDBRANCH   7  17
BRANCH   6  28
HETATM   28  O1  UNL     1      -5.319   2.654  13.066  1.00  0.00    -0.395 OA
ATOM     29  H1  UNL     1      -5.974   3.332  13.181  1.00  0.00     0.210 HD
ENDBRANCH   6  28
TORSDOF 7
ENDMDL
MODEL 4
REMARK VINA RESULT: -6.395578488      3.218      4.519
REMARK  7 active torsions:
REMARK  status: ('A' for Active; 'I' for Inactive)
REMARK    1  A    between atoms: C6_6  and  O1_7 
REMARK    2  A    between atoms: C7_9  and  C8_10 
REMARK    3  A    between atoms: C8_10  and  N1_11 
REMARK    4  A    between atoms: N1_11  and  C9_14 
REMARK    5  A    between atoms: C9_14  and  C10_15 
REMARK    6  A    between atoms: C10_15  and  C11_16 
REMARK    7  A    between atoms: C11_16  and  N2_17 
ROOT
HETATM    1  C1  UNL     1      -4.662   1.726  12.935  1.00  0.00     0.010 C 
HETATM    2  C2  UNL     1      -5.108   3.145  12.803  1.00  0.00    -0.005 C 
HETATM    3  C3  UNL     1      -4.226   3.971  11.891  1.00  0.00     0.076 C 
HETATM    4  C4  UNL     1      -2.940   4.253  12.551  1.00  0.00     0.203 C 
HETATM    5  C5  UNL     1      -3.093   4.988  13.837  1.00  0.00     0.103 C 
HETATM    6  C6  UNL     1      -4.042   4.273  14.771  1.00  0.00     0.129 C 
HETATM    7  C7  UNL     1      -5.306   3.871  14.098  1.00  0.00     0.044 C 
HETATM    8  O2  UNL     1      -2.123   3.151  12.801  1.00  0.00    -0.197 OA
HETATM    9  O3  UNL     1      -0.995   3.824  13.086  1.00  0.00    -0.197 OA
HETATM   10  C12 UNL     1      -0.839   4.535  11.901  1.00  0.00     0.204 C 
HETATM   11  C13 UNL     1      -0.308   3.572  10.882  1.00  0.00     0.098 C 
HETATM   12  C14 UNL     1       0.523   4.134   9.799  1.00  0.00     0.173 C 
HETATM   13  O4  UNL     1       0.967   5.425   9.979  1.00  0.00    -0.391 OA
HETATM   14  C15 UNL     1       1.312   5.699  11.303  1.00  0.00     0.173 C 
HETATM   15  C16 UNL     1       0.025   5.756  12.087  1.00  0.00     0.098 C 
HETATM   16  O5  UNL     1      -2.141   4.964  11.650  1.00  0.00    -0.313 OA
ENDROOT
BRANCH   7  17
HETATM   17  C8  UNL     1      -6.239   3.088  14.962  1.00  0.00     0.239 C 
BRANCH  17  18
HETATM   18  N1  UNL     1      -6.588   3.730  16.181  1.00  0.00    -0.075 N 
ATOM     19  H12 UNL     1      -5.968   4.515  16.379  1.00  0.00     0.277 HD
ATOM     20  H11 UNL     1      -7.467   4.240  16.097  1.00  0.00     0.277 HD
BRANCH  18  21
HETATM   21  C9  UNL     1      -6.623   2.799  17.274  1.00  0.00     0.233 C 
BRANCH  21  22
HETATM   22  C10 UNL     1      -6.982   1.441  16.774  1.00  0.00     0.055 C 
BRANCH  22  23
HETATM   23  C11 UNL     1      -6.021   0.406  17.327  1.00  0.00     0.231 C 
BRANCH  23  24
HETATM   24  N2  UNL     1      -4.877   0.381  16.423  1.00  0.00    -0.079 N 
ATOM     25  H23 UNL     1      -4.236  -0.391  16.604  1.00  0.00     0.274 HD
ATOM     26  H22 UNL     1      -5.123   0.121  15.468  1.00  0.00     0.274 HD
ATOM     27  H21 UNL     1      -4.435   1.297  16.491  1.00  0.00     0.274 HD
ENDBRANCH  23  24
ENDBRANCH  22  23
ENDBRANCH  21  22
ENDBRANCH  18  21
ENDBRANCH  17  18
ENDBRANCH   7  17
BRANCH   6  28
HETATM   28  O1  UNL     1      -3.506   3.212  15.439  1.00  0.00    -0.395 OA
ATOM     29  H1  UNL     1      -2.638   3.358  15.797  1.00  0.00     0.210 HD
ENDBRANCH   6  28
TORSDOF 7
ENDMDL
MODEL 5
REMARK VINA RESULT: -6.330541275      3.456      4.644
REMARK  7 active torsions:
REMARK  status: ('A' for Active; 'I' for Inactive)
REMARK    1  A    between atoms: C6_6  and  O1_7 
REMARK    2  A    between atoms: C7_9  and  C8_10 
REMARK    3  A    between atoms: C8_10  and  N1_11 
REMARK    4  A    between atoms: N1_11  and  C9_14 
REMARK    5  A    between atoms: C9_14  and  C10_15 
REMARK    6  A    between atoms: C10_15  and  C11_16 
REMARK    7  A    between atoms: C11_16  and  N2_17 
ROOT
HETATM    1  C1  UNL     1      -3.428   6.337  14.125  1.00  0.00     0.010 C 
HETATM    2  C2  UNL     1      -3.260   4.891  14.461  1.00  0.00    -0.005 C 
HETATM    3  C3  UNL     1      -1.925   4.324  14.028  1.00  0.00     0.076 C 
HETATM    4  C4  UNL     1      -1.892   4.169  12.563  1.00  0.00     0.203 C 
HETATM    5  C5  UNL     1      -2.964   3.273  12.048  1.00  0.00     0.103 C 
HETATM    6  C6  UNL     1      -4.329   3.718  12.521  1.00  0.00     0.129 C 
HETATM    7  C7  UNL     1      -4.361   3.997  13.982  1.00  0.00     0.044 C 
HETATM    8  O2  UNL     1      -1.946   5.346  11.820  1.00  0.00    -0.197 OA
HETATM    9  O3  UNL     1      -1.585   4.827  10.633  1.00  0.00    -0.197 OA
HETATM   10  C12 UNL     1      -0.347   4.293  10.978  1.00  0.00     0.204 C 
HETATM   11  C13 UNL     1       0.615   5.440  11.055  1.00  0.00     0.098 C 
HETATM   12  C14 UNL     1       2.033   5.144  10.768  1.00  0.00     0.173 C 
HETATM   13  O4  UNL     1       2.294   3.924  10.184  1.00  0.00    -0.391 OA
HETATM   14  C15 UNL     1       1.327   3.554   9.249  1.00  0.00     0.173 C 
HETATM   15  C16 UNL     1       0.081   3.207  10.025  1.00  0.00     0.098 C 
HETATM   16  O5  UNL     1      -0.623   3.701  12.209  1.00  0.00    -0.313 OA
ENDROOT
BRANCH   7  17
HETATM   17  C8  UNL     1      -5.670   4.519  14.478  1.00  0.00     0.239 C 
BRANCH  17  18
HETATM   18  N1  UNL     1      -6.532   3.525  15.015  1.00  0.00    -0.075 N 
ATOM     19  H12 UNL     1      -7.372   3.939  15.419  1.00  0.00     0.277 HD
ATOM     20  H11 UNL     1      -6.969   2.972  14.278  1.00  0.00     0.277 HD
BRANCH  18  21
HETATM   21  C9  UNL     1      -5.848   2.691  15.962  1.00  0.00     0.233 C 
BRANCH  21  22
HETATM   22  C10 UNL     1      -6.745   2.388  17.115  1.00  0.00     0.055 C 
BRANCH  22  23
HETATM   23  C11 UNL     1      -7.145   0.925  17.099  1.00  0.00     0.231 C 
BRANCH  23  24
HETATM   24  N2  UNL     1      -5.958   0.168  17.476  1.00  0.00    -0.079 N 
ATOM     25  H23 UNL     1      -5.099   0.532  17.063  1.00  0.00     0.274 HD
ATOM     26  H22 UNL     1      -5.692   0.294  18.453  1.00  0.00     0.274 HD
ATOM     27  H21 UNL     1      -6.144  -0.804  17.230  1.00  0.00     0.274 HD
ENDBRANCH  23  24
ENDBRANCH  22  23
ENDBRANCH  21  22
ENDBRANCH  18  21
ENDBRANCH  17  18
ENDBRANCH   7  17
BRANCH   6  28
HETATM   28  O1  UNL     1      -4.868   4.763  11.830  1.00  0.00    -0.395 OA
ATOM     29  H1  UNL     1      -5.817   4.813  11.850  1.00  0.00     0.210 HD
ENDBRANCH   6  28
TORSDOF 7
ENDMDL
