MODEL 1
REMARK VINA RESULT: -7.320828553      0.000      0.000
REMARK  6 active torsions:
REMARK  status: ('A' for Active; 'I' for Inactive)
REMARK    1  A    between atoms: C1_2  and  C2_3 
REMARK       I    between atoms: C1_2  and  N4_17 
REMARK    2  A    between atoms: C2_3  and  S1_4 
REMARK    3  A    between atoms: S1_4  and  C3_5 
REMARK    4  A    between atoms: N3_11  and  C5_12 
REMARK    5  A    between atoms: N4_17  and  C10_18 
REMARK    6  A    between atoms: C10_18  and  C11_19 
ROOT
HETATM    1  C2  UNL     1      -2.902   1.685  11.173  1.00  0.00     0.201 C 
ENDROOT
BRANCH   1   2
HETATM    2  C1  UNL     1      -4.255   1.430  11.679  1.00  0.00     0.300 C 
HETATM    3  O1  UNL     1      -5.307   1.559  11.187  1.00  0.00    -0.256 OA
HETATM    4  N4  UNL     1      -4.135   0.873  13.037  1.00  0.00    -0.383 NA
BRANCH   4   5
HETATM    5  C10 UNL     1      -4.035   0.366  14.264  1.00  0.00     0.220 C 
BRANCH   5   6
HETATM    6  C11 UNL     1      -4.106   1.157  15.524  1.00  0.00     0.374 C 
HETATM    7  N5  UNL     1      -5.048   0.533  16.406  1.00  0.00    -0.043 N 
HETATM    8  C12 UNL     1      -5.495   1.515  17.419  1.00  0.00     0.238 C 
ATOM      9  H52 UNL     1      -5.831   0.114  15.903  1.00  0.00     0.280 HD
ATOM     10  H51 UNL     1      -4.676  -0.318  16.830  1.00  0.00     0.280 HD
HETATM   11  C13 UNL     1      -6.371   2.470  16.562  1.00  0.00     0.054 C 
HETATM   12  C14 UNL     1      -5.754   2.713  15.200  1.00  0.00     0.172 C 
HETATM   13  O2  UNL     1      -4.407   2.493  15.231  1.00  0.00    -0.354 OA
ENDBRANCH   5   6
ENDBRANCH   4   5
ENDBRANCH   1   2
BRANCH   1  14
HETATM   14  S1  UNL     1      -2.715   3.451  10.878  1.00  0.00    -0.082 SA
BRANCH  14  15
HETATM   15  C3  UNL     1      -2.889   4.216  12.441  1.00  0.00     0.163 A 
HETATM   16  N1  UNL     1      -2.357   3.754  13.617  1.00  0.00    -0.279 N 
HETATM   17  N2  UNL     1      -2.645   4.645  14.559  1.00  0.00    -0.294 N 
ATOM     18  H1  UNL     1      -1.836   2.886  13.745  1.00  0.00     0.189 HD
HETATM   19  C4  UNL     1      -3.310   5.608  13.981  1.00  0.00     0.202 A 
ATOM     20  H2  UNL     1      -2.393   4.588  15.546  1.00  0.00     0.187 HD
HETATM   21  N3  UNL     1      -3.483   5.363  12.683  1.00  0.00    -0.317 N 
BRANCH  21  22
HETATM   22  C5  UNL     1      -4.288   6.186  11.800  1.00  0.00     0.093 C 
HETATM   23  C6  UNL     1      -5.680   6.442  12.197  1.00  0.00     0.026 C 
HETATM   24  C7  UNL     1      -6.146   7.228  10.971  1.00  0.00     0.002 C 
HETATM   25  C8  UNL     1      -4.858   7.855  10.366  1.00  0.00     0.002 C 
HETATM   26  C9  UNL     1      -3.773   7.493  11.378  1.00  0.00     0.026 C 
ENDBRANCH  21  22
ENDBRANCH  14  15
ENDBRANCH   1  14
TORSDOF 6
ENDMDL
MODEL 2
REMARK VINA RESULT: -6.900341736      3.200      6.155
REMARK  6 active torsions:
REMARK  status: ('A' for Active; 'I' for Inactive)
REMARK    1  A    between atoms: C1_2  and  C2_3 
REMARK       I    between atoms: C1_2  and  N4_17 
REMARK    2  A    between atoms: C2_3  and  S1_4 
REMARK    3  A    between atoms: S1_4  and  C3_5 
REMARK    4  A    between atoms: N3_11  and  C5_12 
REMARK    5  A    between atoms: N4_17  and  C10_18 
REMARK    6  A    between atoms: C10_18  and  C11_19 
ROOT
HETATM    1  C2  UNL     1      -3.475   0.110  11.752  1.00  0.00     0.201 C 
ENDROOT
BRANCH   1   2
HETATM    2  C1  UNL     1      -2.976   0.168  10.374  1.00  0.00     0.300 C 
HETATM    3  O1  UNL     1      -3.328  -0.366   9.396  1.00  0.00    -0.256 OA
HETATM    4  N4  UNL     1      -1.869   1.138  10.333  1.00  0.00    -0.383 NA
BRANCH   4   5
HETATM    5  C10 UNL     1      -0.869   2.016  10.286  1.00  0.00     0.220 C 
BRANCH   5   6
HETATM    6  C11 UNL     1      -0.966   3.393   9.729  1.00  0.00     0.374 C 
HETATM    7  N5  UNL     1       0.077   3.573   8.762  1.00  0.00    -0.043 N 
HETATM    8  C12 UNL     1       0.310   5.021   8.559  1.00  0.00     0.238 C 
ATOM      9  H52 UNL     1       0.930   3.076   9.017  1.00  0.00     0.280 HD
ATOM     10  H51 UNL     1      -0.120   3.086   7.888  1.00  0.00     0.280 HD
HETATM   11  C13 UNL     1       0.982   5.420   9.901  1.00  0.00     0.054 C 
HETATM   12  C14 UNL     1       0.338   4.710  11.074  1.00  0.00     0.172 C 
HETATM   13  O2  UNL     1      -0.938   4.331  10.770  1.00  0.00    -0.354 OA
ENDBRANCH   5   6
ENDBRANCH   4   5
ENDBRANCH   1   2
BRANCH   1  14
HETATM   14  S1  UNL     1      -4.551   1.523  12.041  1.00  0.00    -0.082 SA
BRANCH  14  15
HETATM   15  C3  UNL     1      -3.680   2.569  13.139  1.00  0.00     0.163 A 
HETATM   16  N1  UNL     1      -2.615   3.365  12.803  1.00  0.00    -0.279 N 
HETATM   17  N2  UNL     1      -2.281   4.057  13.886  1.00  0.00    -0.294 N 
ATOM     18  H1  UNL     1      -2.163   3.415  11.890  1.00  0.00     0.189 HD
HETATM   19  C4  UNL     1      -3.110   3.708  14.832  1.00  0.00     0.202 A 
ATOM     20  H2  UNL     1      -1.522   4.734  13.964  1.00  0.00     0.187 HD
HETATM   21  N3  UNL     1      -3.971   2.786  14.401  1.00  0.00    -0.317 N 
BRANCH  21  22
HETATM   22  C5  UNL     1      -4.934   2.112  15.253  1.00  0.00     0.093 C 
HETATM   23  C6  UNL     1      -4.406   1.193  16.272  1.00  0.00     0.026 C 
HETATM   24  C7  UNL     1      -5.727   0.661  16.832  1.00  0.00     0.002 C 
HETATM   25  C8  UNL     1      -6.778   1.767  16.534  1.00  0.00     0.002 C 
HETATM   26  C9  UNL     1      -5.946   2.908  15.953  1.00  0.00     0.026 C 
ENDBRANCH  21  22
ENDBRANCH  14  15
ENDBRANCH   1  14
TORSDOF 6
ENDMDL
MODEL 3
REMARK VINA RESULT: -6.883485006      1.166      1.436
REMARK  6 active torsions:
REMARK  status: ('A' for Active; 'I' for Inactive)
REMARK    1  A    between atoms: C1_2  and  C2_3 
REMARK       I    between atoms: C1_2  and  N4_17 
REMARK    2  A    between atoms: C2_3  and  S1_4 
REMARK    3  A    between atoms: S1_4  and  C3_5 
REMARK    4  A    between atoms: N3_11  and  C5_12 
REMARK    5  A    between atoms: N4_17  and  C10_18 
REMARK    6  A    between atoms: C10_18  and  C11_19 
ROOT
HETATM    1  C2  UNL     1      -2.848   1.241  11.536  1.00  0.00     0.201 C 
ENDROOT
BRANCH   1   2
HETATM    2  C1  UNL     1      -4.177   1.409  12.134  1.00  0.00     0.300 C 
HETATM    3  O1  UNL     1      -5.172   1.848  11.707  1.00  0.00    -0.256 OA
HETATM    4  N4  UNL     1      -4.137   0.845  13.493  1.00  0.00    -0.383 NA
BRANCH   4   5
HETATM    5  C10 UNL     1      -4.112   0.334  14.723  1.00  0.00     0.220 C 
BRANCH   5   6
HETATM    6  C11 UNL     1      -4.242   1.123  15.978  1.00  0.00     0.374 C 
HETATM    7  N5  UNL     1      -5.249   0.517  16.799  1.00  0.00    -0.043 N 
HETATM    8  C12 UNL     1      -5.736   1.507  17.786  1.00  0.00     0.238 C 
ATOM      9  H52 UNL     1      -6.008   0.116  16.248  1.00  0.00     0.280 HD
ATOM     10  H51 UNL     1      -4.922  -0.342  17.242  1.00  0.00     0.280 HD
HETATM   11  C13 UNL     1      -6.537   2.482  16.881  1.00  0.00     0.054 C 
HETATM   12  C14 UNL     1      -5.834   2.715  15.561  1.00  0.00     0.172 C 
HETATM   13  O2  UNL     1      -4.496   2.466  15.673  1.00  0.00    -0.354 OA
ENDBRANCH   5   6
ENDBRANCH   4   5
ENDBRANCH   1   2
BRANCH   1  14
HETATM   14  S1  UNL     1      -2.460   2.703  10.560  1.00  0.00    -0.082 SA
BRANCH  14  15
HETATM   15  C3  UNL     1      -1.671   3.813  11.658  1.00  0.00     0.163 A 
HETATM   16  N1  UNL     1      -0.361   3.742  12.055  1.00  0.00    -0.279 N 
HETATM   17  N2  UNL     1      -0.123   4.798  12.825  1.00  0.00    -0.294 N 
ATOM     18  H1  UNL     1       0.308   3.013  11.805  1.00  0.00     0.189 HD
HETATM   19  C4  UNL     1      -1.233   5.483  12.884  1.00  0.00     0.202 A 
ATOM     20  H2  UNL     1       0.759   5.029  13.283  1.00  0.00     0.187 HD
HETATM   21  N3  UNL     1      -2.202   4.893  12.185  1.00  0.00    -0.317 N 
BRANCH  21  22
HETATM   22  C5  UNL     1      -3.580   5.347  12.161  1.00  0.00     0.093 C 
HETATM   23  C6  UNL     1      -4.343   5.257  13.414  1.00  0.00     0.026 C 
HETATM   24  C7  UNL     1      -5.707   5.727  12.907  1.00  0.00     0.002 C 
HETATM   25  C8  UNL     1      -5.404   6.604  11.659  1.00  0.00     0.002 C 
HETATM   26  C9  UNL     1      -3.880   6.682  11.635  1.00  0.00     0.026 C 
ENDBRANCH  21  22
ENDBRANCH  14  15
ENDBRANCH   1  14
TORSDOF 6
ENDMDL
MODEL 4
REMARK VINA RESULT: -6.769522686      2.971      6.100
REMARK  6 active torsions:
REMARK  status: ('A' for Active; 'I' for Inactive)
REMARK    1  A    between atoms: C1_2  and  C2_3 
REMARK       I    between atoms: C1_2  and  N4_17 
REMARK    2  A    between atoms: C2_3  and  S1_4 
REMARK    3  A    between atoms: S1_4  and  C3_5 
REMARK    4  A    between atoms: N3_11  and  C5_12 
REMARK    5  A    between atoms: N4_17  and  C10_18 
REMARK    6  A    between atoms: C10_18  and  C11_19 
ROOT
HETATM    1  C2  UNL     1      -4.650   1.309  11.264  1.00  0.00     0.201 C 
ENDROOT
BRANCH   1   2
HETATM    2  C1  UNL     1      -3.891   0.687  10.173  1.00  0.00     0.300 C 
HETATM    3  O1  UNL     1      -4.219  -0.016   9.300  1.00  0.00    -0.256 OA
HETATM    4  N4  UNL     1      -2.495   1.143  10.275  1.00  0.00    -0.383 NA
BRANCH   4   5
HETATM    5  C10 UNL     1      -1.230   1.552  10.357  1.00  0.00     0.220 C 
BRANCH   5   6
HETATM    6  C11 UNL     1      -0.789   2.974  10.344  1.00  0.00     0.374 C 
HETATM    7  N5  UNL     1      -1.912   3.801  10.013  1.00  0.00    -0.043 N 
HETATM    8  C12 UNL     1      -1.428   5.112   9.526  1.00  0.00     0.238 C 
ATOM      9  H52 UNL     1      -2.542   3.350   9.348  1.00  0.00     0.280 HD
ATOM     10  H51 UNL     1      -2.566   3.894  10.790  1.00  0.00     0.280 HD
HETATM   11  C13 UNL     1      -0.832   4.730   8.143  1.00  0.00     0.054 C 
HETATM   12  C14 UNL     1      -0.104   3.403   8.202  1.00  0.00     0.172 C 
HETATM   13  O2  UNL     1       0.300   3.128   9.476  1.00  0.00    -0.354 OA
ENDBRANCH   5   6
ENDBRANCH   4   5
ENDBRANCH   1   2
BRANCH   1  14
HETATM   14  S1  UNL     1      -3.844   0.922  12.826  1.00  0.00    -0.082 SA
BRANCH  14  15
HETATM   15  C3  UNL     1      -3.663   2.449  13.661  1.00  0.00     0.163 A 
HETATM   16  N1  UNL     1      -2.836   3.472  13.276  1.00  0.00    -0.279 N 
HETATM   17  N2  UNL     1      -3.037   4.481  14.117  1.00  0.00    -0.294 N 
ATOM     18  H1  UNL     1      -2.186   3.461  12.489  1.00  0.00     0.189 HD
HETATM   19  C4  UNL     1      -3.950   4.093  14.965  1.00  0.00     0.202 A 
ATOM     20  H2  UNL     1      -2.567   5.386  14.102  1.00  0.00     0.187 HD
HETATM   21  N3  UNL     1      -4.343   2.845  14.713  1.00  0.00    -0.317 N 
BRANCH  21  22
HETATM   22  C5  UNL     1      -5.255   2.093  15.555  1.00  0.00     0.093 C 
HETATM   23  C6  UNL     1      -4.664   1.160  16.525  1.00  0.00     0.026 C 
HETATM   24  C7  UNL     1      -5.947   0.546  17.089  1.00  0.00     0.002 C 
HETATM   25  C8  UNL     1      -7.054   1.614  16.858  1.00  0.00     0.002 C 
HETATM   26  C9  UNL     1      -6.287   2.814  16.307  1.00  0.00     0.026 C 
ENDBRANCH  21  22
ENDBRANCH  14  15
ENDBRANCH   1  14
TORSDOF 6
ENDMDL
MODEL 5
REMARK VINA RESULT: -6.763172612      1.519      2.525
REMARK  6 active torsions:
REMARK  status: ('A' for Active; 'I' for Inactive)
REMARK    1  A    between atoms: C1_2  and  C2_3 
REMARK       I    between atoms: C1_2  and  N4_17 
REMARK    2  A    between atoms: C2_3  and  S1_4 
REMARK    3  A    between atoms: S1_4  and  C3_5 
REMARK    4  A    between atoms: N3_11  and  C5_12 
REMARK    5  A    between atoms: N4_17  and  C10_18 
REMARK    6  A    between atoms: C10_18  and  C11_19 
ROOT
HETATM    1  C2  UNL     1      -2.891   1.423  11.219  1.00  0.00     0.201 C 
ENDROOT
BRANCH   1   2
HETATM    2  C1  UNL     1      -4.241   1.381  11.791  1.00  0.00     0.300 C 
HETATM    3  O1  UNL     1      -5.284   1.662  11.345  1.00  0.00    -0.256 OA
HETATM    4  N4  UNL     1      -4.141   0.826  13.151  1.00  0.00    -0.383 NA
BRANCH   4   5
HETATM    5  C10 UNL     1      -4.061   0.323  14.381  1.00  0.00     0.220 C 
BRANCH   5   6
HETATM    6  C11 UNL     1      -4.124   1.120  15.637  1.00  0.00     0.374 C 
HETATM    7  N5  UNL     1      -5.130   0.558  16.489  1.00  0.00    -0.043 N 
HETATM    8  C12 UNL     1      -5.548   1.570  17.485  1.00  0.00     0.238 C 
ATOM      9  H52 UNL     1      -5.920   0.186  15.961  1.00  0.00     0.280 HD
ATOM     10  H51 UNL     1      -4.825  -0.312  16.925  1.00  0.00     0.280 HD
HETATM   11  C13 UNL     1      -6.336   2.573  16.599  1.00  0.00     0.054 C 
HETATM   12  C14 UNL     1      -5.662   2.773  15.257  1.00  0.00     0.172 C 
HETATM   13  O2  UNL     1      -4.333   2.472  15.333  1.00  0.00    -0.354 OA
ENDBRANCH   5   6
ENDBRANCH   4   5
ENDBRANCH   1   2
BRANCH   1  14
HETATM   14  S1  UNL     1      -2.154   3.024  11.584  1.00  0.00    -0.082 SA
BRANCH  14  15
HETATM   15  C3  UNL     1      -3.135   4.203  10.742  1.00  0.00     0.163 A 
HETATM   16  N1  UNL     1      -3.877   3.960   9.615  1.00  0.00    -0.279 N 
HETATM   17  N2  UNL     1      -4.534   5.078   9.327  1.00  0.00    -0.294 N 
ATOM     18  H1  UNL     1      -3.917   3.084   9.095  1.00  0.00     0.189 HD
HETATM   19  C4  UNL     1      -4.215   5.954  10.240  1.00  0.00     0.202 A 
ATOM     20  H2  UNL     1      -5.167   5.225   8.541  1.00  0.00     0.187 HD
HETATM   21  N3  UNL     1      -3.348   5.444  11.115  1.00  0.00    -0.317 N 
BRANCH  21  22
HETATM   22  C5  UNL     1      -2.713   6.210  12.172  1.00  0.00     0.093 C 
HETATM   23  C6  UNL     1      -2.522   7.649  11.941  1.00  0.00     0.026 C 
HETATM   24  C7  UNL     1      -1.758   8.004  13.218  1.00  0.00     0.002 C 
HETATM   25  C8  UNL     1      -2.165   6.922  14.259  1.00  0.00     0.002 C 
HETATM   26  C9  UNL     1      -3.241   6.114  13.536  1.00  0.00     0.026 C 
ENDBRANCH  21  22
ENDBRANCH  14  15
ENDBRANCH   1  14
TORSDOF 6
ENDMDL
