MODEL 1
REMARK VINA RESULT: -7.619901079      0.000      0.000
REMARK  7 active torsions:
REMARK  status: ('A' for Active; 'I' for Inactive)
REMARK    1  A    between atoms: O1_1  and  C1_3 
REMARK    2  A    between atoms: C2_4  and  C3_5 
REMARK    3  A    between atoms: C3_5  and  N1_6 
REMARK    4  A    between atoms: N1_6  and  C4_8 
REMARK    5  A    between atoms: C4_8  and  C5_9 
REMARK    6  A    between atoms: C5_9  and  N2_10 
REMARK    7  A    between atoms: N5_24  and  C13_25 
ROOT
HETATM    1  C3  UNL     1      -3.031   5.899  13.604  1.00  0.00     0.123 C 
ENDROOT
BRANCH   1   2
HETATM    2  C2  UNL     1      -3.397   4.611  14.308  1.00  0.00     0.117 A 
HETATM    3  C1  UNL     1      -4.683   4.143  14.593  1.00  0.00     0.189 A 
HETATM    4  N5  UNL     1      -4.548   2.908  15.166  1.00  0.00    -0.250 N 
HETATM    5  N4  UNL     1      -3.271   2.659  15.222  1.00  0.00    -0.238 N 
HETATM    6  N3  UNL     1      -2.562   3.652  14.721  1.00  0.00    -0.281 N 
ATOM      7  H4  UNL     1      -2.869   1.803  15.605  1.00  0.00     0.208 HD
ATOM      8  H3  UNL     1      -1.545   3.684  14.659  1.00  0.00     0.188 HD
BRANCH   3   9
HETATM    9  O1  UNL     1      -5.834   4.821  14.337  1.00  0.00    -0.343 OA
ATOM     10  H1  UNL     1      -6.596   4.833  14.904  1.00  0.00     0.219 HD
ENDBRANCH   3   9
BRANCH   4  11
HETATM   11  C13 UNL     1      -5.674   2.072  15.556  1.00  0.00     0.112 C 
HETATM   12  C14 UNL     1      -6.401   2.590  16.755  1.00  0.00     0.027 C 
HETATM   13  C15 UNL     1      -6.575   1.109  17.157  1.00  0.00     0.004 C 
HETATM   14  C16 UNL     1      -5.274   0.887  16.414  1.00  0.00     0.027 C 
ENDBRANCH   4  11
ENDBRANCH   1   2
BRANCH   1  15
HETATM   15  N1  UNL     1      -1.644   6.101  13.572  1.00  0.00    -0.372 N 
ATOM     16  H1  UNL     1      -1.139   6.196  14.453  1.00  0.00     0.164 HD
BRANCH  15  17
HETATM   17  C4  UNL     1      -0.936   6.178  12.386  1.00  0.00     0.099 C 
BRANCH  17  18
HETATM   18  C5  UNL     1      -1.472   5.719  11.093  1.00  0.00     0.076 C 
BRANCH  18  19
HETATM   19  N2  UNL     1      -1.086   4.489  10.552  1.00  0.00    -0.291 NA
HETATM   20  C6  UNL     1      -0.532   3.493  11.408  1.00  0.00     0.100 C 
HETATM   21  C7  UNL     1      -0.991   2.075  11.076  1.00  0.00     0.083 C 
HETATM   22  C8  UNL     1      -2.463   1.876  11.210  1.00  0.00     0.166 C 
HETATM   23  C9  UNL     1      -3.096   3.275  11.066  1.00  0.00     0.083 C 
HETATM   24  O2  UNL     1      -2.859   1.320  12.437  1.00  0.00    -0.353 OA
HETATM   25  O3  UNL     1      -3.020   1.103  10.212  1.00  0.00    -0.353 OA
HETATM   26  C10 UNL     1      -2.317   3.934   9.917  1.00  0.00     0.100 C 
HETATM   27  C11 UNL     1      -4.229   1.106  12.157  1.00  0.00     0.197 C 
HETATM   28  C12 UNL     1      -4.312   0.848  10.669  1.00  0.00     0.197 C 
ENDBRANCH  18  19
ENDBRANCH  17  18
ENDBRANCH  15  17
ENDBRANCH   1  15
TORSDOF 7
ENDMDL
MODEL 2
REMARK VINA RESULT: -7.515937851      2.246      5.209
REMARK  7 active torsions:
REMARK  status: ('A' for Active; 'I' for Inactive)
REMARK    1  A    between atoms: O1_1  and  C1_3 
REMARK    2  A    between atoms: C2_4  and  C3_5 
REMARK    3  A    between atoms: C3_5  and  N1_6 
REMARK    4  A    between atoms: N1_6  and  C4_8 
REMARK    5  A    between atoms: C4_8  and  C5_9 
REMARK    6  A    between atoms: C5_9  and  N2_10 
REMARK    7  A    between atoms: N5_24  and  C13_25 
ROOT
HETATM    1  C3  UNL     1      -2.876   5.155  11.016  1.00  0.00     0.123 C 
ENDROOT
BRANCH   1   2
HETATM    2  C2  UNL     1      -2.556   3.685  11.173  1.00  0.00     0.117 A 
HETATM    3  C1  UNL     1      -3.295   2.605  10.682  1.00  0.00     0.189 A 
HETATM    4  N5  UNL     1      -2.603   1.466  10.989  1.00  0.00    -0.250 N 
HETATM    5  N4  UNL     1      -1.528   1.840  11.623  1.00  0.00    -0.238 N 
HETATM    6  N3  UNL     1      -1.474   3.152  11.749  1.00  0.00    -0.281 N 
ATOM      7  H4  UNL     1      -0.818   1.199  11.978  1.00  0.00     0.208 HD
ATOM      8  H3  UNL     1      -0.729   3.675  12.209  1.00  0.00     0.188 HD
BRANCH   3   9
HETATM    9  O1  UNL     1      -4.484   2.706  10.027  1.00  0.00    -0.343 OA
ATOM     10  H1  UNL     1      -5.278   2.245  10.267  1.00  0.00     0.219 HD
ENDBRANCH   3   9
BRANCH   4  11
HETATM   11  C13 UNL     1      -3.029   0.131  10.594  1.00  0.00     0.112 C 
HETATM   12  C14 UNL     1      -3.796  -0.581  11.661  1.00  0.00     0.027 C 
HETATM   13  C15 UNL     1      -3.076  -1.858  11.178  1.00  0.00     0.004 C 
HETATM   14  C16 UNL     1      -1.954  -0.923  10.780  1.00  0.00     0.027 C 
ENDBRANCH   4  11
ENDBRANCH   1   2
BRANCH   1  15
HETATM   15  N1  UNL     1      -4.168   5.461  11.466  1.00  0.00    -0.372 N 
ATOM     16  H1  UNL     1      -4.959   5.297  10.842  1.00  0.00     0.164 HD
BRANCH  15  17
HETATM   17  C4  UNL     1      -4.408   5.976  12.727  1.00  0.00     0.099 C 
BRANCH  17  18
HETATM   18  C5  UNL     1      -4.666   5.135  13.909  1.00  0.00     0.076 C 
BRANCH  18  19
HETATM   19  N2  UNL     1      -4.385   3.766  13.890  1.00  0.00    -0.291 NA
HETATM   20  C6  UNL     1      -3.441   3.233  14.815  1.00  0.00     0.100 C 
HETATM   21  C7  UNL     1      -3.836   1.869  15.377  1.00  0.00     0.083 C 
HETATM   22  C8  UNL     1      -5.113   1.886  16.147  1.00  0.00     0.166 C 
HETATM   23  C9  UNL     1      -5.901   3.111  15.637  1.00  0.00     0.083 C 
HETATM   24  O2  UNL     1      -4.946   1.997  17.537  1.00  0.00    -0.353 OA
HETATM   25  O3  UNL     1      -5.923   0.792  15.918  1.00  0.00    -0.353 OA
HETATM   26  C10 UNL     1      -5.698   3.092  14.114  1.00  0.00     0.100 C 
HETATM   27  C11 UNL     1      -6.287   1.801  17.942  1.00  0.00     0.197 C 
HETATM   28  C12 UNL     1      -6.905   0.893  16.902  1.00  0.00     0.197 C 
ENDBRANCH  18  19
ENDBRANCH  17  18
ENDBRANCH  15  17
ENDBRANCH   1  15
TORSDOF 7
ENDMDL
MODEL 3
REMARK VINA RESULT: -6.770880276      1.958      3.980
REMARK  7 active torsions:
REMARK  status: ('A' for Active; 'I' for Inactive)
REMARK    1  A    between atoms: O1_1  and  C1_3 
REMARK    2  A    between atoms: C2_4  and  C3_5 
REMARK    3  A    between atoms: C3_5  and  N1_6 
REMARK    4  A    between atoms: N1_6  and  C4_8 
REMARK    5  A    between atoms: C4_8  and  C5_9 
REMARK    6  A    between atoms: C5_9  and  N2_10 
REMARK    7  A    between atoms: N5_24  and  C13_25 
ROOT
HETATM    1  C3  UNL     1      -3.620   0.279  11.814  1.00  0.00     0.123 C 
ENDROOT
BRANCH   1   2
HETATM    2  C2  UNL     1      -4.100   1.138  12.964  1.00  0.00     0.117 A 
HETATM    3  C1  UNL     1      -4.298   0.738  14.289  1.00  0.00     0.189 A 
HETATM    4  N5  UNL     1      -4.660   1.849  14.999  1.00  0.00    -0.250 N 
HETATM    5  N4  UNL     1      -4.682   2.842  14.156  1.00  0.00    -0.238 N 
HETATM    6  N3  UNL     1      -4.354   2.450  12.939  1.00  0.00    -0.281 N 
ATOM      7  H4  UNL     1      -4.921   3.802  14.405  1.00  0.00     0.208 HD
ATOM      8  H3  UNL     1      -4.304   3.048  12.116  1.00  0.00     0.188 HD
BRANCH   3   9
HETATM    9  O1  UNL     1      -4.151  -0.534  14.750  1.00  0.00    -0.343 OA
ATOM     10  H1  UNL     1      -3.642  -0.781  15.512  1.00  0.00     0.219 HD
ENDBRANCH   3   9
BRANCH   4  11
HETATM   11  C13 UNL     1      -4.902   1.846  16.435  1.00  0.00     0.112 C 
HETATM   12  C14 UNL     1      -5.816   0.748  16.873  1.00  0.00     0.027 C 
HETATM   13  C15 UNL     1      -6.379   1.767  17.888  1.00  0.00     0.004 C 
HETATM   14  C16 UNL     1      -5.991   2.811  16.862  1.00  0.00     0.027 C 
ENDBRANCH   4  11
ENDBRANCH   1   2
BRANCH   1  15
HETATM   15  N1  UNL     1      -2.236   0.393  11.619  1.00  0.00    -0.372 N 
ATOM     16  H1  UNL     1      -1.607  -0.101  12.252  1.00  0.00     0.164 HD
BRANCH  15  17
HETATM   17  C4  UNL     1      -1.695   1.153  10.598  1.00  0.00     0.099 C 
BRANCH  17  18
HETATM   18  C5  UNL     1      -0.791   2.293  10.830  1.00  0.00     0.076 C 
BRANCH  18  19
HETATM   19  N2  UNL     1      -1.134   3.578  10.402  1.00  0.00    -0.291 NA
HETATM   20  C6  UNL     1      -2.510   3.929  10.279  1.00  0.00     0.100 C 
HETATM   21  C7  UNL     1      -2.822   5.354  10.731  1.00  0.00     0.083 C 
HETATM   22  C8  UNL     1      -2.521   5.604  12.171  1.00  0.00     0.166 C 
HETATM   23  C9  UNL     1      -1.468   4.552  12.574  1.00  0.00     0.083 C 
HETATM   24  O2  UNL     1      -3.633   5.487  13.021  1.00  0.00    -0.353 OA
HETATM   25  O3  UNL     1      -1.944   6.833  12.420  1.00  0.00    -0.353 OA
HETATM   26  C10 UNL     1      -0.497   4.503  11.385  1.00  0.00     0.100 C 
HETATM   27  C11 UNL     1      -3.050   5.953  14.222  1.00  0.00     0.197 C 
HETATM   28  C12 UNL     1      -1.988   6.947  13.808  1.00  0.00     0.197 C 
ENDBRANCH  18  19
ENDBRANCH  17  18
ENDBRANCH  15  17
ENDBRANCH   1  15
TORSDOF 7
ENDMDL
MODEL 4
REMARK VINA RESULT: -6.683119084      2.030      4.898
REMARK  7 active torsions:
REMARK  status: ('A' for Active; 'I' for Inactive)
REMARK    1  A    between atoms: O1_1  and  C1_3 
REMARK    2  A    between atoms: C2_4  and  C3_5 
REMARK    3  A    between atoms: C3_5  and  N1_6 
REMARK    4  A    between atoms: N1_6  and  C4_8 
REMARK    5  A    between atoms: C4_8  and  C5_9 
REMARK    6  A    between atoms: C5_9  and  N2_10 
REMARK    7  A    between atoms: N5_24  and  C13_25 
ROOT
HETATM    1  C3  UNL     1      -0.263   4.137  10.985  1.00  0.00     0.123 C 
ENDROOT
BRANCH   1   2
HETATM    2  C2  UNL     1      -1.252   3.035  11.297  1.00  0.00     0.117 A 
HETATM    3  C1  UNL     1      -1.535   1.911  10.516  1.00  0.00     0.189 A 
HETATM    4  N5  UNL     1      -2.429   1.146  11.213  1.00  0.00    -0.250 N 
HETATM    5  N4  UNL     1      -2.667   1.772  12.330  1.00  0.00    -0.238 N 
HETATM    6  N3  UNL     1      -1.983   2.898  12.408  1.00  0.00    -0.281 N 
ATOM      7  H4  UNL     1      -3.302   1.435  13.053  1.00  0.00     0.208 HD
ATOM      8  H3  UNL     1      -2.008   3.556  13.186  1.00  0.00     0.188 HD
BRANCH   3   9
HETATM    9  O1  UNL     1      -1.001   1.659   9.290  1.00  0.00    -0.343 OA
ATOM     10  H1  UNL     1      -0.599   0.840   9.029  1.00  0.00     0.219 HD
ENDBRANCH   3   9
BRANCH   4  11
HETATM   11  C13 UNL     1      -2.927  -0.140  10.747  1.00  0.00     0.112 C 
HETATM   12  C14 UNL     1      -3.815  -0.820  11.738  1.00  0.00     0.027 C 
HETATM   13  C15 UNL     1      -3.163  -2.136  11.261  1.00  0.00     0.004 C 
HETATM   14  C16 UNL     1      -1.949  -1.278  10.968  1.00  0.00     0.027 C 
ENDBRANCH   4  11
ENDBRANCH   1   2
BRANCH   1  15
HETATM   15  N1  UNL     1       0.074   4.875  12.128  1.00  0.00    -0.372 N 
ATOM     16  H1  UNL     1       0.710   4.463  12.811  1.00  0.00     0.164 HD
BRANCH  15  17
HETATM   17  C4  UNL     1      -0.426   6.143  12.363  1.00  0.00     0.099 C 
BRANCH  17  18
HETATM   18  C5  UNL     1      -1.293   6.473  13.507  1.00  0.00     0.076 C 
BRANCH  18  19
HETATM   19  N2  UNL     1      -2.636   6.806  13.316  1.00  0.00    -0.291 NA
HETATM   20  C6  UNL     1      -3.342   6.255  12.207  1.00  0.00     0.100 C 
HETATM   21  C7  UNL     1      -4.783   5.866  12.529  1.00  0.00     0.083 C 
HETATM   22  C8  UNL     1      -4.898   4.813  13.579  1.00  0.00     0.166 C 
HETATM   23  C9  UNL     1      -3.593   4.883  14.397  1.00  0.00     0.083 C 
HETATM   24  O2  UNL     1      -5.051   3.511  13.074  1.00  0.00    -0.353 OA
HETATM   25  O3  UNL     1      -5.922   5.024  14.479  1.00  0.00    -0.353 OA
HETATM   26  C10 UNL     1      -3.328   6.387  14.571  1.00  0.00     0.100 C 
HETATM   27  C11 UNL     1      -5.307   2.827  14.286  1.00  0.00     0.197 C 
HETATM   28  C12 UNL     1      -5.999   3.826  15.186  1.00  0.00     0.197 C 
ENDBRANCH  18  19
ENDBRANCH  17  18
ENDBRANCH  15  17
ENDBRANCH   1  15
TORSDOF 7
ENDMDL
MODEL 5
REMARK VINA RESULT: -6.622952119      2.379      4.435
REMARK  7 active torsions:
REMARK  status: ('A' for Active; 'I' for Inactive)
REMARK    1  A    between atoms: O1_1  and  C1_3 
REMARK    2  A    between atoms: C2_4  and  C3_5 
REMARK    3  A    between atoms: C3_5  and  N1_6 
REMARK    4  A    between atoms: N1_6  and  C4_8 
REMARK    5  A    between atoms: C4_8  and  C5_9 
REMARK    6  A    between atoms: C5_9  and  N2_10 
REMARK    7  A    between atoms: N5_24  and  C13_25 
ROOT
HETATM    1  C3  UNL     1      -3.594  -0.502  11.386  1.00  0.00     0.123 C 
ENDROOT
BRANCH   1   2
HETATM    2  C2  UNL     1      -3.926   0.537  12.435  1.00  0.00     0.117 A 
HETATM    3  C1  UNL     1      -4.610   1.741  12.241  1.00  0.00     0.189 A 
HETATM    4  N5  UNL     1      -4.753   2.328  13.468  1.00  0.00    -0.250 N 
HETATM    5  N4  UNL     1      -4.190   1.533  14.332  1.00  0.00    -0.238 N 
HETATM    6  N3  UNL     1      -3.689   0.461  13.748  1.00  0.00    -0.281 N 
ATOM      7  H4  UNL     1      -4.143   1.715  15.335  1.00  0.00     0.208 HD
ATOM      8  H3  UNL     1      -3.201  -0.299  14.220  1.00  0.00     0.188 HD
BRANCH   3   9
HETATM    9  O1  UNL     1      -5.035   2.211  11.038  1.00  0.00    -0.343 OA
ATOM     10  H1  UNL     1      -4.960   3.112  10.748  1.00  0.00     0.219 HD
ENDBRANCH   3   9
BRANCH   4  11
HETATM   11  C13 UNL     1      -5.465   3.579  13.685  1.00  0.00     0.112 C 
HETATM   12  C14 UNL     1      -4.565   4.706  14.079  1.00  0.00     0.027 C 
HETATM   13  C15 UNL     1      -5.716   5.162  15.002  1.00  0.00     0.004 C 
HETATM   14  C16 UNL     1      -6.073   3.692  15.070  1.00  0.00     0.027 C 
ENDBRANCH   4  11
ENDBRANCH   1   2
BRANCH   1  15
HETATM   15  N1  UNL     1      -2.662  -0.024  10.453  1.00  0.00    -0.372 N 
ATOM     16  H1  UNL     1      -2.855  -0.145   9.459  1.00  0.00     0.164 HD
BRANCH  15  17
HETATM   17  C4  UNL     1      -1.491   0.604  10.835  1.00  0.00     0.099 C 
BRANCH  17  18
HETATM   18  C5  UNL     1      -1.157   1.990  10.460  1.00  0.00     0.076 C 
BRANCH  18  19
HETATM   19  N2  UNL     1      -0.534   2.848  11.371  1.00  0.00    -0.291 NA
HETATM   20  C6  UNL     1       0.411   3.803  10.896  1.00  0.00     0.100 C 
HETATM   21  C7  UNL     1       0.323   5.156  11.600  1.00  0.00     0.083 C 
HETATM   22  C8  UNL     1      -0.991   5.838  11.419  1.00  0.00     0.166 C 
HETATM   23  C9  UNL     1      -2.008   4.726  11.091  1.00  0.00     0.083 C 
HETATM   24  O2  UNL     1      -1.008   6.791  10.388  1.00  0.00    -0.353 OA
HETATM   25  O3  UNL     1      -1.464   6.460  12.557  1.00  0.00    -0.353 OA
HETATM   26  C10 UNL     1      -1.645   3.579  12.047  1.00  0.00     0.100 C 
HETATM   27  C11 UNL     1      -2.289   7.347  10.614  1.00  0.00     0.197 C 
HETATM   28  C12 UNL     1      -2.538   7.221  12.101  1.00  0.00     0.197 C 
ENDBRANCH  18  19
ENDBRANCH  17  18
ENDBRANCH  15  17
ENDBRANCH   1  15
TORSDOF 7
ENDMDL
