MODEL 1
REMARK VINA RESULT: -7.316264204      0.000      0.000
REMARK  8 active torsions:
REMARK  status: ('A' for Active; 'I' for Inactive)
REMARK    1  A    between atoms: C4_4  and  O1_5 
REMARK    2  A    between atoms: O1_5  and  N1_6 
REMARK    3  A    between atoms: C7_11  and  S1_12 
REMARK    4  A    between atoms: S1_12  and  C8_13 
REMARK    5  A    between atoms: C8_13  and  C9_14 
REMARK    6  A    between atoms: C9_14  and  C10_15 
REMARK    7  A    between atoms: C10_15  and  O2_16 
REMARK    8  A    between atoms: C11_19  and  C12_20 
ROOT
HETATM    1  O1  UNL     1      -4.048   2.299  11.246  1.00  0.00    -0.243 OA
ENDROOT
BRANCH   1   2
HETATM    2  C4  UNL     1      -3.511   2.963  12.356  1.00  0.00     0.292 C 
HETATM    3  C3  UNL     1      -4.276   4.232  12.620  1.00  0.00     0.101 C 
HETATM    4  C2  UNL     1      -4.431   4.556  14.071  1.00  0.00     0.070 C 
HETATM    5  C1  UNL     1      -3.397   5.509  14.631  1.00  0.00     0.047 C 
HETATM    6  C13 UNL     1      -4.732   3.379  14.940  1.00  0.00     0.083 C 
HETATM    7  O6  UNL     1      -5.713   5.041  14.366  1.00  0.00    -0.379 OA
HETATM    8  C11 UNL     1      -4.430   2.057  14.296  1.00  0.00     0.234 C 
HETATM    9  C14 UNL     1      -6.182   3.825  14.867  1.00  0.00     0.179 C 
HETATM   10  O3  UNL     1      -3.363   2.143  13.441  1.00  0.00    -0.342 OA
BRANCH   8  11
HETATM   11  C12 UNL     1      -4.068   1.109  15.388  1.00  0.00     0.203 C 
HETATM   12  O4  UNL     1      -3.026   1.262  16.079  1.00  0.00    -0.646 OA
HETATM   13  O5  UNL     1      -4.864   0.015  15.687  1.00  0.00    -0.646 OA
ENDBRANCH   8  11
ENDBRANCH   1   2
BRANCH   1  14
HETATM   14  N1  UNL     1      -3.350   1.193  10.916  1.00  0.00    -0.232 N 
HETATM   15  C5  UNL     1      -3.963  -0.104  10.592  1.00  0.00     0.178 C 
HETATM   16  C6  UNL     1      -2.791  -1.028  10.878  1.00  0.00     0.144 C 
HETATM   17  N2  UNL     1      -1.617  -0.188  10.793  1.00  0.00    -0.368 N 
HETATM   18  C7  UNL     1      -1.936   1.044  10.814  1.00  0.00     0.162 C 
ATOM     19  H2  UNL     1      -0.661  -0.536  10.724  1.00  0.00     0.161 HD
BRANCH  18  20
HETATM   20  S1  UNL     1      -0.833   2.459  10.731  1.00  0.00    -0.092 SA
BRANCH  20  21
HETATM   21  C8  UNL     1      -1.211   3.450   9.265  1.00  0.00     0.084 C 
BRANCH  21  22
HETATM   22  C9  UNL     1      -1.699   4.797   9.708  1.00  0.00     0.036 C 
BRANCH  22  23
HETATM   23  C10 UNL     1      -3.025   5.165   9.079  1.00  0.00     0.165 C 
BRANCH  23  24
HETATM   24  O2  UNL     1      -3.867   4.068   8.995  1.00  0.00    -0.401 OA
ATOM     25  H2  UNL     1      -4.557   4.208   8.357  1.00  0.00     0.209 HD
ENDBRANCH  23  24
ENDBRANCH  22  23
ENDBRANCH  21  22
ENDBRANCH  20  21
ENDBRANCH  18  20
ENDBRANCH   1  14
TORSDOF 8
ENDMDL
MODEL 2
REMARK VINA RESULT: -7.281353226      1.191      1.629
REMARK  8 active torsions:
REMARK  status: ('A' for Active; 'I' for Inactive)
REMARK    1  A    between atoms: C4_4  and  O1_5 
REMARK    2  A    between atoms: O1_5  and  N1_6 
REMARK    3  A    between atoms: C7_11  and  S1_12 
REMARK    4  A    between atoms: S1_12  and  C8_13 
REMARK    5  A    between atoms: C8_13  and  C9_14 
REMARK    6  A    between atoms: C9_14  and  C10_15 
REMARK    7  A    between atoms: C10_15  and  O2_16 
REMARK    8  A    between atoms: C11_19  and  C12_20 
ROOT
HETATM    1  O1  UNL     1      -4.146   2.446  11.229  1.00  0.00    -0.243 OA
ENDROOT
BRANCH   1   2
HETATM    2  C4  UNL     1      -3.640   3.092  12.364  1.00  0.00     0.292 C 
HETATM    3  C3  UNL     1      -4.510   4.267  12.720  1.00  0.00     0.101 C 
HETATM    4  C2  UNL     1      -4.653   4.491  14.192  1.00  0.00     0.070 C 
HETATM    5  C1  UNL     1      -3.695   5.503  14.783  1.00  0.00     0.047 C 
HETATM    6  C13 UNL     1      -4.821   3.244  14.996  1.00  0.00     0.083 C 
HETATM    7  O6  UNL     1      -5.966   4.838  14.544  1.00  0.00    -0.379 OA
HETATM    8  C11 UNL     1      -4.416   1.995  14.267  1.00  0.00     0.234 C 
HETATM    9  C14 UNL     1      -6.307   3.556  14.983  1.00  0.00     0.179 C 
HETATM   10  O3  UNL     1      -3.387   2.228  13.395  1.00  0.00    -0.342 OA
BRANCH   8  11
HETATM   11  C12 UNL     1      -3.938   1.023  15.292  1.00  0.00     0.203 C 
HETATM   12  O4  UNL     1      -2.991   1.300  16.074  1.00  0.00    -0.646 OA
HETATM   13  O5  UNL     1      -4.516  -0.229  15.424  1.00  0.00    -0.646 OA
ENDBRANCH   8  11
ENDBRANCH   1   2
BRANCH   1  14
HETATM   14  N1  UNL     1      -3.527   1.272  10.982  1.00  0.00    -0.232 N 
HETATM   15  C5  UNL     1      -4.183  -0.041  11.074  1.00  0.00     0.178 C 
HETATM   16  C6  UNL     1      -2.965  -0.929  11.271  1.00  0.00     0.144 C 
HETATM   17  N2  UNL     1      -1.852  -0.164  10.755  1.00  0.00    -0.368 N 
HETATM   18  C7  UNL     1      -2.172   1.057  10.598  1.00  0.00     0.162 C 
ATOM     19  H2  UNL     1      -0.932  -0.552  10.546  1.00  0.00     0.161 HD
BRANCH  18  20
HETATM   20  S1  UNL     1      -1.133   2.388   9.984  1.00  0.00    -0.092 SA
BRANCH  20  21
HETATM   21  C8  UNL     1      -0.201   3.122  11.351  1.00  0.00     0.084 C 
BRANCH  21  22
HETATM   22  C9  UNL     1      -0.379   4.610  11.310  1.00  0.00     0.036 C 
BRANCH  22  23
HETATM   23  C10 UNL     1      -0.748   5.184  12.661  1.00  0.00     0.165 C 
BRANCH  23  24
HETATM   24  O2  UNL     1      -0.797   4.197  13.633  1.00  0.00    -0.401 OA
ATOM     25  H2  UNL     1       0.006   4.173  14.142  1.00  0.00     0.209 HD
ENDBRANCH  23  24
ENDBRANCH  22  23
ENDBRANCH  21  22
ENDBRANCH  20  21
ENDBRANCH  18  20
ENDBRANCH   1  14
TORSDOF 8
ENDMDL
MODEL 3
REMARK VINA RESULT: -7.230961303      1.734      1.983
REMARK  8 active torsions:
REMARK  status: ('A' for Active; 'I' for Inactive)
REMARK    1  A    between atoms: C4_4  and  O1_5 
REMARK    2  A    between atoms: O1_5  and  N1_6 
REMARK    3  A    between atoms: C7_11  and  S1_12 
REMARK    4  A    between atoms: S1_12  and  C8_13 
REMARK    5  A    between atoms: C8_13  and  C9_14 
REMARK    6  A    between atoms: C9_14  and  C10_15 
REMARK    7  A    between atoms: C10_15  and  O2_16 
REMARK    8  A    between atoms: C11_19  and  C12_20 
ROOT
HETATM    1  O1  UNL     1      -4.084   2.325  11.181  1.00  0.00    -0.243 OA
ENDROOT
BRANCH   1   2
HETATM    2  C4  UNL     1      -3.537   2.994  12.283  1.00  0.00     0.292 C 
HETATM    3  C3  UNL     1      -4.335   4.235  12.583  1.00  0.00     0.101 C 
HETATM    4  C2  UNL     1      -4.458   4.538  14.042  1.00  0.00     0.070 C 
HETATM    5  C1  UNL     1      -3.440   5.519  14.583  1.00  0.00     0.047 C 
HETATM    6  C13 UNL     1      -4.696   3.343  14.906  1.00  0.00     0.083 C 
HETATM    7  O6  UNL     1      -5.747   4.978  14.379  1.00  0.00    -0.379 OA
HETATM    8  C11 UNL     1      -4.369   2.039  14.238  1.00  0.00     0.234 C 
HETATM    9  C14 UNL     1      -6.161   3.741  14.879  1.00  0.00     0.179 C 
HETATM   10  O3  UNL     1      -3.331   2.168  13.354  1.00  0.00    -0.342 OA
BRANCH   8  11
HETATM   11  C12 UNL     1      -3.945   1.091  15.308  1.00  0.00     0.203 C 
HETATM   12  O4  UNL     1      -3.026   1.379  16.120  1.00  0.00    -0.646 OA
HETATM   13  O5  UNL     1      -4.544  -0.150  15.452  1.00  0.00    -0.646 OA
ENDBRANCH   8  11
ENDBRANCH   1   2
BRANCH   1  14
HETATM   14  N1  UNL     1      -3.446   1.168  10.909  1.00  0.00    -0.232 N 
HETATM   15  C5  UNL     1      -4.090  -0.154  10.928  1.00  0.00     0.178 C 
HETATM   16  C6  UNL     1      -2.871  -1.038  11.129  1.00  0.00     0.144 C 
HETATM   17  N2  UNL     1      -1.749  -0.243  10.679  1.00  0.00    -0.368 N 
HETATM   18  C7  UNL     1      -2.077   0.981  10.559  1.00  0.00     0.162 C 
ATOM     19  H2  UNL     1      -0.819  -0.614  10.484  1.00  0.00     0.161 HD
BRANCH  18  20
HETATM   20  S1  UNL     1      -1.033   2.344  10.032  1.00  0.00    -0.092 SA
BRANCH  20  21
HETATM   21  C8  UNL     1      -0.195   3.067  11.463  1.00  0.00     0.084 C 
BRANCH  21  22
HETATM   22  C9  UNL     1       0.388   4.389  11.061  1.00  0.00     0.036 C 
BRANCH  22  23
HETATM   23  C10 UNL     1       1.826   4.269  10.601  1.00  0.00     0.165 C 
BRANCH  23  24
HETATM   24  O2  UNL     1       2.695   4.181  11.677  1.00  0.00    -0.401 OA
ATOM     25  H2  UNL     1       2.874   5.037  12.048  1.00  0.00     0.209 HD
ENDBRANCH  23  24
ENDBRANCH  22  23
ENDBRANCH  21  22
ENDBRANCH  20  21
ENDBRANCH  18  20
ENDBRANCH   1  14
TORSDOF 8
ENDMDL
MODEL 4
REMARK VINA RESULT: -6.919011057      1.757      3.505
REMARK  8 active torsions:
REMARK  status: ('A' for Active; 'I' for Inactive)
REMARK    1  A    between atoms: C4_4  and  O1_5 
REMARK    2  A    between atoms: O1_5  and  N1_6 
REMARK    3  A    between atoms: C7_11  and  S1_12 
REMARK    4  A    between atoms: S1_12  and  C8_13 
REMARK    5  A    between atoms: C8_13  and  C9_14 
REMARK    6  A    between atoms: C9_14  and  C10_15 
REMARK    7  A    between atoms: C10_15  and  O2_16 
REMARK    8  A    between atoms: C11_19  and  C12_20 
ROOT
HETATM    1  O1  UNL     1      -3.276   2.980  11.347  1.00  0.00    -0.243 OA
ENDROOT
BRANCH   1   2
HETATM    2  C4  UNL     1      -3.142   3.550  12.620  1.00  0.00     0.292 C 
HETATM    3  C3  UNL     1      -4.191   4.610  12.824  1.00  0.00     0.101 C 
HETATM    4  C2  UNL     1      -4.721   4.676  14.221  1.00  0.00     0.070 C 
HETATM    5  C1  UNL     1      -4.053   5.700  15.113  1.00  0.00     0.047 C 
HETATM    6  C13 UNL     1      -4.953   3.346  14.860  1.00  0.00     0.083 C 
HETATM    7  O6  UNL     1      -6.109   4.876  14.246  1.00  0.00    -0.379 OA
HETATM    8  C11 UNL     1      -4.251   2.212  14.171  1.00  0.00     0.234 C 
HETATM    9  C14 UNL     1      -6.413   3.534  14.486  1.00  0.00     0.179 C 
HETATM   10  O3  UNL     1      -3.066   2.614  13.614  1.00  0.00    -0.342 OA
BRANCH   8  11
HETATM   11  C12 UNL     1      -3.946   1.187  15.209  1.00  0.00     0.203 C 
HETATM   12  O4  UNL     1      -3.044   1.367  16.070  1.00  0.00    -0.646 OA
HETATM   13  O5  UNL     1      -4.642  -0.009  15.270  1.00  0.00    -0.646 OA
ENDBRANCH   8  11
ENDBRANCH   1   2
BRANCH   1  14
HETATM   14  N1  UNL     1      -2.117   2.978  10.656  1.00  0.00    -0.232 N 
HETATM   15  C5  UNL     1      -1.437   4.192  10.181  1.00  0.00     0.178 C 
HETATM   16  C6  UNL     1      -0.602   3.603   9.056  1.00  0.00     0.144 C 
HETATM   17  N2  UNL     1      -0.492   2.194   9.365  1.00  0.00    -0.368 N 
HETATM   18  C7  UNL     1      -1.336   1.855  10.255  1.00  0.00     0.162 C 
ATOM     19  H2  UNL     1       0.175   1.557   8.929  1.00  0.00     0.161 HD
BRANCH  18  20
HETATM   20  S1  UNL     1      -1.580   0.222  10.963  1.00  0.00    -0.092 SA
BRANCH  20  21
HETATM   21  C8  UNL     1      -3.238  -0.382  10.561  1.00  0.00     0.084 C 
BRANCH  21  22
HETATM   22  C9  UNL     1      -3.462  -1.682  11.274  1.00  0.00     0.036 C 
BRANCH  22  23
HETATM   23  C10 UNL     1      -2.282  -2.622  11.143  1.00  0.00     0.165 C 
BRANCH  23  24
HETATM   24  O2  UNL     1      -2.693  -3.944  11.081  1.00  0.00    -0.401 OA
ATOM     25  H2  UNL     1      -3.539  -4.063  11.497  1.00  0.00     0.209 HD
ENDBRANCH  23  24
ENDBRANCH  22  23
ENDBRANCH  21  22
ENDBRANCH  20  21
ENDBRANCH  18  20
ENDBRANCH   1  14
TORSDOF 8
ENDMDL
MODEL 5
REMARK VINA RESULT: -6.707544858      2.363      5.467
REMARK  8 active torsions:
REMARK  status: ('A' for Active; 'I' for Inactive)
REMARK    1  A    between atoms: C4_4  and  O1_5 
REMARK    2  A    between atoms: O1_5  and  N1_6 
REMARK    3  A    between atoms: C7_11  and  S1_12 
REMARK    4  A    between atoms: S1_12  and  C8_13 
REMARK    5  A    between atoms: C8_13  and  C9_14 
REMARK    6  A    between atoms: C9_14  and  C10_15 
REMARK    7  A    between atoms: C10_15  and  O2_16 
REMARK    8  A    between atoms: C11_19  and  C12_20 
ROOT
HETATM    1  O1  UNL     1      -2.623   2.011  10.629  1.00  0.00    -0.243 OA
ENDROOT
BRANCH   1   2
HETATM    2  C4  UNL     1      -1.343   2.480  10.949  1.00  0.00     0.292 C 
HETATM    3  C3  UNL     1      -0.777   3.265   9.796  1.00  0.00     0.101 C 
HETATM    4  C2  UNL     1       0.050   4.439  10.211  1.00  0.00     0.070 C 
HETATM    5  C1  UNL     1       1.541   4.183  10.276  1.00  0.00     0.047 C 
HETATM    6  C13 UNL     1      -0.503   5.212  11.363  1.00  0.00     0.083 C 
HETATM    7  O6  UNL     1      -0.190   5.561   9.404  1.00  0.00    -0.379 OA
HETATM    8  C11 UNL     1      -1.543   4.467  12.148  1.00  0.00     0.234 C 
HETATM    9  C14 UNL     1      -1.039   6.181  10.324  1.00  0.00     0.179 C 
HETATM   10  O3  UNL     1      -1.301   3.119  12.158  1.00  0.00    -0.342 OA
BRANCH   8  11
HETATM   11  C12 UNL     1      -1.466   4.956  13.554  1.00  0.00     0.203 C 
HETATM   12  O4  UNL     1      -1.416   4.160  14.530  1.00  0.00    -0.646 OA
HETATM   13  O5  UNL     1      -1.448   6.310  13.848  1.00  0.00    -0.646 OA
ENDBRANCH   8  11
ENDBRANCH   1   2
BRANCH   1  14
HETATM   14  N1  UNL     1      -2.880   0.799  11.165  1.00  0.00    -0.232 N 
HETATM   15  C5  UNL     1      -2.368  -0.469  10.624  1.00  0.00     0.178 C 
HETATM   16  C6  UNL     1      -3.382  -1.435  11.212  1.00  0.00     0.144 C 
HETATM   17  N2  UNL     1      -3.947  -0.743  12.350  1.00  0.00    -0.368 N 
HETATM   18  C7  UNL     1      -3.664   0.497  12.316  1.00  0.00     0.162 C 
ATOM     19  H2  UNL     1      -4.499  -1.190  13.082  1.00  0.00     0.161 HD
BRANCH  18  20
HETATM   20  S1  UNL     1      -4.138   1.758  13.504  1.00  0.00    -0.092 SA
BRANCH  20  21
HETATM   21  C8  UNL     1      -4.141   1.060  15.174  1.00  0.00     0.084 C 
BRANCH  21  22
HETATM   22  C9  UNL     1      -5.089   1.852  16.024  1.00  0.00     0.036 C 
BRANCH  22  23
HETATM   23  C10 UNL     1      -6.025   0.967  16.821  1.00  0.00     0.165 C 
BRANCH  23  24
HETATM   24  O2  UNL     1      -5.600  -0.351  16.817  1.00  0.00    -0.401 OA
ATOM     25  H2  UNL     1      -6.103  -0.876  16.205  1.00  0.00     0.209 HD
ENDBRANCH  23  24
ENDBRANCH  22  23
ENDBRANCH  21  22
ENDBRANCH  20  21
ENDBRANCH  18  20
ENDBRANCH   1  14
TORSDOF 8
ENDMDL
