MODEL 1
REMARK VINA RESULT: -7.199357054      0.000      0.000
REMARK  12 active torsions:
REMARK  status: ('A' for Active; 'I' for Inactive)
REMARK    1  A    between atoms: C2_2  and  C3_3 
REMARK    2  A    between atoms: C3_3  and  S1_4 
REMARK    3  A    between atoms: S1_4  and  C4_5 
REMARK    4  A    between atoms: C4_5  and  C5_6 
REMARK    5  A    between atoms: C4_5  and  C6_9 
REMARK    6  A    between atoms: C5_6  and  O1_7 
REMARK    7  A    between atoms: C7_10  and  O2_11 
REMARK    8  A    between atoms: O2_11  and  C8_12 
REMARK    9  A    between atoms: C12_17  and  O4_18 
REMARK   10  A    between atoms: O4_18  and  C13_19 
REMARK   11  A    between atoms: C15_21  and  O5_22 
REMARK   12  A    between atoms: C17_25  and  O6_26 
ROOT
HETATM    1  C13 UNL     1      -5.573   2.843  15.174  1.00  0.00     0.095 A 
HETATM    2  C14 UNL     1      -6.127   2.951  16.468  1.00  0.00     0.075 A 
HETATM    3  C15 UNL     1      -6.071   1.948  17.386  1.00  0.00     0.071 A 
HETATM    4  C16 UNL     1      -5.456   0.755  17.085  1.00  0.00     0.074 A 
HETATM    5  C17 UNL     1      -4.903   0.596  15.849  1.00  0.00     0.091 A 
HETATM    6  C18 UNL     1      -4.968   1.638  14.914  1.00  0.00     0.111 A 
HETATM    7  C19 UNL     1      -4.340   1.354  13.639  1.00  0.00     0.105 C 
HETATM    8  N1  UNL     1      -3.830   1.102  12.637  1.00  0.00    -0.191 NA
ENDROOT
BRANCH   1   9
HETATM    9  O4  UNL     1      -5.683   3.872  14.366  1.00  0.00    -0.344 OA
BRANCH   9  10
HETATM   10  C12 UNL     1      -5.234   5.071  14.087  1.00  0.00     0.134 C 
HETATM   11  C11 UNL     1      -3.802   5.422  14.580  1.00  0.00     0.026 C 
HETATM   12  C10 UNL     1      -2.765   4.395  14.301  1.00  0.00     0.045 C 
HETATM   13  C21 UNL     1      -3.764   6.299  13.304  1.00  0.00     0.027 C 
HETATM   14  C7  UNL     1      -1.768   5.029  13.269  1.00  0.00     0.163 C 
HETATM   15  C6  UNL     1      -2.289   6.372  13.098  1.00  0.00    -0.031 C 
HETATM   16  C20 UNL     1      -4.588   5.263  12.672  1.00  0.00     0.042 C 
BRANCH  14  17
HETATM   17  O2  UNL     1      -1.835   4.162  12.178  1.00  0.00    -0.312 OA
BRANCH  17  18
HETATM   18  C8  UNL     1      -0.733   3.450  11.778  1.00  0.00     0.255 C 
HETATM   19  C9  UNL     1       0.483   4.122  11.193  1.00  0.00     0.126 C 
HETATM   20  O3  UNL     1      -0.633   2.197  11.859  1.00  0.00    -0.266 OA
ENDBRANCH  17  18
ENDBRANCH  14  17
BRANCH  15  21
HETATM   21  C4  UNL     1      -1.811   7.278  12.012  1.00  0.00     0.007 C 
BRANCH  21  22
HETATM   22  S1  UNL     1      -2.914   8.542  11.500  1.00  0.00    -0.128 SA
BRANCH  22  23
HETATM   23  C3  UNL     1      -4.289   8.248  10.490  1.00  0.00     0.105 C 
BRANCH  23  24
HETATM   24  C2  UNL     1      -5.616   8.738  10.858  1.00  0.00    -0.026 C 
HETATM   25  C1  UNL     1      -6.621   8.033  11.250  1.00  0.00     0.007 C 
ENDBRANCH  23  24
ENDBRANCH  22  23
ENDBRANCH  21  22
BRANCH  21  26
HETATM   26  C5  UNL     1      -0.366   7.665  12.250  1.00  0.00     0.210 C 
BRANCH  26  27
HETATM   27  O1  UNL     1      -0.324   8.296  13.516  1.00  0.00    -0.396 OA
ATOM     28  H1  UNL     1       0.301   9.008  13.441  1.00  0.00     0.209 HD
ENDBRANCH  26  27
ENDBRANCH  21  26
ENDBRANCH  15  21
ENDBRANCH   9  10
ENDBRANCH   1   9
BRANCH   5  29
HETATM   29  O6  UNL     1      -4.291  -0.590  15.553  1.00  0.00    -0.359 OA
ATOM     30  H6  UNL     1      -3.348  -0.652  15.650  1.00  0.00     0.217 HD
ENDBRANCH   5  29
BRANCH   3  31
HETATM   31  O5  UNL     1      -6.647   2.121  18.666  1.00  0.00    -0.361 OA
ATOM     32  H5  UNL     1      -7.106   1.402  19.086  1.00  0.00     0.217 HD
ENDBRANCH   3  31
TORSDOF 12
ENDMDL
MODEL 2
REMARK VINA RESULT: -7.128618433      1.826      2.594
REMARK  12 active torsions:
REMARK  status: ('A' for Active; 'I' for Inactive)
REMARK    1  A    between atoms: C2_2  and  C3_3 
REMARK    2  A    between atoms: C3_3  and  S1_4 
REMARK    3  A    between atoms: S1_4  and  C4_5 
REMARK    4  A    between atoms: C4_5  and  C5_6 
REMARK    5  A    between atoms: C4_5  and  C6_9 
REMARK    6  A    between atoms: C5_6  and  O1_7 
REMARK    7  A    between atoms: C7_10  and  O2_11 
REMARK    8  A    between atoms: O2_11  and  C8_12 
REMARK    9  A    between atoms: C12_17  and  O4_18 
REMARK   10  A    between atoms: O4_18  and  C13_19 
REMARK   11  A    between atoms: C15_21  and  O5_22 
REMARK   12  A    between atoms: C17_25  and  O6_26 
ROOT
HETATM    1  C13 UNL     1      -4.916   2.831  14.098  1.00  0.00     0.095 A 
HETATM    2  C14 UNL     1      -4.875   2.366  15.431  1.00  0.00     0.075 A 
HETATM    3  C15 UNL     1      -4.604   1.074  15.760  1.00  0.00     0.071 A 
HETATM    4  C16 UNL     1      -4.352   0.140  14.781  1.00  0.00     0.074 A 
HETATM    5  C17 UNL     1      -4.378   0.533  13.477  1.00  0.00     0.091 A 
HETATM    6  C18 UNL     1      -4.658   1.868  13.153  1.00  0.00     0.111 A 
HETATM    7  C19 UNL     1      -4.651   2.167  11.735  1.00  0.00     0.105 C 
HETATM    8  N1  UNL     1      -4.635   2.377  10.602  1.00  0.00    -0.191 NA
ENDROOT
BRANCH   1   9
HETATM    9  O4  UNL     1      -5.187   4.099  13.893  1.00  0.00    -0.344 OA
BRANCH   9  10
HETATM   10  C12 UNL     1      -4.681   5.305  13.803  1.00  0.00     0.134 C 
HETATM   11  C11 UNL     1      -3.225   5.499  14.312  1.00  0.00     0.026 C 
HETATM   12  C10 UNL     1      -2.247   4.483  13.845  1.00  0.00     0.045 C 
HETATM   13  C21 UNL     1      -3.162   6.571  13.196  1.00  0.00     0.027 C 
HETATM   14  C7  UNL     1      -1.235   5.229  12.906  1.00  0.00     0.163 C 
HETATM   15  C6  UNL     1      -1.688   6.606  12.970  1.00  0.00    -0.031 C 
HETATM   16  C20 UNL     1      -4.048   5.695  12.423  1.00  0.00     0.042 C 
BRANCH  14  17
HETATM   17  O2  UNL     1      -1.364   4.557  11.691  1.00  0.00    -0.312 OA
BRANCH  17  18
HETATM   18  C8  UNL     1      -0.478   3.572  11.336  1.00  0.00     0.255 C 
HETATM   19  C9  UNL     1      -0.910   2.142  11.140  1.00  0.00     0.126 C 
HETATM   20  O3  UNL     1       0.752   3.763  11.144  1.00  0.00    -0.266 OA
ENDBRANCH  17  18
ENDBRANCH  14  17
BRANCH  15  21
HETATM   21  C4  UNL     1      -1.181   7.654  12.036  1.00  0.00     0.007 C 
BRANCH  21  22
HETATM   22  S1  UNL     1      -1.780   9.284  12.284  1.00  0.00    -0.128 SA
BRANCH  22  23
HETATM   23  C3  UNL     1      -1.376  10.242  13.668  1.00  0.00     0.105 C 
BRANCH  23  24
HETATM   24  C2  UNL     1      -0.828   9.630  14.876  1.00  0.00    -0.026 C 
HETATM   25  C1  UNL     1      -1.411   8.776  15.646  1.00  0.00     0.007 C 
ENDBRANCH  23  24
ENDBRANCH  22  23
ENDBRANCH  21  22
BRANCH  21  26
HETATM   26  C5  UNL     1       0.306   7.481  11.811  1.00  0.00     0.210 C 
BRANCH  26  27
HETATM   27  O1  UNL     1       0.452   6.867  10.544  1.00  0.00    -0.396 OA
ATOM     28  H1  UNL     1       1.291   6.421  10.557  1.00  0.00     0.209 HD
ENDBRANCH  26  27
ENDBRANCH  21  26
ENDBRANCH  15  21
ENDBRANCH   9  10
ENDBRANCH   1   9
BRANCH   5  29
HETATM   29  O6  UNL     1      -4.125  -0.397  12.507  1.00  0.00    -0.359 OA
ATOM     30  H6  UNL     1      -4.844  -0.690  11.960  1.00  0.00     0.217 HD
ENDBRANCH   5  29
BRANCH   3  31
HETATM   31  O5  UNL     1      -4.579   0.674  17.115  1.00  0.00    -0.361 OA
ATOM     32  H5  UNL     1      -4.006  -0.030  17.397  1.00  0.00     0.217 HD
ENDBRANCH   3  31
TORSDOF 12
ENDMDL
MODEL 3
REMARK VINA RESULT: -7.063445346      1.474      2.060
REMARK  12 active torsions:
REMARK  status: ('A' for Active; 'I' for Inactive)
REMARK    1  A    between atoms: C2_2  and  C3_3 
REMARK    2  A    between atoms: C3_3  and  S1_4 
REMARK    3  A    between atoms: S1_4  and  C4_5 
REMARK    4  A    between atoms: C4_5  and  C5_6 
REMARK    5  A    between atoms: C4_5  and  C6_9 
REMARK    6  A    between atoms: C5_6  and  O1_7 
REMARK    7  A    between atoms: C7_10  and  O2_11 
REMARK    8  A    between atoms: O2_11  and  C8_12 
REMARK    9  A    between atoms: C12_17  and  O4_18 
REMARK   10  A    between atoms: O4_18  and  C13_19 
REMARK   11  A    between atoms: C15_21  and  O5_22 
REMARK   12  A    between atoms: C17_25  and  O6_26 
ROOT
HETATM    1  C13 UNL     1      -5.485   2.897  15.142  1.00  0.00     0.095 A 
HETATM    2  C14 UNL     1      -6.053   3.011  16.431  1.00  0.00     0.075 A 
HETATM    3  C15 UNL     1      -6.090   1.983  17.320  1.00  0.00     0.071 A 
HETATM    4  C16 UNL     1      -5.561   0.756  16.995  1.00  0.00     0.074 A 
HETATM    5  C17 UNL     1      -4.999   0.588  15.764  1.00  0.00     0.091 A 
HETATM    6  C18 UNL     1      -4.969   1.657  14.858  1.00  0.00     0.111 A 
HETATM    7  C19 UNL     1      -4.341   1.361  13.586  1.00  0.00     0.105 C 
HETATM    8  N1  UNL     1      -3.833   1.098  12.585  1.00  0.00    -0.191 NA
ENDROOT
BRANCH   1   9
HETATM    9  O4  UNL     1      -5.503   3.953  14.363  1.00  0.00    -0.344 OA
BRANCH   9  10
HETATM   10  C12 UNL     1      -4.970   5.128  14.134  1.00  0.00     0.134 C 
HETATM   11  C11 UNL     1      -3.489   5.328  14.564  1.00  0.00     0.026 C 
HETATM   12  C10 UNL     1      -2.558   4.242  14.163  1.00  0.00     0.045 C 
HETATM   13  C21 UNL     1      -3.444   6.283  13.346  1.00  0.00     0.027 C 
HETATM   14  C7  UNL     1      -1.566   4.861  13.117  1.00  0.00     0.163 C 
HETATM   15  C6  UNL     1      -1.981   6.250  13.061  1.00  0.00    -0.031 C 
HETATM   16  C20 UNL     1      -4.384   5.362  12.699  1.00  0.00     0.042 C 
BRANCH  14  17
HETATM   17  O2  UNL     1      -1.763   4.078  11.980  1.00  0.00    -0.312 OA
BRANCH  17  18
HETATM   18  C8  UNL     1      -0.742   3.321  11.463  1.00  0.00     0.255 C 
HETATM   19  C9  UNL     1      -0.969   1.930  10.931  1.00  0.00     0.126 C 
HETATM   20  O3  UNL     1       0.454   3.706  11.387  1.00  0.00    -0.266 OA
ENDBRANCH  17  18
ENDBRANCH  14  17
BRANCH  15  21
HETATM   21  C4  UNL     1      -1.485   7.186  12.008  1.00  0.00     0.007 C 
BRANCH  21  22
HETATM   22  S1  UNL     1      -2.116   8.822  12.051  1.00  0.00    -0.128 SA
BRANCH  22  23
HETATM   23  C3  UNL     1      -1.609  10.003  13.211  1.00  0.00     0.105 C 
BRANCH  23  24
HETATM   24  C2  UNL     1      -0.978   9.606  14.468  1.00  0.00    -0.026 C 
HETATM   25  C1  UNL     1      -1.488   8.863  15.390  1.00  0.00     0.007 C 
ENDBRANCH  23  24
ENDBRANCH  22  23
ENDBRANCH  21  22
BRANCH  21  26
HETATM   26  C5  UNL     1       0.007   7.016  11.816  1.00  0.00     0.210 C 
BRANCH  26  27
HETATM   27  O1  UNL     1       0.191   6.571  10.484  1.00  0.00    -0.396 OA
ATOM     28  H1  UNL     1       0.846   5.883  10.519  1.00  0.00     0.209 HD
ENDBRANCH  26  27
ENDBRANCH  21  26
ENDBRANCH  15  21
ENDBRANCH   9  10
ENDBRANCH   1   9
BRANCH   5  29
HETATM   29  O6  UNL     1      -4.474  -0.632  15.445  1.00  0.00    -0.359 OA
ATOM     30  H6  UNL     1      -3.559  -0.799  15.638  1.00  0.00     0.217 HD
ENDBRANCH   5  29
BRANCH   3  31
HETATM   31  O5  UNL     1      -6.674   2.164  18.595  1.00  0.00    -0.361 OA
ATOM     32  H5  UNL     1      -7.307   2.859  18.737  1.00  0.00     0.217 HD
ENDBRANCH   3  31
TORSDOF 12
ENDMDL
MODEL 4
REMARK VINA RESULT: -6.789009735      1.101      1.367
REMARK  12 active torsions:
REMARK  status: ('A' for Active; 'I' for Inactive)
REMARK    1  A    between atoms: C2_2  and  C3_3 
REMARK    2  A    between atoms: C3_3  and  S1_4 
REMARK    3  A    between atoms: S1_4  and  C4_5 
REMARK    4  A    between atoms: C4_5  and  C5_6 
REMARK    5  A    between atoms: C4_5  and  C6_9 
REMARK    6  A    between atoms: C5_6  and  O1_7 
REMARK    7  A    between atoms: C7_10  and  O2_11 
REMARK    8  A    between atoms: O2_11  and  C8_12 
REMARK    9  A    between atoms: C12_17  and  O4_18 
REMARK   10  A    between atoms: O4_18  and  C13_19 
REMARK   11  A    between atoms: C15_21  and  O5_22 
REMARK   12  A    between atoms: C17_25  and  O6_26 
ROOT
HETATM    1  C13 UNL     1      -5.044   2.805  14.199  1.00  0.00     0.095 A 
HETATM    2  C14 UNL     1      -5.013   2.353  15.537  1.00  0.00     0.075 A 
HETATM    3  C15 UNL     1      -4.688   1.078  15.883  1.00  0.00     0.071 A 
HETATM    4  C16 UNL     1      -4.369   0.150  14.919  1.00  0.00     0.074 A 
HETATM    5  C17 UNL     1      -4.382   0.532  13.611  1.00  0.00     0.091 A 
HETATM    6  C18 UNL     1      -4.719   1.849  13.269  1.00  0.00     0.111 A 
HETATM    7  C19 UNL     1      -4.692   2.137  11.849  1.00  0.00     0.105 C 
HETATM    8  N1  UNL     1      -4.660   2.339  10.715  1.00  0.00    -0.191 NA
ENDROOT
BRANCH   1   9
HETATM    9  O4  UNL     1      -5.371   4.057  13.977  1.00  0.00    -0.344 OA
BRANCH   9  10
HETATM   10  C12 UNL     1      -4.912   5.274  13.812  1.00  0.00     0.134 C 
HETATM   11  C11 UNL     1      -3.471   5.560  14.320  1.00  0.00     0.026 C 
HETATM   12  C10 UNL     1      -2.448   4.556  13.929  1.00  0.00     0.045 C 
HETATM   13  C21 UNL     1      -3.438   6.559  13.137  1.00  0.00     0.027 C 
HETATM   14  C7  UNL     1      -1.456   5.279  12.952  1.00  0.00     0.163 C 
HETATM   15  C6  UNL     1      -1.964   6.638  12.921  1.00  0.00    -0.031 C 
HETATM   16  C20 UNL     1      -4.280   5.598  12.415  1.00  0.00     0.042 C 
BRANCH  14  17
HETATM   17  O2  UNL     1      -1.545   4.525  11.782  1.00  0.00    -0.312 OA
BRANCH  17  18
HETATM   18  C8  UNL     1      -0.661   3.505  11.536  1.00  0.00     0.255 C 
HETATM   19  C9  UNL     1       0.706   3.756  10.954  1.00  0.00     0.126 C 
HETATM   20  O3  UNL     1      -0.901   2.291  11.765  1.00  0.00    -0.266 OA
ENDBRANCH  17  18
ENDBRANCH  14  17
BRANCH  15  21
HETATM   21  C4  UNL     1      -1.489   7.642  11.924  1.00  0.00     0.007 C 
BRANCH  21  22
HETATM   22  S1  UNL     1      -2.592   8.951  11.539  1.00  0.00    -0.128 SA
BRANCH  22  23
HETATM   23  C3  UNL     1      -3.874   8.801  10.386  1.00  0.00     0.105 C 
BRANCH  23  24
HETATM   24  C2  UNL     1      -5.228   9.252  10.699  1.00  0.00    -0.026 C 
HETATM   25  C1  UNL     1      -6.215   8.524  11.095  1.00  0.00     0.007 C 
ENDBRANCH  23  24
ENDBRANCH  22  23
ENDBRANCH  21  22
BRANCH  21  26
HETATM   26  C5  UNL     1      -0.042   8.002  12.192  1.00  0.00     0.210 C 
BRANCH  26  27
HETATM   27  O1  UNL     1       0.003   8.532  13.504  1.00  0.00    -0.396 OA
ATOM     28  H1  UNL     1       0.873   8.348  13.838  1.00  0.00     0.209 HD
ENDBRANCH  26  27
ENDBRANCH  21  26
ENDBRANCH  15  21
ENDBRANCH   9  10
ENDBRANCH   1   9
BRANCH   5  29
HETATM   29  O6  UNL     1      -4.063  -0.393  12.656  1.00  0.00    -0.359 OA
ATOM     30  H6  UNL     1      -3.774  -0.086  11.805  1.00  0.00     0.217 HD
ENDBRANCH   5  29
BRANCH   3  31
HETATM   31  O5  UNL     1      -4.676   0.690  17.243  1.00  0.00    -0.361 OA
ATOM     32  H5  UNL     1      -3.853   0.511  17.682  1.00  0.00     0.217 HD
ENDBRANCH   3  31
TORSDOF 12
ENDMDL
MODEL 5
REMARK VINA RESULT: -6.766251309      0.903      1.202
REMARK  12 active torsions:
REMARK  status: ('A' for Active; 'I' for Inactive)
REMARK    1  A    between atoms: C2_2  and  C3_3 
REMARK    2  A    between atoms: C3_3  and  S1_4 
REMARK    3  A    between atoms: S1_4  and  C4_5 
REMARK    4  A    between atoms: C4_5  and  C5_6 
REMARK    5  A    between atoms: C4_5  and  C6_9 
REMARK    6  A    between atoms: C5_6  and  O1_7 
REMARK    7  A    between atoms: C7_10  and  O2_11 
REMARK    8  A    between atoms: O2_11  and  C8_12 
REMARK    9  A    between atoms: C12_17  and  O4_18 
REMARK   10  A    between atoms: O4_18  and  C13_19 
REMARK   11  A    between atoms: C15_21  and  O5_22 
REMARK   12  A    between atoms: C17_25  and  O6_26 
ROOT
HETATM    1  C13 UNL     1      -5.613   2.910  15.233  1.00  0.00     0.095 A 
HETATM    2  C14 UNL     1      -6.166   2.978  16.531  1.00  0.00     0.075 A 
HETATM    3  C15 UNL     1      -6.128   1.940  17.410  1.00  0.00     0.071 A 
HETATM    4  C16 UNL     1      -5.533   0.750  17.063  1.00  0.00     0.074 A 
HETATM    5  C17 UNL     1      -4.983   0.628  15.822  1.00  0.00     0.091 A 
HETATM    6  C18 UNL     1      -5.030   1.706  14.927  1.00  0.00     0.111 A 
HETATM    7  C19 UNL     1      -4.407   1.459  13.642  1.00  0.00     0.105 C 
HETATM    8  N1  UNL     1      -3.901   1.237  12.631  1.00  0.00    -0.191 NA
ENDROOT
BRANCH   1   9
HETATM    9  O4  UNL     1      -5.706   3.972  14.465  1.00  0.00    -0.344 OA
BRANCH   9  10
HETATM   10  C12 UNL     1      -5.192   5.145  14.189  1.00  0.00     0.134 C 
HETATM   11  C11 UNL     1      -3.741   5.415  14.681  1.00  0.00     0.026 C 
HETATM   12  C10 UNL     1      -2.763   4.334  14.399  1.00  0.00     0.045 C 
HETATM   13  C21 UNL     1      -3.657   6.292  13.408  1.00  0.00     0.027 C 
HETATM   14  C7  UNL     1      -1.734   4.915  13.366  1.00  0.00     0.163 C 
HETATM   15  C6  UNL     1      -2.180   6.285  13.200  1.00  0.00    -0.031 C 
HETATM   16  C20 UNL     1      -4.537   5.305  12.774  1.00  0.00     0.042 C 
BRANCH  14  17
HETATM   17  O2  UNL     1      -1.850   4.056  12.273  1.00  0.00    -0.312 OA
BRANCH  17  18
HETATM   18  C8  UNL     1      -0.755   3.388  11.785  1.00  0.00     0.255 C 
HETATM   19  C9  UNL     1       0.422   4.115  11.188  1.00  0.00     0.126 C 
HETATM   20  O3  UNL     1      -0.631   2.135  11.789  1.00  0.00    -0.266 OA
ENDBRANCH  17  18
ENDBRANCH  14  17
BRANCH  15  21
HETATM   21  C4  UNL     1      -1.654   7.167  12.116  1.00  0.00     0.007 C 
BRANCH  21  22
HETATM   22  S1  UNL     1      -2.840   8.080  11.201  1.00  0.00    -0.128 SA
BRANCH  22  23
HETATM   23  C3  UNL     1      -3.419   7.590   9.645  1.00  0.00     0.105 C 
BRANCH  23  24
HETATM   24  C2  UNL     1      -3.712   6.189   9.355  1.00  0.00    -0.026 C 
HETATM   25  C1  UNL     1      -2.861   5.260   9.082  1.00  0.00     0.007 C 
ENDBRANCH  23  24
ENDBRANCH  22  23
ENDBRANCH  21  22
BRANCH  21  26
HETATM   26  C5  UNL     1      -0.419   7.902  12.591  1.00  0.00     0.210 C 
BRANCH  26  27
HETATM   27  O1  UNL     1      -0.670   8.282  13.932  1.00  0.00    -0.396 OA
ATOM     28  H1  UNL     1      -1.026   7.515  14.366  1.00  0.00     0.209 HD
ENDBRANCH  26  27
ENDBRANCH  21  26
ENDBRANCH  15  21
ENDBRANCH   9  10
ENDBRANCH   1   9
BRANCH   5  29
HETATM   29  O6  UNL     1      -4.392  -0.557  15.481  1.00  0.00    -0.359 OA
ATOM     30  H6  UNL     1      -4.274  -0.757  14.560  1.00  0.00     0.217 HD
ENDBRANCH   5  29
BRANCH   3  31
HETATM   31  O5  UNL     1      -6.701   2.074  18.696  1.00  0.00    -0.361 OA
ATOM     32  H5  UNL     1      -6.615   1.375  19.334  1.00  0.00     0.217 HD
ENDBRANCH   3  31
TORSDOF 12
ENDMDL
