MODEL 1
REMARK VINA RESULT: -7.428163615      0.000      0.000
REMARK  9 active torsions:
REMARK  status: ('A' for Active; 'I' for Inactive)
REMARK    1  A    between atoms: C2_2  and  C3_3 
REMARK    2  A    between atoms: C3_3  and  C4_4 
REMARK    3  A    between atoms: N1_6  and  N2_8 
REMARK    4  A    between atoms: N2_8  and  C6_10 
REMARK    5  A    between atoms: C7_12  and  C8_13 
REMARK       I    between atoms: C8_13  and  N3_15 
REMARK    6  A    between atoms: N3_15  and  C9_17 
REMARK    7  A    between atoms: C9_17  and  C10_18 
REMARK    8  A    between atoms: C10_18  and  C11_19 
REMARK    9  A    between atoms: C15_26  and  N6_27 
ROOT
HETATM    1  C6  UNL     1      -3.972   3.840  13.064  1.00  0.00     0.134 A 
HETATM    2  S1  UNL     1      -4.445   5.475  12.988  1.00  0.00    -0.058 SA
HETATM    3  C7  UNL     1      -4.489   6.090  11.399  1.00  0.00     0.116 A 
HETATM    4  C14 UNL     1      -4.133   5.154  10.452  1.00  0.00     0.140 A 
HETATM    5  N4  UNL     1      -4.156   5.630   9.086  1.00  0.00    -0.081 NA
HETATM    6  N5  UNL     1      -3.790   3.910  10.701  1.00  0.00    -0.327 N 
ATOM      7  H5  UNL     1      -3.559   3.357   9.874  1.00  0.00     0.168 HD
HETATM    8  C15 UNL     1      -3.696   3.255  11.849  1.00  0.00     0.140 A 
ENDROOT
BRANCH   1   9
HETATM    9  N2  UNL     1      -3.887   3.223  14.181  1.00  0.00    -0.291 N 
ATOM     10  H2  UNL     1      -2.998   2.796  14.441  1.00  0.00     0.187 HD
BRANCH   9  11
HETATM   11  N1  UNL     1      -4.955   3.113  15.045  1.00  0.00    -0.308 N 
HETATM   12  C4  UNL     1      -5.173   2.144  15.850  1.00  0.00    -0.000 C 
HETATM   13  C5  UNL     1      -4.197   1.021  15.870  1.00  0.00     0.065 C 
ATOM     14  H1  UNL     1      -5.634   3.874  15.043  1.00  0.00     0.186 HD
BRANCH  12  15
HETATM   15  C3  UNL     1      -6.342   2.112  16.737  1.00  0.00     0.053 C 
BRANCH  15  16
HETATM   16  C2  UNL     1      -6.152   1.218  17.931  1.00  0.00     0.001 C 
HETATM   17  C1  UNL     1      -6.197   2.063  19.179  1.00  0.00     0.005 C 
ENDBRANCH  15  16
ENDBRANCH  12  15
ENDBRANCH   9  11
ENDBRANCH   1   9
BRANCH   8  18
HETATM   18  N6  UNL     1      -3.286   1.872  11.770  1.00  0.00    -0.362 N 
HETATM   19  C16 UNL     1      -4.149   0.807  12.282  1.00  0.00     0.154 C 
HETATM   20  C17 UNL     1      -4.418  -0.111  11.106  1.00  0.00     0.291 C 
HETATM   21  N7  UNL     1      -3.166  -0.740  10.767  1.00  0.00     0.087 N 
HETATM   22  C18 UNL     1      -3.228  -2.107  11.291  1.00  0.00     0.310 C 
HETATM   23  C19 UNL     1      -2.027  -0.109  11.356  1.00  0.00     0.291 C 
HETATM   24  C20 UNL     1      -2.055   1.415  11.210  1.00  0.00     0.154 C 
ENDBRANCH   8  18
BRANCH   3  25
HETATM   25  C8  UNL     1      -4.861   7.463  11.048  1.00  0.00     0.262 C 
HETATM   26  O1  UNL     1      -4.023   8.390  11.144  1.00  0.00    -0.267 OA
HETATM   27  N3  UNL     1      -6.173   7.743  10.599  1.00  0.00    -0.356 N 
ATOM     28  H3  UNL     1      -6.860   6.994  10.520  1.00  0.00     0.162 HD
BRANCH  27  29
HETATM   29  C9  UNL     1      -6.530   9.096  10.255  1.00  0.00     0.123 C 
BRANCH  29  30
HETATM   30  C10 UNL     1      -6.899   9.153   8.800  1.00  0.00     0.023 C 
BRANCH  30  31
HETATM   31  C11 UNL     1      -8.044   8.229   8.471  1.00  0.00    -0.021 C 
HETATM   32  C12 UNL     1      -7.470   7.091   7.626  1.00  0.00     0.009 C 
HETATM   33  C13 UNL     1      -9.083   8.977   7.651  1.00  0.00     0.009 C 
ENDBRANCH  30  31
ENDBRANCH  29  30
ENDBRANCH  27  29
ENDBRANCH   3  25
TORSDOF 9
ENDMDL
MODEL 2
REMARK VINA RESULT: -7.239069677      1.650      2.341
REMARK  9 active torsions:
REMARK  status: ('A' for Active; 'I' for Inactive)
REMARK    1  A    between atoms: C2_2  and  C3_3 
REMARK    2  A    between atoms: C3_3  and  C4_4 
REMARK    3  A    between atoms: N1_6  and  N2_8 
REMARK    4  A    between atoms: N2_8  and  C6_10 
REMARK    5  A    between atoms: C7_12  and  C8_13 
REMARK       I    between atoms: C8_13  and  N3_15 
REMARK    6  A    between atoms: N3_15  and  C9_17 
REMARK    7  A    between atoms: C9_17  and  C10_18 
REMARK    8  A    between atoms: C10_18  and  C11_19 
REMARK    9  A    between atoms: C15_26  and  N6_27 
ROOT
HETATM    1  C6  UNL     1      -4.390   4.141  13.126  1.00  0.00     0.134 A 
HETATM    2  S1  UNL     1      -5.018   5.725  13.118  1.00  0.00    -0.058 SA
HETATM    3  C7  UNL     1      -5.141   6.392  11.554  1.00  0.00     0.116 A 
HETATM    4  C14 UNL     1      -4.708   5.531  10.568  1.00  0.00     0.140 A 
HETATM    5  N4  UNL     1      -4.793   6.053   9.221  1.00  0.00    -0.081 NA
HETATM    6  N5  UNL     1      -4.244   4.316  10.766  1.00  0.00    -0.327 N 
ATOM      7  H5  UNL     1      -3.971   3.821   9.917  1.00  0.00     0.168 HD
HETATM    8  C15 UNL     1      -4.074   3.631  11.888  1.00  0.00     0.140 A 
ENDROOT
BRANCH   1   9
HETATM    9  N2  UNL     1      -4.232   3.494  14.218  1.00  0.00    -0.291 N 
ATOM     10  H2  UNL     1      -3.292   3.201  14.485  1.00  0.00     0.187 HD
BRANCH   9  11
HETATM   11  N1  UNL     1      -5.287   3.177  15.046  1.00  0.00    -0.308 N 
HETATM   12  C4  UNL     1      -5.354   2.166  15.825  1.00  0.00    -0.000 C 
HETATM   13  C5  UNL     1      -4.195   1.233  15.855  1.00  0.00     0.065 C 
ATOM     14  H1  UNL     1      -6.089   3.808  15.037  1.00  0.00     0.186 HD
BRANCH  12  15
HETATM   15  C3  UNL     1      -6.523   1.909  16.675  1.00  0.00     0.053 C 
BRANCH  15  16
HETATM   16  C2  UNL     1      -6.183   1.161  17.934  1.00  0.00     0.001 C 
HETATM   17  C1  UNL     1      -6.237   2.121  19.096  1.00  0.00     0.005 C 
ENDBRANCH  15  16
ENDBRANCH  12  15
ENDBRANCH   9  11
ENDBRANCH   1   9
BRANCH   8  18
HETATM   18  N6  UNL     1      -3.533   2.299  11.752  1.00  0.00    -0.362 N 
HETATM   19  C16 UNL     1      -4.308   1.132  12.177  1.00  0.00     0.154 C 
HETATM   20  C17 UNL     1      -4.454   0.260  10.946  1.00  0.00     0.291 C 
HETATM   21  N7  UNL     1      -3.139  -0.232  10.620  1.00  0.00     0.087 N 
HETATM   22  C18 UNL     1      -3.088  -1.626  11.071  1.00  0.00     0.310 C 
HETATM   23  C19 UNL     1      -2.082   0.467  11.281  1.00  0.00     0.291 C 
HETATM   24  C20 UNL     1      -2.248   1.988  11.213  1.00  0.00     0.154 C 
ENDBRANCH   8  18
BRANCH   3  25
HETATM   25  C8  UNL     1      -5.647   7.735  11.258  1.00  0.00     0.262 C 
HETATM   26  O1  UNL     1      -6.825   8.046  11.553  1.00  0.00    -0.267 OA
HETATM   27  N3  UNL     1      -4.803   8.683  10.637  1.00  0.00    -0.356 N 
ATOM     28  H3  UNL     1      -3.844   8.436  10.393  1.00  0.00     0.162 HD
BRANCH  27  29
HETATM   29  C9  UNL     1      -5.308  10.002  10.350  1.00  0.00     0.123 C 
BRANCH  29  30
HETATM   30  C10 UNL     1      -4.241  11.015  10.649  1.00  0.00     0.023 C 
BRANCH  30  31
HETATM   31  C11 UNL     1      -4.728  12.427  10.448  1.00  0.00    -0.021 C 
HETATM   32  C12 UNL     1      -4.157  13.264  11.593  1.00  0.00     0.009 C 
HETATM   33  C13 UNL     1      -6.246  12.458  10.523  1.00  0.00     0.009 C 
ENDBRANCH  30  31
ENDBRANCH  29  30
ENDBRANCH  27  29
ENDBRANCH   3  25
TORSDOF 9
ENDMDL
MODEL 3
REMARK VINA RESULT: -7.211686238      0.814      1.220
REMARK  9 active torsions:
REMARK  status: ('A' for Active; 'I' for Inactive)
REMARK    1  A    between atoms: C2_2  and  C3_3 
REMARK    2  A    between atoms: C3_3  and  C4_4 
REMARK    3  A    between atoms: N1_6  and  N2_8 
REMARK    4  A    between atoms: N2_8  and  C6_10 
REMARK    5  A    between atoms: C7_12  and  C8_13 
REMARK       I    between atoms: C8_13  and  N3_15 
REMARK    6  A    between atoms: N3_15  and  C9_17 
REMARK    7  A    between atoms: C9_17  and  C10_18 
REMARK    8  A    between atoms: C10_18  and  C11_19 
REMARK    9  A    between atoms: C15_26  and  N6_27 
ROOT
HETATM    1  C6  UNL     1      -4.188   4.166  12.626  1.00  0.00     0.134 A 
HETATM    2  S1  UNL     1      -4.781   5.748  12.407  1.00  0.00    -0.058 SA
HETATM    3  C7  UNL     1      -4.864   6.215  10.769  1.00  0.00     0.116 A 
HETATM    4  C14 UNL     1      -4.436   5.228   9.908  1.00  0.00     0.140 A 
HETATM    5  N4  UNL     1      -4.487   5.577   8.505  1.00  0.00    -0.081 NA
HETATM    6  N5  UNL     1      -4.002   4.039  10.265  1.00  0.00    -0.327 N 
ATOM      7  H5  UNL     1      -3.726   3.435   9.491  1.00  0.00     0.168 HD
HETATM    8  C15 UNL     1      -3.864   3.498  11.467  1.00  0.00     0.140 A 
ENDROOT
BRANCH   1   9
HETATM    9  N2  UNL     1      -4.062   3.658  13.793  1.00  0.00    -0.291 N 
ATOM     10  H2  UNL     1      -3.158   3.274  14.067  1.00  0.00     0.187 HD
BRANCH   9  11
HETATM   11  N1  UNL     1      -5.104   3.612  14.693  1.00  0.00    -0.308 N 
HETATM   12  C4  UNL     1      -5.211   2.805  15.678  1.00  0.00    -0.000 C 
HETATM   13  C5  UNL     1      -4.120   1.816  15.889  1.00  0.00     0.065 C 
ATOM     14  H1  UNL     1      -5.861   4.284  14.562  1.00  0.00     0.186 HD
BRANCH  12  15
HETATM   15  C3  UNL     1      -6.362   2.829  16.589  1.00  0.00     0.053 C 
BRANCH  15  16
HETATM   16  C2  UNL     1      -6.268   1.806  17.686  1.00  0.00     0.001 C 
HETATM   17  C1  UNL     1      -7.155   0.638  17.336  1.00  0.00     0.005 C 
ENDBRANCH  15  16
ENDBRANCH  12  15
ENDBRANCH   9  11
ENDBRANCH   1   9
BRANCH   8  18
HETATM   18  N6  UNL     1      -3.351   2.148  11.510  1.00  0.00    -0.362 N 
HETATM   19  C16 UNL     1      -4.158   1.060  12.065  1.00  0.00     0.154 C 
HETATM   20  C17 UNL     1      -4.304   0.042  10.951  1.00  0.00     0.291 C 
HETATM   21  N7  UNL     1      -2.995  -0.513  10.714  1.00  0.00     0.087 N 
HETATM   22  C18 UNL     1      -2.982  -1.840  11.337  1.00  0.00     0.310 C 
HETATM   23  C19 UNL     1      -1.934   0.243  11.300  1.00  0.00     0.291 C 
HETATM   24  C20 UNL     1      -2.065   1.747  11.038  1.00  0.00     0.154 C 
ENDBRANCH   8  18
BRANCH   3  25
HETATM   25  C8  UNL     1      -5.336   7.520  10.298  1.00  0.00     0.262 C 
HETATM   26  O1  UNL     1      -4.680   8.558  10.547  1.00  0.00    -0.267 OA
HETATM   27  N3  UNL     1      -6.539   7.607   9.560  1.00  0.00    -0.356 N 
ATOM     28  H3  UNL     1      -7.079   6.766   9.354  1.00  0.00     0.162 HD
BRANCH  27  29
HETATM   29  C9  UNL     1      -6.996   8.894   9.100  1.00  0.00     0.123 C 
BRANCH  29  30
HETATM   30  C10 UNL     1      -8.255   8.713   8.301  1.00  0.00     0.023 C 
BRANCH  30  31
HETATM   31  C11 UNL     1      -8.525   9.889   7.397  1.00  0.00    -0.021 C 
HETATM   32  C12 UNL     1     -10.040   9.963   7.201  1.00  0.00     0.009 C 
HETATM   33  C13 UNL     1      -7.863   9.658   6.048  1.00  0.00     0.009 C 
ENDBRANCH  30  31
ENDBRANCH  29  30
ENDBRANCH  27  29
ENDBRANCH   3  25
TORSDOF 9
ENDMDL
MODEL 4
REMARK VINA RESULT: -7.140600378      3.293      7.834
REMARK  9 active torsions:
REMARK  status: ('A' for Active; 'I' for Inactive)
REMARK    1  A    between atoms: C2_2  and  C3_3 
REMARK    2  A    between atoms: C3_3  and  C4_4 
REMARK    3  A    between atoms: N1_6  and  N2_8 
REMARK    4  A    between atoms: N2_8  and  C6_10 
REMARK    5  A    between atoms: C7_12  and  C8_13 
REMARK       I    between atoms: C8_13  and  N3_15 
REMARK    6  A    between atoms: N3_15  and  C9_17 
REMARK    7  A    between atoms: C9_17  and  C10_18 
REMARK    8  A    between atoms: C10_18  and  C11_19 
REMARK    9  A    between atoms: C15_26  and  N6_27 
ROOT
HETATM    1  C6  UNL     1      -3.185   4.803   9.880  1.00  0.00     0.134 A 
HETATM    2  S1  UNL     1      -4.202   3.924  10.925  1.00  0.00    -0.058 SA
HETATM    3  C7  UNL     1      -3.493   2.484  11.502  1.00  0.00     0.116 A 
HETATM    4  C14 UNL     1      -2.218   2.284  11.019  1.00  0.00     0.140 A 
HETATM    5  N4  UNL     1      -1.574   1.074  11.480  1.00  0.00    -0.081 NA
HETATM    6  N5  UNL     1      -1.577   3.090  10.201  1.00  0.00    -0.327 N 
ATOM      7  H5  UNL     1      -0.637   2.782   9.949  1.00  0.00     0.168 HD
HETATM    8  C15 UNL     1      -1.952   4.236   9.651  1.00  0.00     0.140 A 
ENDROOT
BRANCH   1   9
HETATM    9  N2  UNL     1      -3.562   5.908   9.358  1.00  0.00    -0.291 N 
ATOM     10  H2  UNL     1      -2.989   6.327   8.625  1.00  0.00     0.187 HD
BRANCH   9  11
HETATM   11  N1  UNL     1      -4.715   6.553   9.750  1.00  0.00    -0.308 N 
HETATM   12  C4  UNL     1      -5.595   7.058   8.972  1.00  0.00    -0.000 C 
HETATM   13  C5  UNL     1      -5.373   6.949   7.505  1.00  0.00     0.065 C 
ATOM     14  H1  UNL     1      -4.882   6.635  10.753  1.00  0.00     0.186 HD
BRANCH  12  15
HETATM   15  C3  UNL     1      -6.797   7.728   9.482  1.00  0.00     0.053 C 
BRANCH  15  16
HETATM   16  C2  UNL     1      -6.575   8.414  10.801  1.00  0.00     0.001 C 
HETATM   17  C1  UNL     1      -7.377   7.698  11.859  1.00  0.00     0.005 C 
ENDBRANCH  15  16
ENDBRANCH  12  15
ENDBRANCH   9  11
ENDBRANCH   1   9
BRANCH   8  18
HETATM   18  N6  UNL     1      -0.991   4.879   8.784  1.00  0.00    -0.362 N 
HETATM   19  C16 UNL     1      -0.012   5.822   9.326  1.00  0.00     0.154 C 
HETATM   20  C17 UNL     1       1.349   5.256   8.972  1.00  0.00     0.291 C 
HETATM   21  N7  UNL     1       1.476   5.329   7.537  1.00  0.00     0.087 N 
HETATM   22  C18 UNL     1       2.355   6.466   7.251  1.00  0.00     0.310 C 
HETATM   23  C19 UNL     1       0.239   5.566   6.862  1.00  0.00     0.291 C 
HETATM   24  C20 UNL     1      -0.895   4.673   7.375  1.00  0.00     0.154 C 
ENDBRANCH   8  18
BRANCH   3  25
HETATM   25  C8  UNL     1      -4.147   1.541  12.413  1.00  0.00     0.262 C 
HETATM   26  O1  UNL     1      -4.958   0.694  11.973  1.00  0.00    -0.267 OA
HETATM   27  N3  UNL     1      -3.860   1.589  13.797  1.00  0.00    -0.356 N 
ATOM     28  H3  UNL     1      -3.201   2.276  14.163  1.00  0.00     0.162 HD
BRANCH  27  29
HETATM   29  C9  UNL     1      -4.506   0.657  14.687  1.00  0.00     0.123 C 
BRANCH  29  30
HETATM   30  C10 UNL     1      -4.533   1.237  16.072  1.00  0.00     0.023 C 
BRANCH  30  31
HETATM   31  C11 UNL     1      -5.940   1.482  16.556  1.00  0.00    -0.021 C 
HETATM   32  C12 UNL     1      -6.319   2.899  16.125  1.00  0.00     0.009 C 
HETATM   33  C13 UNL     1      -5.979   1.400  18.072  1.00  0.00     0.009 C 
ENDBRANCH  30  31
ENDBRANCH  29  30
ENDBRANCH  27  29
ENDBRANCH   3  25
TORSDOF 9
ENDMDL
MODEL 5
REMARK VINA RESULT: -7.125931321      3.007      7.453
REMARK  9 active torsions:
REMARK  status: ('A' for Active; 'I' for Inactive)
REMARK    1  A    between atoms: C2_2  and  C3_3 
REMARK    2  A    between atoms: C3_3  and  C4_4 
REMARK    3  A    between atoms: N1_6  and  N2_8 
REMARK    4  A    between atoms: N2_8  and  C6_10 
REMARK    5  A    between atoms: C7_12  and  C8_13 
REMARK       I    between atoms: C8_13  and  N3_15 
REMARK    6  A    between atoms: N3_15  and  C9_17 
REMARK    7  A    between atoms: C9_17  and  C10_18 
REMARK    8  A    between atoms: C10_18  and  C11_19 
REMARK    9  A    between atoms: C15_26  and  N6_27 
ROOT
HETATM    1  C6  UNL     1      -2.609   5.226  11.279  1.00  0.00     0.134 A 
HETATM    2  S1  UNL     1      -3.711   4.754  12.490  1.00  0.00    -0.058 SA
HETATM    3  C7  UNL     1      -3.805   3.064  12.693  1.00  0.00     0.116 A 
HETATM    4  C14 UNL     1      -2.971   2.375  11.840  1.00  0.00     0.140 A 
HETATM    5  N4  UNL     1      -3.014   0.935  11.974  1.00  0.00    -0.081 NA
HETATM    6  N5  UNL     1      -2.170   2.919  10.950  1.00  0.00    -0.327 N 
ATOM      7  H5  UNL     1      -1.622   2.254  10.404  1.00  0.00     0.168 HD
HETATM    8  C15 UNL     1      -1.959   4.192  10.645  1.00  0.00     0.140 A 
ENDROOT
BRANCH   1   9
HETATM    9  N2  UNL     1      -2.417   6.459  10.999  1.00  0.00    -0.291 N 
ATOM     10  H2  UNL     1      -1.528   6.736  10.582  1.00  0.00     0.187 HD
BRANCH   9  11
HETATM   11  N1  UNL     1      -3.368   7.427  11.239  1.00  0.00    -0.308 N 
HETATM   12  C4  UNL     1      -4.168   7.926  10.376  1.00  0.00    -0.000 C 
HETATM   13  C5  UNL     1      -4.080   7.429   8.976  1.00  0.00     0.065 C 
ATOM     14  H1  UNL     1      -3.441   7.778  12.195  1.00  0.00     0.186 HD
BRANCH  12  15
HETATM   15  C3  UNL     1      -5.152   8.957  10.725  1.00  0.00     0.053 C 
BRANCH  15  16
HETATM   16  C2  UNL     1      -6.569   8.539  10.445  1.00  0.00     0.001 C 
HETATM   17  C1  UNL     1      -7.097   7.791  11.644  1.00  0.00     0.005 C 
ENDBRANCH  15  16
ENDBRANCH  12  15
ENDBRANCH   9  11
ENDBRANCH   1   9
BRANCH   8  18
HETATM   18  N6  UNL     1      -0.997   4.453   9.600  1.00  0.00    -0.362 N 
HETATM   19  C16 UNL     1       0.413   4.673   9.922  1.00  0.00     0.154 C 
HETATM   20  C17 UNL     1       1.183   3.606   9.167  1.00  0.00     0.291 C 
HETATM   21  N7  UNL     1       1.043   3.901   7.763  1.00  0.00     0.087 N 
HETATM   22  C18 UNL     1       2.308   4.504   7.333  1.00  0.00     0.310 C 
HETATM   23  C19 UNL     1       0.004   4.838   7.471  1.00  0.00     0.291 C 
HETATM   24  C20 UNL     1      -1.301   4.520   8.207  1.00  0.00     0.154 C 
ENDBRANCH   8  18
BRANCH   3  25
HETATM   25  C8  UNL     1      -4.672   2.389  13.662  1.00  0.00     0.262 C 
HETATM   26  O1  UNL     1      -5.915   2.532  13.607  1.00  0.00    -0.267 OA
HETATM   27  N3  UNL     1      -4.100   1.572  14.666  1.00  0.00    -0.356 N 
ATOM     28  H3  UNL     1      -3.089   1.452  14.717  1.00  0.00     0.162 HD
BRANCH  27  29
HETATM   29  C9  UNL     1      -4.960   0.911  15.615  1.00  0.00     0.123 C 
BRANCH  29  30
HETATM   30  C10 UNL     1      -4.881   1.627  16.933  1.00  0.00     0.023 C 
BRANCH  30  31
HETATM   31  C11 UNL     1      -6.247   1.957  17.479  1.00  0.00    -0.021 C 
HETATM   32  C12 UNL     1      -7.189   0.840  17.029  1.00  0.00     0.009 C 
HETATM   33  C13 UNL     1      -6.726   3.274  16.892  1.00  0.00     0.009 C 
ENDBRANCH  30  31
ENDBRANCH  29  30
ENDBRANCH  27  29
ENDBRANCH   3  25
TORSDOF 9
ENDMDL
