MODEL 1
REMARK VINA RESULT: -7.139468406      0.000      0.000
REMARK  12 active torsions:
REMARK  status: ('A' for Active; 'I' for Inactive)
REMARK    1  A    between atoms: C2_2  and  O1_3 
REMARK    2  A    between atoms: O1_3  and  C3_4 
REMARK    3  A    between atoms: C3_4  and  C4_6 
REMARK    4  A    between atoms: C4_6  and  C5_7 
REMARK    5  A    between atoms: C5_7  and  N1_8 
REMARK    6  A    between atoms: C6_9  and  O3_10 
REMARK    7  A    between atoms: C9_14  and  O4_15 
REMARK    8  A    between atoms: C10_17  and  C11_18 
REMARK    9  A    between atoms: C11_18  and  C12_19 
REMARK   10  A    between atoms: C12_19  and  S1_20 
REMARK   11  A    between atoms: N2_22  and  N3_23 
REMARK       I    between atoms: N3_23  and  C14_25 
REMARK   12  A    between atoms: C14_25  and  C15_27 
ROOT
HETATM    1  N1  UNL     1      -3.214   5.447  11.188  1.00  0.00    -0.307 N 
HETATM    2  C6  UNL     1      -3.039   5.720  12.491  1.00  0.00     0.152 A 
HETATM    3  C7  UNL     1      -3.439   4.619  13.261  1.00  0.00     0.020 A 
HETATM    4  C8  UNL     1      -3.862   3.668  12.374  1.00  0.00     0.024 A 
HETATM    5  C9  UNL     1      -3.707   4.218  11.104  1.00  0.00     0.153 A 
HETATM    6  C10 UNL     1      -4.305   2.454  13.111  1.00  0.00     0.118 C 
HETATM    7  N2  UNL     1      -3.957   2.724  14.463  1.00  0.00    -0.215 NA
HETATM    8  C19 UNL     1      -3.582   4.099  14.619  1.00  0.00     0.158 C 
ENDROOT
BRANCH   7   9
HETATM    9  N3  UNL     1      -5.022   2.484  15.334  1.00  0.00    -0.288 N 
HETATM   10  C14 UNL     1      -4.887   1.579  16.407  1.00  0.00     0.239 C 
HETATM   11  O5  UNL     1      -3.792   0.990  16.574  1.00  0.00    -0.271 OA
ATOM     12  H3  UNL     1      -5.908   2.969  15.191  1.00  0.00     0.184 HD
BRANCH  10  13
HETATM   13  C15 UNL     1      -5.988   1.286  17.359  1.00  0.00     0.031 C 
HETATM   14  C16 UNL     1      -5.883  -0.176  17.728  1.00  0.00     0.025 C 
HETATM   15  C17 UNL     1      -5.901   2.129  18.605  1.00  0.00     0.025 C 
HETATM   16  C18 UNL     1      -7.336   1.549  16.699  1.00  0.00     0.025 C 
ENDBRANCH  10  13
ENDBRANCH   7   9
BRANCH   6  17
HETATM   17  C11 UNL     1      -3.523   1.294  12.520  1.00  0.00     0.036 C 
BRANCH  17  18
HETATM   18  C12 UNL     1      -4.461   0.554  11.596  1.00  0.00     0.075 C 
BRANCH  18  19
HETATM   19  S1  UNL     1      -3.575  -0.524  10.452  1.00  0.00    -0.173 SA
HETATM   20  C13 UNL     1      -2.978  -1.977  11.363  1.00  0.00     0.089 C 
ENDBRANCH  18  19
ENDBRANCH  17  18
ENDBRANCH   6  17
BRANCH   5  21
HETATM   21  O4  UNL     1      -4.022   3.579   9.918  1.00  0.00    -0.345 OA
ATOM     22  H4  UNL     1      -4.308   2.675   9.853  1.00  0.00     0.219 HD
ENDBRANCH   5  21
BRANCH   2  23
HETATM   23  O3  UNL     1      -2.543   6.896  13.029  1.00  0.00    -0.345 OA
ATOM     24  H3  UNL     1      -2.632   7.189  13.929  1.00  0.00     0.219 HD
ENDBRANCH   2  23
BRANCH   1  25
HETATM   25  C5  UNL     1      -2.908   6.349  10.074  1.00  0.00     0.143 C 
BRANCH  25  26
HETATM   26  C4  UNL     1      -4.100   7.269   9.917  1.00  0.00     0.131 C 
BRANCH  26  27
HETATM   27  C3  UNL     1      -5.209   6.635   9.187  1.00  0.00     0.260 C 
HETATM   28  O2  UNL     1      -4.926   6.011   8.133  1.00  0.00    -0.265 OA
BRANCH  27  29
HETATM   29  O1  UNL     1      -6.536   6.668   9.565  1.00  0.00    -0.322 OA
BRANCH  29  30
HETATM   30  C2  UNL     1      -7.167   7.768  10.176  1.00  0.00     0.174 C 
HETATM   31  C1  UNL     1      -7.215   7.695  11.665  1.00  0.00     0.034 C 
ENDBRANCH  29  30
ENDBRANCH  27  29
ENDBRANCH  26  27
ENDBRANCH  25  26
ENDBRANCH   1  25
TORSDOF 12
ENDMDL
MODEL 2
REMARK VINA RESULT: -7.040678174      1.585      2.732
REMARK  12 active torsions:
REMARK  status: ('A' for Active; 'I' for Inactive)
REMARK    1  A    between atoms: C2_2  and  O1_3 
REMARK    2  A    between atoms: O1_3  and  C3_4 
REMARK    3  A    between atoms: C3_4  and  C4_6 
REMARK    4  A    between atoms: C4_6  and  C5_7 
REMARK    5  A    between atoms: C5_7  and  N1_8 
REMARK    6  A    between atoms: C6_9  and  O3_10 
REMARK    7  A    between atoms: C9_14  and  O4_15 
REMARK    8  A    between atoms: C10_17  and  C11_18 
REMARK    9  A    between atoms: C11_18  and  C12_19 
REMARK   10  A    between atoms: C12_19  and  S1_20 
REMARK   11  A    between atoms: N2_22  and  N3_23 
REMARK       I    between atoms: N3_23  and  C14_25 
REMARK   12  A    between atoms: C14_25  and  C15_27 
ROOT
HETATM    1  N1  UNL     1      -3.444   5.442  11.144  1.00  0.00    -0.307 N 
HETATM    2  C6  UNL     1      -3.268   5.742  12.441  1.00  0.00     0.152 A 
HETATM    3  C7  UNL     1      -3.614   4.639  13.232  1.00  0.00     0.020 A 
HETATM    4  C8  UNL     1      -4.007   3.657  12.364  1.00  0.00     0.024 A 
HETATM    5  C9  UNL     1      -3.887   4.193  11.085  1.00  0.00     0.153 A 
HETATM    6  C10 UNL     1      -4.393   2.438  13.125  1.00  0.00     0.118 C 
HETATM    7  N2  UNL     1      -4.043   2.743  14.469  1.00  0.00    -0.215 NA
HETATM    8  C19 UNL     1      -3.723   4.135  14.600  1.00  0.00     0.158 C 
ENDROOT
BRANCH   7   9
HETATM    9  N3  UNL     1      -5.088   2.474  15.354  1.00  0.00    -0.288 N 
HETATM   10  C14 UNL     1      -4.911   1.579  16.430  1.00  0.00     0.239 C 
HETATM   11  O5  UNL     1      -3.796   1.025  16.585  1.00  0.00    -0.271 OA
ATOM     12  H3  UNL     1      -5.991   2.930  15.221  1.00  0.00     0.184 HD
BRANCH  10  13
HETATM   13  C15 UNL     1      -5.990   1.255  17.397  1.00  0.00     0.031 C 
HETATM   14  C16 UNL     1      -5.866  -0.213  17.731  1.00  0.00     0.025 C 
HETATM   15  C17 UNL     1      -5.885   2.072  18.659  1.00  0.00     0.025 C 
HETATM   16  C18 UNL     1      -7.353   1.521  16.770  1.00  0.00     0.025 C 
ENDBRANCH  10  13
ENDBRANCH   7   9
BRANCH   6  17
HETATM   17  C11 UNL     1      -3.569   1.301  12.543  1.00  0.00     0.036 C 
BRANCH  17  18
HETATM   18  C12 UNL     1      -4.482   0.514  11.634  1.00  0.00     0.075 C 
BRANCH  18  19
HETATM   19  S1  UNL     1      -3.561  -0.545  10.500  1.00  0.00    -0.173 SA
HETATM   20  C13 UNL     1      -2.978  -2.004  11.409  1.00  0.00     0.089 C 
ENDBRANCH  18  19
ENDBRANCH  17  18
ENDBRANCH   6  17
BRANCH   5  21
HETATM   21  O4  UNL     1      -4.187   3.523   9.912  1.00  0.00    -0.345 OA
ATOM     22  H4  UNL     1      -4.244   2.578   9.832  1.00  0.00     0.219 HD
ENDBRANCH   5  21
BRANCH   2  23
HETATM   23  O3  UNL     1      -2.815   6.946  12.956  1.00  0.00    -0.345 OA
ATOM     24  H3  UNL     1      -2.314   7.607  12.493  1.00  0.00     0.219 HD
ENDBRANCH   2  23
BRANCH   1  25
HETATM   25  C5  UNL     1      -3.186   6.338  10.013  1.00  0.00     0.143 C 
BRANCH  25  26
HETATM   26  C4  UNL     1      -1.744   6.126   9.607  1.00  0.00     0.131 C 
BRANCH  26  27
HETATM   27  C3  UNL     1      -1.611   5.249   8.433  1.00  0.00     0.260 C 
HETATM   28  O2  UNL     1      -1.582   5.798   7.303  1.00  0.00    -0.265 OA
BRANCH  27  29
HETATM   29  O1  UNL     1      -1.516   3.873   8.470  1.00  0.00    -0.322 OA
BRANCH  29  30
HETATM   30  C2  UNL     1      -0.455   3.159   9.056  1.00  0.00     0.174 C 
HETATM   31  C1  UNL     1      -0.875   2.222  10.139  1.00  0.00     0.034 C 
ENDBRANCH  29  30
ENDBRANCH  27  29
ENDBRANCH  26  27
ENDBRANCH  25  26
ENDBRANCH   1  25
TORSDOF 12
ENDMDL
MODEL 3
REMARK VINA RESULT: -6.731183467      1.101      1.160
REMARK  12 active torsions:
REMARK  status: ('A' for Active; 'I' for Inactive)
REMARK    1  A    between atoms: C2_2  and  O1_3 
REMARK    2  A    between atoms: O1_3  and  C3_4 
REMARK    3  A    between atoms: C3_4  and  C4_6 
REMARK    4  A    between atoms: C4_6  and  C5_7 
REMARK    5  A    between atoms: C5_7  and  N1_8 
REMARK    6  A    between atoms: C6_9  and  O3_10 
REMARK    7  A    between atoms: C9_14  and  O4_15 
REMARK    8  A    between atoms: C10_17  and  C11_18 
REMARK    9  A    between atoms: C11_18  and  C12_19 
REMARK   10  A    between atoms: C12_19  and  S1_20 
REMARK   11  A    between atoms: N2_22  and  N3_23 
REMARK       I    between atoms: N3_23  and  C14_25 
REMARK   12  A    between atoms: C14_25  and  C15_27 
ROOT
HETATM    1  N1  UNL     1      -2.878   6.250  11.980  1.00  0.00    -0.307 N 
HETATM    2  C6  UNL     1      -2.630   6.166  13.297  1.00  0.00     0.152 A 
HETATM    3  C7  UNL     1      -3.170   4.977  13.804  1.00  0.00     0.020 A 
HETATM    4  C8  UNL     1      -3.755   4.342  12.743  1.00  0.00     0.024 A 
HETATM    5  C9  UNL     1      -3.553   5.161  11.636  1.00  0.00     0.153 A 
HETATM    6  C10 UNL     1      -4.356   3.058  13.195  1.00  0.00     0.118 C 
HETATM    7  N2  UNL     1      -3.936   2.936  14.547  1.00  0.00    -0.215 NA
HETATM    8  C19 UNL     1      -3.354   4.164  15.005  1.00  0.00     0.158 C 
ENDROOT
BRANCH   7   9
HETATM    9  N3  UNL     1      -5.001   2.640  15.400  1.00  0.00    -0.288 N 
HETATM   10  C14 UNL     1      -4.859   1.686  16.429  1.00  0.00     0.239 C 
HETATM   11  O5  UNL     1      -3.757   1.103  16.573  1.00  0.00    -0.271 OA
ATOM     12  H3  UNL     1      -5.893   3.120  15.277  1.00  0.00     0.184 HD
BRANCH  10  13
HETATM   13  C15 UNL     1      -5.960   1.332  17.360  1.00  0.00     0.031 C 
HETATM   14  C16 UNL     1      -5.842  -0.146  17.653  1.00  0.00     0.025 C 
HETATM   15  C17 UNL     1      -5.886   2.110  18.648  1.00  0.00     0.025 C 
HETATM   16  C18 UNL     1      -7.308   1.616  16.709  1.00  0.00     0.025 C 
ENDBRANCH  10  13
ENDBRANCH   7   9
BRANCH   6  17
HETATM   17  C11 UNL     1      -3.774   1.982  12.295  1.00  0.00     0.036 C 
BRANCH  17  18
HETATM   18  C12 UNL     1      -4.892   1.498  11.403  1.00  0.00     0.075 C 
BRANCH  18  19
HETATM   19  S1  UNL     1      -4.476  -0.048  10.571  1.00  0.00    -0.173 SA
HETATM   20  C13 UNL     1      -3.908  -1.243  11.814  1.00  0.00     0.089 C 
ENDBRANCH  18  19
ENDBRANCH  17  18
ENDBRANCH   6  17
BRANCH   5  21
HETATM   21  O4  UNL     1      -3.992   4.884  10.353  1.00  0.00    -0.345 OA
ATOM     22  H4  UNL     1      -4.824   4.474  10.146  1.00  0.00     0.219 HD
ENDBRANCH   5  21
BRANCH   2  23
HETATM   23  O3  UNL     1      -1.949   7.093  14.069  1.00  0.00    -0.345 OA
ATOM     24  H3  UNL     1      -1.777   8.000  13.845  1.00  0.00     0.219 HD
ENDBRANCH   2  23
BRANCH   1  25
HETATM   25  C5  UNL     1      -2.470   7.347  11.098  1.00  0.00     0.143 C 
BRANCH  25  26
HETATM   26  C4  UNL     1      -3.527   8.423  11.221  1.00  0.00     0.131 C 
BRANCH  26  27
HETATM   27  C3  UNL     1      -4.477   8.412  10.097  1.00  0.00     0.260 C 
HETATM   28  O2  UNL     1      -4.354   9.312   9.228  1.00  0.00    -0.265 OA
BRANCH  27  29
HETATM   29  O1  UNL     1      -5.492   7.495   9.918  1.00  0.00    -0.322 OA
BRANCH  29  30
HETATM   30  C2  UNL     1      -6.847   7.732  10.215  1.00  0.00     0.174 C 
HETATM   31  C1  UNL     1      -7.170   7.692  11.671  1.00  0.00     0.034 C 
ENDBRANCH  29  30
ENDBRANCH  27  29
ENDBRANCH  26  27
ENDBRANCH  25  26
ENDBRANCH   1  25
TORSDOF 12
ENDMDL
MODEL 4
REMARK VINA RESULT: -6.707980746      1.568      2.197
REMARK  12 active torsions:
REMARK  status: ('A' for Active; 'I' for Inactive)
REMARK    1  A    between atoms: C2_2  and  O1_3 
REMARK    2  A    between atoms: O1_3  and  C3_4 
REMARK    3  A    between atoms: C3_4  and  C4_6 
REMARK    4  A    between atoms: C4_6  and  C5_7 
REMARK    5  A    between atoms: C5_7  and  N1_8 
REMARK    6  A    between atoms: C6_9  and  O3_10 
REMARK    7  A    between atoms: C9_14  and  O4_15 
REMARK    8  A    between atoms: C10_17  and  C11_18 
REMARK    9  A    between atoms: C11_18  and  C12_19 
REMARK   10  A    between atoms: C12_19  and  S1_20 
REMARK   11  A    between atoms: N2_22  and  N3_23 
REMARK       I    between atoms: N3_23  and  C14_25 
REMARK   12  A    between atoms: C14_25  and  C15_27 
ROOT
HETATM    1  N1  UNL     1      -3.393   5.431  11.188  1.00  0.00    -0.307 N 
HETATM    2  C6  UNL     1      -3.215   5.718  12.487  1.00  0.00     0.152 A 
HETATM    3  C7  UNL     1      -3.581   4.614  13.268  1.00  0.00     0.020 A 
HETATM    4  C8  UNL     1      -3.986   3.645  12.392  1.00  0.00     0.024 A 
HETATM    5  C9  UNL     1      -3.855   4.189  11.117  1.00  0.00     0.153 A 
HETATM    6  C10 UNL     1      -4.391   2.426  13.142  1.00  0.00     0.118 C 
HETATM    7  N2  UNL     1      -4.040   2.715  14.488  1.00  0.00    -0.215 NA
HETATM    8  C19 UNL     1      -3.699   4.100  14.632  1.00  0.00     0.158 C 
ENDROOT
BRANCH   7   9
HETATM    9  N3  UNL     1      -5.091   2.454  15.369  1.00  0.00    -0.288 N 
HETATM   10  C14 UNL     1      -4.925   1.560  16.448  1.00  0.00     0.239 C 
HETATM   11  O5  UNL     1      -3.814   1.000  16.610  1.00  0.00    -0.271 OA
ATOM     12  H3  UNL     1      -5.991   2.915  15.231  1.00  0.00     0.184 HD
BRANCH  10  13
HETATM   13  C15 UNL     1      -6.010   1.245  17.411  1.00  0.00     0.031 C 
HETATM   14  C16 UNL     1      -5.888  -0.220  17.760  1.00  0.00     0.025 C 
HETATM   15  C17 UNL     1      -5.914   2.075  18.665  1.00  0.00     0.025 C 
HETATM   16  C18 UNL     1      -7.369   1.504  16.772  1.00  0.00     0.025 C 
ENDBRANCH  10  13
ENDBRANCH   7   9
BRANCH   6  17
HETATM   17  C11 UNL     1      -3.584   1.281  12.552  1.00  0.00     0.036 C 
BRANCH  17  18
HETATM   18  C12 UNL     1      -4.502   0.526  11.621  1.00  0.00     0.075 C 
BRANCH  18  19
HETATM   19  S1  UNL     1      -3.590  -0.553  10.498  1.00  0.00    -0.173 SA
HETATM   20  C13 UNL     1      -3.028  -2.012  11.420  1.00  0.00     0.089 C 
ENDBRANCH  18  19
ENDBRANCH  17  18
ENDBRANCH   6  17
BRANCH   5  21
HETATM   21  O4  UNL     1      -4.163   3.534   9.938  1.00  0.00    -0.345 OA
ATOM     22  H4  UNL     1      -4.318   2.599   9.867  1.00  0.00     0.219 HD
ENDBRANCH   5  21
BRANCH   2  23
HETATM   23  O3  UNL     1      -2.746   6.911  13.013  1.00  0.00    -0.345 OA
ATOM     24  H3  UNL     1      -1.949   7.034  13.514  1.00  0.00     0.219 HD
ENDBRANCH   2  23
BRANCH   1  25
HETATM   25  C5  UNL     1      -3.120   6.333  10.065  1.00  0.00     0.143 C 
BRANCH  25  26
HETATM   26  C4  UNL     1      -1.687   6.085   9.645  1.00  0.00     0.131 C 
BRANCH  26  27
HETATM   27  C3  UNL     1      -1.590   5.288   8.412  1.00  0.00     0.260 C 
HETATM   28  O2  UNL     1      -0.438   5.027   7.982  1.00  0.00    -0.265 OA
BRANCH  27  29
HETATM   29  O1  UNL     1      -2.660   4.801   7.689  1.00  0.00    -0.322 OA
BRANCH  29  30
HETATM   30  C2  UNL     1      -3.194   5.414   6.540  1.00  0.00     0.174 C 
HETATM   31  C1  UNL     1      -4.553   5.998   6.736  1.00  0.00     0.034 C 
ENDBRANCH  29  30
ENDBRANCH  27  29
ENDBRANCH  26  27
ENDBRANCH  25  26
ENDBRANCH   1  25
TORSDOF 12
ENDMDL
MODEL 5
REMARK VINA RESULT: -6.619275620      2.091      3.524
REMARK  12 active torsions:
REMARK  status: ('A' for Active; 'I' for Inactive)
REMARK    1  A    between atoms: C2_2  and  O1_3 
REMARK    2  A    between atoms: O1_3  and  C3_4 
REMARK    3  A    between atoms: C3_4  and  C4_6 
REMARK    4  A    between atoms: C4_6  and  C5_7 
REMARK    5  A    between atoms: C5_7  and  N1_8 
REMARK    6  A    between atoms: C6_9  and  O3_10 
REMARK    7  A    between atoms: C9_14  and  O4_15 
REMARK    8  A    between atoms: C10_17  and  C11_18 
REMARK    9  A    between atoms: C11_18  and  C12_19 
REMARK   10  A    between atoms: C12_19  and  S1_20 
REMARK   11  A    between atoms: N2_22  and  N3_23 
REMARK       I    between atoms: N3_23  and  C14_25 
REMARK   12  A    between atoms: C14_25  and  C15_27 
ROOT
HETATM    1  N1  UNL     1      -2.698   5.113  11.029  1.00  0.00    -0.307 N 
HETATM    2  C6  UNL     1      -2.486   5.404  12.323  1.00  0.00     0.152 A 
HETATM    3  C7  UNL     1      -3.124   4.454  13.130  1.00  0.00     0.020 A 
HETATM    4  C8  UNL     1      -3.730   3.574  12.276  1.00  0.00     0.024 A 
HETATM    5  C9  UNL     1      -3.443   4.016  10.988  1.00  0.00     0.153 A 
HETATM    6  C10 UNL     1      -4.434   2.520  13.056  1.00  0.00     0.118 C 
HETATM    7  N2  UNL     1      -4.054   2.774  14.402  1.00  0.00    -0.215 NA
HETATM    8  C19 UNL     1      -3.394   4.042  14.507  1.00  0.00     0.158 C 
ENDROOT
BRANCH   7   9
HETATM    9  N3  UNL     1      -5.157   2.810  15.257  1.00  0.00    -0.288 N 
HETATM   10  C14 UNL     1      -5.215   1.981  16.398  1.00  0.00     0.239 C 
HETATM   11  O5  UNL     1      -4.256   1.207  16.638  1.00  0.00    -0.271 OA
ATOM     12  H3  UNL     1      -5.931   3.443  15.055  1.00  0.00     0.184 HD
BRANCH  10  13
HETATM   13  C15 UNL     1      -6.365   1.978  17.337  1.00  0.00     0.031 C 
HETATM   14  C16 UNL     1      -7.002   3.346  17.269  1.00  0.00     0.025 C 
HETATM   15  C17 UNL     1      -7.384   0.926  16.983  1.00  0.00     0.025 C 
HETATM   16  C18 UNL     1      -5.880   1.713  18.757  1.00  0.00     0.025 C 
ENDBRANCH  10  13
ENDBRANCH   7   9
BRANCH   6  17
HETATM   17  C11 UNL     1      -3.912   1.192  12.535  1.00  0.00     0.036 C 
BRANCH  17  18
HETATM   18  C12 UNL     1      -4.797   0.792  11.378  1.00  0.00     0.075 C 
BRANCH  18  19
HETATM   19  S1  UNL     1      -3.985  -0.385  10.278  1.00  0.00    -0.173 SA
HETATM   20  C13 UNL     1      -2.976  -1.516  11.278  1.00  0.00     0.089 C 
ENDBRANCH  18  19
ENDBRANCH  17  18
ENDBRANCH   6  17
BRANCH   5  21
HETATM   21  O4  UNL     1      -3.872   3.404   9.824  1.00  0.00    -0.345 OA
ATOM     22  H4  UNL     1      -4.142   2.495   9.762  1.00  0.00     0.219 HD
ENDBRANCH   5  21
BRANCH   2  23
HETATM   23  O3  UNL     1      -1.756   6.471  12.820  1.00  0.00    -0.345 OA
ATOM     24  H3  UNL     1      -1.918   6.939  13.631  1.00  0.00     0.219 HD
ENDBRANCH   2  23
BRANCH   1  25
HETATM   25  C5  UNL     1      -2.190   5.874   9.884  1.00  0.00     0.143 C 
BRANCH  25  26
HETATM   26  C4  UNL     1      -0.836   5.293   9.539  1.00  0.00     0.131 C 
BRANCH  26  27
HETATM   27  C3  UNL     1      -0.890   4.381   8.386  1.00  0.00     0.260 C 
HETATM   28  O2  UNL     1      -1.921   4.420   7.667  1.00  0.00    -0.265 OA
BRANCH  27  29
HETATM   29  O1  UNL     1       0.097   3.485   8.028  1.00  0.00    -0.322 OA
BRANCH  29  30
HETATM   30  C2  UNL     1       1.458   3.810   7.884  1.00  0.00     0.174 C 
HETATM   31  C1  UNL     1       2.275   3.574   9.110  1.00  0.00     0.034 C 
ENDBRANCH  29  30
ENDBRANCH  27  29
ENDBRANCH  26  27
ENDBRANCH  25  26
ENDBRANCH   1  25
TORSDOF 12
ENDMDL
