MODEL 1
REMARK VINA RESULT: -6.777780805      0.000      0.000
REMARK  12 active torsions:
REMARK  status: ('A' for Active; 'I' for Inactive)
REMARK    1  A    between atoms: C2_2  and  O1_3 
REMARK    2  A    between atoms: O1_3  and  C3_4 
REMARK    3  A    between atoms: C3_4  and  C4_6 
REMARK    4  A    between atoms: C4_6  and  C5_7 
REMARK    5  A    between atoms: C4_6  and  N2_17 
REMARK    6  A    between atoms: C5_7  and  C6_8 
REMARK    7  A    between atoms: C6_8  and  C7_9 
REMARK       I    between atoms: C7_9  and  N1_11 
REMARK    8  A    between atoms: N1_11  and  C8_13 
REMARK    9  A    between atoms: C12_18  and  O4_19 
REMARK   10  A    between atoms: C15_23  and  O5_24 
REMARK   11  A    between atoms: C17_27  and  C18_28 
REMARK   12  A    between atoms: C18_28  and  O6_29 
ROOT
HETATM    1  N2  UNL     1      -3.297   5.284  12.734  1.00  0.00    -0.293 N 
HETATM    2  C12 UNL     1      -4.561   5.566  13.069  1.00  0.00     0.152 A 
HETATM    3  C13 UNL     1      -4.864   4.910  14.203  1.00  0.00     0.004 A 
HETATM    4  C14 UNL     1      -3.737   4.190  14.586  1.00  0.00     0.004 A 
HETATM    5  C15 UNL     1      -2.789   4.447  13.653  1.00  0.00     0.152 A 
HETATM    6  C16 UNL     1      -3.761   3.360  15.812  1.00  0.00     0.050 C 
HETATM    7  C17 UNL     1      -5.071   2.575  15.961  1.00  0.00     0.014 C 
HETATM    8  C20 UNL     1      -6.201   3.253  15.295  1.00  0.00     0.011 C 
HETATM    9  C21 UNL     1      -6.028   4.759  15.106  1.00  0.00     0.044 C 
ENDROOT
BRANCH   1  10
HETATM   10  C4  UNL     1      -2.537   5.755  11.595  1.00  0.00     0.194 C 
BRANCH  10  11
HETATM   11  C3  UNL     1      -1.405   6.569  12.049  1.00  0.00     0.282 C 
HETATM   12  O2  UNL     1      -0.226   6.060  12.023  1.00  0.00    -0.263 OA
BRANCH  11  13
HETATM   13  O1  UNL     1      -1.467   7.865  12.514  1.00  0.00    -0.320 OA
BRANCH  13  14
HETATM   14  C2  UNL     1      -0.906   8.229  13.783  1.00  0.00     0.174 C 
HETATM   15  C1  UNL     1      -1.831   7.834  14.888  1.00  0.00     0.034 C 
ENDBRANCH  13  14
ENDBRANCH  11  13
ENDBRANCH  10  11
BRANCH  10  16
HETATM   16  C5  UNL     1      -2.172   4.699  10.634  1.00  0.00     0.045 C 
BRANCH  16  17
HETATM   17  C6  UNL     1      -3.400   4.210   9.911  1.00  0.00     0.105 C 
BRANCH  17  18
HETATM   18  C7  UNL     1      -3.895   2.923  10.487  1.00  0.00     0.218 C 
HETATM   19  O3  UNL     1      -5.102   2.881  10.839  1.00  0.00    -0.274 OA
HETATM   20  N1  UNL     1      -3.097   1.788  10.648  1.00  0.00    -0.353 N 
ATOM     21  H1  UNL     1      -2.122   1.841  10.357  1.00  0.00     0.163 HD
BRANCH  20  22
HETATM   22  C8  UNL     1      -3.575   0.543  11.203  1.00  0.00     0.022 C 
HETATM   23  C9  UNL     1      -2.481  -0.531  11.143  1.00  0.00     0.037 C 
HETATM   24  C10 UNL     1      -4.026   0.693  12.618  1.00  0.00     0.037 C 
HETATM   25  C11 UNL     1      -4.741  -0.029  10.397  1.00  0.00     0.037 C 
ENDBRANCH  20  22
ENDBRANCH  17  18
ENDBRANCH  16  17
ENDBRANCH  10  16
ENDBRANCH   1  10
BRANCH   2  26
HETATM   26  O4  UNL     1      -5.389   6.404  12.337  1.00  0.00    -0.345 OA
ATOM     27  H4  UNL     1      -5.872   7.132  12.711  1.00  0.00     0.219 HD
ENDBRANCH   2  26
BRANCH   5  28
HETATM   28  O5  UNL     1      -1.493   3.904  13.677  1.00  0.00    -0.345 OA
ATOM     29  H5  UNL     1      -0.720   4.252  13.248  1.00  0.00     0.219 HD
ENDBRANCH   5  28
BRANCH   7  30
HETATM   30  C18 UNL     1      -4.855   1.174  15.464  1.00  0.00     0.172 C 
BRANCH  30  31
HETATM   31  O6  UNL     1      -5.244   0.115  16.152  1.00  0.00    -0.396 OA
HETATM   32  C19 UNL     1      -5.852   0.122  17.346  1.00  0.00     0.201 C 
ENDBRANCH  30  31
ENDBRANCH   7  30
TORSDOF 12
ENDMDL
MODEL 2
REMARK VINA RESULT: -6.762146429      2.138      6.638
REMARK  12 active torsions:
REMARK  status: ('A' for Active; 'I' for Inactive)
REMARK    1  A    between atoms: C2_2  and  O1_3 
REMARK    2  A    between atoms: O1_3  and  C3_4 
REMARK    3  A    between atoms: C3_4  and  C4_6 
REMARK    4  A    between atoms: C4_6  and  C5_7 
REMARK    5  A    between atoms: C4_6  and  N2_17 
REMARK    6  A    between atoms: C5_7  and  C6_8 
REMARK    7  A    between atoms: C6_8  and  C7_9 
REMARK       I    between atoms: C7_9  and  N1_11 
REMARK    8  A    between atoms: N1_11  and  C8_13 
REMARK    9  A    between atoms: C12_18  and  O4_19 
REMARK   10  A    between atoms: C15_23  and  O5_24 
REMARK   11  A    between atoms: C17_27  and  C18_28 
REMARK   12  A    between atoms: C18_28  and  O6_29 
ROOT
HETATM    1  N2  UNL     1      -3.717   3.327  11.639  1.00  0.00    -0.293 N 
HETATM    2  C12 UNL     1      -4.103   4.218  10.719  1.00  0.00     0.152 A 
HETATM    3  C13 UNL     1      -3.102   4.395   9.840  1.00  0.00     0.004 A 
HETATM    4  C14 UNL     1      -2.048   3.576  10.235  1.00  0.00     0.004 A 
HETATM    5  C15 UNL     1      -2.467   2.932  11.350  1.00  0.00     0.152 A 
HETATM    6  C16 UNL     1      -0.790   3.548   9.455  1.00  0.00     0.050 C 
HETATM    7  C17 UNL     1      -0.346   4.948   9.012  1.00  0.00     0.014 C 
HETATM    8  C20 UNL     1      -1.489   5.872   8.868  1.00  0.00     0.011 C 
HETATM    9  C21 UNL     1      -2.837   5.196   8.623  1.00  0.00     0.044 C 
ENDROOT
BRANCH   1  10
HETATM   10  C4  UNL     1      -4.457   2.825  12.778  1.00  0.00     0.194 C 
BRANCH  10  11
HETATM   11  C3  UNL     1      -4.410   1.360  12.802  1.00  0.00     0.282 C 
HETATM   12  O2  UNL     1      -3.968   0.771  13.854  1.00  0.00    -0.263 OA
BRANCH  11  13
HETATM   13  O1  UNL     1      -4.803   0.515  11.786  1.00  0.00    -0.320 OA
BRANCH  13  14
HETATM   14  C2  UNL     1      -4.078  -0.687  11.494  1.00  0.00     0.174 C 
HETATM   15  C1  UNL     1      -3.270  -0.513  10.249  1.00  0.00     0.034 C 
ENDBRANCH  13  14
ENDBRANCH  11  13
ENDBRANCH  10  11
BRANCH  10  16
HETATM   16  C5  UNL     1      -4.097   3.460  14.059  1.00  0.00     0.045 C 
BRANCH  16  17
HETATM   17  C6  UNL     1      -5.279   4.207  14.617  1.00  0.00     0.105 C 
BRANCH  17  18
HETATM   18  C7  UNL     1      -5.922   3.455  15.737  1.00  0.00     0.218 C 
HETATM   19  O3  UNL     1      -6.786   4.067  16.416  1.00  0.00    -0.274 OA
HETATM   20  N1  UNL     1      -5.615   2.130  16.057  1.00  0.00    -0.353 N 
ATOM     21  H1  UNL     1      -4.912   1.650  15.495  1.00  0.00     0.163 HD
BRANCH  20  22
HETATM   22  C8  UNL     1      -6.236   1.401  17.138  1.00  0.00     0.022 C 
HETATM   23  C9  UNL     1      -6.098   2.169  18.458  1.00  0.00     0.037 C 
HETATM   24  C10 UNL     1      -7.684   1.140  16.882  1.00  0.00     0.037 C 
HETATM   25  C11 UNL     1      -5.553   0.056  17.383  1.00  0.00     0.037 C 
ENDBRANCH  20  22
ENDBRANCH  17  18
ENDBRANCH  16  17
ENDBRANCH  10  16
ENDBRANCH   1  10
BRANCH   2  26
HETATM   26  O4  UNL     1      -5.346   4.836  10.710  1.00  0.00    -0.345 OA
ATOM     27  H4  UNL     1      -5.856   5.012  11.492  1.00  0.00     0.219 HD
ENDBRANCH   2  26
BRANCH   5  28
HETATM   28  O5  UNL     1      -1.688   2.005  12.064  1.00  0.00    -0.345 OA
ATOM     29  H5  UNL     1      -1.860   1.665  12.935  1.00  0.00     0.219 HD
ENDBRANCH   5  28
BRANCH   7  30
HETATM   30  C18 UNL     1       0.696   5.452   9.971  1.00  0.00     0.172 C 
BRANCH  30  31
HETATM   31  O6  UNL     1       0.621   5.231  11.271  1.00  0.00    -0.396 OA
HETATM   32  C19 UNL     1       0.028   6.019  12.179  1.00  0.00     0.201 C 
ENDBRANCH  30  31
ENDBRANCH   7  30
TORSDOF 12
ENDMDL
MODEL 3
REMARK VINA RESULT: -6.722863865      2.348      6.010
REMARK  12 active torsions:
REMARK  status: ('A' for Active; 'I' for Inactive)
REMARK    1  A    between atoms: C2_2  and  O1_3 
REMARK    2  A    between atoms: O1_3  and  C3_4 
REMARK    3  A    between atoms: C3_4  and  C4_6 
REMARK    4  A    between atoms: C4_6  and  C5_7 
REMARK    5  A    between atoms: C4_6  and  N2_17 
REMARK    6  A    between atoms: C5_7  and  C6_8 
REMARK    7  A    between atoms: C6_8  and  C7_9 
REMARK       I    between atoms: C7_9  and  N1_11 
REMARK    8  A    between atoms: N1_11  and  C8_13 
REMARK    9  A    between atoms: C12_18  and  O4_19 
REMARK   10  A    between atoms: C15_23  and  O5_24 
REMARK   11  A    between atoms: C17_27  and  C18_28 
REMARK   12  A    between atoms: C18_28  and  O6_29 
ROOT
HETATM    1  N2  UNL     1      -3.175   3.327  12.231  1.00  0.00    -0.293 N 
HETATM    2  C12 UNL     1      -2.449   4.236  12.892  1.00  0.00     0.152 A 
HETATM    3  C13 UNL     1      -3.029   5.440  12.750  1.00  0.00     0.004 A 
HETATM    4  C14 UNL     1      -4.164   5.269  11.964  1.00  0.00     0.004 A 
HETATM    5  C15 UNL     1      -4.221   3.949  11.663  1.00  0.00     0.152 A 
HETATM    6  C16 UNL     1      -5.024   6.427  11.629  1.00  0.00     0.050 C 
HETATM    7  C17 UNL     1      -4.208   7.675  11.265  1.00  0.00     0.014 C 
HETATM    8  C20 UNL     1      -2.883   7.679  11.917  1.00  0.00     0.011 C 
HETATM    9  C21 UNL     1      -2.786   6.834  13.186  1.00  0.00     0.044 C 
ENDROOT
BRANCH   1  10
HETATM   10  C4  UNL     1      -2.941   1.905  12.098  1.00  0.00     0.194 C 
BRANCH  10  11
HETATM   11  C3  UNL     1      -4.017   1.155  12.754  1.00  0.00     0.282 C 
HETATM   12  O2  UNL     1      -4.949   0.649  12.030  1.00  0.00    -0.263 OA
BRANCH  11  13
HETATM   13  O1  UNL     1      -4.143   0.924  14.107  1.00  0.00    -0.320 OA
BRANCH  13  14
HETATM   14  C2  UNL     1      -4.790   1.870  14.969  1.00  0.00     0.174 C 
HETATM   15  C1  UNL     1      -4.408   1.619  16.391  1.00  0.00     0.034 C 
ENDBRANCH  13  14
ENDBRANCH  11  13
ENDBRANCH  10  11
BRANCH  10  16
HETATM   16  C5  UNL     1      -2.654   1.465  10.721  1.00  0.00     0.045 C 
BRANCH  16  17
HETATM   17  C6  UNL     1      -1.165   1.383  10.503  1.00  0.00     0.105 C 
BRANCH  17  18
HETATM   18  C7  UNL     1      -0.610   2.688  10.032  1.00  0.00     0.218 C 
HETATM   19  O3  UNL     1      -0.855   3.019   8.844  1.00  0.00    -0.274 OA
HETATM   20  N1  UNL     1       0.153   3.540  10.835  1.00  0.00    -0.353 N 
ATOM     21  H1  UNL     1       0.342   3.254  11.795  1.00  0.00     0.163 HD
BRANCH  20  22
HETATM   22  C8  UNL     1       0.691   4.802  10.381  1.00  0.00     0.022 C 
HETATM   23  C9  UNL     1       1.391   5.536  11.532  1.00  0.00     0.037 C 
HETATM   24  C10 UNL     1       1.660   4.631   9.259  1.00  0.00     0.037 C 
HETATM   25  C11 UNL     1      -0.410   5.752   9.911  1.00  0.00     0.037 C 
ENDBRANCH  20  22
ENDBRANCH  17  18
ENDBRANCH  16  17
ENDBRANCH  10  16
ENDBRANCH   1  10
BRANCH   2  26
HETATM   26  O4  UNL     1      -1.292   3.940  13.599  1.00  0.00    -0.345 OA
ATOM     27  H4  UNL     1      -1.247   3.889  14.546  1.00  0.00     0.219 HD
ENDBRANCH   2  26
BRANCH   5  28
HETATM   28  O5  UNL     1      -5.229   3.363  10.878  1.00  0.00    -0.345 OA
ATOM     29  H5  UNL     1      -5.770   2.617  11.109  1.00  0.00     0.219 HD
ENDBRANCH   5  28
BRANCH   7  30
HETATM   30  C18 UNL     1      -4.124   7.779   9.769  1.00  0.00     0.172 C 
BRANCH  30  31
HETATM   31  O6  UNL     1      -4.553   6.817   8.971  1.00  0.00    -0.396 OA
HETATM   32  C19 UNL     1      -3.792   5.999   8.230  1.00  0.00     0.201 C 
ENDBRANCH  30  31
ENDBRANCH   7  30
TORSDOF 12
ENDMDL
MODEL 4
REMARK VINA RESULT: -6.720671729      1.663      5.243
REMARK  12 active torsions:
REMARK  status: ('A' for Active; 'I' for Inactive)
REMARK    1  A    between atoms: C2_2  and  O1_3 
REMARK    2  A    between atoms: O1_3  and  C3_4 
REMARK    3  A    between atoms: C3_4  and  C4_6 
REMARK    4  A    between atoms: C4_6  and  C5_7 
REMARK    5  A    between atoms: C4_6  and  N2_17 
REMARK    6  A    between atoms: C5_7  and  C6_8 
REMARK    7  A    between atoms: C6_8  and  C7_9 
REMARK       I    between atoms: C7_9  and  N1_11 
REMARK    8  A    between atoms: N1_11  and  C8_13 
REMARK    9  A    between atoms: C12_18  and  O4_19 
REMARK   10  A    between atoms: C15_23  and  O5_24 
REMARK   11  A    between atoms: C17_27  and  C18_28 
REMARK   12  A    between atoms: C18_28  and  O6_29 
ROOT
HETATM    1  N2  UNL     1      -3.031   4.875  12.123  1.00  0.00    -0.293 N 
HETATM    2  C12 UNL     1      -4.301   5.191  12.401  1.00  0.00     0.152 A 
HETATM    3  C13 UNL     1      -4.614   4.699  13.612  1.00  0.00     0.004 A 
HETATM    4  C14 UNL     1      -3.488   4.049  14.106  1.00  0.00     0.004 A 
HETATM    5  C15 UNL     1      -2.530   4.180  13.157  1.00  0.00     0.152 A 
HETATM    6  C16 UNL     1      -3.521   3.401  15.436  1.00  0.00     0.050 C 
HETATM    7  C17 UNL     1      -4.827   2.634  15.680  1.00  0.00     0.014 C 
HETATM    8  C20 UNL     1      -5.954   3.201  14.912  1.00  0.00     0.011 C 
HETATM    9  C21 UNL     1      -5.789   4.667  14.514  1.00  0.00     0.044 C 
ENDROOT
BRANCH   1  10
HETATM   10  C4  UNL     1      -2.260   5.187  10.938  1.00  0.00     0.194 C 
BRANCH  10  11
HETATM   11  C3  UNL     1      -2.641   4.292   9.841  1.00  0.00     0.282 C 
HETATM   12  O2  UNL     1      -3.800   4.426   9.306  1.00  0.00    -0.263 OA
BRANCH  11  13
HETATM   13  O1  UNL     1      -1.865   3.288   9.301  1.00  0.00    -0.320 OA
BRANCH  13  14
HETATM   14  C2  UNL     1      -0.870   2.612  10.082  1.00  0.00     0.174 C 
HETATM   15  C1  UNL     1      -1.412   1.319  10.601  1.00  0.00     0.034 C 
ENDBRANCH  13  14
ENDBRANCH  11  13
ENDBRANCH  10  11
BRANCH  10  16
HETATM   16  C5  UNL     1      -2.260   6.616  10.576  1.00  0.00     0.045 C 
BRANCH  16  17
HETATM   17  C6  UNL     1      -1.041   7.294  11.144  1.00  0.00     0.105 C 
BRANCH  17  18
HETATM   18  C7  UNL     1      -1.385   8.129  12.334  1.00  0.00     0.218 C 
HETATM   19  O3  UNL     1      -2.607   8.320  12.566  1.00  0.00    -0.274 OA
HETATM   20  N1  UNL     1      -0.433   8.695  13.185  1.00  0.00    -0.353 N 
ATOM     21  H1  UNL     1       0.552   8.530  12.982  1.00  0.00     0.163 HD
BRANCH  20  22
HETATM   22  C8  UNL     1      -0.764   9.502  14.337  1.00  0.00     0.022 C 
HETATM   23  C9  UNL     1      -1.598  10.720  13.921  1.00  0.00     0.037 C 
HETATM   24  C10 UNL     1      -1.520   8.730  15.367  1.00  0.00     0.037 C 
HETATM   25  C11 UNL     1       0.483  10.079  15.004  1.00  0.00     0.037 C 
ENDBRANCH  20  22
ENDBRANCH  17  18
ENDBRANCH  16  17
ENDBRANCH  10  16
ENDBRANCH   1  10
BRANCH   2  26
HETATM   26  O4  UNL     1      -5.126   5.911  11.549  1.00  0.00    -0.345 OA
ATOM     27  H4  UNL     1      -6.002   5.639  11.302  1.00  0.00     0.219 HD
ENDBRANCH   2  26
BRANCH   5  28
HETATM   28  O5  UNL     1      -1.230   3.657  13.272  1.00  0.00    -0.345 OA
ATOM     29  H5  UNL     1      -0.564   3.914  13.899  1.00  0.00     0.219 HD
ENDBRANCH   5  28
BRANCH   7  30
HETATM   30  C18 UNL     1      -4.596   1.178  15.388  1.00  0.00     0.172 C 
BRANCH  30  31
HETATM   31  O6  UNL     1      -5.188   0.220  16.078  1.00  0.00    -0.396 OA
HETATM   32  C19 UNL     1      -5.822   0.358  17.250  1.00  0.00     0.201 C 
ENDBRANCH  30  31
ENDBRANCH   7  30
TORSDOF 12
ENDMDL
MODEL 5
REMARK VINA RESULT: -6.675831357      2.660      7.020
REMARK  12 active torsions:
REMARK  status: ('A' for Active; 'I' for Inactive)
REMARK    1  A    between atoms: C2_2  and  O1_3 
REMARK    2  A    between atoms: O1_3  and  C3_4 
REMARK    3  A    between atoms: C3_4  and  C4_6 
REMARK    4  A    between atoms: C4_6  and  C5_7 
REMARK    5  A    between atoms: C4_6  and  N2_17 
REMARK    6  A    between atoms: C5_7  and  C6_8 
REMARK    7  A    between atoms: C6_8  and  C7_9 
REMARK       I    between atoms: C7_9  and  N1_11 
REMARK    8  A    between atoms: N1_11  and  C8_13 
REMARK    9  A    between atoms: C12_18  and  O4_19 
REMARK   10  A    between atoms: C15_23  and  O5_24 
REMARK   11  A    between atoms: C17_27  and  C18_28 
REMARK   12  A    between atoms: C18_28  and  O6_29 
ROOT
HETATM    1  N2  UNL     1      -3.050   3.568  11.058  1.00  0.00    -0.293 N 
HETATM    2  C12 UNL     1      -3.178   4.396  10.015  1.00  0.00     0.152 A 
HETATM    3  C13 UNL     1      -2.071   4.314   9.258  1.00  0.00     0.004 A 
HETATM    4  C14 UNL     1      -1.218   3.394   9.860  1.00  0.00     0.004 A 
HETATM    5  C15 UNL     1      -1.859   2.955  10.970  1.00  0.00     0.152 A 
HETATM    6  C16 UNL     1       0.096   3.083   9.253  1.00  0.00     0.050 C 
HETATM    7  C17 UNL     1       0.813   4.338   8.737  1.00  0.00     0.014 C 
HETATM    8  C20 UNL     1      -0.138   5.404   8.361  1.00  0.00     0.011 C 
HETATM    9  C21 UNL     1      -1.544   4.918   8.013  1.00  0.00     0.044 C 
ENDROOT
BRANCH   1  10
HETATM   10  C4  UNL     1      -3.983   3.321  12.137  1.00  0.00     0.194 C 
BRANCH  10  11
HETATM   11  C3  UNL     1      -4.540   1.970  12.020  1.00  0.00     0.282 C 
HETATM   12  O2  UNL     1      -5.641   1.808  11.379  1.00  0.00    -0.263 OA
BRANCH  11  13
HETATM   13  O1  UNL     1      -3.995   0.815  12.538  1.00  0.00    -0.320 OA
BRANCH  13  14
HETATM   14  C2  UNL     1      -4.151  -0.447  11.874  1.00  0.00     0.174 C 
HETATM   15  C1  UNL     1      -3.230  -0.528  10.700  1.00  0.00     0.034 C 
ENDBRANCH  13  14
ENDBRANCH  11  13
ENDBRANCH  10  11
BRANCH  10  16
HETATM   16  C5  UNL     1      -3.457   3.641  13.476  1.00  0.00     0.045 C 
BRANCH  16  17
HETATM   17  C6  UNL     1      -4.588   3.997  14.405  1.00  0.00     0.105 C 
BRANCH  17  18
HETATM   18  C7  UNL     1      -4.794   2.943  15.443  1.00  0.00     0.218 C 
HETATM   19  O3  UNL     1      -3.777   2.309  15.827  1.00  0.00    -0.274 OA
HETATM   20  N1  UNL     1      -6.039   2.634  15.997  1.00  0.00    -0.353 N 
ATOM     21  H1  UNL     1      -6.852   3.157  15.673  1.00  0.00     0.163 HD
BRANCH  20  22
HETATM   22  C8  UNL     1      -6.241   1.615  17.001  1.00  0.00     0.022 C 
HETATM   23  C9  UNL     1      -5.305   0.425  16.759  1.00  0.00     0.037 C 
HETATM   24  C10 UNL     1      -6.014   2.133  18.382  1.00  0.00     0.037 C 
HETATM   25  C11 UNL     1      -7.652   1.032  16.944  1.00  0.00     0.037 C 
ENDBRANCH  20  22
ENDBRANCH  17  18
ENDBRANCH  16  17
ENDBRANCH  10  16
ENDBRANCH   1  10
BRANCH   2  26
HETATM   26  O4  UNL     1      -4.292   5.192   9.789  1.00  0.00    -0.345 OA
ATOM     27  H4  UNL     1      -4.248   6.098   9.508  1.00  0.00     0.219 HD
ENDBRANCH   2  26
BRANCH   5  28
HETATM   28  O5  UNL     1      -1.328   2.008  11.863  1.00  0.00    -0.345 OA
ATOM     29  H5  UNL     1      -1.600   1.103  11.965  1.00  0.00     0.219 HD
ENDBRANCH   5  28
BRANCH   7  30
HETATM   30  C18 UNL     1       1.812   4.783   9.768  1.00  0.00     0.172 C 
BRANCH  30  31
HETATM   31  O6  UNL     1       3.023   4.263   9.844  1.00  0.00    -0.396 OA
HETATM   32  C19 UNL     1       3.800   3.900   8.814  1.00  0.00     0.201 C 
ENDBRANCH  30  31
ENDBRANCH   7  30
TORSDOF 12
ENDMDL
