MODEL 1
REMARK VINA RESULT: -7.707683350      0.000      0.000
REMARK  7 active torsions:
REMARK  status: ('A' for Active; 'I' for Inactive)
REMARK    1  A    between atoms: C2_3  and  C3_4 
REMARK    2  A    between atoms: C4_6  and  O1_7 
REMARK    3  A    between atoms: C4_6  and  C5_9 
REMARK    4  A    between atoms: C5_9  and  O3_11 
REMARK    5  A    between atoms: O3_11  and  C6_12 
REMARK    6  A    between atoms: C6_12  and  C7_13 
REMARK    7  A    between atoms: N2_22  and  O5_23 
ROOT
HETATM    1  C3  UNL     1      -4.191   3.471  13.098  1.00  0.00     0.100 C 
HETATM    2 CL1  UNL     1      -3.028   4.804  13.131  1.00  0.00    -0.079 Cl
HETATM    3  C4  UNL     1      -4.599   3.065  11.934  1.00  0.00     0.166 C 
ENDROOT
BRANCH   1   4
HETATM    4  C2  UNL     1      -4.592   2.942  14.381  1.00  0.00     0.068 A 
HETATM    5  N1  UNL     1      -5.573   3.427  15.111  1.00  0.00    -0.300 N 
HETATM    6  C1  UNL     1      -6.281   4.619  14.727  1.00  0.00     0.161 C 
HETATM    7  C15 UNL     1      -5.940   2.842  16.305  1.00  0.00     0.356 A 
HETATM    8  N2  UNL     1      -5.284   1.755  16.741  1.00  0.00    -0.134 N 
HETATM    9  O6  UNL     1      -6.886   3.334  16.974  1.00  0.00    -0.244 OA
HETATM   10  C14 UNL     1      -4.285   1.243  16.025  1.00  0.00     0.277 A 
HETATM   11  C13 UNL     1      -3.918   1.825  14.830  1.00  0.00     0.108 A 
HETATM   12  O4  UNL     1      -3.680   0.233  16.437  1.00  0.00    -0.266 OA
BRANCH   8  13
HETATM   13  O5  UNL     1      -5.628   1.149  17.932  1.00  0.00    -0.276 OA
ATOM     14  H5  UNL     1      -6.344   0.524  17.938  1.00  0.00     0.245 HD
ENDBRANCH   8  13
ENDBRANCH   1   4
BRANCH   3  15
HETATM   15  O1  UNL     1      -5.504   2.025  11.825  1.00  0.00    -0.354 OA
ATOM     16  H1  UNL     1      -5.904   1.647  12.599  1.00  0.00     0.218 HD
ENDBRANCH   3  15
BRANCH   3  17
HETATM   17  C5  UNL     1      -4.137   3.668  10.706  1.00  0.00     0.318 C 
HETATM   18  O2  UNL     1      -3.057   3.398  10.145  1.00  0.00    -0.257 OA
BRANCH  17  19
HETATM   19  O3  UNL     1      -4.864   4.631  10.008  1.00  0.00    -0.316 OA
BRANCH  19  20
HETATM   20  C6  UNL     1      -4.701   5.990  10.086  1.00  0.00     0.183 C 
BRANCH  20  21
HETATM   21  C7  UNL     1      -5.282   6.707  11.247  1.00  0.00     0.010 C 
HETATM   22  C8  UNL     1      -6.663   7.204  10.852  1.00  0.00     0.007 C 
HETATM   23  C9  UNL     1      -6.911   8.618  11.356  1.00  0.00     0.000 C 
HETATM   24  C10 UNL     1      -6.089   9.524  10.432  1.00  0.00     0.000 C 
HETATM   25  C11 UNL     1      -4.683   9.011  10.456  1.00  0.00     0.000 C 
HETATM   26  C12 UNL     1      -4.451   7.951  11.510  1.00  0.00     0.007 C 
ENDBRANCH  20  21
ENDBRANCH  19  20
ENDBRANCH  17  19
ENDBRANCH   3  17
TORSDOF 7
ENDMDL
MODEL 2
REMARK VINA RESULT: -7.655083774      2.138      2.986
REMARK  7 active torsions:
REMARK  status: ('A' for Active; 'I' for Inactive)
REMARK    1  A    between atoms: C2_3  and  C3_4 
REMARK    2  A    between atoms: C4_6  and  O1_7 
REMARK    3  A    between atoms: C4_6  and  C5_9 
REMARK    4  A    between atoms: C5_9  and  O3_11 
REMARK    5  A    between atoms: O3_11  and  C6_12 
REMARK    6  A    between atoms: C6_12  and  C7_13 
REMARK    7  A    between atoms: N2_22  and  O5_23 
ROOT
HETATM    1  C3  UNL     1      -4.695   4.156  14.858  1.00  0.00     0.100 C 
HETATM    2 CL1  UNL     1      -6.079   5.157  14.393  1.00  0.00    -0.079 Cl
HETATM    3  C4  UNL     1      -3.510   4.622  14.603  1.00  0.00     0.166 C 
ENDROOT
BRANCH   1   4
HETATM    4  C2  UNL     1      -5.004   2.894  15.488  1.00  0.00     0.068 A 
HETATM    5  N1  UNL     1      -4.739   1.717  14.965  1.00  0.00    -0.300 N 
HETATM    6  C1  UNL     1      -4.196   1.586  13.639  1.00  0.00     0.161 C 
HETATM    7  C15 UNL     1      -5.014   0.548  15.643  1.00  0.00     0.356 A 
HETATM    8  N2  UNL     1      -5.567   0.604  16.865  1.00  0.00    -0.134 N 
HETATM    9  O6  UNL     1      -4.743  -0.560  15.110  1.00  0.00    -0.244 OA
HETATM   10  C14 UNL     1      -5.848   1.781  17.420  1.00  0.00     0.277 A 
HETATM   11  C13 UNL     1      -5.573   2.951  16.745  1.00  0.00     0.108 A 
HETATM   12  O4  UNL     1      -6.362   1.824  18.556  1.00  0.00    -0.266 OA
BRANCH   8  13
HETATM   13  O5  UNL     1      -5.853  -0.549  17.567  1.00  0.00    -0.276 OA
ATOM     14  H5  UNL     1      -6.364  -1.229  17.144  1.00  0.00     0.245 HD
ENDBRANCH   8  13
ENDBRANCH   1   4
BRANCH   3  15
HETATM   15  O1  UNL     1      -2.380   3.901  14.940  1.00  0.00    -0.354 OA
ATOM     16  H1  UNL     1      -1.884   3.436  14.276  1.00  0.00     0.218 HD
ENDBRANCH   3  15
BRANCH   3  17
HETATM   17  C5  UNL     1      -3.310   5.900  13.962  1.00  0.00     0.318 C 
HETATM   18  O2  UNL     1      -3.045   6.961  14.560  1.00  0.00    -0.257 OA
BRANCH  17  19
HETATM   19  O3  UNL     1      -3.393   6.083  12.582  1.00  0.00    -0.316 OA
BRANCH  19  20
HETATM   20  C6  UNL     1      -4.200   6.978  11.926  1.00  0.00     0.183 C 
BRANCH  20  21
HETATM   21  C7  UNL     1      -5.459   6.482  11.319  1.00  0.00     0.010 C 
HETATM   22  C8  UNL     1      -5.332   6.597   9.809  1.00  0.00     0.007 C 
HETATM   23  C9  UNL     1      -6.616   7.115   9.179  1.00  0.00     0.000 C 
HETATM   24  C10 UNL     1      -6.647   8.613   9.502  1.00  0.00     0.000 C 
HETATM   25  C11 UNL     1      -6.495   8.743  10.985  1.00  0.00     0.000 C 
HETATM   26  C12 UNL     1      -6.587   7.421  11.714  1.00  0.00     0.007 C 
ENDBRANCH  20  21
ENDBRANCH  19  20
ENDBRANCH  17  19
ENDBRANCH   3  17
TORSDOF 7
ENDMDL
MODEL 3
REMARK VINA RESULT: -7.547324898      2.335      3.244
REMARK  7 active torsions:
REMARK  status: ('A' for Active; 'I' for Inactive)
REMARK    1  A    between atoms: C2_3  and  C3_4 
REMARK    2  A    between atoms: C4_6  and  O1_7 
REMARK    3  A    between atoms: C4_6  and  C5_9 
REMARK    4  A    between atoms: C5_9  and  O3_11 
REMARK    5  A    between atoms: O3_11  and  C6_12 
REMARK    6  A    between atoms: C6_12  and  C7_13 
REMARK    7  A    between atoms: N2_22  and  O5_23 
ROOT
HETATM    1  C3  UNL     1      -3.553   4.423  14.090  1.00  0.00     0.100 C 
HETATM    2 CL1  UNL     1      -4.903   5.564  14.172  1.00  0.00    -0.079 Cl
HETATM    3  C4  UNL     1      -2.374   4.911  13.846  1.00  0.00     0.166 C 
ENDROOT
BRANCH   1   4
HETATM    4  C2  UNL     1      -3.880   3.032  14.302  1.00  0.00     0.068 A 
HETATM    5  N1  UNL     1      -4.013   2.144  13.341  1.00  0.00    -0.300 N 
HETATM    6  C1  UNL     1      -3.943   2.519  11.954  1.00  0.00     0.161 C 
HETATM    7  C15 UNL     1      -4.275   0.819  13.615  1.00  0.00     0.356 A 
HETATM    8  N2  UNL     1      -4.401   0.417  14.890  1.00  0.00    -0.134 N 
HETATM    9  O6  UNL     1      -4.395  -0.002  12.668  1.00  0.00    -0.244 OA
HETATM   10  C14 UNL     1      -4.273   1.293  15.884  1.00  0.00     0.277 A 
HETATM   11  C13 UNL     1      -4.009   2.618  15.613  1.00  0.00     0.108 A 
HETATM   12  O4  UNL     1      -4.392   0.911  17.066  1.00  0.00    -0.266 OA
BRANCH   8  13
HETATM   13  O5  UNL     1      -4.664  -0.903  15.195  1.00  0.00    -0.276 OA
ATOM     14  H5  UNL     1      -4.031  -1.566  14.945  1.00  0.00     0.245 HD
ENDBRANCH   8  13
ENDBRANCH   1   4
BRANCH   3  15
HETATM   15  O1  UNL     1      -1.269   4.084  13.771  1.00  0.00    -0.354 OA
ATOM     16  H1  UNL     1      -0.844   3.915  12.938  1.00  0.00     0.218 HD
ENDBRANCH   3  15
BRANCH   3  17
HETATM   17  C5  UNL     1      -2.155   6.323  13.643  1.00  0.00     0.318 C 
HETATM   18  O2  UNL     1      -1.816   7.125  14.536  1.00  0.00    -0.257 OA
BRANCH  17  19
HETATM   19  O3  UNL     1      -2.303   6.948  12.406  1.00  0.00    -0.316 OA
BRANCH  19  20
HETATM   20  C6  UNL     1      -3.042   8.074  12.146  1.00  0.00     0.183 C 
BRANCH  20  21
HETATM   21  C7  UNL     1      -3.668   8.217  10.809  1.00  0.00     0.010 C 
HETATM   22  C8  UNL     1      -4.442   9.524  10.786  1.00  0.00     0.007 C 
HETATM   23  C9  UNL     1      -5.788   9.362  10.096  1.00  0.00     0.000 C 
HETATM   24  C10 UNL     1      -6.669   8.613  11.102  1.00  0.00     0.000 C 
HETATM   25  C11 UNL     1      -5.929   7.371  11.489  1.00  0.00     0.000 C 
HETATM   26  C12 UNL     1      -4.702   7.117  10.642  1.00  0.00     0.007 C 
ENDBRANCH  20  21
ENDBRANCH  19  20
ENDBRANCH  17  19
ENDBRANCH   3  17
TORSDOF 7
ENDMDL
MODEL 4
REMARK VINA RESULT: -7.541757726      1.178      1.410
REMARK  7 active torsions:
REMARK  status: ('A' for Active; 'I' for Inactive)
REMARK    1  A    between atoms: C2_3  and  C3_4 
REMARK    2  A    between atoms: C4_6  and  O1_7 
REMARK    3  A    between atoms: C4_6  and  C5_9 
REMARK    4  A    between atoms: C5_9  and  O3_11 
REMARK    5  A    between atoms: O3_11  and  C6_12 
REMARK    6  A    between atoms: C6_12  and  C7_13 
REMARK    7  A    between atoms: N2_22  and  O5_23 
ROOT
HETATM    1  C3  UNL     1      -3.891   3.721  13.764  1.00  0.00     0.100 C 
HETATM    2 CL1  UNL     1      -2.630   4.748  14.461  1.00  0.00    -0.079 Cl
HETATM    3  C4  UNL     1      -4.114   3.833  12.490  1.00  0.00     0.166 C 
ENDROOT
BRANCH   1   4
HETATM    4  C2  UNL     1      -4.573   2.837  14.681  1.00  0.00     0.068 A 
HETATM    5  N1  UNL     1      -5.584   3.192  15.442  1.00  0.00    -0.300 N 
HETATM    6  C1  UNL     1      -6.043   4.554  15.501  1.00  0.00     0.161 C 
HETATM    7  C15 UNL     1      -6.225   2.284  16.259  1.00  0.00     0.356 A 
HETATM    8  N2  UNL     1      -5.811   1.007  16.285  1.00  0.00    -0.134 N 
HETATM    9  O6  UNL     1      -7.192   2.661  16.972  1.00  0.00    -0.244 OA
HETATM   10  C14 UNL     1      -4.788   0.619  15.527  1.00  0.00     0.277 A 
HETATM   11  C13 UNL     1      -4.147   1.524  14.709  1.00  0.00     0.108 A 
HETATM   12  O4  UNL     1      -4.410  -0.570  15.557  1.00  0.00    -0.266 OA
BRANCH   8  13
HETATM   13  O5  UNL     1      -6.433   0.077  17.093  1.00  0.00    -0.276 OA
ATOM     14  H5  UNL     1      -6.989   0.382  17.800  1.00  0.00     0.245 HD
ENDBRANCH   8  13
ENDBRANCH   1   4
BRANCH   3  15
HETATM   15  O1  UNL     1      -5.081   3.062  11.871  1.00  0.00    -0.354 OA
ATOM     16  H1  UNL     1      -5.891   2.848  12.318  1.00  0.00     0.218 HD
ENDBRANCH   3  15
BRANCH   3  17
HETATM   17  C5  UNL     1      -3.377   4.756  11.660  1.00  0.00     0.318 C 
HETATM   18  O2  UNL     1      -2.259   4.523  11.159  1.00  0.00    -0.257 OA
BRANCH  17  19
HETATM   19  O3  UNL     1      -3.846   6.026  11.327  1.00  0.00    -0.316 OA
BRANCH  19  20
HETATM   20  C6  UNL     1      -4.875   6.699  11.934  1.00  0.00     0.183 C 
BRANCH  20  21
HETATM   21  C7  UNL     1      -6.223   6.636  11.318  1.00  0.00     0.010 C 
HETATM   22  C8  UNL     1      -6.052   6.615   9.808  1.00  0.00     0.007 C 
HETATM   23  C9  UNL     1      -7.073   7.509   9.120  1.00  0.00     0.000 C 
HETATM   24  C10 UNL     1      -6.586   8.941   9.368  1.00  0.00     0.000 C 
HETATM   25  C11 UNL     1      -6.410   9.092  10.846  1.00  0.00     0.000 C 
HETATM   26  C12 UNL     1      -6.959   7.926  11.636  1.00  0.00     0.007 C 
ENDBRANCH  20  21
ENDBRANCH  19  20
ENDBRANCH  17  19
ENDBRANCH   3  17
TORSDOF 7
ENDMDL
MODEL 5
REMARK VINA RESULT: -7.436737694      2.510      3.083
REMARK  7 active torsions:
REMARK  status: ('A' for Active; 'I' for Inactive)
REMARK    1  A    between atoms: C2_3  and  C3_4 
REMARK    2  A    between atoms: C4_6  and  O1_7 
REMARK    3  A    between atoms: C4_6  and  C5_9 
REMARK    4  A    between atoms: C5_9  and  O3_11 
REMARK    5  A    between atoms: O3_11  and  C6_12 
REMARK    6  A    between atoms: C6_12  and  C7_13 
REMARK    7  A    between atoms: N2_22  and  O5_23 
ROOT
HETATM    1  C3  UNL     1      -3.495   3.677  13.974  1.00  0.00     0.100 C 
HETATM    2 CL1  UNL     1      -2.034   4.289  14.763  1.00  0.00    -0.079 Cl
HETATM    3  C4  UNL     1      -3.691   4.019  12.736  1.00  0.00     0.166 C 
ENDROOT
BRANCH   1   4
HETATM    4  C2  UNL     1      -4.354   2.842  14.781  1.00  0.00     0.068 A 
HETATM    5  N1  UNL     1      -5.392   3.280  15.460  1.00  0.00    -0.300 N 
HETATM    6  C1  UNL     1      -5.705   4.682  15.538  1.00  0.00     0.161 C 
HETATM    7  C15 UNL     1      -6.203   2.420  16.170  1.00  0.00     0.356 A 
HETATM    8  N2  UNL     1      -5.933   1.106  16.176  1.00  0.00    -0.134 N 
HETATM    9  O6  UNL     1      -7.189   2.877  16.806  1.00  0.00    -0.244 OA
HETATM   10  C14 UNL     1      -4.888   0.633  15.500  1.00  0.00     0.277 A 
HETATM   11  C13 UNL     1      -4.076   1.490  14.788  1.00  0.00     0.108 A 
HETATM   12  O4  UNL     1      -4.644  -0.591  15.510  1.00  0.00    -0.266 OA
BRANCH   8  13
HETATM   13  O5  UNL     1      -6.727   0.222  16.878  1.00  0.00    -0.276 OA
ATOM     14  H5  UNL     1      -6.699  -0.700  16.650  1.00  0.00     0.245 HD
ENDBRANCH   8  13
ENDBRANCH   1   4
BRANCH   3  15
HETATM   15  O1  UNL     1      -4.807   3.578  12.050  1.00  0.00    -0.354 OA
ATOM     16  H1  UNL     1      -5.411   4.196  11.656  1.00  0.00     0.218 HD
ENDBRANCH   3  15
BRANCH   3  17
HETATM   17  C5  UNL     1      -2.769   4.866  12.019  1.00  0.00     0.318 C 
HETATM   18  O2  UNL     1      -1.719   4.471  11.474  1.00  0.00    -0.257 OA
BRANCH  17  19
HETATM   19  O3  UNL     1      -2.958   6.238  11.858  1.00  0.00    -0.316 OA
BRANCH  19  20
HETATM   20  C6  UNL     1      -2.956   7.183  12.852  1.00  0.00     0.183 C 
BRANCH  20  21
HETATM   21  C7  UNL     1      -1.686   7.455  13.568  1.00  0.00     0.010 C 
HETATM   22  C8  UNL     1      -2.026   7.988  14.949  1.00  0.00     0.007 C 
HETATM   23  C9  UNL     1      -1.121   9.148  15.337  1.00  0.00     0.000 C 
HETATM   24  C10 UNL     1      -1.625  10.343  14.519  1.00  0.00     0.000 C 
HETATM   25  C11 UNL     1      -1.636   9.916  13.085  1.00  0.00     0.000 C 
HETATM   26  C12 UNL     1      -0.962   8.583  12.852  1.00  0.00     0.007 C 
ENDBRANCH  20  21
ENDBRANCH  19  20
ENDBRANCH  17  19
ENDBRANCH   3  17
TORSDOF 7
ENDMDL
