MODEL 1
REMARK VINA RESULT: -5.864142953      0.000      0.000
REMARK  7 active torsions:
REMARK  status: ('A' for Active; 'I' for Inactive)
REMARK    1  A    between atoms: C2_2  and  O1_3 
REMARK    2  A    between atoms: O1_3  and  C3_4 
REMARK    3  A    between atoms: C4_5  and  O2_6 
REMARK    4  A    between atoms: C5_8  and  O3_9 
REMARK    5  A    between atoms: C7_11  and  O4_12 
REMARK    6  A    between atoms: C12_23  and  C13_24 
REMARK    7  A    between atoms: C12_23  and  C14_26 
ROOT
HETATM    1  C3  UNL     1      -2.493   3.979  11.759  1.00  0.00     0.205 C 
HETATM    2  C4  UNL     1      -3.892   3.535  11.539  1.00  0.00     0.183 C 
HETATM    3  C5  UNL     1      -4.435   2.687  12.678  1.00  0.00     0.183 C 
HETATM    4  C7  UNL     1      -4.944   3.596  13.739  1.00  0.00     0.174 C 
HETATM    5  C9  UNL     1      -3.838   4.324  14.498  1.00  0.00     0.106 C 
HETATM    6  C10 UNL     1      -2.907   3.431  15.215  1.00  0.00     0.034 C 
HETATM    7  N1  UNL     1      -3.309   5.325  13.663  1.00  0.00    -0.385 N 
ATOM      8  H1  UNL     1      -3.685   6.270  13.738  1.00  0.00     0.156 HD
HETATM    9  C11 UNL     1      -2.296   5.083  12.737  1.00  0.00     0.171 A 
HETATM   10  N2  UNL     1      -0.943   5.032  13.193  1.00  0.00    -0.306 N 
ATOM     11  H2  UNL     1      -0.479   4.310  13.742  1.00  0.00     0.183 HD
HETATM   12  N3  UNL     1      -0.490   6.072  12.758  1.00  0.00    -0.322 N 
ATOM     13  H3  UNL     1       0.419   6.534  12.789  1.00  0.00     0.181 HD
HETATM   14  C12 UNL     1      -1.743   6.375  12.192  1.00  0.00     0.109 A 
ENDROOT
BRANCH   1  15
HETATM   15  O1  UNL     1      -1.770   2.875  12.210  1.00  0.00    -0.379 OA
BRANCH  15  16
HETATM   16  C2  UNL     1      -1.195   2.162  11.147  1.00  0.00     0.164 C 
HETATM   17  C1  UNL     1      -1.550   0.717  11.166  1.00  0.00     0.033 C 
ENDBRANCH  15  16
ENDBRANCH   1  15
BRANCH  14  18
HETATM   18  C13 UNL     1      -2.394   7.614  12.813  1.00  0.00     0.152 C 
HETATM   19 CL1  UNL     1      -1.287   8.508  13.841  1.00  0.00    -0.128 Cl
ENDBRANCH  14  18
BRANCH  14  20
HETATM   20  C14 UNL     1      -1.782   6.520  10.697  1.00  0.00     0.021 A 
HETATM   21  C15 UNL     1      -2.998   7.197  10.086  1.00  0.00     0.008 A 
HETATM   22  C16 UNL     1      -1.692   7.937  10.194  1.00  0.00     0.008 A 
ENDBRANCH  14  20
BRANCH   2  23
HETATM   23  O2  UNL     1      -4.802   4.507  11.230  1.00  0.00    -0.390 OA
ATOM     24  H2  UNL     1      -5.621   4.217  10.846  1.00  0.00     0.210 HD
ENDBRANCH   2  23
BRANCH   3  25
HETATM   25  O3  UNL     1      -5.513   1.973  12.169  1.00  0.00    -0.385 OA
HETATM   26  C6  UNL     1      -5.102   1.075  11.170  1.00  0.00     0.202 C 
ENDBRANCH   3  25
BRANCH   4  27
HETATM   27  O4  UNL     1      -5.910   3.076  14.546  1.00  0.00    -0.386 OA
HETATM   28  C8  UNL     1      -6.332   3.862  15.585  1.00  0.00     0.202 C 
ENDBRANCH   4  27
TORSDOF 7
ENDMDL
MODEL 2
REMARK VINA RESULT: -5.852228530      2.850      5.587
REMARK  7 active torsions:
REMARK  status: ('A' for Active; 'I' for Inactive)
REMARK    1  A    between atoms: C2_2  and  O1_3 
REMARK    2  A    between atoms: O1_3  and  C3_4 
REMARK    3  A    between atoms: C4_5  and  O2_6 
REMARK    4  A    between atoms: C5_8  and  O3_9 
REMARK    5  A    between atoms: C7_11  and  O4_12 
REMARK    6  A    between atoms: C12_23  and  C13_24 
REMARK    7  A    between atoms: C12_23  and  C14_26 
ROOT
HETATM    1  C3  UNL     1      -3.403   5.761  13.949  1.00  0.00     0.205 C 
HETATM    2  C4  UNL     1      -4.001   6.459  12.783  1.00  0.00     0.183 C 
HETATM    3  C5  UNL     1      -3.005   6.712  11.663  1.00  0.00     0.183 C 
HETATM    4  C7  UNL     1      -2.921   5.488  10.823  1.00  0.00     0.174 C 
HETATM    5  C9  UNL     1      -2.208   4.327  11.510  1.00  0.00     0.106 C 
HETATM    6  C10 UNL     1      -0.803   4.606  11.869  1.00  0.00     0.034 C 
HETATM    7  N1  UNL     1      -3.065   3.796  12.491  1.00  0.00    -0.385 N 
ATOM      8  H1  UNL     1      -3.655   3.002  12.243  1.00  0.00     0.156 HD
HETATM    9  C11 UNL     1      -3.144   4.305  13.786  1.00  0.00     0.171 A 
HETATM   10  N2  UNL     1      -2.149   3.925  14.738  1.00  0.00    -0.306 N 
ATOM     11  H2  UNL     1      -1.171   4.209  14.792  1.00  0.00     0.183 HD
HETATM   12  N3  UNL     1      -2.769   3.176  15.467  1.00  0.00    -0.322 N 
ATOM     13  H3  UNL     1      -2.547   2.629  16.299  1.00  0.00     0.181 HD
HETATM   14  C12 UNL     1      -3.922   3.378  14.685  1.00  0.00     0.109 A 
ENDROOT
BRANCH   1  15
HETATM   15  O1  UNL     1      -2.185   6.383  14.228  1.00  0.00    -0.379 OA
BRANCH  15  16
HETATM   16  C2  UNL     1      -2.350   7.490  15.074  1.00  0.00     0.164 C 
HETATM   17  C1  UNL     1      -1.445   8.618  14.726  1.00  0.00     0.033 C 
ENDBRANCH  15  16
ENDBRANCH   1  15
BRANCH  14  18
HETATM   18  C13 UNL     1      -4.389   2.107  13.972  1.00  0.00     0.152 C 
HETATM   19 CL1  UNL     1      -4.159   0.667  14.949  1.00  0.00    -0.128 Cl
ENDBRANCH  14  18
BRANCH  14  20
HETATM   20  C14 UNL     1      -5.103   3.990  15.383  1.00  0.00     0.021 A 
HETATM   21  C15 UNL     1      -6.442   3.955  14.665  1.00  0.00     0.008 A 
HETATM   22  C16 UNL     1      -6.168   3.011  15.805  1.00  0.00     0.008 A 
ENDBRANCH  14  20
BRANCH   2  23
HETATM   23  O2  UNL     1      -5.137   5.910  12.257  1.00  0.00    -0.390 OA
ATOM     24  H2  UNL     1      -5.963   6.257  12.572  1.00  0.00     0.210 HD
ENDBRANCH   2  23
BRANCH   3  25
HETATM   25  O3  UNL     1      -3.529   7.735  10.883  1.00  0.00    -0.385 OA
HETATM   26  C6  UNL     1      -3.083   8.992  11.324  1.00  0.00     0.202 C 
ENDBRANCH   3  25
BRANCH   4  27
HETATM   27  O4  UNL     1      -2.529   5.685   9.534  1.00  0.00    -0.386 OA
HETATM   28  C8  UNL     1      -3.320   5.136   8.560  1.00  0.00     0.202 C 
ENDBRANCH   4  27
TORSDOF 7
ENDMDL
MODEL 3
REMARK VINA RESULT: -5.840636737      2.394      4.391
REMARK  7 active torsions:
REMARK  status: ('A' for Active; 'I' for Inactive)
REMARK    1  A    between atoms: C2_2  and  O1_3 
REMARK    2  A    between atoms: O1_3  and  C3_4 
REMARK    3  A    between atoms: C4_5  and  O2_6 
REMARK    4  A    between atoms: C5_8  and  O3_9 
REMARK    5  A    between atoms: C7_11  and  O4_12 
REMARK    6  A    between atoms: C12_23  and  C13_24 
REMARK    7  A    between atoms: C12_23  and  C14_26 
ROOT
HETATM    1  C3  UNL     1      -4.393   3.640  14.272  1.00  0.00     0.205 C 
HETATM    2  C4  UNL     1      -4.264   2.428  15.120  1.00  0.00     0.183 C 
HETATM    3  C5  UNL     1      -4.977   1.217  14.543  1.00  0.00     0.183 C 
HETATM    4  C7  UNL     1      -4.073   0.563  13.559  1.00  0.00     0.174 C 
HETATM    5  C9  UNL     1      -3.896   1.363  12.272  1.00  0.00     0.106 C 
HETATM    6  C10 UNL     1      -5.144   1.578  11.515  1.00  0.00     0.034 C 
HETATM    7  N1  UNL     1      -3.070   2.469  12.546  1.00  0.00    -0.385 N 
ATOM      8  H1  UNL     1      -2.069   2.383  12.374  1.00  0.00     0.156 HD
HETATM    9  C11 UNL     1      -3.559   3.677  13.040  1.00  0.00     0.171 A 
HETATM   10  N2  UNL     1      -4.156   4.603  12.131  1.00  0.00    -0.306 N 
ATOM     11  H2  UNL     1      -5.057   4.546  11.657  1.00  0.00     0.183 HD
HETATM   12  N3  UNL     1      -3.313   5.476  12.069  1.00  0.00    -0.322 N 
ATOM     13  H3  UNL     1      -3.225   6.362  11.572  1.00  0.00     0.181 HD
HETATM   14  C12 UNL     1      -2.508   4.754  12.971  1.00  0.00     0.109 A 
ENDROOT
BRANCH   1  15
HETATM   15  O1  UNL     1      -5.730   3.739  13.886  1.00  0.00    -0.379 OA
BRANCH  15  16
HETATM   16  C2  UNL     1      -6.537   4.217  14.929  1.00  0.00     0.164 C 
HETATM   17  C1  UNL     1      -6.004   5.462  15.543  1.00  0.00     0.033 C 
ENDBRANCH  15  16
ENDBRANCH   1  15
BRANCH  14  18
HETATM   18  C13 UNL     1      -1.197   4.272  12.345  1.00  0.00     0.152 C 
HETATM   19 CL1  UNL     1      -0.620   5.348  11.084  1.00  0.00    -0.128 Cl
ENDBRANCH  14  18
BRANCH  14  20
HETATM   20  C14 UNL     1      -2.188   5.435  14.272  1.00  0.00     0.021 A 
HETATM   21  C15 UNL     1      -1.385   6.724  14.213  1.00  0.00     0.008 A 
HETATM   22  C16 UNL     1      -2.866   6.765  14.476  1.00  0.00     0.008 A 
ENDBRANCH  14  20
BRANCH   2  23
HETATM   23  O2  UNL     1      -2.997   2.070  15.487  1.00  0.00    -0.390 OA
ATOM     24  H2  UNL     1      -2.692   1.220  15.190  1.00  0.00     0.210 HD
ENDBRANCH   2  23
BRANCH   3  25
HETATM   25  O3  UNL     1      -5.182   0.332  15.594  1.00  0.00    -0.385 OA
HETATM   26  C6  UNL     1      -5.946   0.922  16.615  1.00  0.00     0.202 C 
ENDBRANCH   3  25
BRANCH   4  27
HETATM   27  O4  UNL     1      -4.291  -0.765  13.352  1.00  0.00    -0.386 OA
HETATM   28  C8  UNL     1      -3.784  -1.298  12.197  1.00  0.00     0.202 C 
ENDBRANCH   4  27
TORSDOF 7
ENDMDL
MODEL 4
REMARK VINA RESULT: -5.826708055      1.950      2.199
REMARK  7 active torsions:
REMARK  status: ('A' for Active; 'I' for Inactive)
REMARK    1  A    between atoms: C2_2  and  O1_3 
REMARK    2  A    between atoms: O1_3  and  C3_4 
REMARK    3  A    between atoms: C4_5  and  O2_6 
REMARK    4  A    between atoms: C5_8  and  O3_9 
REMARK    5  A    between atoms: C7_11  and  O4_12 
REMARK    6  A    between atoms: C12_23  and  C13_24 
REMARK    7  A    between atoms: C12_23  and  C14_26 
ROOT
HETATM    1  C3  UNL     1      -3.310   3.034  11.767  1.00  0.00     0.205 C 
HETATM    2  C4  UNL     1      -4.227   1.898  12.037  1.00  0.00     0.183 C 
HETATM    3  C5  UNL     1      -4.057   1.310  13.428  1.00  0.00     0.183 C 
HETATM    4  C7  UNL     1      -4.861   2.119  14.382  1.00  0.00     0.174 C 
HETATM    5  C9  UNL     1      -4.280   3.506  14.642  1.00  0.00     0.106 C 
HETATM    6  C10 UNL     1      -2.930   3.495  15.240  1.00  0.00     0.034 C 
HETATM    7  N1  UNL     1      -4.512   4.306  13.510  1.00  0.00    -0.385 N 
ATOM      8  H1  UNL     1      -5.344   4.896  13.493  1.00  0.00     0.156 HD
HETATM    9  C11 UNL     1      -3.658   4.330  12.409  1.00  0.00     0.171 A 
HETATM   10  N2  UNL     1      -2.471   5.122  12.475  1.00  0.00    -0.306 N 
ATOM     11  H2  UNL     1      -1.618   4.956  13.009  1.00  0.00     0.183 HD
HETATM   12  N3  UNL     1      -2.740   6.044  11.730  1.00  0.00    -0.322 N 
ATOM     13  H3  UNL     1      -2.254   6.885  11.416  1.00  0.00     0.181 HD
HETATM   14  C12 UNL     1      -4.001   5.469  11.483  1.00  0.00     0.109 A 
ENDROOT
BRANCH   1  15
HETATM   15  O1  UNL     1      -2.042   2.662  12.215  1.00  0.00    -0.379 OA
BRANCH  15  16
HETATM   16  C2  UNL     1      -1.326   1.968  11.228  1.00  0.00     0.164 C 
HETATM   17  C1  UNL     1      -0.683   2.875  10.240  1.00  0.00     0.033 C 
ENDBRANCH  15  16
ENDBRANCH   1  15
BRANCH  14  18
HETATM   18  C13 UNL     1      -5.159   6.329  11.996  1.00  0.00     0.152 C 
HETATM   19 CL1  UNL     1      -5.025   8.004  11.490  1.00  0.00    -0.128 Cl
ENDBRANCH  14  18
BRANCH  14  20
HETATM   20  C14 UNL     1      -4.291   5.085  10.060  1.00  0.00     0.021 A 
HETATM   21  C15 UNL     1      -4.434   6.205   9.043  1.00  0.00     0.008 A 
HETATM   22  C16 UNL     1      -3.180   5.375   9.085  1.00  0.00     0.008 A 
ENDBRANCH  14  20
BRANCH   2  23
HETATM   23  O2  UNL     1      -5.556   2.114  11.801  1.00  0.00    -0.390 OA
ATOM     24  H2  UNL     1      -6.162   1.484  12.171  1.00  0.00     0.210 HD
ENDBRANCH   2  23
BRANCH   3  25
HETATM   25  O3  UNL     1      -4.593   0.029  13.391  1.00  0.00    -0.385 OA
HETATM   26  C6  UNL     1      -4.056  -0.718  12.329  1.00  0.00     0.202 C 
ENDBRANCH   3  25
BRANCH   4  27
HETATM   27  O4  UNL     1      -5.260   1.472  15.511  1.00  0.00    -0.386 OA
HETATM   28  C8  UNL     1      -6.175   2.118  16.299  1.00  0.00     0.202 C 
ENDBRANCH   4  27
TORSDOF 7
ENDMDL
MODEL 5
REMARK VINA RESULT: -5.742919940      2.619      5.329
REMARK  7 active torsions:
REMARK  status: ('A' for Active; 'I' for Inactive)
REMARK    1  A    between atoms: C2_2  and  O1_3 
REMARK    2  A    between atoms: O1_3  and  C3_4 
REMARK    3  A    between atoms: C4_5  and  O2_6 
REMARK    4  A    between atoms: C5_8  and  O3_9 
REMARK    5  A    between atoms: C7_11  and  O4_12 
REMARK    6  A    between atoms: C12_23  and  C13_24 
REMARK    7  A    between atoms: C12_23  and  C14_26 
ROOT
HETATM    1  C3  UNL     1      -2.985   5.420  13.231  1.00  0.00     0.205 C 
HETATM    2  C4  UNL     1      -3.535   5.729  11.887  1.00  0.00     0.183 C 
HETATM    3  C5  UNL     1      -2.523   5.540  10.770  1.00  0.00     0.183 C 
HETATM    4  C7  UNL     1      -2.515   4.105  10.380  1.00  0.00     0.174 C 
HETATM    5  C9  UNL     1      -1.878   3.196  11.427  1.00  0.00     0.106 C 
HETATM    6  C10 UNL     1      -0.460   3.493  11.706  1.00  0.00     0.034 C 
HETATM    7  N1  UNL     1      -2.769   3.069  12.508  1.00  0.00    -0.385 N 
ATOM      8  H1  UNL     1      -3.407   2.273  12.521  1.00  0.00     0.156 HD
HETATM    9  C11 UNL     1      -2.818   3.979  13.562  1.00  0.00     0.171 A 
HETATM   10  N2  UNL     1      -1.852   3.876  14.608  1.00  0.00    -0.306 N 
ATOM     11  H2  UNL     1      -0.858   4.103  14.588  1.00  0.00     0.183 HD
HETATM   12  N3  UNL     1      -2.519   3.447  15.528  1.00  0.00    -0.322 N 
ATOM     13  H3  UNL     1      -2.334   3.191  16.498  1.00  0.00     0.181 HD
HETATM   14  C12 UNL     1      -3.655   3.447  14.697  1.00  0.00     0.109 A 
ENDROOT
BRANCH   1  15
HETATM   15  O1  UNL     1      -1.731   6.027  13.318  1.00  0.00    -0.379 OA
BRANCH  15  16
HETATM   16  C2  UNL     1      -1.831   7.372  13.702  1.00  0.00     0.164 C 
HETATM   17  C1  UNL     1      -2.368   7.538  15.079  1.00  0.00     0.033 C 
ENDBRANCH  15  16
ENDBRANCH   1  15
BRANCH  14  18
HETATM   18  C13 UNL     1      -4.201   2.042  14.431  1.00  0.00     0.152 C 
HETATM   19 CL1  UNL     1      -3.906   0.945  15.768  1.00  0.00    -0.128 Cl
ENDBRANCH  14  18
BRANCH  14  20
HETATM   20  C14 UNL     1      -4.797   4.324  15.128  1.00  0.00     0.021 A 
HETATM   21  C15 UNL     1      -6.124   4.158  14.407  1.00  0.00     0.008 A 
HETATM   22  C16 UNL     1      -5.938   3.598  15.792  1.00  0.00     0.008 A 
ENDBRANCH  14  20
BRANCH   2  23
HETATM   23  O2  UNL     1      -4.703   5.106  11.545  1.00  0.00    -0.390 OA
ATOM     24  H2  UNL     1      -5.506   5.586  11.709  1.00  0.00     0.210 HD
ENDBRANCH   2  23
BRANCH   3  25
HETATM   25  O3  UNL     1      -2.980   6.278   9.685  1.00  0.00    -0.385 OA
HETATM   26  C6  UNL     1      -2.579   7.622   9.777  1.00  0.00     0.202 C 
ENDBRANCH   3  25
BRANCH   4  27
HETATM   27  O4  UNL     1      -2.108   3.843   9.107  1.00  0.00    -0.386 OA
HETATM   28  C8  UNL     1      -0.860   4.285   8.758  1.00  0.00     0.202 C 
ENDBRANCH   4  27
TORSDOF 7
ENDMDL
