MODEL 1
REMARK VINA RESULT: -7.122939235      0.000      0.000
REMARK  8 active torsions:
REMARK  status: ('A' for Active; 'I' for Inactive)
REMARK    1  A    between atoms: C2_2  and  C3_3 
REMARK    2  A    between atoms: C3_3  and  C4_4 
REMARK    3  A    between atoms: C5_7  and  C6_8 
REMARK    4  A    between atoms: C6_8  and  N2_9 
REMARK    5  A    between atoms: C9_12  and  N3_13 
REMARK       I    between atoms: N3_13  and  C10_15 
REMARK    6  A    between atoms: C10_15  and  O2_17 
REMARK    7  A    between atoms: O2_17  and  C11_18 
REMARK    8  A    between atoms: C15_22  and  N4_23 
ROOT
HETATM    1  N2  UNL     1      -4.475   3.757  11.531  1.00  0.00    -0.404 N 
HETATM    2  C7  UNL     1      -4.277   2.421  11.125  1.00  0.00     0.119 C 
HETATM    3  C8  UNL     1      -3.639   1.472  12.042  1.00  0.00     0.047 C 
HETATM    4  C9  UNL     1      -3.451   1.869  13.456  1.00  0.00     0.120 C 
HETATM    5  C15 UNL     1      -3.155   3.350  13.526  1.00  0.00     0.223 C 
HETATM    6  C16 UNL     1      -4.343   4.053  12.914  1.00  0.00     0.152 C 
ENDROOT
BRANCH   1   7
HETATM    7  C6  UNL     1      -3.869   4.742  10.664  1.00  0.00     0.195 C 
BRANCH   7   8
HETATM    8  C5  UNL     1      -4.652   6.010  10.670  1.00  0.00     0.121 A 
HETATM    9  N1  UNL     1      -5.773   6.265   9.988  1.00  0.00    -0.326 N 
HETATM   10  C4  UNL     1      -6.200   7.523  10.241  1.00  0.00     0.148 A 
ATOM     11  H1  UNL     1      -6.240   5.605   9.366  1.00  0.00     0.169 HD
HETATM   12  O3  UNL     1      -5.333   8.034  11.080  1.00  0.00    -0.223 OA
HETATM   13  N5  UNL     1      -4.394   7.157  11.359  1.00  0.00    -0.245 N 
ATOM     14  H5  UNL     1      -3.604   7.310  11.985  1.00  0.00     0.196 HD
BRANCH  10  15
HETATM   15  C3  UNL     1      -7.412   8.191   9.676  1.00  0.00     0.086 C 
BRANCH  15  16
HETATM   16  C2  UNL     1      -8.009   7.381   8.548  1.00  0.00     0.004 C 
HETATM   17  C1  UNL     1      -9.288   8.064   8.121  1.00  0.00     0.005 C 
ENDBRANCH  15  16
ENDBRANCH  10  15
ENDBRANCH   7   8
ENDBRANCH   1   7
BRANCH   5  18
HETATM   18  N4  UNL     1      -2.904   3.769  14.868  1.00  0.00    -0.071 N 
ATOM     19  H43 UNL     1      -3.155   3.043  15.538  1.00  0.00     0.274 HD
ATOM     20  H42 UNL     1      -1.904   3.823  15.061  1.00  0.00     0.274 HD
ATOM     21  H41 UNL     1      -3.374   4.650  15.077  1.00  0.00     0.274 HD
ENDBRANCH   5  18
BRANCH   4  22
HETATM   22  N3  UNL     1      -4.572   1.515  14.310  1.00  0.00    -0.330 N 
HETATM   23  C10 UNL     1      -4.375   1.154  15.664  1.00  0.00     0.361 C 
HETATM   24  O1  UNL     1      -3.232   1.123  16.189  1.00  0.00    -0.238 OA
ATOM     25  H3  UNL     1      -5.517   1.528  13.927  1.00  0.00     0.165 HD
BRANCH  23  26
HETATM   26  O2  UNL     1      -5.439   0.827  16.446  1.00  0.00    -0.294 OA
BRANCH  26  27
HETATM   27  C11 UNL     1      -6.334   1.698  17.050  1.00  0.00     0.061 C 
HETATM   28  C12 UNL     1      -7.719   1.051  16.976  1.00  0.00     0.046 C 
HETATM   29  C13 UNL     1      -6.431   3.054  16.458  1.00  0.00     0.046 C 
HETATM   30  C14 UNL     1      -5.972   1.828  18.516  1.00  0.00     0.046 C 
ENDBRANCH  26  27
ENDBRANCH  23  26
ENDBRANCH   4  22
TORSDOF 8
ENDMDL
MODEL 2
REMARK VINA RESULT: -6.966719688      4.665      8.351
REMARK  8 active torsions:
REMARK  status: ('A' for Active; 'I' for Inactive)
REMARK    1  A    between atoms: C2_2  and  C3_3 
REMARK    2  A    between atoms: C3_3  and  C4_4 
REMARK    3  A    between atoms: C5_7  and  C6_8 
REMARK    4  A    between atoms: C6_8  and  N2_9 
REMARK    5  A    between atoms: C9_12  and  N3_13 
REMARK       I    between atoms: N3_13  and  C10_15 
REMARK    6  A    between atoms: C10_15  and  O2_17 
REMARK    7  A    between atoms: O2_17  and  C11_18 
REMARK    8  A    between atoms: C15_22  and  N4_23 
ROOT
HETATM    1  N2  UNL     1      -2.204   2.300  12.146  1.00  0.00    -0.404 N 
HETATM    2  C7  UNL     1      -1.419   1.771  11.101  1.00  0.00     0.119 C 
HETATM    3  C8  UNL     1      -0.626   2.673  10.260  1.00  0.00     0.047 C 
HETATM    4  C9  UNL     1      -0.468   4.082  10.685  1.00  0.00     0.120 C 
HETATM    5  C15 UNL     1      -1.739   4.548  11.359  1.00  0.00     0.223 C 
HETATM    6  C16 UNL     1      -1.951   3.640  12.546  1.00  0.00     0.152 C 
ENDROOT
BRANCH   1   7
HETATM    7  C6  UNL     1      -3.609   1.970  12.066  1.00  0.00     0.195 C 
BRANCH   7   8
HETATM    8  C5  UNL     1      -4.051   1.227  13.280  1.00  0.00     0.121 A 
HETATM    9  N1  UNL     1      -4.286   1.738  14.492  1.00  0.00    -0.326 N 
HETATM   10  C4  UNL     1      -4.671   0.762  15.346  1.00  0.00     0.148 A 
ATOM     11  H1  UNL     1      -4.190   2.723  14.739  1.00  0.00     0.169 HD
HETATM   12  O3  UNL     1      -4.668  -0.347  14.648  1.00  0.00    -0.223 OA
HETATM   13  N5  UNL     1      -4.302  -0.106  13.408  1.00  0.00    -0.245 N 
ATOM     14  H5  UNL     1      -4.220  -0.801  12.666  1.00  0.00     0.196 HD
BRANCH  10  15
HETATM   15  C3  UNL     1      -5.025   0.919  16.789  1.00  0.00     0.086 C 
BRANCH  15  16
HETATM   16  C2  UNL     1      -6.152   1.910  16.973  1.00  0.00     0.004 C 
HETATM   17  C1  UNL     1      -7.446   1.128  17.012  1.00  0.00     0.005 C 
ENDBRANCH  15  16
ENDBRANCH  10  15
ENDBRANCH   7   8
ENDBRANCH   1   7
BRANCH   5  18
HETATM   18  N4  UNL     1      -1.657   5.924  11.732  1.00  0.00    -0.071 N 
ATOM     19  H43 UNL     1      -1.352   6.031  12.699  1.00  0.00     0.274 HD
ATOM     20  H42 UNL     1      -0.878   6.391  11.268  1.00  0.00     0.274 HD
ATOM     21  H41 UNL     1      -2.538   6.409  11.562  1.00  0.00     0.274 HD
ENDBRANCH   5  18
BRANCH   4  22
HETATM   22  N3  UNL     1       0.689   4.304  11.534  1.00  0.00    -0.330 N 
HETATM   23  C10 UNL     1       1.999   4.307  10.999  1.00  0.00     0.361 C 
HETATM   24  O1  UNL     1       2.223   4.121   9.776  1.00  0.00    -0.238 OA
ATOM     25  H3  UNL     1       0.555   4.461  12.533  1.00  0.00     0.165 HD
BRANCH  23  26
HETATM   26  O2  UNL     1       3.069   4.516  11.813  1.00  0.00    -0.294 OA
BRANCH  26  27
HETATM   27  C11 UNL     1       3.846   5.663  11.897  1.00  0.00     0.061 C 
HETATM   28  C12 UNL     1       4.144   5.902  13.380  1.00  0.00     0.046 C 
HETATM   29  C13 UNL     1       3.248   6.902  11.346  1.00  0.00     0.046 C 
HETATM   30  C14 UNL     1       5.169   5.407  11.204  1.00  0.00     0.046 C 
ENDBRANCH  26  27
ENDBRANCH  23  26
ENDBRANCH   4  22
TORSDOF 8
ENDMDL
MODEL 3
REMARK VINA RESULT: -6.939495000      1.142      1.337
REMARK  8 active torsions:
REMARK  status: ('A' for Active; 'I' for Inactive)
REMARK    1  A    between atoms: C2_2  and  C3_3 
REMARK    2  A    between atoms: C3_3  and  C4_4 
REMARK    3  A    between atoms: C5_7  and  C6_8 
REMARK    4  A    between atoms: C6_8  and  N2_9 
REMARK    5  A    between atoms: C9_12  and  N3_13 
REMARK       I    between atoms: N3_13  and  C10_15 
REMARK    6  A    between atoms: C10_15  and  O2_17 
REMARK    7  A    between atoms: O2_17  and  C11_18 
REMARK    8  A    between atoms: C15_22  and  N4_23 
ROOT
HETATM    1  N2  UNL     1      -4.455   3.442  11.449  1.00  0.00    -0.404 N 
HETATM    2  C7  UNL     1      -4.307   2.086  11.091  1.00  0.00     0.119 C 
HETATM    3  C8  UNL     1      -3.722   1.142  12.049  1.00  0.00     0.047 C 
HETATM    4  C9  UNL     1      -3.536   1.579  13.451  1.00  0.00     0.120 C 
HETATM    5  C15 UNL     1      -3.180   3.048  13.476  1.00  0.00     0.223 C 
HETATM    6  C16 UNL     1      -4.329   3.778  12.824  1.00  0.00     0.152 C 
ENDROOT
BRANCH   1   7
HETATM    7  C6  UNL     1      -3.797   4.371  10.559  1.00  0.00     0.195 C 
BRANCH   7   8
HETATM    8  C5  UNL     1      -4.191   5.775  10.869  1.00  0.00     0.121 A 
HETATM    9  N1  UNL     1      -5.402   6.319  10.723  1.00  0.00    -0.326 N 
HETATM   10  C4  UNL     1      -5.382   7.617  11.105  1.00  0.00     0.148 A 
ATOM     11  H1  UNL     1      -6.225   5.827  10.374  1.00  0.00     0.169 HD
HETATM   12  O3  UNL     1      -4.152   7.860  11.484  1.00  0.00    -0.223 OA
HETATM   13  N5  UNL     1      -3.411   6.781  11.356  1.00  0.00    -0.245 N 
ATOM     14  H5  UNL     1      -2.420   6.709  11.584  1.00  0.00     0.196 HD
BRANCH  10  15
HETATM   15  C3  UNL     1      -6.530   8.574  11.095  1.00  0.00     0.086 C 
BRANCH  15  16
HETATM   16  C2  UNL     1      -6.451   9.512   9.912  1.00  0.00     0.004 C 
HETATM   17  C1  UNL     1      -5.799  10.792  10.386  1.00  0.00     0.005 C 
ENDBRANCH  15  16
ENDBRANCH  10  15
ENDBRANCH   7   8
ENDBRANCH   1   7
BRANCH   5  18
HETATM   18  N4  UNL     1      -2.930   3.501  14.807  1.00  0.00    -0.071 N 
ATOM     19  H43 UNL     1      -2.032   3.165  15.153  1.00  0.00     0.274 HD
ATOM     20  H42 UNL     1      -2.743   4.504  14.830  1.00  0.00     0.274 HD
ATOM     21  H41 UNL     1      -3.692   3.249  15.436  1.00  0.00     0.274 HD
ENDBRANCH   5  18
BRANCH   4  22
HETATM   22  N3  UNL     1      -4.682   1.301  14.300  1.00  0.00    -0.330 N 
HETATM   23  C10 UNL     1      -4.515   0.893  15.644  1.00  0.00     0.361 C 
HETATM   24  O1  UNL     1      -3.379   0.754  16.166  1.00  0.00    -0.238 OA
ATOM     25  H3  UNL     1      -5.624   1.402  13.920  1.00  0.00     0.165 HD
BRANCH  23  26
HETATM   26  O2  UNL     1      -5.603   0.638  16.421  1.00  0.00    -0.294 OA
BRANCH  26  27
HETATM   27  C11 UNL     1      -6.404   1.566  17.071  1.00  0.00     0.061 C 
HETATM   28  C12 UNL     1      -7.835   1.023  17.052  1.00  0.00     0.046 C 
HETATM   29  C13 UNL     1      -6.426   2.931  16.495  1.00  0.00     0.046 C 
HETATM   30  C14 UNL     1      -5.971   1.652  18.520  1.00  0.00     0.046 C 
ENDBRANCH  26  27
ENDBRANCH  23  26
ENDBRANCH   4  22
TORSDOF 8
ENDMDL
MODEL 4
REMARK VINA RESULT: -6.757186134      2.220      3.344
REMARK  8 active torsions:
REMARK  status: ('A' for Active; 'I' for Inactive)
REMARK    1  A    between atoms: C2_2  and  C3_3 
REMARK    2  A    between atoms: C3_3  and  C4_4 
REMARK    3  A    between atoms: C5_7  and  C6_8 
REMARK    4  A    between atoms: C6_8  and  N2_9 
REMARK    5  A    between atoms: C9_12  and  N3_13 
REMARK       I    between atoms: N3_13  and  C10_15 
REMARK    6  A    between atoms: C10_15  and  O2_17 
REMARK    7  A    between atoms: O2_17  and  C11_18 
REMARK    8  A    between atoms: C15_22  and  N4_23 
ROOT
HETATM    1  N2  UNL     1      -4.432   3.421  11.433  1.00  0.00    -0.404 N 
HETATM    2  C7  UNL     1      -4.270   2.065  11.080  1.00  0.00     0.119 C 
HETATM    3  C8  UNL     1      -3.689   1.128  12.046  1.00  0.00     0.047 C 
HETATM    4  C9  UNL     1      -3.524   1.568  13.449  1.00  0.00     0.120 C 
HETATM    5  C15 UNL     1      -3.179   3.040  13.476  1.00  0.00     0.223 C 
HETATM    6  C16 UNL     1      -4.325   3.761  12.809  1.00  0.00     0.152 C 
ENDROOT
BRANCH   1   7
HETATM    7  C6  UNL     1      -3.770   4.353  10.549  1.00  0.00     0.195 C 
BRANCH   7   8
HETATM    8  C5  UNL     1      -3.636   5.692  11.191  1.00  0.00     0.121 A 
HETATM    9  N1  UNL     1      -2.639   6.109  11.977  1.00  0.00    -0.326 N 
HETATM   10  C4  UNL     1      -2.859   7.383  12.376  1.00  0.00     0.148 A 
ATOM     11  H1  UNL     1      -1.829   5.548  12.238  1.00  0.00     0.169 HD
HETATM   12  O3  UNL     1      -3.995   7.740  11.829  1.00  0.00    -0.223 OA
HETATM   13  N5  UNL     1      -4.488   6.753  11.113  1.00  0.00    -0.245 N 
ATOM     14  H5  UNL     1      -5.362   6.777  10.588  1.00  0.00     0.196 HD
BRANCH  10  15
HETATM   15  C3  UNL     1      -1.983   8.210  13.260  1.00  0.00     0.086 C 
BRANCH  15  16
HETATM   16  C2  UNL     1      -2.044   7.734  14.693  1.00  0.00     0.004 C 
HETATM   17  C1  UNL     1      -1.443   8.817  15.561  1.00  0.00     0.005 C 
ENDBRANCH  15  16
ENDBRANCH  10  15
ENDBRANCH   7   8
ENDBRANCH   1   7
BRANCH   5  18
HETATM   18  N4  UNL     1      -2.948   3.498  14.809  1.00  0.00    -0.071 N 
ATOM     19  H43 UNL     1      -3.824   3.653  15.306  1.00  0.00     0.274 HD
ATOM     20  H42 UNL     1      -2.562   2.758  15.396  1.00  0.00     0.274 HD
ATOM     21  H41 UNL     1      -2.358   4.330  14.820  1.00  0.00     0.274 HD
ENDBRANCH   5  18
BRANCH   4  22
HETATM   22  N3  UNL     1      -4.678   1.284  14.285  1.00  0.00    -0.330 N 
HETATM   23  C10 UNL     1      -4.524   0.878  15.632  1.00  0.00     0.361 C 
HETATM   24  O1  UNL     1      -3.394   0.746  16.166  1.00  0.00    -0.238 OA
ATOM     25  H3  UNL     1      -5.616   1.378  13.894  1.00  0.00     0.165 HD
BRANCH  23  26
HETATM   26  O2  UNL     1      -5.619   0.616  16.395  1.00  0.00    -0.294 OA
BRANCH  26  27
HETATM   27  C11 UNL     1      -6.410   1.536  17.069  1.00  0.00     0.061 C 
HETATM   28  C12 UNL     1      -7.844   1.000  17.055  1.00  0.00     0.046 C 
HETATM   29  C13 UNL     1      -6.432   2.911  16.516  1.00  0.00     0.046 C 
HETATM   30  C14 UNL     1      -5.963   1.596  18.515  1.00  0.00     0.046 C 
ENDBRANCH  26  27
ENDBRANCH  23  26
ENDBRANCH   4  22
TORSDOF 8
ENDMDL
MODEL 5
REMARK VINA RESULT: -6.679444488      4.804      6.691
REMARK  8 active torsions:
REMARK  status: ('A' for Active; 'I' for Inactive)
REMARK    1  A    between atoms: C2_2  and  C3_3 
REMARK    2  A    between atoms: C3_3  and  C4_4 
REMARK    3  A    between atoms: C5_7  and  C6_8 
REMARK    4  A    between atoms: C6_8  and  N2_9 
REMARK    5  A    between atoms: C9_12  and  N3_13 
REMARK       I    between atoms: N3_13  and  C10_15 
REMARK    6  A    between atoms: C10_15  and  O2_17 
REMARK    7  A    between atoms: O2_17  and  C11_18 
REMARK    8  A    between atoms: C15_22  and  N4_23 
ROOT
HETATM    1  N2  UNL     1      -0.979   4.611  11.599  1.00  0.00    -0.404 N 
HETATM    2  C7  UNL     1      -2.308   5.078  11.518  1.00  0.00     0.119 C 
HETATM    3  C8  UNL     1      -3.401   4.124  11.312  1.00  0.00     0.047 C 
HETATM    4  C9  UNL     1      -3.116   2.678  11.448  1.00  0.00     0.120 C 
HETATM    5  C15 UNL     1      -1.718   2.393  10.946  1.00  0.00     0.223 C 
HETATM    6  C16 UNL     1      -0.782   3.217  11.797  1.00  0.00     0.152 C 
ENDROOT
BRANCH   1   7
HETATM    7  C6  UNL     1      -0.079   5.196  10.633  1.00  0.00     0.195 C 
BRANCH   7   8
HETATM    8  C5  UNL     1       1.339   5.042  11.065  1.00  0.00     0.121 A 
HETATM    9  N1  UNL     1       1.903   5.550  12.165  1.00  0.00    -0.326 N 
HETATM   10  C4  UNL     1       3.209   5.203  12.226  1.00  0.00     0.148 A 
ATOM     11  H1  UNL     1       1.418   6.119  12.859  1.00  0.00     0.169 HD
HETATM   12  O3  UNL     1       3.438   4.480  11.158  1.00  0.00    -0.223 OA
HETATM   13  N5  UNL     1       2.343   4.363  10.440  1.00  0.00    -0.245 N 
ATOM     14  H5  UNL     1       2.257   3.851   9.563  1.00  0.00     0.196 HD
BRANCH  10  15
HETATM   15  C3  UNL     1       4.186   5.571  13.295  1.00  0.00     0.086 C 
BRANCH  15  16
HETATM   16  C2  UNL     1       4.935   6.835  12.942  1.00  0.00     0.004 C 
HETATM   17  C1  UNL     1       4.737   7.816  14.076  1.00  0.00     0.005 C 
ENDBRANCH  15  16
ENDBRANCH  10  15
ENDBRANCH   7   8
ENDBRANCH   1   7
BRANCH   5  18
HETATM   18  N4  UNL     1      -1.419   0.998  11.000  1.00  0.00    -0.071 N 
ATOM     19  H43 UNL     1      -0.510   0.795  10.584  1.00  0.00     0.274 HD
ATOM     20  H42 UNL     1      -1.228   0.694  11.955  1.00  0.00     0.274 HD
ATOM     21  H41 UNL     1      -2.159   0.442  10.571  1.00  0.00     0.274 HD
ENDBRANCH   5  18
BRANCH   4  22
HETATM   22  N3  UNL     1      -3.303   2.176  12.798  1.00  0.00    -0.330 N 
HETATM   23  C10 UNL     1      -4.373   1.306  13.114  1.00  0.00     0.361 C 
HETATM   24  O1  UNL     1      -5.205   0.927  12.250  1.00  0.00    -0.238 OA
ATOM     25  H3  UNL     1      -2.651   2.456  13.531  1.00  0.00     0.165 HD
BRANCH  23  26
HETATM   26  O2  UNL     1      -4.529   0.848  14.386  1.00  0.00    -0.294 OA
BRANCH  26  27
HETATM   27  C11 UNL     1      -4.879   1.590  15.506  1.00  0.00     0.061 C 
HETATM   28  C12 UNL     1      -5.592   0.643  16.473  1.00  0.00     0.046 C 
HETATM   29  C13 UNL     1      -5.765   2.755  15.270  1.00  0.00     0.046 C 
HETATM   30  C14 UNL     1      -3.613   2.067  16.188  1.00  0.00     0.046 C 
ENDBRANCH  26  27
ENDBRANCH  23  26
ENDBRANCH   4  22
TORSDOF 8
ENDMDL
