MODEL 1
REMARK VINA RESULT: -7.577481609      0.000      0.000
REMARK  6 active torsions:
REMARK  status: ('A' for Active; 'I' for Inactive)
REMARK    1  A    between atoms: C3_3  and  O1_4 
REMARK    2  A    between atoms: O1_4  and  C4_5 
REMARK    3  A    between atoms: C4_5  and  C5_6 
REMARK    4  A    between atoms: C7_8  and  O2_9 
REMARK    5  A    between atoms: N1_11  and  C8_12 
REMARK    6  A    between atoms: C11_16  and  N2_17 
ROOT
HETATM    1  C1  UNL     1      -6.683   3.095  16.734  1.00  0.00     0.014 C 
HETATM    2  C2  UNL     1      -6.240   1.987  16.875  1.00  0.00    -0.091 C 
HETATM    3  C3  UNL     1      -5.681   0.621  17.032  1.00  0.00     0.260 C 
ENDROOT
BRANCH   3   4
HETATM    4  O1  UNL     1      -5.412   0.155  15.772  1.00  0.00    -0.375 OA
BRANCH   4   5
HETATM    5  C4  UNL     1      -4.173   0.471  15.293  1.00  0.00     0.210 C 
BRANCH   5   6
HETATM    6  C5  UNL     1      -4.209   0.926  13.881  1.00  0.00     0.008 A 
HETATM    7  C6  UNL     1      -4.462   0.244  12.716  1.00  0.00     0.069 A 
HETATM    8  C7  UNL     1      -4.428   1.139  11.651  1.00  0.00     0.150 A 
HETATM    9  N1  UNL     1      -4.161   2.360  12.132  1.00  0.00    -0.262 N 
HETATM   10  C16 UNL     1      -4.027   2.256  13.461  1.00  0.00     0.133 A 
HETATM   11  C17 UNL     1      -3.738   3.322  14.373  1.00  0.00     0.119 C 
HETATM   12  N4  UNL     1      -3.500   4.197  15.097  1.00  0.00    -0.190 NA
BRANCH   8  13
HETATM   13  O2  UNL     1      -4.638   0.819  10.311  1.00  0.00    -0.346 OA
ATOM     14  H2  UNL     1      -4.209   1.229   9.568  1.00  0.00     0.219 HD
ENDBRANCH   8  13
BRANCH   9  15
HETATM   15  C8  UNL     1      -4.036   3.584  11.377  1.00  0.00     0.161 A 
HETATM   16  C9  UNL     1      -2.920   3.908  10.655  1.00  0.00     0.085 A 
HETATM   17  C10 UNL     1      -3.204   5.137  10.094  1.00  0.00     0.089 A 
HETATM   18 CL1  UNL     1      -2.102   6.018   9.070  1.00  0.00    -0.080 Cl
HETATM   19  C11 UNL     1      -4.464   5.520  10.482  1.00  0.00     0.170 A 
HETATM   20  O3  UNL     1      -4.922   4.528  11.265  1.00  0.00    -0.275 OA
BRANCH  19  21
HETATM   21  N2  UNL     1      -5.230   6.672  10.196  1.00  0.00    -0.357 N 
HETATM   22  C12 UNL     1      -5.813   6.827   8.839  1.00  0.00     0.152 C 
HETATM   23  C13 UNL     1      -7.281   7.127   8.967  1.00  0.00     0.252 C 
HETATM   24  N3  UNL     1      -7.601   8.108   9.969  1.00  0.00    -0.072 N 
HETATM   25  C14 UNL     1      -7.057   7.728  11.264  1.00  0.00     0.252 C 
ATOM     26  H32 UNL     1      -7.297   9.042   9.693  1.00  0.00     0.277 HD
ATOM     27  H31 UNL     1      -8.606   8.281  10.020  1.00  0.00     0.277 HD
HETATM   28  C15 UNL     1      -5.528   7.753  11.080  1.00  0.00     0.152 C 
ENDBRANCH  19  21
ENDBRANCH   9  15
ENDBRANCH   5   6
ENDBRANCH   4   5
ENDBRANCH   3   4
TORSDOF 6
ENDMDL
MODEL 2
REMARK VINA RESULT: -7.370217629      1.134      1.387
REMARK  6 active torsions:
REMARK  status: ('A' for Active; 'I' for Inactive)
REMARK    1  A    between atoms: C3_3  and  O1_4 
REMARK    2  A    between atoms: O1_4  and  C4_5 
REMARK    3  A    between atoms: C4_5  and  C5_6 
REMARK    4  A    between atoms: C7_8  and  O2_9 
REMARK    5  A    between atoms: N1_11  and  C8_12 
REMARK    6  A    between atoms: C11_16  and  N2_17 
ROOT
HETATM    1  C1  UNL     1      -6.713   3.079  16.664  1.00  0.00     0.014 C 
HETATM    2  C2  UNL     1      -6.239   1.975  16.687  1.00  0.00    -0.091 C 
HETATM    3  C3  UNL     1      -5.642   0.617  16.698  1.00  0.00     0.260 C 
ENDROOT
BRANCH   3   4
HETATM    4  O1  UNL     1      -5.300   0.321  15.405  1.00  0.00    -0.375 OA
BRANCH   4   5
HETATM    5  C4  UNL     1      -4.132   0.880  14.974  1.00  0.00     0.210 C 
BRANCH   5   6
HETATM    6  C5  UNL     1      -4.236   1.432  13.601  1.00  0.00     0.008 A 
HETATM    7  C6  UNL     1      -4.524   0.826  12.402  1.00  0.00     0.069 A 
HETATM    8  C7  UNL     1      -4.554   1.793  11.402  1.00  0.00     0.150 A 
HETATM    9  N1  UNL     1      -4.293   2.984  11.957  1.00  0.00    -0.262 N 
HETATM   10  C16 UNL     1      -4.101   2.791  13.268  1.00  0.00     0.133 A 
HETATM   11  C17 UNL     1      -3.796   3.798  14.241  1.00  0.00     0.119 C 
HETATM   12  N4  UNL     1      -3.547   4.627  15.014  1.00  0.00    -0.190 NA
BRANCH   8  13
HETATM   13  O2  UNL     1      -4.813   1.562  10.052  1.00  0.00    -0.346 OA
ATOM     14  H2  UNL     1      -4.348   0.950   9.494  1.00  0.00     0.219 HD
ENDBRANCH   8  13
BRANCH   9  15
HETATM   15  C8  UNL     1      -4.226   4.261  11.285  1.00  0.00     0.161 A 
HETATM   16  C9  UNL     1      -3.171   5.122  11.417  1.00  0.00     0.085 A 
HETATM   17  C10 UNL     1      -3.496   6.205  10.625  1.00  0.00     0.089 A 
HETATM   18 CL1  UNL     1      -2.484   7.612  10.436  1.00  0.00    -0.080 Cl
HETATM   19  C11 UNL     1      -4.718   5.976  10.043  1.00  0.00     0.170 A 
HETATM   20  O3  UNL     1      -5.113   4.770  10.484  1.00  0.00    -0.275 OA
BRANCH  19  21
HETATM   21  N2  UNL     1      -5.500   6.750   9.156  1.00  0.00    -0.357 N 
HETATM   22  C12 UNL     1      -4.941   7.103   7.827  1.00  0.00     0.152 C 
HETATM   23  C13 UNL     1      -5.935   6.732   6.761  1.00  0.00     0.252 C 
HETATM   24  N3  UNL     1      -7.292   7.107   7.059  1.00  0.00    -0.072 N 
HETATM   25  C14 UNL     1      -7.714   6.567   8.343  1.00  0.00     0.252 C 
ATOM     26  H32 UNL     1      -7.421   8.118   7.015  1.00  0.00     0.277 HD
ATOM     27  H31 UNL     1      -7.930   6.837   6.309  1.00  0.00     0.277 HD
HETATM   28  C15 UNL     1      -6.814   7.260   9.385  1.00  0.00     0.152 C 
ENDBRANCH  19  21
ENDBRANCH   9  15
ENDBRANCH   5   6
ENDBRANCH   4   5
ENDBRANCH   3   4
TORSDOF 6
ENDMDL
MODEL 3
REMARK VINA RESULT: -7.281857907      0.670      1.206
REMARK  6 active torsions:
REMARK  status: ('A' for Active; 'I' for Inactive)
REMARK    1  A    between atoms: C3_3  and  O1_4 
REMARK    2  A    between atoms: O1_4  and  C4_5 
REMARK    3  A    between atoms: C4_5  and  C5_6 
REMARK    4  A    between atoms: C7_8  and  O2_9 
REMARK    5  A    between atoms: N1_11  and  C8_12 
REMARK    6  A    between atoms: C11_16  and  N2_17 
ROOT
HETATM    1  C1  UNL     1      -6.683   3.041  16.587  1.00  0.00     0.014 C 
HETATM    2  C2  UNL     1      -6.200   1.950  16.725  1.00  0.00    -0.091 C 
HETATM    3  C3  UNL     1      -5.591   0.606  16.878  1.00  0.00     0.260 C 
ENDROOT
BRANCH   3   4
HETATM    4  O1  UNL     1      -5.272   0.168  15.619  1.00  0.00    -0.375 OA
BRANCH   4   5
HETATM    5  C4  UNL     1      -4.080   0.624  15.134  1.00  0.00     0.210 C 
BRANCH   5   6
HETATM    6  C5  UNL     1      -4.171   1.060  13.718  1.00  0.00     0.008 A 
HETATM    7  C6  UNL     1      -4.441   0.355  12.571  1.00  0.00     0.069 A 
HETATM    8  C7  UNL     1      -4.464   1.237  11.494  1.00  0.00     0.150 A 
HETATM    9  N1  UNL     1      -4.216   2.471  11.952  1.00  0.00    -0.262 N 
HETATM   10  C16 UNL     1      -4.039   2.388  13.277  1.00  0.00     0.133 A 
HETATM   11  C17 UNL     1      -3.752   3.474  14.166  1.00  0.00     0.119 C 
HETATM   12  N4  UNL     1      -3.517   4.365  14.871  1.00  0.00    -0.190 NA
BRANCH   8  13
HETATM   13  O2  UNL     1      -4.705   0.893  10.165  1.00  0.00    -0.346 OA
ATOM     14  H2  UNL     1      -4.270   1.267   9.407  1.00  0.00     0.219 HD
ENDBRANCH   8  13
BRANCH   9  15
HETATM   15  C8  UNL     1      -4.148   3.689  11.178  1.00  0.00     0.161 A 
HETATM   16  C9  UNL     1      -3.014   4.106  10.536  1.00  0.00     0.085 A 
HETATM   17  C10 UNL     1      -3.367   5.291   9.924  1.00  0.00     0.089 A 
HETATM   18 CL1  UNL     1      -2.277   6.256   8.967  1.00  0.00    -0.080 Cl
HETATM   19  C11 UNL     1      -4.685   5.557  10.204  1.00  0.00     0.170 A 
HETATM   20  O3  UNL     1      -5.108   4.540  10.974  1.00  0.00    -0.275 OA
BRANCH  19  21
HETATM   21  N2  UNL     1      -5.532   6.625   9.831  1.00  0.00    -0.357 N 
HETATM   22  C12 UNL     1      -6.267   7.362  10.889  1.00  0.00     0.152 C 
HETATM   23  C13 UNL     1      -6.027   8.836  10.719  1.00  0.00     0.252 C 
HETATM   24  N3  UNL     1      -6.127   9.301   9.361  1.00  0.00    -0.072 N 
HETATM   25  C14 UNL     1      -5.242   8.548   8.485  1.00  0.00     0.252 C 
ATOM     26  H32 UNL     1      -7.091   9.283   9.027  1.00  0.00     0.277 HD
ATOM     27  H31 UNL     1      -5.958  10.305   9.294  1.00  0.00     0.277 HD
HETATM   28  C15 UNL     1      -5.783   7.106   8.510  1.00  0.00     0.152 C 
ENDBRANCH  19  21
ENDBRANCH   9  15
ENDBRANCH   5   6
ENDBRANCH   4   5
ENDBRANCH   3   4
TORSDOF 6
ENDMDL
MODEL 4
REMARK VINA RESULT: -7.135786359      1.361      2.279
REMARK  6 active torsions:
REMARK  status: ('A' for Active; 'I' for Inactive)
REMARK    1  A    between atoms: C3_3  and  O1_4 
REMARK    2  A    between atoms: O1_4  and  C4_5 
REMARK    3  A    between atoms: C4_5  and  C5_6 
REMARK    4  A    between atoms: C7_8  and  O2_9 
REMARK    5  A    between atoms: N1_11  and  C8_12 
REMARK    6  A    between atoms: C11_16  and  N2_17 
ROOT
HETATM    1  C1  UNL     1      -6.336   2.442  18.602  1.00  0.00     0.014 C 
HETATM    2  C2  UNL     1      -6.113   1.468  17.935  1.00  0.00    -0.091 C 
HETATM    3  C3  UNL     1      -5.818   0.266  17.117  1.00  0.00     0.260 C 
ENDROOT
BRANCH   3   4
HETATM    4  O1  UNL     1      -4.518   0.380  16.698  1.00  0.00    -0.375 OA
BRANCH   4   5
HETATM    5  C4  UNL     1      -4.352   0.453  15.345  1.00  0.00     0.210 C 
BRANCH   5   6
HETATM    6  C5  UNL     1      -4.136   1.842  14.872  1.00  0.00     0.008 A 
HETATM    7  C6  UNL     1      -3.709   2.967  15.534  1.00  0.00     0.069 A 
HETATM    8  C7  UNL     1      -3.621   4.020  14.628  1.00  0.00     0.150 A 
HETATM    9  N1  UNL     1      -3.982   3.569  13.419  1.00  0.00    -0.262 N 
HETATM   10  C16 UNL     1      -4.293   2.272  13.543  1.00  0.00     0.133 A 
HETATM   11  C17 UNL     1      -4.731   1.399  12.495  1.00  0.00     0.119 C 
HETATM   12  N4  UNL     1      -5.087   0.706  11.634  1.00  0.00    -0.190 NA
BRANCH   8  13
HETATM   13  O2  UNL     1      -3.223   5.321  14.927  1.00  0.00    -0.346 OA
ATOM     14  H2  UNL     1      -3.617   5.886  15.581  1.00  0.00     0.219 HD
ENDBRANCH   8  13
BRANCH   9  15
HETATM   15  C8  UNL     1      -4.035   4.324  12.189  1.00  0.00     0.161 A 
HETATM   16  C9  UNL     1      -3.179   4.112  11.143  1.00  0.00     0.085 A 
HETATM   17  C10 UNL     1      -3.562   5.025  10.181  1.00  0.00     0.089 A 
HETATM   18 CL1  UNL     1      -2.786   5.188   8.629  1.00  0.00    -0.080 Cl
HETATM   19  C11 UNL     1      -4.623   5.754  10.660  1.00  0.00     0.170 A 
HETATM   20  O3  UNL     1      -4.866   5.278  11.893  1.00  0.00    -0.275 OA
BRANCH  19  21
HETATM   21  N2  UNL     1      -5.383   6.799  10.090  1.00  0.00    -0.357 N 
HETATM   22  C12 UNL     1      -5.913   6.632   8.712  1.00  0.00     0.152 C 
HETATM   23  C13 UNL     1      -7.387   6.933   8.713  1.00  0.00     0.252 C 
HETATM   24  N3  UNL     1      -7.752   8.112   9.453  1.00  0.00    -0.072 N 
HETATM   25  C14 UNL     1      -7.257   8.044  10.820  1.00  0.00     0.252 C 
ATOM     26  H32 UNL     1      -7.442   8.962   8.982  1.00  0.00     0.277 HD
ATOM     27  H31 UNL     1      -8.758   8.277   9.425  1.00  0.00     0.277 HD
HETATM   28  C15 UNL     1      -5.721   8.049  10.692  1.00  0.00     0.152 C 
ENDBRANCH  19  21
ENDBRANCH   9  15
ENDBRANCH   5   6
ENDBRANCH   4   5
ENDBRANCH   3   4
TORSDOF 6
ENDMDL
MODEL 5
REMARK VINA RESULT: -7.032763393      1.583      2.653
REMARK  6 active torsions:
REMARK  status: ('A' for Active; 'I' for Inactive)
REMARK    1  A    between atoms: C3_3  and  O1_4 
REMARK    2  A    between atoms: O1_4  and  C4_5 
REMARK    3  A    between atoms: C4_5  and  C5_6 
REMARK    4  A    between atoms: C7_8  and  O2_9 
REMARK    5  A    between atoms: N1_11  and  C8_12 
REMARK    6  A    between atoms: C11_16  and  N2_17 
ROOT
HETATM    1  C1  UNL     1      -6.306   2.224  18.610  1.00  0.00     0.014 C 
HETATM    2  C2  UNL     1      -5.980   1.340  17.865  1.00  0.00    -0.091 C 
HETATM    3  C3  UNL     1      -5.556   0.251  16.950  1.00  0.00     0.260 C 
ENDROOT
BRANCH   3   4
HETATM    4  O1  UNL     1      -4.283   0.547  16.541  1.00  0.00    -0.375 OA
BRANCH   4   5
HETATM    5  C4  UNL     1      -4.130   0.698  15.193  1.00  0.00     0.210 C 
BRANCH   5   6
HETATM    6  C5  UNL     1      -4.068   2.123  14.783  1.00  0.00     0.008 A 
HETATM    7  C6  UNL     1      -3.682   3.247  15.472  1.00  0.00     0.069 A 
HETATM    8  C7  UNL     1      -3.755   4.346  14.621  1.00  0.00     0.150 A 
HETATM    9  N1  UNL     1      -4.174   3.925  13.421  1.00  0.00    -0.262 N 
HETATM   10  C16 UNL     1      -4.367   2.602  13.495  1.00  0.00     0.133 A 
HETATM   11  C17 UNL     1      -4.815   1.746  12.437  1.00  0.00     0.119 C 
HETATM   12  N4  UNL     1      -5.181   1.069  11.569  1.00  0.00    -0.190 NA
BRANCH   8  13
HETATM   13  O2  UNL     1      -3.442   5.661  14.961  1.00  0.00    -0.346 OA
ATOM     14  H2  UNL     1      -3.248   6.361  14.348  1.00  0.00     0.219 HD
ENDBRANCH   8  13
BRANCH   9  15
HETATM   15  C8  UNL     1      -4.388   4.732  12.242  1.00  0.00     0.161 A 
HETATM   16  C9  UNL     1      -3.548   4.719  11.163  1.00  0.00     0.085 A 
HETATM   17  C10 UNL     1      -4.102   5.614  10.270  1.00  0.00     0.089 A 
HETATM   18 CL1  UNL     1      -3.416   5.986   8.712  1.00  0.00    -0.080 Cl
HETATM   19  C11 UNL     1      -5.245   6.137  10.821  1.00  0.00     0.170 A 
HETATM   20  O3  UNL     1      -5.368   5.559  12.028  1.00  0.00    -0.275 OA
BRANCH  19  21
HETATM   21  N2  UNL     1      -6.180   7.081  10.338  1.00  0.00    -0.357 N 
HETATM   22  C12 UNL     1      -6.413   8.324  11.116  1.00  0.00     0.152 C 
HETATM   23  C13 UNL     1      -6.277   9.509  10.202  1.00  0.00     0.252 C 
HETATM   24  N3  UNL     1      -6.937   9.358   8.932  1.00  0.00    -0.072 N 
HETATM   25  C14 UNL     1      -6.492   8.151   8.252  1.00  0.00     0.252 C 
ATOM     26  H32 UNL     1      -7.953   9.381   9.031  1.00  0.00     0.277 HD
ATOM     27  H31 UNL     1      -6.820  10.186   8.346  1.00  0.00     0.277 HD
HETATM   28  C15 UNL     1      -6.962   6.989   9.147  1.00  0.00     0.152 C 
ENDBRANCH  19  21
ENDBRANCH   9  15
ENDBRANCH   5   6
ENDBRANCH   4   5
ENDBRANCH   3   4
TORSDOF 6
ENDMDL
