MODEL 1
REMARK VINA RESULT: -4.737618585      0.000      0.000
REMARK  1 active torsions:
REMARK  status: ('A' for Active; 'I' for Inactive)
REMARK    1  A    between atoms: N1_9  and  O1_10 
ROOT
HETATM    1  C1  UNL     1     -29.316 -16.614   9.553  1.00  0.00     0.034 C 
HETATM    2  C2  UNL     1     -28.615 -15.840  10.672  1.00  0.00     0.032 C 
HETATM    3  C3  UNL     1     -27.535 -16.756  11.203  1.00  0.00     0.034 C 
HETATM    4  C4  UNL     1     -28.079 -14.533  10.166  1.00  0.00     0.029 C 
HETATM    5  C5  UNL     1     -28.629 -13.486  11.098  1.00  0.00     0.029 C 
HETATM    6  C6  UNL     1     -29.228 -14.256  12.261  1.00  0.00     0.032 C 
HETATM    7  C7  UNL     1     -28.219 -14.328  13.362  1.00  0.00     0.034 C 
HETATM    8  C8  UNL     1     -30.455 -13.541  12.812  1.00  0.00     0.034 C 
HETATM    9  N1  UNL     1     -29.576 -15.502  11.678  1.00  0.00    -0.182 NA
ENDROOT
BRANCH   9  10
HETATM   10  O1  UNL     1     -29.831 -16.487  12.544  1.00  0.00    -0.312 OA
ATOM     11  H1  UNL     1     -29.928 -16.199  13.444  1.00  0.00     0.237 HD
ENDBRANCH   9  10
TORSDOF 1
ENDMDL
MODEL 2
REMARK VINA RESULT: -4.640204277      1.771      3.507
REMARK  1 active torsions:
REMARK  status: ('A' for Active; 'I' for Inactive)
REMARK    1  A    between atoms: N1_9  and  O1_10 
ROOT
HETATM    1  C1  UNL     1     -29.660 -13.763  12.120  1.00  0.00     0.034 C 
HETATM    2  C2  UNL     1     -28.762 -14.951  11.764  1.00  0.00     0.032 C 
HETATM    3  C3  UNL     1     -27.347 -14.513  12.068  1.00  0.00     0.034 C 
HETATM    4  C4  UNL     1     -29.172 -16.179  12.523  1.00  0.00     0.029 C 
HETATM    5  C5  UNL     1     -29.365 -17.249  11.480  1.00  0.00     0.029 C 
HETATM    6  C6  UNL     1     -28.791 -16.672  10.199  1.00  0.00     0.032 C 
HETATM    7  C7  UNL     1     -27.382 -17.147  10.045  1.00  0.00     0.034 C 
HETATM    8  C8  UNL     1     -29.573 -17.159   8.985  1.00  0.00     0.034 C 
HETATM    9  N1  UNL     1     -28.940 -15.272  10.380  1.00  0.00    -0.182 NA
ENDROOT
BRANCH   9  10
HETATM   10  O1  UNL     1     -28.230 -14.508   9.545  1.00  0.00    -0.312 OA
ATOM     11  H1  UNL     1     -28.003 -14.933   8.727  1.00  0.00     0.237 HD
ENDBRANCH   9  10
TORSDOF 1
ENDMDL
MODEL 3
REMARK VINA RESULT: -4.629053379      2.274      4.241
REMARK  1 active torsions:
REMARK  status: ('A' for Active; 'I' for Inactive)
REMARK    1  A    between atoms: N1_9  and  O1_10 
ROOT
HETATM    1  C1  UNL     1     -29.322 -15.488  11.839  1.00  0.00     0.034 C 
HETATM    2  C2  UNL     1     -29.002 -16.803  11.123  1.00  0.00     0.032 C 
HETATM    3  C3  UNL     1     -27.497 -16.847  10.978  1.00  0.00     0.034 C 
HETATM    4  C4  UNL     1     -29.552 -17.975  11.881  1.00  0.00     0.029 C 
HETATM    5  C5  UNL     1     -30.374 -18.748  10.885  1.00  0.00     0.029 C 
HETATM    6  C6  UNL     1     -30.038 -18.147   9.532  1.00  0.00     0.032 C 
HETATM    7  C7  UNL     1     -28.968 -18.970   8.891  1.00  0.00     0.034 C 
HETATM    8  C8  UNL     1     -31.250 -18.173   8.609  1.00  0.00     0.034 C 
HETATM    9  N1  UNL     1     -29.665 -16.816   9.854  1.00  0.00    -0.182 NA
ENDROOT
BRANCH   9  10
HETATM   10  O1  UNL     1     -29.017 -16.154   8.891  1.00  0.00    -0.312 OA
ATOM     11  H1  UNL     1     -28.135 -15.892   9.126  1.00  0.00     0.237 HD
ENDBRANCH   9  10
TORSDOF 1
ENDMDL
MODEL 4
REMARK VINA RESULT: -4.442246456      2.063      3.390
REMARK  1 active torsions:
REMARK  status: ('A' for Active; 'I' for Inactive)
REMARK    1  A    between atoms: N1_9  and  O1_10 
ROOT
HETATM    1  C1  UNL     1     -31.499 -19.045  10.515  1.00  0.00     0.034 C 
HETATM    2  C2  UNL     1     -30.018 -18.682  10.652  1.00  0.00     0.032 C 
HETATM    3  C3  UNL     1     -29.473 -19.552  11.762  1.00  0.00     0.034 C 
HETATM    4  C4  UNL     1     -29.296 -18.873   9.350  1.00  0.00     0.029 C 
HETATM    5  C5  UNL     1     -28.601 -17.564   9.081  1.00  0.00     0.029 C 
HETATM    6  C6  UNL     1     -28.721 -16.771  10.370  1.00  0.00     0.032 C 
HETATM    7  C7  UNL     1     -27.475 -16.966  11.174  1.00  0.00     0.034 C 
HETATM    8  C8  UNL     1     -28.851 -15.281  10.082  1.00  0.00     0.034 C 
HETATM    9  N1  UNL     1     -29.905 -17.288  10.957  1.00  0.00    -0.182 NA
ENDROOT
BRANCH   9  10
HETATM   10  O1  UNL     1     -30.078 -16.995  12.249  1.00  0.00    -0.312 OA
ATOM     11  H1  UNL     1     -30.988 -16.961  12.522  1.00  0.00     0.237 HD
ENDBRANCH   9  10
TORSDOF 1
ENDMDL
MODEL 5
REMARK VINA RESULT: -4.342475131      1.466      1.967
REMARK  1 active torsions:
REMARK  status: ('A' for Active; 'I' for Inactive)
REMARK    1  A    between atoms: N1_9  and  O1_10 
ROOT
HETATM    1  C1  UNL     1     -29.873 -17.596   9.784  1.00  0.00     0.034 C 
HETATM    2  C2  UNL     1     -28.789 -17.253  10.808  1.00  0.00     0.032 C 
HETATM    3  C3  UNL     1     -28.846 -18.339  11.860  1.00  0.00     0.034 C 
HETATM    4  C4  UNL     1     -27.444 -17.144  10.151  1.00  0.00     0.029 C 
HETATM    5  C5  UNL     1     -26.905 -15.799  10.562  1.00  0.00     0.029 C 
HETATM    6  C6  UNL     1     -27.833 -15.310  11.659  1.00  0.00     0.032 C 
HETATM    7  C7  UNL     1     -27.238 -15.660  12.985  1.00  0.00     0.034 C 
HETATM    8  C8  UNL     1     -27.982 -13.795  11.610  1.00  0.00     0.034 C 
HETATM    9  N1  UNL     1     -29.059 -15.959  11.357  1.00  0.00    -0.182 NA
ENDROOT
BRANCH   9  10
HETATM   10  O1  UNL     1     -29.963 -15.959  12.340  1.00  0.00    -0.312 OA
ATOM     11  H1  UNL     1     -29.785 -16.585  13.033  1.00  0.00     0.237 HD
ENDBRANCH   9  10
TORSDOF 1
ENDMDL
