MODEL 1
REMARK VINA RESULT: -4.383686311      0.000      0.000
REMARK  0 active torsions:
REMARK  status: ('A' for Active; 'I' for Inactive)
ROOT
HETATM    1  C1  UNL     1     -30.524 -18.325   9.269  1.00  0.00     0.088 C 
HETATM    2  C2  UNL     1     -29.035 -18.456   9.043  1.00  0.00     0.045 C 
HETATM    3  C3  UNL     1     -28.238 -17.335   9.594  1.00  0.00     0.202 A 
HETATM    4  N1  UNL     1     -28.896 -16.062   9.401  1.00  0.00    -0.069 N 
ATOM      5  H11 UNL     1     -29.742 -16.006   8.834  1.00  0.00     0.277 HD
ATOM      6  H12 UNL     1     -28.460 -15.345   8.821  1.00  0.00     0.277 HD
HETATM    7  C4  UNL     1     -28.973 -15.884  10.850  1.00  0.00     0.251 A 
HETATM    8  C5  UNL     1     -28.211 -17.168  11.045  1.00  0.00     0.115 A 
HETATM    9  S1  UNL     1     -29.047 -18.413  12.022  1.00  0.00    -0.089 SA
HETATM   10  S2  UNL     1     -30.816 -18.997  10.953  1.00  0.00    -0.097 SA
ENDROOT
TORSDOF 0
ENDMDL
MODEL 2
REMARK VINA RESULT: -4.148400232      2.443      3.341
REMARK  0 active torsions:
REMARK  status: ('A' for Active; 'I' for Inactive)
ROOT
HETATM    1  C1  UNL     1     -29.253 -16.577  11.934  1.00  0.00     0.088 C 
HETATM    2  C2  UNL     1     -28.577 -17.924  12.050  1.00  0.00     0.045 C 
HETATM    3  C3  UNL     1     -29.379 -19.052  11.518  1.00  0.00     0.202 A 
HETATM    4  N1  UNL     1     -30.781 -18.910  11.837  1.00  0.00    -0.069 N 
ATOM      5  H11 UNL     1     -31.090 -18.165  12.463  1.00  0.00     0.277 HD
ATOM      6  H12 UNL     1     -31.242 -19.599  12.431  1.00  0.00     0.277 HD
HETATM    7  C4  UNL     1     -31.097 -18.845  10.411  1.00  0.00     0.251 A 
HETATM    8  C5  UNL     1     -29.647 -19.079  10.083  1.00  0.00     0.115 A 
HETATM    9  S1  UNL     1     -28.872 -17.809   9.087  1.00  0.00    -0.089 SA
HETATM   10  S2  UNL     1     -28.876 -15.993  10.234  1.00  0.00    -0.097 SA
ENDROOT
TORSDOF 0
ENDMDL
MODEL 3
REMARK VINA RESULT: -4.094595076      0.939      2.635
REMARK  0 active torsions:
REMARK  status: ('A' for Active; 'I' for Inactive)
ROOT
HETATM    1  C1  UNL     1     -27.707 -16.947  11.204  1.00  0.00     0.088 C 
HETATM    2  C2  UNL     1     -28.832 -16.187  10.539  1.00  0.00     0.045 C 
HETATM    3  C3  UNL     1     -29.455 -16.901   9.399  1.00  0.00     0.202 A 
HETATM    4  N1  UNL     1     -28.471 -17.595   8.600  1.00  0.00    -0.069 N 
ATOM      5  H11 UNL     1     -27.476 -17.462   8.784  1.00  0.00     0.277 HD
ATOM      6  H12 UNL     1     -28.326 -17.331   7.625  1.00  0.00     0.277 HD
HETATM    7  C4  UNL     1     -29.110 -18.870   8.924  1.00  0.00     0.251 A 
HETATM    8  C5  UNL     1     -30.182 -18.135   9.685  1.00  0.00     0.115 A 
HETATM    9  S1  UNL     1     -30.354 -18.597  11.405  1.00  0.00    -0.089 SA
HETATM   10  S2  UNL     1     -28.528 -18.068  12.405  1.00  0.00    -0.097 SA
ENDROOT
TORSDOF 0
ENDMDL
MODEL 4
REMARK VINA RESULT: -3.849006441      2.172      2.842
REMARK  0 active torsions:
REMARK  status: ('A' for Active; 'I' for Inactive)
ROOT
HETATM    1  C1  UNL     1     -28.162 -17.687   9.059  1.00  0.00     0.088 C 
HETATM    2  C2  UNL     1     -29.629 -17.326   9.013  1.00  0.00     0.045 C 
HETATM    3  C3  UNL     1     -30.480 -18.131   9.923  1.00  0.00     0.202 A 
HETATM    4  N1  UNL     1     -30.070 -19.517   9.955  1.00  0.00    -0.069 N 
ATOM      5  H11 UNL     1     -29.356 -19.853   9.308  1.00  0.00     0.277 HD
ATOM      6  H12 UNL     1     -30.706 -20.245   9.630  1.00  0.00     0.277 HD
HETATM    7  C4  UNL     1     -29.766 -19.393  11.379  1.00  0.00     0.251 A 
HETATM    8  C5  UNL     1     -30.274 -17.975  11.361  1.00  0.00     0.115 A 
HETATM    9  S1  UNL     1     -29.097 -16.732  11.884  1.00  0.00    -0.089 SA
HETATM   10  S2  UNL     1     -27.477 -16.739  10.474  1.00  0.00    -0.097 SA
ENDROOT
TORSDOF 0
ENDMDL
MODEL 5
REMARK VINA RESULT: -3.848627229      2.525      3.482
REMARK  0 active torsions:
REMARK  status: ('A' for Active; 'I' for Inactive)
ROOT
HETATM    1  C1  UNL     1     -28.737 -15.643  12.245  1.00  0.00     0.088 C 
HETATM    2  C2  UNL     1     -27.852 -16.828  12.555  1.00  0.00     0.045 C 
HETATM    3  C3  UNL     1     -28.522 -18.142  12.403  1.00  0.00     0.202 A 
HETATM    4  N1  UNL     1     -29.886 -18.106  12.881  1.00  0.00    -0.069 N 
ATOM      5  H11 UNL     1     -30.236 -17.279  13.366  1.00  0.00     0.277 HD
ATOM      6  H12 UNL     1     -30.166 -18.687  13.671  1.00  0.00     0.277 HD
HETATM    7  C4  UNL     1     -30.364 -18.421  11.535  1.00  0.00     0.251 A 
HETATM    8  C5  UNL     1     -28.939 -18.541  11.062  1.00  0.00     0.115 A 
HETATM    9  S1  UNL     1     -28.486 -17.456   9.713  1.00  0.00    -0.089 SA
HETATM   10  S2  UNL     1     -28.646 -15.436  10.423  1.00  0.00    -0.097 SA
ENDROOT
TORSDOF 0
ENDMDL
