MODEL 1
REMARK VINA RESULT: -7.297538671      0.000      0.000
REMARK  10 active torsions:
REMARK  status: ('A' for Active; 'I' for Inactive)
REMARK    1  A    between atoms: C2_2  and  C3_3 
REMARK    2  A    between atoms: C2_2  and  N1_6 
REMARK    3  A    between atoms: C3_3  and  O1_4 
REMARK    4  A    between atoms: N1_6  and  C4_9 
REMARK    5  A    between atoms: C4_9  and  C5_10 
REMARK    6  A    between atoms: C7_16  and  N4_17 
REMARK    7  A    between atoms: C8_20  and  N5_21 
REMARK    8  A    between atoms: N8_29  and  C12_31 
REMARK    9  A    between atoms: C12_31  and  N9_32 
REMARK   10  A    between atoms: C12_31  and  O2_36 
ROOT
HETATM    1  C5  UNL     1      24.083  -8.816  15.855  1.00  0.00     0.110 A 
HETATM    2  N2  UNL     1      23.975  -9.246  17.120  1.00  0.00    -0.329 N 
ATOM      3  H2  UNL     1      23.472  -8.687  17.809  1.00  0.00     0.168 HD
HETATM    4  C6  UNL     1      24.533 -10.416  17.478  1.00  0.00     0.140 A 
HETATM    5  N3  UNL     1      24.416 -10.832  18.756  1.00  0.00    -0.324 N 
ATOM      6  H3  UNL     1      23.907 -10.252  19.422  1.00  0.00     0.169 HD
HETATM    7  C7  UNL     1      24.946 -11.974  19.167  1.00  0.00     0.146 A 
HETATM    8  C8  UNL     1      25.618 -12.714  18.222  1.00  0.00     0.160 A 
HETATM    9  N6  UNL     1      25.758 -12.327  16.921  1.00  0.00    -0.223 N 
HETATM   10  C9  UNL     1      26.478 -13.169  16.051  1.00  0.00     0.191 C 
HETATM   11  N7  UNL     1      27.094 -13.898  15.376  1.00  0.00    -0.171 NA
HETATM   12  C10 UNL     1      25.227 -11.186  16.522  1.00  0.00     0.139 A 
HETATM   13  C11 UNL     1      25.337 -10.738  15.222  1.00  0.00     0.138 A 
HETATM   14  N8  UNL     1      25.893 -11.381  14.324  1.00  0.00    -0.326 N 
ATOM     15  H8  UNL     1      26.248 -12.270  14.676  1.00  0.00     0.165 HD
HETATM   16  N10 UNL     1      24.747  -9.541  14.937  1.00  0.00    -0.329 N 
ATOM     17  H10 UNL     1      24.813  -9.180  13.986  1.00  0.00     0.168 HD
ENDROOT
BRANCH   8  18
HETATM   18  N5  UNL     1      26.143 -13.841  18.564  1.00  0.00    -0.381 N 
ATOM     19  H52 UNL     1      25.706 -14.347  19.335  1.00  0.00     0.157 HD
ATOM     20  H51 UNL     1      26.966 -14.177  18.065  1.00  0.00     0.157 HD
ENDBRANCH   8  18
BRANCH   7  21
HETATM   21  N4  UNL     1      24.823 -12.338  20.393  1.00  0.00    -0.382 N 
ATOM     22  H42 UNL     1      25.019 -11.723  21.182  1.00  0.00     0.157 HD
ATOM     23  H41 UNL     1      24.510 -13.282  20.618  1.00  0.00     0.157 HD
ENDBRANCH   7  21
BRANCH  14  24
HETATM   24  C12 UNL     1      26.171 -11.235  12.967  1.00  0.00     0.425 C 
BRANCH  24  25
HETATM   25  N9  UNL     1      27.221 -11.981  12.358  1.00  0.00    -0.035 N 
ATOM     26  H93 UNL     1      28.074 -11.422  12.395  1.00  0.00     0.279 HD
ATOM     27  H92 UNL     1      27.458 -12.761  12.973  1.00  0.00     0.279 HD
ATOM     28  H91 UNL     1      27.119 -12.343  11.409  1.00  0.00     0.279 HD
ENDBRANCH  24  25
BRANCH  24  29
HETATM   29  O2  UNL     1      26.571  -9.873  12.756  1.00  0.00    -0.355 OA
ATOM     30  H2  UNL     1      26.170  -9.582  11.945  1.00  0.00     0.213 HD
ENDBRANCH  24  29
ENDBRANCH  14  24
BRANCH   1  31
HETATM   31  C4  UNL     1      23.351  -7.549  15.513  1.00  0.00     0.309 C 
BRANCH  31  32
HETATM   32  N1  UNL     1      24.282  -6.493  15.231  1.00  0.00    -0.063 N 
ATOM     33  H12 UNL     1      25.153  -6.875  14.863  1.00  0.00     0.278 HD
ATOM     34  H11 UNL     1      24.625  -6.080  16.098  1.00  0.00     0.278 HD
BRANCH  32  35
HETATM   35  C2  UNL     1      23.782  -5.485  14.368  1.00  0.00     0.205 C 
HETATM   36  C1  UNL     1      22.270  -5.760  14.242  1.00  0.00     0.042 C 
BRANCH  35  37
HETATM   37  C3  UNL     1      23.983  -4.085  14.861  1.00  0.00     0.196 C 
BRANCH  37  38
HETATM   38  O1  UNL     1      22.738  -3.527  15.210  1.00  0.00    -0.399 OA
ATOM     39  H1  UNL     1      22.687  -3.431  16.154  1.00  0.00     0.209 HD
ENDBRANCH  37  38
ENDBRANCH  35  37
ENDBRANCH  32  35
ENDBRANCH  31  32
ENDBRANCH   1  31
TORSDOF 10
ENDMDL
MODEL 2
REMARK VINA RESULT: -7.194569212      1.560      1.848
REMARK  10 active torsions:
REMARK  status: ('A' for Active; 'I' for Inactive)
REMARK    1  A    between atoms: C2_2  and  C3_3 
REMARK    2  A    between atoms: C2_2  and  N1_6 
REMARK    3  A    between atoms: C3_3  and  O1_4 
REMARK    4  A    between atoms: N1_6  and  C4_9 
REMARK    5  A    between atoms: C4_9  and  C5_10 
REMARK    6  A    between atoms: C7_16  and  N4_17 
REMARK    7  A    between atoms: C8_20  and  N5_21 
REMARK    8  A    between atoms: N8_29  and  C12_31 
REMARK    9  A    between atoms: C12_31  and  N9_32 
REMARK   10  A    between atoms: C12_31  and  O2_36 
ROOT
HETATM    1  C5  UNL     1      24.198  -8.956  15.612  1.00  0.00     0.110 A 
HETATM    2  N2  UNL     1      24.060  -9.341  16.888  1.00  0.00    -0.329 N 
ATOM      3  H2  UNL     1      23.547  -8.754  17.547  1.00  0.00     0.168 HD
HETATM    4  C6  UNL     1      24.598 -10.503  17.298  1.00  0.00     0.140 A 
HETATM    5  N3  UNL     1      24.450 -10.874  18.587  1.00  0.00    -0.324 N 
ATOM      6  H3  UNL     1      23.933 -10.266  19.222  1.00  0.00     0.169 HD
HETATM    7  C7  UNL     1      24.958 -12.006  19.048  1.00  0.00     0.146 A 
HETATM    8  C8  UNL     1      25.643 -12.784  18.144  1.00  0.00     0.160 A 
HETATM    9  N6  UNL     1      25.815 -12.444  16.835  1.00  0.00    -0.223 N 
HETATM   10  C9  UNL     1      26.544 -13.323  16.009  1.00  0.00     0.191 C 
HETATM   11  N7  UNL     1      27.167 -14.080  15.374  1.00  0.00    -0.171 NA
HETATM   12  C10 UNL     1      25.304 -11.313  16.385  1.00  0.00     0.139 A 
HETATM   13  C11 UNL     1      25.445 -10.911  15.073  1.00  0.00     0.138 A 
HETATM   14  N8  UNL     1      26.014 -11.591  14.209  1.00  0.00    -0.326 N 
ATOM     15  H8  UNL     1      26.353 -12.470  14.600  1.00  0.00     0.165 HD
HETATM   16  N10 UNL     1      24.874  -9.719  14.734  1.00  0.00    -0.329 N 
ATOM     17  H10 UNL     1      24.964  -9.393  13.772  1.00  0.00     0.168 HD
ENDROOT
BRANCH   8  18
HETATM   18  N5  UNL     1      26.150 -13.903  18.537  1.00  0.00    -0.381 N 
ATOM     19  H52 UNL     1      25.535 -14.546  19.037  1.00  0.00     0.157 HD
ATOM     20  H51 UNL     1      27.131 -14.100  18.341  1.00  0.00     0.157 HD
ENDBRANCH   8  18
BRANCH   7  21
HETATM   21  N4  UNL     1      24.806 -12.326  20.283  1.00  0.00    -0.382 N 
ATOM     22  H42 UNL     1      25.557 -12.276  20.971  1.00  0.00     0.157 HD
ATOM     23  H41 UNL     1      23.898 -12.644  20.621  1.00  0.00     0.157 HD
ENDBRANCH   7  21
BRANCH  14  24
HETATM   24  C12 UNL     1      26.323 -11.494  12.854  1.00  0.00     0.425 C 
BRANCH  24  25
HETATM   25  N9  UNL     1      27.464 -12.161  12.322  1.00  0.00    -0.035 N 
ATOM     26  H93 UNL     1      27.346 -13.163  12.468  1.00  0.00     0.279 HD
ATOM     27  H92 UNL     1      27.427 -12.094  11.304  1.00  0.00     0.279 HD
ATOM     28  H91 UNL     1      28.404 -11.903  12.624  1.00  0.00     0.279 HD
ENDBRANCH  24  25
BRANCH  24  29
HETATM   29  O2  UNL     1      26.587 -10.112  12.572  1.00  0.00    -0.355 OA
ATOM     30  H2  UNL     1      27.531 -10.002  12.556  1.00  0.00     0.213 HD
ENDBRANCH  24  29
ENDBRANCH  14  24
BRANCH   1  31
HETATM   31  C4  UNL     1      23.487  -7.696  15.210  1.00  0.00     0.309 C 
BRANCH  31  32
HETATM   32  N1  UNL     1      22.118  -7.732  15.646  1.00  0.00    -0.063 N 
ATOM     33  H12 UNL     1      21.979  -7.098  16.434  1.00  0.00     0.278 HD
ATOM     34  H11 UNL     1      21.913  -8.622  16.100  1.00  0.00     0.278 HD
BRANCH  32  35
HETATM   35  C2  UNL     1      21.170  -7.467  14.626  1.00  0.00     0.205 C 
HETATM   36  C1  UNL     1      21.530  -6.070  14.079  1.00  0.00     0.042 C 
BRANCH  35  37
HETATM   37  C3  UNL     1      21.179  -8.449  13.496  1.00  0.00     0.196 C 
BRANCH  37  38
HETATM   38  O1  UNL     1      20.209  -8.080  12.544  1.00  0.00    -0.399 OA
ATOM     39  H1  UNL     1      19.729  -8.851  12.266  1.00  0.00     0.209 HD
ENDBRANCH  37  38
ENDBRANCH  35  37
ENDBRANCH  32  35
ENDBRANCH  31  32
ENDBRANCH   1  31
TORSDOF 10
ENDMDL
MODEL 3
REMARK VINA RESULT: -6.832608072      1.834      4.071
REMARK  10 active torsions:
REMARK  status: ('A' for Active; 'I' for Inactive)
REMARK    1  A    between atoms: C2_2  and  C3_3 
REMARK    2  A    between atoms: C2_2  and  N1_6 
REMARK    3  A    between atoms: C3_3  and  O1_4 
REMARK    4  A    between atoms: N1_6  and  C4_9 
REMARK    5  A    between atoms: C4_9  and  C5_10 
REMARK    6  A    between atoms: C7_16  and  N4_17 
REMARK    7  A    between atoms: C8_20  and  N5_21 
REMARK    8  A    between atoms: N8_29  and  C12_31 
REMARK    9  A    between atoms: C12_31  and  N9_32 
REMARK   10  A    between atoms: C12_31  and  O2_36 
ROOT
HETATM    1  C5  UNL     1      23.832  -8.886  15.727  1.00  0.00     0.110 A 
HETATM    2  N2  UNL     1      24.447  -9.174  14.572  1.00  0.00    -0.329 N 
ATOM      3  H2  UNL     1      24.310  -8.576  13.757  1.00  0.00     0.168 HD
HETATM    4  C6  UNL     1      25.245 -10.253  14.490  1.00  0.00     0.140 A 
HETATM    5  N3  UNL     1      25.855 -10.528  13.318  1.00  0.00    -0.324 N 
ATOM      6  H3  UNL     1      25.698  -9.912  12.521  1.00  0.00     0.169 HD
HETATM    7  C7  UNL     1      26.651 -11.576  13.178  1.00  0.00     0.146 A 
HETATM    8  C8  UNL     1      26.826 -12.368  14.289  1.00  0.00     0.160 A 
HETATM    9  N6  UNL     1      26.226 -12.124  15.490  1.00  0.00    -0.223 N 
HETATM   10  C9  UNL     1      26.478 -13.015  16.551  1.00  0.00     0.191 C 
HETATM   11  N7  UNL     1      26.711 -13.791  17.393  1.00  0.00    -0.171 NA
HETATM   12  C10 UNL     1      25.434 -11.076  15.619  1.00  0.00     0.139 A 
HETATM   13  C11 UNL     1      24.798 -10.776  16.806  1.00  0.00     0.138 A 
HETATM   14  N8  UNL     1      24.951 -11.429  17.846  1.00  0.00    -0.326 N 
ATOM     15  H8  UNL     1      25.603 -12.200  17.701  1.00  0.00     0.165 HD
HETATM   16  N10 UNL     1      24.002  -9.668  16.809  1.00  0.00    -0.329 N 
ATOM     17  H10 UNL     1      23.514  -9.422  17.670  1.00  0.00     0.168 HD
ENDROOT
BRANCH   8  18
HETATM   18  N5  UNL     1      27.600 -13.396  14.211  1.00  0.00    -0.381 N 
ATOM     19  H52 UNL     1      28.376 -13.349  13.552  1.00  0.00     0.157 HD
ATOM     20  H51 UNL     1      27.408 -14.208  14.798  1.00  0.00     0.157 HD
ENDBRANCH   8  18
BRANCH   7  21
HETATM   21  N4  UNL     1      27.210 -11.815  12.046  1.00  0.00    -0.382 N 
ATOM     22  H42 UNL     1      26.847 -11.468  11.157  1.00  0.00     0.157 HD
ATOM     23  H41 UNL     1      28.063 -12.371  12.003  1.00  0.00     0.157 HD
ENDBRANCH   7  21
BRANCH  14  24
HETATM   24  C12 UNL     1      24.486 -11.408  19.158  1.00  0.00     0.425 C 
BRANCH  24  25
HETATM   25  N9  UNL     1      24.863 -10.357  20.044  1.00  0.00    -0.035 N 
ATOM     26  H93 UNL     1      24.676  -9.467  19.582  1.00  0.00     0.279 HD
ATOM     27  H92 UNL     1      24.194 -10.334  20.815  1.00  0.00     0.279 HD
ATOM     28  H91 UNL     1      25.804 -10.322  20.437  1.00  0.00     0.279 HD
ENDBRANCH  24  25
BRANCH  24  29
HETATM   29  O2  UNL     1      24.989 -12.584  19.810  1.00  0.00    -0.355 OA
ATOM     30  H2  UNL     1      24.680 -12.565  20.708  1.00  0.00     0.213 HD
ENDBRANCH  24  29
ENDBRANCH  14  24
BRANCH   1  31
HETATM   31  C4  UNL     1      23.036  -7.613  15.765  1.00  0.00     0.309 C 
BRANCH  31  32
HETATM   32  N1  UNL     1      23.892  -6.480  15.549  1.00  0.00    -0.063 N 
ATOM     33  H12 UNL     1      24.852  -6.785  15.388  1.00  0.00     0.278 HD
ATOM     34  H11 UNL     1      24.017  -5.959  16.416  1.00  0.00     0.278 HD
BRANCH  32  35
HETATM   35  C2  UNL     1      23.469  -5.614  14.509  1.00  0.00     0.205 C 
HETATM   36  C1  UNL     1      21.972  -5.920  14.298  1.00  0.00     0.042 C 
BRANCH  35  37
HETATM   37  C3  UNL     1      23.629  -4.156  14.807  1.00  0.00     0.196 C 
BRANCH  37  38
HETATM   38  O1  UNL     1      22.379  -3.604  15.147  1.00  0.00    -0.399 OA
ATOM     39  H1  UNL     1      22.339  -2.703  14.851  1.00  0.00     0.209 HD
ENDBRANCH  37  38
ENDBRANCH  35  37
ENDBRANCH  32  35
ENDBRANCH  31  32
ENDBRANCH   1  31
TORSDOF 10
ENDMDL
MODEL 4
REMARK VINA RESULT: -6.626544592      2.376      4.461
REMARK  10 active torsions:
REMARK  status: ('A' for Active; 'I' for Inactive)
REMARK    1  A    between atoms: C2_2  and  C3_3 
REMARK    2  A    between atoms: C2_2  and  N1_6 
REMARK    3  A    between atoms: C3_3  and  O1_4 
REMARK    4  A    between atoms: N1_6  and  C4_9 
REMARK    5  A    between atoms: C4_9  and  C5_10 
REMARK    6  A    between atoms: C7_16  and  N4_17 
REMARK    7  A    between atoms: C8_20  and  N5_21 
REMARK    8  A    between atoms: N8_29  and  C12_31 
REMARK    9  A    between atoms: C12_31  and  N9_32 
REMARK   10  A    between atoms: C12_31  and  O2_36 
ROOT
HETATM    1  C5  UNL     1      23.560  -9.027  16.157  1.00  0.00     0.110 A 
HETATM    2  N2  UNL     1      24.168  -9.228  14.980  1.00  0.00    -0.329 N 
ATOM      3  H2  UNL     1      23.976  -8.608  14.193  1.00  0.00     0.168 HD
HETATM    4  C6  UNL     1      25.031 -10.249  14.839  1.00  0.00     0.140 A 
HETATM    5  N3  UNL     1      25.632 -10.437  13.647  1.00  0.00    -0.324 N 
ATOM      6  H3  UNL     1      25.421  -9.802  12.878  1.00  0.00     0.169 HD
HETATM    7  C7  UNL     1      26.490 -11.426  13.448  1.00  0.00     0.146 A 
HETATM    8  C8  UNL     1      26.737 -12.249  14.522  1.00  0.00     0.160 A 
HETATM    9  N6  UNL     1      26.149 -12.092  15.743  1.00  0.00    -0.223 N 
HETATM   10  C9  UNL     1      26.478 -13.008  16.762  1.00  0.00     0.191 C 
HETATM   11  N7  UNL     1      26.776 -13.801  17.566  1.00  0.00    -0.171 NA
HETATM   12  C10 UNL     1      25.295 -11.103  15.930  1.00  0.00     0.139 A 
HETATM   13  C11 UNL     1      24.665 -10.893  17.139  1.00  0.00     0.138 A 
HETATM   14  N8  UNL     1      24.881 -11.576  18.148  1.00  0.00    -0.326 N 
ATOM     15  H8  UNL     1      25.576 -12.297  17.959  1.00  0.00     0.165 HD
HETATM   16  N10 UNL     1      23.801  -9.839  17.203  1.00  0.00    -0.329 N 
ATOM     17  H10 UNL     1      23.316  -9.659  18.082  1.00  0.00     0.168 HD
ENDROOT
BRANCH   8  18
HETATM   18  N5  UNL     1      27.573 -13.222  14.388  1.00  0.00    -0.381 N 
ATOM     19  H52 UNL     1      28.219 -13.393  15.158  1.00  0.00     0.157 HD
ATOM     20  H51 UNL     1      27.563 -13.771  13.529  1.00  0.00     0.157 HD
ENDBRANCH   8  18
BRANCH   7  21
HETATM   21  N4  UNL     1      27.040 -11.583  12.297  1.00  0.00    -0.382 N 
ATOM     22  H42 UNL     1      27.907 -11.122  12.023  1.00  0.00     0.157 HD
ATOM     23  H41 UNL     1      26.612 -12.196  11.605  1.00  0.00     0.157 HD
ENDBRANCH   7  21
BRANCH  14  24
HETATM   24  C12 UNL     1      24.442 -11.638  19.468  1.00  0.00     0.425 C 
BRANCH  24  25
HETATM   25  N9  UNL     1      25.057 -10.837  20.475  1.00  0.00    -0.035 N 
ATOM     26  H93 UNL     1      24.464 -10.857  21.305  1.00  0.00     0.279 HD
ATOM     27  H92 UNL     1      25.891 -11.324  20.805  1.00  0.00     0.279 HD
ATOM     28  H91 UNL     1      25.308  -9.867  20.285  1.00  0.00     0.279 HD
ENDBRANCH  24  25
BRANCH  24  29
HETATM   29  O2  UNL     1      24.666 -12.977  19.932  1.00  0.00    -0.355 OA
ATOM     30  H2  UNL     1      25.078 -13.458  19.223  1.00  0.00     0.213 HD
ENDBRANCH  24  29
ENDBRANCH  14  24
BRANCH   1  31
HETATM   31  C4  UNL     1      22.686  -7.810  16.261  1.00  0.00     0.309 C 
BRANCH  31  32
HETATM   32  N1  UNL     1      22.501  -7.213  14.968  1.00  0.00    -0.063 N 
ATOM     33  H12 UNL     1      23.155  -7.612  14.295  1.00  0.00     0.278 HD
ATOM     34  H11 UNL     1      22.824  -6.246  14.974  1.00  0.00     0.278 HD
BRANCH  32  35
HETATM   35  C2  UNL     1      21.175  -7.287  14.471  1.00  0.00     0.205 C 
HETATM   36  C1  UNL     1      20.899  -5.917  13.818  1.00  0.00     0.042 C 
BRANCH  35  37
HETATM   37  C3  UNL     1      20.949  -8.364  13.456  1.00  0.00     0.196 C 
BRANCH  37  38
HETATM   38  O1  UNL     1      19.979  -7.940  12.527  1.00  0.00    -0.399 OA
ATOM     39  H1  UNL     1      20.410  -7.594  11.755  1.00  0.00     0.209 HD
ENDBRANCH  37  38
ENDBRANCH  35  37
ENDBRANCH  32  35
ENDBRANCH  31  32
ENDBRANCH   1  31
TORSDOF 10
ENDMDL
MODEL 5
REMARK VINA RESULT: -6.465337105      3.259      6.812
REMARK  10 active torsions:
REMARK  status: ('A' for Active; 'I' for Inactive)
REMARK    1  A    between atoms: C2_2  and  C3_3 
REMARK    2  A    between atoms: C2_2  and  N1_6 
REMARK    3  A    between atoms: C3_3  and  O1_4 
REMARK    4  A    between atoms: N1_6  and  C4_9 
REMARK    5  A    between atoms: C4_9  and  C5_10 
REMARK    6  A    between atoms: C7_16  and  N4_17 
REMARK    7  A    between atoms: C8_20  and  N5_21 
REMARK    8  A    between atoms: N8_29  and  C12_31 
REMARK    9  A    between atoms: C12_31  and  N9_32 
REMARK   10  A    between atoms: C12_31  and  O2_36 
ROOT
HETATM    1  C5  UNL     1      25.668 -12.907  18.384  1.00  0.00     0.110 A 
HETATM    2  N2  UNL     1      24.917 -11.837  18.679  1.00  0.00    -0.329 N 
ATOM      3  H2  UNL     1      24.509 -11.739  19.609  1.00  0.00     0.168 HD
HETATM    4  C6  UNL     1      24.701 -10.893  17.747  1.00  0.00     0.140 A 
HETATM    5  N3  UNL     1      23.941  -9.825  18.061  1.00  0.00    -0.324 N 
ATOM      6  H3  UNL     1      23.547  -9.754  18.999  1.00  0.00     0.169 HD
HETATM    7  C7  UNL     1      23.694  -8.864  17.183  1.00  0.00     0.146 A 
HETATM    8  C8  UNL     1      24.254  -9.013  15.936  1.00  0.00     0.160 A 
HETATM    9  N6  UNL     1      25.028 -10.079  15.580  1.00  0.00    -0.223 N 
HETATM   10  C9  UNL     1      25.538 -10.121  14.268  1.00  0.00     0.191 C 
HETATM   11  N7  UNL     1      25.925 -10.111  13.165  1.00  0.00    -0.171 NA
HETATM   12  C10 UNL     1      25.268 -11.031  16.463  1.00  0.00     0.139 A 
HETATM   13  C11 UNL     1      26.039 -12.135  16.163  1.00  0.00     0.138 A 
HETATM   14  N8  UNL     1      26.601 -12.298  15.073  1.00  0.00    -0.326 N 
ATOM     15  H8  UNL     1      26.416 -11.516  14.445  1.00  0.00     0.165 HD
HETATM   16  N10 UNL     1      26.209 -13.050  17.160  1.00  0.00    -0.329 N 
ATOM     17  H10 UNL     1      26.771 -13.879  16.969  1.00  0.00     0.168 HD
ENDROOT
BRANCH   8  18
HETATM   18  N5  UNL     1      24.056  -8.101  15.046  1.00  0.00    -0.381 N 
ATOM     19  H52 UNL     1      23.381  -7.370  15.267  1.00  0.00     0.157 HD
ATOM     20  H51 UNL     1      24.567  -8.148  14.165  1.00  0.00     0.157 HD
ENDBRANCH   8  18
BRANCH   7  21
HETATM   21  N4  UNL     1      22.959  -7.863  17.513  1.00  0.00    -0.382 N 
ATOM     22  H42 UNL     1      23.317  -6.913  17.611  1.00  0.00     0.157 HD
ATOM     23  H41 UNL     1      21.962  -7.994  17.685  1.00  0.00     0.157 HD
ENDBRANCH   7  21
BRANCH  14  24
HETATM   24  C12 UNL     1      27.415 -13.249  14.461  1.00  0.00     0.425 C 
BRANCH  24  25
HETATM   25  N9  UNL     1      27.468 -13.351  13.040  1.00  0.00    -0.035 N 
ATOM     26  H93 UNL     1      28.099 -12.630  12.692  1.00  0.00     0.279 HD
ATOM     27  H92 UNL     1      27.974 -14.204  12.800  1.00  0.00     0.279 HD
ATOM     28  H91 UNL     1      26.612 -13.321  12.485  1.00  0.00     0.279 HD
ENDBRANCH  24  25
BRANCH  24  29
HETATM   29  O2  UNL     1      26.942 -14.542  14.866  1.00  0.00    -0.355 OA
ATOM     30  H2  UNL     1      26.204 -14.762  14.309  1.00  0.00     0.213 HD
ENDBRANCH  24  29
ENDBRANCH  14  24
BRANCH   1  31
HETATM   31  C4  UNL     1      25.941 -13.866  19.508  1.00  0.00     0.309 C 
BRANCH  31  32
HETATM   32  N1  UNL     1      27.297 -13.732  19.963  1.00  0.00    -0.063 N 
ATOM     33  H12 UNL     1      27.328 -13.211  20.839  1.00  0.00     0.278 HD
ATOM     34  H11 UNL     1      27.813 -13.092  19.360  1.00  0.00     0.278 HD
BRANCH  32  35
HETATM   35  C2  UNL     1      27.996 -14.959  20.093  1.00  0.00     0.205 C 
HETATM   36  C1  UNL     1      29.493 -14.592  20.036  1.00  0.00     0.042 C 
BRANCH  35  37
HETATM   37  C3  UNL     1      27.725 -15.699  21.367  1.00  0.00     0.196 C 
BRANCH  37  38
HETATM   38  O1  UNL     1      28.261 -14.979  22.452  1.00  0.00    -0.399 OA
ATOM     39  H1  UNL     1      27.623 -14.345  22.758  1.00  0.00     0.209 HD
ENDBRANCH  37  38
ENDBRANCH  35  37
ENDBRANCH  32  35
ENDBRANCH  31  32
ENDBRANCH   1  31
TORSDOF 10
ENDMDL
