MODEL 1
REMARK VINA RESULT: -8.972752328      0.000      0.000
REMARK  11 active torsions:
REMARK  status: ('A' for Active; 'I' for Inactive)
REMARK    1  A    between atoms: C2_2  and  O1_3 
REMARK    2  A    between atoms: C2_2  and  C3_5 
REMARK    3  A    between atoms: C5_7  and  N1_8 
REMARK    4  A    between atoms: N1_8  and  C6_10 
REMARK    5  A    between atoms: C6_10  and  O2_11 
REMARK    6  A    between atoms: C6_10  and  C7_13 
REMARK    7  A    between atoms: C7_13  and  O3_14 
REMARK    8  A    between atoms: C7_13  and  C8_16 
REMARK    9  A    between atoms: C8_16  and  O4_17 
REMARK   10  A    between atoms: C8_16  and  C9_19 
REMARK   11  A    between atoms: N6_30  and  N7_31 
ROOT
HETATM    1  C6  UNL     1      24.324  -9.771  17.538  1.00  0.00     0.251 C 
ENDROOT
BRANCH   1   2
HETATM    2  N1  UNL     1      24.961 -10.314  16.471  1.00  0.00    -0.346 N 
ATOM      3  H1  UNL     1      25.005  -9.526  15.824  1.00  0.00     0.163 HD
BRANCH   2   4
HETATM    4  C5  UNL     1      25.520 -11.209  15.829  1.00  0.00     0.133 A 
HETATM    5  C4  UNL     1      25.902 -11.178  14.534  1.00  0.00     0.069 A 
HETATM    6  C3  UNL     1      26.528 -12.297  14.033  1.00  0.00     0.033 A 
HETATM    7  S1  UNL     1      26.564 -13.333  15.388  1.00  0.00     0.009 SA
HETATM    8  N6  UNL     1      25.811 -12.374  16.499  1.00  0.00    -0.214 N 
BRANCH   6   9
HETATM    9  C2  UNL     1      27.063 -12.627  12.672  1.00  0.00     0.155 C 
HETATM   10  C1  UNL     1      28.349 -13.423  12.852  1.00  0.00     0.045 C 
BRANCH   9  11
HETATM   11  O1  UNL     1      27.423 -11.509  11.933  1.00  0.00    -0.391 OA
ATOM     12  H1  UNL     1      26.638 -10.975  11.886  1.00  0.00     0.210 HD
ENDBRANCH   9  11
ENDBRANCH   6   9
BRANCH   8  13
HETATM   13  N7  UNL     1      25.507 -12.613  17.869  1.00  0.00    -0.331 N 
ATOM     14  H72 UNL     1      24.809 -12.183  18.476  1.00  0.00     0.178 HD
ATOM     15  H71 UNL     1      25.977 -13.306  18.452  1.00  0.00     0.178 HD
ENDBRANCH   8  13
ENDBRANCH   2   4
ENDBRANCH   1   2
BRANCH   1  16
HETATM   16  O2  UNL     1      25.273  -8.814  18.139  1.00  0.00    -0.374 OA
ATOM     17  H2  UNL     1      24.957  -8.647  19.019  1.00  0.00     0.212 HD
ENDBRANCH   1  16
BRANCH   1  18
HETATM   18  C7  UNL     1      23.131  -8.955  17.190  1.00  0.00     0.201 C 
BRANCH  18  19
HETATM   19  O3  UNL     1      23.071  -7.697  17.761  1.00  0.00    -0.388 OA
ATOM     20  H3  UNL     1      22.344  -7.150  17.487  1.00  0.00     0.210 HD
ENDBRANCH  18  19
BRANCH  18  21
HETATM   21  C8  UNL     1      22.846  -8.764  15.717  1.00  0.00     0.205 C 
BRANCH  21  22
HETATM   22  O4  UNL     1      21.310  -8.849  15.761  1.00  0.00    -0.387 OA
ATOM     23  H4  UNL     1      21.117  -8.419  14.936  1.00  0.00     0.210 HD
ENDBRANCH  21  22
BRANCH  21  24
HETATM   24  C9  UNL     1      22.993  -7.407  15.171  1.00  0.00     0.099 A 
HETATM   25  N2  UNL     1      23.914  -6.442  15.409  1.00  0.00    -0.190 N 
HETATM   26  C10 UNL     1      23.499  -5.302  14.849  1.00  0.00     0.677 A 
ATOM     27  H2  UNL     1      24.782  -6.566  15.930  1.00  0.00     0.184 HD
HETATM   28  N3  UNL     1      24.099  -4.130  14.888  1.00  0.00    -0.234 N 
HETATM   29  N4  UNL     1      22.320  -5.504  14.237  1.00  0.00    -0.177 N 
ATOM     30  H32 UNL     1      24.994  -3.976  15.353  1.00  0.00     0.174 HD
ATOM     31  H31 UNL     1      23.782  -3.259  14.460  1.00  0.00     0.174 HD
HETATM   32  C11 UNL     1      21.979  -6.782  14.416  1.00  0.00     0.157 A 
ATOM     33  H4  UNL     1      21.781  -4.806  13.726  1.00  0.00     0.185 HD
HETATM   34  N5  UNL     1      20.867  -7.442  13.873  1.00  0.00    -0.080 NA
ENDBRANCH  21  24
ENDBRANCH  18  21
ENDBRANCH   1  18
TORSDOF 11
ENDMDL
MODEL 2
REMARK VINA RESULT: -8.860016850      0.762      1.693
REMARK  11 active torsions:
REMARK  status: ('A' for Active; 'I' for Inactive)
REMARK    1  A    between atoms: C2_2  and  O1_3 
REMARK    2  A    between atoms: C2_2  and  C3_5 
REMARK    3  A    between atoms: C5_7  and  N1_8 
REMARK    4  A    between atoms: N1_8  and  C6_10 
REMARK    5  A    between atoms: C6_10  and  O2_11 
REMARK    6  A    between atoms: C6_10  and  C7_13 
REMARK    7  A    between atoms: C7_13  and  O3_14 
REMARK    8  A    between atoms: C7_13  and  C8_16 
REMARK    9  A    between atoms: C8_16  and  O4_17 
REMARK   10  A    between atoms: C8_16  and  C9_19 
REMARK   11  A    between atoms: N6_30  and  N7_31 
ROOT
HETATM    1  C6  UNL     1      24.293  -9.745  17.383  1.00  0.00     0.251 C 
ENDROOT
BRANCH   1   2
HETATM    2  N1  UNL     1      25.076 -10.310  16.431  1.00  0.00    -0.346 N 
ATOM      3  H1  UNL     1      25.412  -9.494  15.918  1.00  0.00     0.163 HD
BRANCH   2   4
HETATM    4  C5  UNL     1      25.619 -11.240  15.826  1.00  0.00     0.133 A 
HETATM    5  C4  UNL     1      26.049 -11.248  14.546  1.00  0.00     0.069 A 
HETATM    6  C3  UNL     1      26.644 -12.401  14.087  1.00  0.00     0.033 A 
HETATM    7  S1  UNL     1      26.587 -13.413  15.461  1.00  0.00     0.009 SA
HETATM    8  N6  UNL     1      25.836 -12.402  16.526  1.00  0.00    -0.214 N 
BRANCH   6   9
HETATM    9  C2  UNL     1      27.214 -12.779  12.754  1.00  0.00     0.155 C 
HETATM   10  C1  UNL     1      28.320 -13.800  12.985  1.00  0.00     0.045 C 
BRANCH   9  11
HETATM   11  O1  UNL     1      27.823 -11.722  12.093  1.00  0.00    -0.391 OA
ATOM     12  H1  UNL     1      27.139 -11.075  11.968  1.00  0.00     0.210 HD
ENDBRANCH   9  11
ENDBRANCH   6   9
BRANCH   8  13
HETATM   13  N7  UNL     1      25.472 -12.604  17.888  1.00  0.00    -0.331 N 
ATOM     14  H72 UNL     1      25.444 -13.458  18.445  1.00  0.00     0.178 HD
ATOM     15  H71 UNL     1      25.185 -11.861  18.525  1.00  0.00     0.178 HD
ENDBRANCH   8  13
ENDBRANCH   2   4
ENDBRANCH   1   2
BRANCH   1  16
HETATM   16  O2  UNL     1      25.182  -8.887  18.190  1.00  0.00    -0.374 OA
ATOM     17  H2  UNL     1      26.041  -9.291  18.157  1.00  0.00     0.212 HD
ENDBRANCH   1  16
BRANCH   1  18
HETATM   18  C7  UNL     1      23.253  -8.823  16.855  1.00  0.00     0.201 C 
BRANCH  18  19
HETATM   19  O3  UNL     1      23.099  -7.630  17.537  1.00  0.00    -0.388 OA
ATOM     20  H3  UNL     1      23.900  -7.162  17.743  1.00  0.00     0.210 HD
ENDBRANCH  18  19
BRANCH  18  21
HETATM   21  C8  UNL     1      23.349  -8.461  15.389  1.00  0.00     0.205 C 
BRANCH  21  22
HETATM   22  O4  UNL     1      22.660  -9.703  14.795  1.00  0.00    -0.387 OA
ATOM     23  H4  UNL     1      21.908  -9.277  14.402  1.00  0.00     0.210 HD
ENDBRANCH  21  22
BRANCH  21  24
HETATM   24  C9  UNL     1      22.438  -7.421  14.889  1.00  0.00     0.099 A 
HETATM   25  N2  UNL     1      21.174  -7.496  14.408  1.00  0.00    -0.190 N 
HETATM   26  C10 UNL     1      20.848  -6.318  13.866  1.00  0.00     0.677 A 
ATOM     27  H2  UNL     1      20.569  -8.316  14.453  1.00  0.00     0.184 HD
HETATM   28  N3  UNL     1      19.720  -6.001  13.265  1.00  0.00    -0.234 N 
HETATM   29  N4  UNL     1      21.879  -5.465  13.992  1.00  0.00    -0.177 N 
ATOM     30  H32 UNL     1      18.938  -6.649  13.169  1.00  0.00     0.174 HD
ATOM     31  H31 UNL     1      19.472  -5.102  12.851  1.00  0.00     0.174 HD
HETATM   32  C11 UNL     1      22.871  -6.108  14.612  1.00  0.00     0.157 A 
ATOM     33  H4  UNL     1      21.900  -4.497  13.671  1.00  0.00     0.185 HD
HETATM   34  N5  UNL     1      24.099  -5.568  15.022  1.00  0.00    -0.080 NA
ENDBRANCH  21  24
ENDBRANCH  18  21
ENDBRANCH   1  18
TORSDOF 11
ENDMDL
MODEL 3
REMARK VINA RESULT: -8.468908273      1.083      2.016
REMARK  11 active torsions:
REMARK  status: ('A' for Active; 'I' for Inactive)
REMARK    1  A    between atoms: C2_2  and  O1_3 
REMARK    2  A    between atoms: C2_2  and  C3_5 
REMARK    3  A    between atoms: C5_7  and  N1_8 
REMARK    4  A    between atoms: N1_8  and  C6_10 
REMARK    5  A    between atoms: C6_10  and  O2_11 
REMARK    6  A    between atoms: C6_10  and  C7_13 
REMARK    7  A    between atoms: C7_13  and  O3_14 
REMARK    8  A    between atoms: C7_13  and  C8_16 
REMARK    9  A    between atoms: C8_16  and  O4_17 
REMARK   10  A    between atoms: C8_16  and  C9_19 
REMARK   11  A    between atoms: N6_30  and  N7_31 
ROOT
HETATM    1  C6  UNL     1      24.768  -9.965  17.619  1.00  0.00     0.251 C 
ENDROOT
BRANCH   1   2
HETATM    2  N1  UNL     1      25.644 -10.579  16.786  1.00  0.00    -0.346 N 
ATOM      3  H1  UNL     1      26.402  -9.898  16.732  1.00  0.00     0.163 HD
BRANCH   2   4
HETATM    4  C5  UNL     1      26.056 -11.486  16.055  1.00  0.00     0.133 A 
HETATM    5  C4  UNL     1      26.363 -11.409  14.743  1.00  0.00     0.069 A 
HETATM    6  C3  UNL     1      26.823 -12.555  14.134  1.00  0.00     0.033 A 
HETATM    7  S1  UNL     1      26.817 -13.679  15.418  1.00  0.00     0.009 SA
HETATM    8  N6  UNL     1      26.247 -12.719  16.632  1.00  0.00    -0.214 N 
BRANCH   6   9
HETATM    9  C2  UNL     1      27.236 -12.850  12.724  1.00  0.00     0.155 C 
HETATM   10  C1  UNL     1      28.472 -13.738  12.770  1.00  0.00     0.045 C 
BRANCH   9  11
HETATM   11  O1  UNL     1      27.620 -11.722  12.013  1.00  0.00    -0.391 OA
ATOM     12  H1  UNL     1      27.160 -10.998  12.420  1.00  0.00     0.210 HD
ENDBRANCH   9  11
ENDBRANCH   6   9
BRANCH   8  13
HETATM   13  N7  UNL     1      25.997 -13.016  18.002  1.00  0.00    -0.331 N 
ATOM     14  H72 UNL     1      26.598 -13.447  18.705  1.00  0.00     0.178 HD
ATOM     15  H71 UNL     1      25.125 -12.808  18.488  1.00  0.00     0.178 HD
ENDBRANCH   8  13
ENDBRANCH   2   4
ENDBRANCH   1   2
BRANCH   1  16
HETATM   16  O2  UNL     1      25.453  -8.755  18.114  1.00  0.00    -0.374 OA
ATOM     17  H2  UNL     1      24.795  -8.071  18.141  1.00  0.00     0.212 HD
ENDBRANCH   1  16
BRANCH   1  18
HETATM   18  C7  UNL     1      23.539  -9.458  16.953  1.00  0.00     0.201 C 
BRANCH  18  19
HETATM   19  O3  UNL     1      22.387  -9.475  17.717  1.00  0.00    -0.388 OA
ATOM     20  H3  UNL     1      21.696 -10.053  17.414  1.00  0.00     0.210 HD
ENDBRANCH  18  19
BRANCH  18  21
HETATM   21  C8  UNL     1      23.620  -8.078  16.340  1.00  0.00     0.205 C 
BRANCH  21  22
HETATM   22  O4  UNL     1      24.762  -8.331  15.339  1.00  0.00    -0.387 OA
ATOM     23  H4  UNL     1      25.217  -7.502  15.426  1.00  0.00     0.210 HD
ENDBRANCH  21  22
BRANCH  21  24
HETATM   24  C9  UNL     1      22.559  -7.695  15.398  1.00  0.00     0.099 A 
HETATM   25  N2  UNL     1      21.565  -8.418  14.827  1.00  0.00    -0.190 N 
HETATM   26  C10 UNL     1      20.994  -7.684  13.867  1.00  0.00     0.677 A 
ATOM     27  H2  UNL     1      21.296  -9.366  15.088  1.00  0.00     0.184 HD
HETATM   28  N3  UNL     1      20.016  -8.045  13.062  1.00  0.00    -0.234 N 
HETATM   29  N4  UNL     1      21.593  -6.482  13.803  1.00  0.00    -0.177 N 
ATOM     30  H32 UNL     1      19.562  -8.957  13.111  1.00  0.00     0.174 HD
ATOM     31  H31 UNL     1      19.580  -7.485  12.329  1.00  0.00     0.174 HD
HETATM   32  C11 UNL     1      22.558  -6.456  14.725  1.00  0.00     0.157 A 
ATOM     33  H4  UNL     1      21.353  -5.725  13.163  1.00  0.00     0.185 HD
HETATM   34  N5  UNL     1      23.373  -5.364  15.059  1.00  0.00    -0.080 NA
ENDBRANCH  21  24
ENDBRANCH  18  21
ENDBRANCH   1  18
TORSDOF 11
ENDMDL
MODEL 4
REMARK VINA RESULT: -8.327903441      2.891      7.173
REMARK  11 active torsions:
REMARK  status: ('A' for Active; 'I' for Inactive)
REMARK    1  A    between atoms: C2_2  and  O1_3 
REMARK    2  A    between atoms: C2_2  and  C3_5 
REMARK    3  A    between atoms: C5_7  and  N1_8 
REMARK    4  A    between atoms: N1_8  and  C6_10 
REMARK    5  A    between atoms: C6_10  and  O2_11 
REMARK    6  A    between atoms: C6_10  and  C7_13 
REMARK    7  A    between atoms: C7_13  and  O3_14 
REMARK    8  A    between atoms: C7_13  and  C8_16 
REMARK    9  A    between atoms: C8_16  and  O4_17 
REMARK   10  A    between atoms: C8_16  and  C9_19 
REMARK   11  A    between atoms: N6_30  and  N7_31 
ROOT
HETATM    1  C6  UNL     1      24.994  -9.470  16.343  1.00  0.00     0.251 C 
ENDROOT
BRANCH   1   2
HETATM    2  N1  UNL     1      23.995  -8.883  15.637  1.00  0.00    -0.346 N 
ATOM      3  H1  UNL     1      23.481  -9.689  15.281  1.00  0.00     0.163 HD
BRANCH   2   4
HETATM    4  C5  UNL     1      23.348  -7.937  15.175  1.00  0.00     0.133 A 
HETATM    5  C4  UNL     1      23.694  -6.632  15.162  1.00  0.00     0.069 A 
HETATM    6  C3  UNL     1      22.814  -5.752  14.574  1.00  0.00     0.033 A 
HETATM    7  S1  UNL     1      21.555  -6.783  14.058  1.00  0.00     0.009 SA
HETATM    8  N6  UNL     1      22.141  -8.231  14.587  1.00  0.00    -0.214 N 
BRANCH   6   9
HETATM    9  C2  UNL     1      22.848  -4.265  14.392  1.00  0.00     0.155 C 
HETATM   10  C1  UNL     1      24.226  -3.769  14.810  1.00  0.00     0.045 C 
BRANCH   9  11
HETATM   11  O1  UNL     1      21.951  -3.587  15.204  1.00  0.00    -0.391 OA
ATOM     12  H1  UNL     1      21.645  -4.230  15.833  1.00  0.00     0.210 HD
ENDBRANCH   9  11
ENDBRANCH   6   9
BRANCH   8  13
HETATM   13  N7  UNL     1      21.593  -9.541  14.482  1.00  0.00    -0.331 N 
ATOM     14  H72 UNL     1      21.800 -10.388  15.011  1.00  0.00     0.178 HD
ATOM     15  H71 UNL     1      20.862  -9.810  13.823  1.00  0.00     0.178 HD
ENDBRANCH   8  13
ENDBRANCH   2   4
ENDBRANCH   1   2
BRANCH   1  16
HETATM   16  O2  UNL     1      24.412 -10.688  16.939  1.00  0.00    -0.374 OA
ATOM     17  H2  UNL     1      23.471 -10.604  16.846  1.00  0.00     0.212 HD
ENDBRANCH   1  16
BRANCH   1  18
HETATM   18  C7  UNL     1      26.127  -9.957  15.513  1.00  0.00     0.201 C 
BRANCH  18  19
HETATM   19  O3  UNL     1      27.161 -10.567  16.200  1.00  0.00    -0.388 OA
ATOM     20  H3  UNL     1      26.914 -11.041  16.986  1.00  0.00     0.210 HD
ENDBRANCH  18  19
BRANCH  18  21
HETATM   21  C8  UNL     1      25.780 -10.880  14.366  1.00  0.00     0.205 C 
BRANCH  21  22
HETATM   22  O4  UNL     1      26.320 -10.025  13.205  1.00  0.00    -0.387 OA
ATOM     23  H4  UNL     1      27.076 -10.552  12.976  1.00  0.00     0.210 HD
ENDBRANCH  21  22
BRANCH  21  24
HETATM   24  C9  UNL     1      26.614 -12.077  14.187  1.00  0.00     0.099 A 
HETATM   25  N2  UNL     1      27.483 -12.424  13.206  1.00  0.00    -0.190 N 
HETATM   26  C10 UNL     1      27.826 -13.705  13.367  1.00  0.00     0.677 A 
ATOM     27  H2  UNL     1      27.820 -11.807  12.467  1.00  0.00     0.184 HD
HETATM   28  N3  UNL     1      28.623 -14.420  12.599  1.00  0.00    -0.234 N 
HETATM   29  N4  UNL     1      27.201 -14.206  14.447  1.00  0.00    -0.177 N 
ATOM     30  H32 UNL     1      29.096 -14.040  11.780  1.00  0.00     0.174 HD
ATOM     31  H31 UNL     1      28.884 -15.398  12.722  1.00  0.00     0.174 HD
HETATM   32  C11 UNL     1      26.449 -13.237  14.971  1.00  0.00     0.157 A 
ATOM     33  H4  UNL     1      27.287 -15.159  14.802  1.00  0.00     0.185 HD
HETATM   34  N5  UNL     1      25.698 -13.301  16.155  1.00  0.00    -0.080 NA
ENDBRANCH  21  24
ENDBRANCH  18  21
ENDBRANCH   1  18
TORSDOF 11
ENDMDL
MODEL 5
REMARK VINA RESULT: -8.108112881      3.154      7.176
REMARK  11 active torsions:
REMARK  status: ('A' for Active; 'I' for Inactive)
REMARK    1  A    between atoms: C2_2  and  O1_3 
REMARK    2  A    between atoms: C2_2  and  C3_5 
REMARK    3  A    between atoms: C5_7  and  N1_8 
REMARK    4  A    between atoms: N1_8  and  C6_10 
REMARK    5  A    between atoms: C6_10  and  O2_11 
REMARK    6  A    between atoms: C6_10  and  C7_13 
REMARK    7  A    between atoms: C7_13  and  O3_14 
REMARK    8  A    between atoms: C7_13  and  C8_16 
REMARK    9  A    between atoms: C8_16  and  O4_17 
REMARK   10  A    between atoms: C8_16  and  C9_19 
REMARK   11  A    between atoms: N6_30  and  N7_31 
ROOT
HETATM    1  C6  UNL     1      22.884  -9.766  15.313  1.00  0.00     0.251 C 
ENDROOT
BRANCH   1   2
HETATM    2  N1  UNL     1      22.178  -8.812  14.657  1.00  0.00    -0.346 N 
ATOM      3  H1  UNL     1      21.552  -9.369  14.076  1.00  0.00     0.163 HD
BRANCH   2   4
HETATM    4  C5  UNL     1      21.855  -7.658  14.355  1.00  0.00     0.133 A 
HETATM    5  C4  UNL     1      22.502  -6.515  14.665  1.00  0.00     0.069 A 
HETATM    6  C3  UNL     1      21.960  -5.337  14.204  1.00  0.00     0.033 A 
HETATM    7  S1  UNL     1      20.583  -5.878  13.352  1.00  0.00     0.009 SA
HETATM    8  N6  UNL     1      20.716  -7.503  13.601  1.00  0.00    -0.214 N 
BRANCH   6   9
HETATM    9  C2  UNL     1      22.378  -3.906  14.359  1.00  0.00     0.155 C 
HETATM   10  C1  UNL     1      23.841  -3.885  14.783  1.00  0.00     0.045 C 
BRANCH   9  11
HETATM   11  O1  UNL     1      21.694  -3.236  15.363  1.00  0.00    -0.391 OA
ATOM     12  H1  UNL     1      22.178  -3.417  16.161  1.00  0.00     0.210 HD
ENDBRANCH   9  11
ENDBRANCH   6   9
BRANCH   8  13
HETATM   13  N7  UNL     1      19.892  -8.574  13.156  1.00  0.00    -0.331 N 
ATOM     14  H72 UNL     1      19.306  -8.656  12.324  1.00  0.00     0.178 HD
ATOM     15  H71 UNL     1      19.786  -9.463  13.644  1.00  0.00     0.178 HD
ENDBRANCH   8  13
ENDBRANCH   2   4
ENDBRANCH   1   2
BRANCH   1  16
HETATM   16  O2  UNL     1      23.983 -10.158  14.410  1.00  0.00    -0.374 OA
ATOM     17  H2  UNL     1      23.729  -9.865  13.543  1.00  0.00     0.212 HD
ENDBRANCH   1  16
BRANCH   1  18
HETATM   18  C7  UNL     1      23.560  -9.289  16.549  1.00  0.00     0.201 C 
BRANCH  18  19
HETATM   19  O3  UNL     1      22.929  -9.596  17.740  1.00  0.00    -0.388 OA
ATOM     20  H3  UNL     1      21.995  -9.761  17.685  1.00  0.00     0.210 HD
ENDBRANCH  18  19
BRANCH  18  21
HETATM   21  C8  UNL     1      25.009  -9.685  16.724  1.00  0.00     0.205 C 
BRANCH  21  22
HETATM   22  O4  UNL     1      25.295  -8.951  18.047  1.00  0.00    -0.387 OA
ATOM     23  H4  UNL     1      26.067  -8.467  17.780  1.00  0.00     0.210 HD
ENDBRANCH  21  22
BRANCH  21  24
HETATM   24  C9  UNL     1      25.285 -11.064  17.152  1.00  0.00     0.099 A 
HETATM   25  N2  UNL     1      24.984 -11.722  18.298  1.00  0.00    -0.190 N 
HETATM   26  C10 UNL     1      25.642 -12.885  18.313  1.00  0.00     0.677 A 
ATOM     27  H2  UNL     1      24.357 -11.386  19.028  1.00  0.00     0.184 HD
HETATM   28  N3  UNL     1      25.639 -13.791  19.269  1.00  0.00    -0.234 N 
HETATM   29  N4  UNL     1      26.368 -13.006  17.188  1.00  0.00    -0.177 N 
ATOM     30  H32 UNL     1      25.089 -13.699  20.123  1.00  0.00     0.174 HD
ATOM     31  H31 UNL     1      26.142 -14.679  19.281  1.00  0.00     0.174 HD
HETATM   32  C11 UNL     1      26.174 -11.907  16.455  1.00  0.00     0.157 A 
ATOM     33  H4  UNL     1      26.961 -13.798  16.938  1.00  0.00     0.185 HD
HETATM   34  N5  UNL     1      26.671 -11.655  15.168  1.00  0.00    -0.080 NA
ENDBRANCH  21  24
ENDBRANCH  18  21
ENDBRANCH   1  18
TORSDOF 11
ENDMDL
