MODEL 1
REMARK VINA RESULT: -9.652647465      0.000      0.000
REMARK  10 active torsions:
REMARK  status: ('A' for Active; 'I' for Inactive)
REMARK    1  A    between atoms: C4_8  and  N4_9 
REMARK    2  A    between atoms: C5_14  and  N6_15 
REMARK    3  A    between atoms: N6_15  and  C6_17 
REMARK    4  A    between atoms: C6_17  and  C7_18 
REMARK    5  A    between atoms: C7_18  and  O1_19 
REMARK    6  A    between atoms: C7_18  and  C8_21 
REMARK    7  A    between atoms: C8_21  and  O2_22 
REMARK    8  A    between atoms: C8_21  and  C9_24 
REMARK    9  A    between atoms: C9_24  and  N7_25 
REMARK   10  A    between atoms: C11_29  and  N9_30 
ROOT
HETATM    1  N1  UNL     1      19.683  -8.643  13.009  1.00  0.00    -0.191 NA
HETATM    2  C1  UNL     1      20.361  -7.799  13.385  1.00  0.00     0.107 C 
HETATM    3  C2  UNL     1      21.216  -6.756  13.869  1.00  0.00     0.130 A 
HETATM    4  C3  UNL     1      20.847  -5.451  13.645  1.00  0.00     0.156 A 
HETATM    5  N2  UNL     1      19.649  -5.109  12.953  1.00  0.00    -0.080 NA
HETATM    6  N3  UNL     1      21.660  -4.480  14.105  1.00  0.00    -0.177 N 
ATOM      7  H3  UNL     1      21.411  -3.503  13.953  1.00  0.00     0.185 HD
HETATM    8  C4  UNL     1      22.793  -4.780  14.760  1.00  0.00     0.678 A 
HETATM    9  N5  UNL     1      23.145  -6.078  14.974  1.00  0.00    -0.176 N 
ATOM     10  H5  UNL     1      24.011  -6.282  15.474  1.00  0.00     0.186 HD
HETATM   11  C5  UNL     1      22.390  -7.087  14.547  1.00  0.00     0.141 A 
ENDROOT
BRANCH  11  12
HETATM   12  N6  UNL     1      22.650  -8.316  14.707  1.00  0.00    -0.372 N 
ATOM     13  H6  UNL     1      22.955  -8.818  13.873  1.00  0.00     0.161 HD
BRANCH  12  14
HETATM   14  C6  UNL     1      22.571  -9.088  15.907  1.00  0.00     0.155 C 
BRANCH  14  15
HETATM   15  C7  UNL     1      23.514  -8.590  16.982  1.00  0.00     0.166 C 
BRANCH  15  16
HETATM   16  O1  UNL     1      22.906  -8.777  18.209  1.00  0.00    -0.391 OA
ATOM     17  H1  UNL     1      23.167  -8.065  18.781  1.00  0.00     0.210 HD
ENDBRANCH  15  16
BRANCH  15  18
HETATM   18  C8  UNL     1      24.867  -9.207  16.862  1.00  0.00     0.166 C 
BRANCH  18  19
HETATM   19  O2  UNL     1      25.519  -9.074  18.093  1.00  0.00    -0.391 OA
ATOM     20  H2  UNL     1      26.455  -9.054  17.932  1.00  0.00     0.210 HD
ENDBRANCH  18  19
BRANCH  18  21
HETATM   21  C9  UNL     1      24.764 -10.695  16.592  1.00  0.00     0.165 C 
BRANCH  21  22
HETATM   22  N7  UNL     1      25.534 -11.060  15.404  1.00  0.00    -0.329 N 
HETATM   23  C10 UNL     1      25.826 -10.142  14.478  1.00  0.00     0.185 A 
HETATM   24  N8  UNL     1      26.527 -10.476  13.396  1.00  0.00    -0.339 N 
HETATM   25  C11 UNL     1      26.980 -11.710  13.150  1.00  0.00     0.102 A 
ATOM     26  H8  UNL     1      26.731  -9.746  12.713  1.00  0.00     0.168 HD
HETATM   27  C12 UNL     1      26.672 -12.668  14.123  1.00  0.00     0.093 A 
HETATM   28  C13 UNL     1      25.948 -12.315  15.238  1.00  0.00     0.122 A 
HETATM   29  N10 UNL     1      25.656 -13.315  16.198  1.00  0.00    -0.082 NA
BRANCH  25  30
HETATM   30  N9  UNL     1      27.658 -12.018  12.098  1.00  0.00    -0.385 N 
ATOM     31  H92 UNL     1      27.932 -11.309  11.418  1.00  0.00     0.157 HD
ATOM     32  H91 UNL     1      27.956 -12.970  11.882  1.00  0.00     0.157 HD
ENDBRANCH  25  30
ENDBRANCH  21  22
ENDBRANCH  18  21
ENDBRANCH  15  18
ENDBRANCH  14  15
ENDBRANCH  12  14
ENDBRANCH  11  12
BRANCH   8  33
HETATM   33  N4  UNL     1      23.560  -3.851  15.194  1.00  0.00    -0.234 N 
ATOM     34  H42 UNL     1      23.399  -2.893  14.882  1.00  0.00     0.174 HD
ATOM     35  H41 UNL     1      24.319  -4.064  15.841  1.00  0.00     0.174 HD
ENDBRANCH   8  33
TORSDOF 10
ENDMDL
MODEL 2
REMARK VINA RESULT: -9.085308923      1.278      7.376
REMARK  10 active torsions:
REMARK  status: ('A' for Active; 'I' for Inactive)
REMARK    1  A    between atoms: C4_8  and  N4_9 
REMARK    2  A    between atoms: C5_14  and  N6_15 
REMARK    3  A    between atoms: N6_15  and  C6_17 
REMARK    4  A    between atoms: C6_17  and  C7_18 
REMARK    5  A    between atoms: C7_18  and  O1_19 
REMARK    6  A    between atoms: C7_18  and  C8_21 
REMARK    7  A    between atoms: C8_21  and  O2_22 
REMARK    8  A    between atoms: C8_21  and  C9_24 
REMARK    9  A    between atoms: C9_24  and  N7_25 
REMARK   10  A    between atoms: C11_29  and  N9_30 
ROOT
HETATM    1  N1  UNL     1      26.090 -13.259  18.195  1.00  0.00    -0.191 NA
HETATM    2  C1  UNL     1      26.300 -12.914  17.123  1.00  0.00     0.107 C 
HETATM    3  C2  UNL     1      26.552 -12.464  15.786  1.00  0.00     0.130 A 
HETATM    4  C3  UNL     1      26.830 -13.405  14.823  1.00  0.00     0.156 A 
HETATM    5  N2  UNL     1      26.874 -14.800  15.112  1.00  0.00    -0.080 NA
HETATM    6  N3  UNL     1      27.066 -12.969  13.569  1.00  0.00    -0.177 N 
ATOM      7  H3  UNL     1      27.275 -13.644  12.834  1.00  0.00     0.185 HD
HETATM    8  C4  UNL     1      27.029 -11.660  13.274  1.00  0.00     0.678 A 
HETATM    9  N5  UNL     1      26.752 -10.741  14.240  1.00  0.00    -0.176 N 
ATOM     10  H5  UNL     1      26.730  -9.751  13.993  1.00  0.00     0.186 HD
HETATM   11  C5  UNL     1      26.510 -11.100  15.499  1.00  0.00     0.141 A 
ENDROOT
BRANCH  11  12
HETATM   12  N6  UNL     1      26.246 -10.306  16.449  1.00  0.00    -0.372 N 
ATOM     13  H6  UNL     1      26.705 -10.508  17.338  1.00  0.00     0.161 HD
BRANCH  12  14
HETATM   14  C6  UNL     1      25.387  -9.163  16.436  1.00  0.00     0.155 C 
BRANCH  14  15
HETATM   15  C7  UNL     1      24.040  -9.441  17.067  1.00  0.00     0.166 C 
BRANCH  15  16
HETATM   16  O1  UNL     1      24.218  -9.554  18.433  1.00  0.00    -0.391 OA
ATOM     17  H1  UNL     1      23.410  -9.879  18.812  1.00  0.00     0.210 HD
ENDBRANCH  15  16
BRANCH  15  18
HETATM   18  C8  UNL     1      23.018  -8.433  16.658  1.00  0.00     0.166 C 
BRANCH  18  19
HETATM   19  O2  UNL     1      22.783  -7.584  17.745  1.00  0.00    -0.391 OA
ATOM     20  H2  UNL     1      21.892  -7.260  17.681  1.00  0.00     0.210 HD
ENDBRANCH  18  19
BRANCH  18  21
HETATM   21  C9  UNL     1      23.538  -7.558  15.536  1.00  0.00     0.165 C 
BRANCH  21  22
HETATM   22  N7  UNL     1      22.432  -7.014  14.749  1.00  0.00    -0.329 N 
HETATM   23  C10 UNL     1      21.469  -7.816  14.289  1.00  0.00     0.185 A 
HETATM   24  N8  UNL     1      20.462  -7.319  13.573  1.00  0.00    -0.339 N 
HETATM   25  C11 UNL     1      20.333  -6.025  13.263  1.00  0.00     0.102 A 
ATOM     26  H8  UNL     1      19.745  -7.965  13.241  1.00  0.00     0.168 HD
HETATM   27  C12 UNL     1      21.344  -5.188  13.746  1.00  0.00     0.093 A 
HETATM   28  C13 UNL     1      22.381  -5.708  14.486  1.00  0.00     0.122 A 
HETATM   29  N10 UNL     1      23.385  -4.827  14.957  1.00  0.00    -0.082 NA
BRANCH  25  30
HETATM   30  N9  UNL     1      19.352  -5.558  12.568  1.00  0.00    -0.385 N 
ATOM     31  H92 UNL     1      18.492  -6.091  12.442  1.00  0.00     0.157 HD
ATOM     32  H91 UNL     1      19.374  -4.647  12.110  1.00  0.00     0.157 HD
ENDBRANCH  25  30
ENDBRANCH  21  22
ENDBRANCH  18  21
ENDBRANCH  15  18
ENDBRANCH  14  15
ENDBRANCH  12  14
ENDBRANCH  11  12
BRANCH   8  33
HETATM   33  N4  UNL     1      27.254 -11.255  12.081  1.00  0.00    -0.234 N 
ATOM     34  H42 UNL     1      26.986 -11.852  11.298  1.00  0.00     0.174 HD
ATOM     35  H41 UNL     1      27.693 -10.349  11.913  1.00  0.00     0.174 HD
ENDBRANCH   8  33
TORSDOF 10
ENDMDL
MODEL 3
REMARK VINA RESULT: -9.048518253      1.297      7.486
REMARK  10 active torsions:
REMARK  status: ('A' for Active; 'I' for Inactive)
REMARK    1  A    between atoms: C4_8  and  N4_9 
REMARK    2  A    between atoms: C5_14  and  N6_15 
REMARK    3  A    between atoms: N6_15  and  C6_17 
REMARK    4  A    between atoms: C6_17  and  C7_18 
REMARK    5  A    between atoms: C7_18  and  O1_19 
REMARK    6  A    between atoms: C7_18  and  C8_21 
REMARK    7  A    between atoms: C8_21  and  O2_22 
REMARK    8  A    between atoms: C8_21  and  C9_24 
REMARK    9  A    between atoms: C9_24  and  N7_25 
REMARK   10  A    between atoms: C11_29  and  N9_30 
ROOT
HETATM    1  N1  UNL     1      26.937 -11.725  12.126  1.00  0.00    -0.191 NA
HETATM    2  C1  UNL     1      26.786 -11.974  13.235  1.00  0.00     0.107 C 
HETATM    3  C2  UNL     1      26.598 -12.266  14.625  1.00  0.00     0.130 A 
HETATM    4  C3  UNL     1      26.980 -13.501  15.090  1.00  0.00     0.156 A 
HETATM    5  N2  UNL     1      27.553 -14.491  14.239  1.00  0.00    -0.080 NA
HETATM    6  N3  UNL     1      26.798 -13.762  16.400  1.00  0.00    -0.177 N 
ATOM      7  H3  UNL     1      27.071 -14.671  16.774  1.00  0.00     0.185 HD
HETATM    8  C4  UNL     1      26.261 -12.845  17.220  1.00  0.00     0.678 A 
HETATM    9  N5  UNL     1      25.887 -11.625  16.743  1.00  0.00    -0.176 N 
ATOM     10  H5  UNL     1      25.482 -10.944  17.384  1.00  0.00     0.186 HD
HETATM   11  C5  UNL     1      26.038 -11.300  15.461  1.00  0.00     0.141 A 
ENDROOT
BRANCH  11  12
HETATM   12  N6  UNL     1      25.716 -10.189  14.944  1.00  0.00    -0.372 N 
ATOM     13  H6  UNL     1      25.668 -10.170  13.926  1.00  0.00     0.161 HD
BRANCH  12  14
HETATM   14  C6  UNL     1      25.412  -8.959  15.607  1.00  0.00     0.155 C 
BRANCH  14  15
HETATM   15  C7  UNL     1      24.367  -9.125  16.689  1.00  0.00     0.166 C 
BRANCH  15  16
HETATM   16  O1  UNL     1      24.997  -9.028  17.916  1.00  0.00    -0.391 OA
ATOM     17  H1  UNL     1      24.330  -8.932  18.585  1.00  0.00     0.210 HD
ENDBRANCH  15  16
BRANCH  15  18
HETATM   18  C8  UNL     1      23.224  -8.183  16.505  1.00  0.00     0.166 C 
BRANCH  18  19
HETATM   19  O2  UNL     1      22.924  -7.612  17.746  1.00  0.00    -0.391 OA
ATOM     20  H2  UNL     1      21.981  -7.628  17.860  1.00  0.00     0.210 HD
ENDBRANCH  18  19
BRANCH  18  21
HETATM   21  C9  UNL     1      23.607  -7.037  15.589  1.00  0.00     0.165 C 
BRANCH  21  22
HETATM   22  N7  UNL     1      22.469  -6.629  14.768  1.00  0.00    -0.329 N 
HETATM   23  C10 UNL     1      21.585  -7.533  14.337  1.00  0.00     0.185 A 
HETATM   24  N8  UNL     1      20.549  -7.159  13.589  1.00  0.00    -0.339 N 
HETATM   25  C11 UNL     1      20.312  -5.897  13.217  1.00  0.00     0.102 A 
ATOM     26  H8  UNL     1      19.895  -7.880  13.282  1.00  0.00     0.168 HD
HETATM   27  C12 UNL     1      21.240  -4.953  13.670  1.00  0.00     0.093 A 
HETATM   28  C13 UNL     1      22.308  -5.347  14.442  1.00  0.00     0.122 A 
HETATM   29  N10 UNL     1      23.225  -4.360  14.881  1.00  0.00    -0.082 NA
BRANCH  25  30
HETATM   30  N9  UNL     1      19.304  -5.550  12.492  1.00  0.00    -0.385 N 
ATOM     31  H92 UNL     1      18.965  -6.146  11.736  1.00  0.00     0.157 HD
ATOM     32  H91 UNL     1      18.793  -4.677  12.624  1.00  0.00     0.157 HD
ENDBRANCH  25  30
ENDBRANCH  21  22
ENDBRANCH  18  21
ENDBRANCH  15  18
ENDBRANCH  14  15
ENDBRANCH  12  14
ENDBRANCH  11  12
BRANCH   8  33
HETATM   33  N4  UNL     1      26.091 -13.102  18.463  1.00  0.00    -0.234 N 
ATOM     34  H42 UNL     1      26.292 -14.042  18.804  1.00  0.00     0.174 HD
ATOM     35  H41 UNL     1      25.761 -12.378  19.102  1.00  0.00     0.174 HD
ENDBRANCH   8  33
TORSDOF 10
ENDMDL
MODEL 4
REMARK VINA RESULT: -8.929986749      1.260      6.998
REMARK  10 active torsions:
REMARK  status: ('A' for Active; 'I' for Inactive)
REMARK    1  A    between atoms: C4_8  and  N4_9 
REMARK    2  A    between atoms: C5_14  and  N6_15 
REMARK    3  A    between atoms: N6_15  and  C6_17 
REMARK    4  A    between atoms: C6_17  and  C7_18 
REMARK    5  A    between atoms: C7_18  and  O1_19 
REMARK    6  A    between atoms: C7_18  and  C8_21 
REMARK    7  A    between atoms: C8_21  and  O2_22 
REMARK    8  A    between atoms: C8_21  and  C9_24 
REMARK    9  A    between atoms: C9_24  and  N7_25 
REMARK   10  A    between atoms: C11_29  and  N9_30 
ROOT
HETATM    1  N1  UNL     1      24.947 -13.051  17.415  1.00  0.00    -0.191 NA
HETATM    2  C1  UNL     1      25.445 -12.811  16.411  1.00  0.00     0.107 C 
HETATM    3  C2  UNL     1      26.053 -12.496  15.153  1.00  0.00     0.130 A 
HETATM    4  C3  UNL     1      26.838 -13.450  14.551  1.00  0.00     0.156 A 
HETATM    5  N2  UNL     1      27.062 -14.730  15.136  1.00  0.00    -0.080 NA
HETATM    6  N3  UNL     1      27.404 -13.141  13.367  1.00  0.00    -0.177 N 
ATOM      7  H3  UNL     1      27.992 -13.829  12.897  1.00  0.00     0.185 HD
HETATM    8  C4  UNL     1      27.206 -11.942  12.797  1.00  0.00     0.678 A 
HETATM    9  N5  UNL     1      26.425 -11.008  13.407  1.00  0.00    -0.176 N 
ATOM     10  H5  UNL     1      26.289 -10.103  12.956  1.00  0.00     0.186 HD
HETATM   11  C5  UNL     1      25.836 -11.244  14.577  1.00  0.00     0.141 A 
ENDROOT
BRANCH  11  12
HETATM   12  N6  UNL     1      25.097 -10.428  15.204  1.00  0.00    -0.372 N 
ATOM     13  H6  UNL     1      24.119 -10.402  14.916  1.00  0.00     0.161 HD
BRANCH  12  14
HETATM   14  C6  UNL     1      25.460  -9.540  16.263  1.00  0.00     0.155 C 
BRANCH  14  15
HETATM   15  C7  UNL     1      24.365  -9.390  17.297  1.00  0.00     0.166 C 
BRANCH  15  16
HETATM   16  O1  UNL     1      24.949  -9.023  18.495  1.00  0.00    -0.391 OA
ATOM     17  H1  UNL     1      24.924  -9.772  19.078  1.00  0.00     0.210 HD
ENDBRANCH  15  16
BRANCH  15  18
HETATM   18  C8  UNL     1      23.284  -8.473  16.830  1.00  0.00     0.166 C 
BRANCH  18  19
HETATM   19  O2  UNL     1      22.995  -7.576  17.864  1.00  0.00    -0.391 OA
ATOM     20  H2  UNL     1      22.135  -7.787  18.208  1.00  0.00     0.210 HD
ENDBRANCH  18  19
BRANCH  18  21
HETATM   21  C9  UNL     1      23.752  -7.635  15.656  1.00  0.00     0.165 C 
BRANCH  21  22
HETATM   22  N7  UNL     1      22.621  -7.247  14.814  1.00  0.00    -0.329 N 
HETATM   23  C10 UNL     1      22.284  -5.962  14.683  1.00  0.00     0.185 A 
HETATM   24  N8  UNL     1      21.254  -5.610  13.916  1.00  0.00    -0.339 N 
HETATM   25  C11 UNL     1      20.496  -6.478  13.238  1.00  0.00     0.102 A 
ATOM     26  H8  UNL     1      21.029  -4.618  13.841  1.00  0.00     0.168 HD
HETATM   27  C12 UNL     1      20.852  -7.824  13.378  1.00  0.00     0.093 A 
HETATM   28  C13 UNL     1      21.918  -8.180  14.172  1.00  0.00     0.122 A 
HETATM   29  N10 UNL     1      22.246  -9.553  14.288  1.00  0.00    -0.082 NA
BRANCH  25  30
HETATM   30  N9  UNL     1      19.501  -6.123  12.499  1.00  0.00    -0.385 N 
ATOM     31  H92 UNL     1      18.758  -5.526  12.863  1.00  0.00     0.157 HD
ATOM     32  H91 UNL     1      19.395  -6.410  11.526  1.00  0.00     0.157 HD
ENDBRANCH  25  30
ENDBRANCH  21  22
ENDBRANCH  18  21
ENDBRANCH  15  18
ENDBRANCH  14  15
ENDBRANCH  12  14
ENDBRANCH  11  12
BRANCH   8  33
HETATM   33  N4  UNL     1      27.748 -11.657  11.673  1.00  0.00    -0.234 N 
ATOM     34  H42 UNL     1      28.370 -12.339  11.239  1.00  0.00     0.174 HD
ATOM     35  H41 UNL     1      27.560 -10.764  11.217  1.00  0.00     0.174 HD
ENDBRANCH   8  33
TORSDOF 10
ENDMDL
MODEL 5
REMARK VINA RESULT: -8.696577369      1.316      1.996
REMARK  10 active torsions:
REMARK  status: ('A' for Active; 'I' for Inactive)
REMARK    1  A    between atoms: C4_8  and  N4_9 
REMARK    2  A    between atoms: C5_14  and  N6_15 
REMARK    3  A    between atoms: N6_15  and  C6_17 
REMARK    4  A    between atoms: C6_17  and  C7_18 
REMARK    5  A    between atoms: C7_18  and  O1_19 
REMARK    6  A    between atoms: C7_18  and  C8_21 
REMARK    7  A    between atoms: C8_21  and  O2_22 
REMARK    8  A    between atoms: C8_21  and  C9_24 
REMARK    9  A    between atoms: C9_24  and  N7_25 
REMARK   10  A    between atoms: C11_29  and  N9_30 
ROOT
HETATM    1  N1  UNL     1      21.525  -9.836  13.848  1.00  0.00    -0.191 NA
HETATM    2  C1  UNL     1      21.846  -8.754  14.053  1.00  0.00     0.107 C 
HETATM    3  C2  UNL     1      22.259  -7.410  14.326  1.00  0.00     0.130 A 
HETATM    4  C3  UNL     1      21.456  -6.381  13.896  1.00  0.00     0.156 A 
HETATM    5  N2  UNL     1      20.236  -6.610  13.195  1.00  0.00    -0.080 NA
HETATM    6  N3  UNL     1      21.856  -5.121  14.159  1.00  0.00    -0.177 N 
ATOM      7  H3  UNL     1      21.280  -4.337  13.852  1.00  0.00     0.185 HD
HETATM    8  C4  UNL     1      23.000  -4.881  14.818  1.00  0.00     0.678 A 
HETATM    9  N5  UNL     1      23.785  -5.912  15.237  1.00  0.00    -0.176 N 
ATOM     10  H5  UNL     1      24.650  -5.707  15.737  1.00  0.00     0.186 HD
HETATM   11  C5  UNL     1      23.452  -7.181  15.012  1.00  0.00     0.141 A 
ENDROOT
BRANCH  11  12
HETATM   12  N6  UNL     1      24.128  -8.191  15.370  1.00  0.00    -0.372 N 
ATOM     13  H6  UNL     1      24.913  -8.437  14.767  1.00  0.00     0.161 HD
BRANCH  12  14
HETATM   14  C6  UNL     1      23.930  -9.029  16.511  1.00  0.00     0.155 C 
BRANCH  14  15
HETATM   15  C7  UNL     1      25.235  -9.486  17.129  1.00  0.00     0.166 C 
BRANCH  15  16
HETATM   16  O1  UNL     1      25.298  -8.993  18.418  1.00  0.00    -0.391 OA
ATOM     17  H1  UNL     1      24.437  -8.667  18.653  1.00  0.00     0.210 HD
ENDBRANCH  15  16
BRANCH  15  18
HETATM   18  C8  UNL     1      25.410 -10.965  17.023  1.00  0.00     0.166 C 
BRANCH  18  19
HETATM   19  O2  UNL     1      24.702 -11.564  18.071  1.00  0.00    -0.391 OA
ATOM     20  H2  UNL     1      23.791 -11.303  18.001  1.00  0.00     0.210 HD
ENDBRANCH  18  19
BRANCH  18  21
HETATM   21  C9  UNL     1      24.801 -11.493  15.739  1.00  0.00     0.165 C 
BRANCH  21  22
HETATM   22  N7  UNL     1      25.818 -12.143  14.914  1.00  0.00    -0.329 N 
HETATM   23  C10 UNL     1      26.304 -13.339  15.254  1.00  0.00     0.185 A 
HETATM   24  N8  UNL     1      27.230 -13.929  14.501  1.00  0.00    -0.339 N 
HETATM   25  C11 UNL     1      27.737 -13.397  13.384  1.00  0.00     0.102 A 
ATOM     26  H8  UNL     1      27.575 -14.844  14.794  1.00  0.00     0.168 HD
HETATM   27  C12 UNL     1      27.225 -12.143  13.031  1.00  0.00     0.093 A 
HETATM   28  C13 UNL     1      26.268 -11.540  13.814  1.00  0.00     0.122 A 
HETATM   29  N10 UNL     1      25.775 -10.271  13.422  1.00  0.00    -0.082 NA
BRANCH  25  30
HETATM   30  N9  UNL     1      28.634 -13.980  12.665  1.00  0.00    -0.385 N 
ATOM     31  H92 UNL     1      28.852 -14.968  12.791  1.00  0.00     0.157 HD
ATOM     32  H91 UNL     1      29.171 -13.501  11.943  1.00  0.00     0.157 HD
ENDBRANCH  25  30
ENDBRANCH  21  22
ENDBRANCH  18  21
ENDBRANCH  15  18
ENDBRANCH  14  15
ENDBRANCH  12  14
ENDBRANCH  11  12
BRANCH   8  33
HETATM   33  N4  UNL     1      23.372  -3.681  15.063  1.00  0.00    -0.234 N 
ATOM     34  H42 UNL     1      22.688  -2.928  14.991  1.00  0.00     0.174 HD
ATOM     35  H41 UNL     1      24.337  -3.480  15.328  1.00  0.00     0.174 HD
ENDBRANCH   8  33
TORSDOF 10
ENDMDL
