MODEL 1
REMARK VINA RESULT: -9.015369700      0.000      0.000
REMARK  9 active torsions:
REMARK  status: ('A' for Active; 'I' for Inactive)
REMARK    1  A    between atoms: C2_2  and  N1_3 
REMARK    2  A    between atoms: C2_2  and  N8_29 
REMARK    3  A    between atoms: N1_3  and  C3_6 
REMARK    4  A    between atoms: C3_6  and  C4_7 
REMARK    5  A    between atoms: C3_6  and  C5_9 
REMARK    6  A    between atoms: C7_13  and  N3_14 
REMARK    7  A    between atoms: N3_14  and  N4_16 
REMARK    8  A    between atoms: C8_21  and  N6_22 
REMARK    9  A    between atoms: C10_32  and  N10_33 
ROOT
HETATM    1  C5  UNL     1      23.733  -9.215  15.859  1.00  0.00     0.164 A 
HETATM    2  N2  UNL     1      24.108  -7.929  15.778  1.00  0.00    -0.331 N 
ATOM      3  H2  UNL     1      24.978  -7.546  16.149  1.00  0.00     0.168 HD
HETATM    4  C6  UNL     1      23.158  -7.216  15.128  1.00  0.00     0.133 A 
HETATM    5  C7  UNL     1      22.978  -5.912  14.755  1.00  0.00     0.166 A 
HETATM    6  N5  UNL     1      21.888  -5.475  14.091  1.00  0.00    -0.173 N 
ATOM      7  H5  UNL     1      21.783  -4.496  13.826  1.00  0.00     0.186 HD
HETATM    8  C8  UNL     1      20.946  -6.390  13.795  1.00  0.00     0.679 A 
HETATM    9  N7  UNL     1      21.094  -7.677  14.149  1.00  0.00    -0.168 N 
ATOM     10  H7  UNL     1      20.355  -8.336  13.905  1.00  0.00     0.186 HD
HETATM   11  C9  UNL     1      22.179  -8.140  14.816  1.00  0.00     0.195 A 
HETATM   12  O2  UNL     1      22.567  -9.304  15.269  1.00  0.00    -0.275 OA
ENDROOT
BRANCH   1  13
HETATM   13  C3  UNL     1      24.528 -10.324  16.516  1.00  0.00     0.323 C 
BRANCH  13  14
HETATM   14  N1  UNL     1      25.786 -10.502  15.894  1.00  0.00    -0.035 N 
ATOM     15  H12 UNL     1      26.378 -11.144  16.421  1.00  0.00     0.281 HD
ATOM     16  H11 UNL     1      26.363  -9.664  15.967  1.00  0.00     0.281 HD
BRANCH  14  17
HETATM   17  C2  UNL     1      25.632 -10.922  14.532  1.00  0.00     0.309 C 
HETATM   18  C1  UNL     1      26.198  -9.888  13.565  1.00  0.00     0.065 C 
BRANCH  17  19
HETATM   19  N8  UNL     1      26.410 -12.153  14.298  1.00  0.00    -0.196 N 
HETATM   20  N9  UNL     1      27.273 -12.377  13.321  1.00  0.00    -0.124 N 
HETATM   21  C10 UNL     1      27.767 -13.630  13.477  1.00  0.00     0.694 A 
ATOM     22  H9  UNL     1      27.523 -11.722  12.580  1.00  0.00     0.206 HD
HETATM   23  N11 UNL     1      27.204 -14.186  14.563  1.00  0.00    -0.139 N 
HETATM   24  C11 UNL     1      26.366 -13.240  15.051  1.00  0.00     0.357 A 
ATOM     25  H11 UNL     1      27.372 -15.119  14.939  1.00  0.00     0.189 HD
HETATM   26  O3  UNL     1      25.642 -13.378  16.079  1.00  0.00    -0.244 OA
BRANCH  21  27
HETATM   27  N10 UNL     1      28.632 -14.157  12.690  1.00  0.00    -0.233 N 
ATOM     28 2H10 UNL     1      29.644 -14.197  12.816  1.00  0.00     0.174 HD
ATOM     29 1H10 UNL     1      28.392 -14.616  11.810  1.00  0.00     0.174 HD
ENDBRANCH  21  27
ENDBRANCH  17  19
ENDBRANCH  14  17
ENDBRANCH  13  14
BRANCH  13  30
HETATM   30  C4  UNL     1      24.529 -10.160  17.975  1.00  0.00     0.272 C 
HETATM   31  O1  UNL     1      23.964  -9.262  18.522  1.00  0.00    -0.304 OA
ENDBRANCH  13  30
ENDBRANCH   1  13
BRANCH   5  32
HETATM   32  N3  UNL     1      23.913  -5.073  15.061  1.00  0.00    -0.290 N 
ATOM     33  H3  UNL     1      24.834  -5.433  15.309  1.00  0.00     0.188 HD
BRANCH  32  34
HETATM   34  N4  UNL     1      23.707  -3.701  15.063  1.00  0.00    -0.344 N 
ATOM     35  H42 UNL     1      23.479  -3.253  14.175  1.00  0.00     0.176 HD
ATOM     36  H41 UNL     1      23.777  -3.140  15.912  1.00  0.00     0.176 HD
ENDBRANCH  32  34
ENDBRANCH   5  32
BRANCH   8  37
HETATM   37  N6  UNL     1      19.878  -5.989  13.153  1.00  0.00    -0.234 N 
ATOM     38  H62 UNL     1      19.910  -5.801  12.151  1.00  0.00     0.174 HD
ATOM     39  H61 UNL     1      19.016  -5.871  13.684  1.00  0.00     0.174 HD
ENDBRANCH   8  37
TORSDOF 9
ENDMDL
MODEL 2
REMARK VINA RESULT: -8.861704018      1.165      1.574
REMARK  9 active torsions:
REMARK  status: ('A' for Active; 'I' for Inactive)
REMARK    1  A    between atoms: C2_2  and  N1_3 
REMARK    2  A    between atoms: C2_2  and  N8_29 
REMARK    3  A    between atoms: N1_3  and  C3_6 
REMARK    4  A    between atoms: C3_6  and  C4_7 
REMARK    5  A    between atoms: C3_6  and  C5_9 
REMARK    6  A    between atoms: C7_13  and  N3_14 
REMARK    7  A    between atoms: N3_14  and  N4_16 
REMARK    8  A    between atoms: C8_21  and  N6_22 
REMARK    9  A    between atoms: C10_32  and  N10_33 
ROOT
HETATM    1  C5  UNL     1      23.396  -9.038  15.754  1.00  0.00     0.164 A 
HETATM    2  N2  UNL     1      23.874  -7.789  15.639  1.00  0.00    -0.331 N 
ATOM      3  H2  UNL     1      24.787  -7.477  15.969  1.00  0.00     0.168 HD
HETATM    4  C6  UNL     1      22.961  -7.006  15.017  1.00  0.00     0.133 A 
HETATM    5  C7  UNL     1      22.875  -5.696  14.632  1.00  0.00     0.166 A 
HETATM    6  N5  UNL     1      21.800  -5.176  14.007  1.00  0.00    -0.173 N 
ATOM      7  H5  UNL     1      21.766  -4.195  13.731  1.00  0.00     0.186 HD
HETATM    8  C8  UNL     1      20.772  -6.012  13.763  1.00  0.00     0.679 A 
HETATM    9  N7  UNL     1      20.827  -7.302  14.130  1.00  0.00    -0.168 N 
ATOM     10  H7  UNL     1      20.026  -7.900  13.926  1.00  0.00     0.186 HD
HETATM   11  C9  UNL     1      21.896  -7.847  14.759  1.00  0.00     0.195 A 
HETATM   12  O2  UNL     1      22.204  -9.035  15.213  1.00  0.00    -0.275 OA
ENDROOT
BRANCH   1  13
HETATM   13  C3  UNL     1      24.122 -10.203  16.395  1.00  0.00     0.323 C 
BRANCH  13  14
HETATM   14  N1  UNL     1      24.595 -11.119  15.426  1.00  0.00    -0.035 N 
ATOM     15  H12 UNL     1      24.574 -10.718  14.488  1.00  0.00     0.281 HD
ATOM     16  H11 UNL     1      23.938 -11.886  15.282  1.00  0.00     0.281 HD
BRANCH  14  17
HETATM   17  C2  UNL     1      25.903 -11.599  15.767  1.00  0.00     0.309 C 
HETATM   18  C1  UNL     1      25.824 -12.830  16.664  1.00  0.00     0.065 C 
BRANCH  17  19
HETATM   19  N8  UNL     1      26.606 -12.039  14.549  1.00  0.00    -0.196 N 
HETATM   20  N9  UNL     1      27.274 -13.168  14.377  1.00  0.00    -0.124 N 
HETATM   21  C10 UNL     1      27.762 -13.179  13.112  1.00  0.00     0.694 A 
ATOM     22  H9  UNL     1      27.400 -13.902  15.074  1.00  0.00     0.206 HD
HETATM   23  N11 UNL     1      27.391 -12.045  12.495  1.00  0.00    -0.139 N 
HETATM   24  C11 UNL     1      26.672 -11.358  13.416  1.00  0.00     0.357 A 
ATOM     25  H11 UNL     1      27.604 -11.761  11.538  1.00  0.00     0.189 HD
HETATM   26  O3  UNL     1      26.143 -10.227  13.221  1.00  0.00    -0.244 OA
BRANCH  21  27
HETATM   27  N10 UNL     1      28.459 -14.139  12.626  1.00  0.00    -0.233 N 
ATOM     28 2H10 UNL     1      28.689 -15.027  13.073  1.00  0.00     0.174 HD
ATOM     29 1H10 UNL     1      28.881 -14.119  11.697  1.00  0.00     0.174 HD
ENDBRANCH  21  27
ENDBRANCH  17  19
ENDBRANCH  14  17
ENDBRANCH  13  14
BRANCH  13  30
HETATM   30  C4  UNL     1      25.099  -9.720  17.379  1.00  0.00     0.272 C 
HETATM   31  O1  UNL     1      24.834  -8.888  18.194  1.00  0.00    -0.304 OA
ENDBRANCH  13  30
ENDBRANCH   1  13
BRANCH   5  32
HETATM   32  N3  UNL     1      23.889  -4.935  14.888  1.00  0.00    -0.290 N 
ATOM     33  H3  UNL     1      24.818  -5.354  14.936  1.00  0.00     0.188 HD
BRANCH  32  34
HETATM   34  N4  UNL     1      23.758  -3.570  15.098  1.00  0.00    -0.344 N 
ATOM     35  H42 UNL     1      23.597  -2.977  14.285  1.00  0.00     0.176 HD
ATOM     36  H41 UNL     1      23.818  -3.153  16.027  1.00  0.00     0.176 HD
ENDBRANCH  32  34
ENDBRANCH   5  32
BRANCH   8  37
HETATM   37  N6  UNL     1      19.716  -5.529  13.158  1.00  0.00    -0.234 N 
ATOM     38  H62 UNL     1      19.718  -5.368  12.151  1.00  0.00     0.174 HD
ATOM     39  H61 UNL     1      18.894  -5.321  13.724  1.00  0.00     0.174 HD
ENDBRANCH   8  37
TORSDOF 9
ENDMDL
MODEL 3
REMARK VINA RESULT: -8.511009567      0.890      2.067
REMARK  9 active torsions:
REMARK  status: ('A' for Active; 'I' for Inactive)
REMARK    1  A    between atoms: C2_2  and  N1_3 
REMARK    2  A    between atoms: C2_2  and  N8_29 
REMARK    3  A    between atoms: N1_3  and  C3_6 
REMARK    4  A    between atoms: C3_6  and  C4_7 
REMARK    5  A    between atoms: C3_6  and  C5_9 
REMARK    6  A    between atoms: C7_13  and  N3_14 
REMARK    7  A    between atoms: N3_14  and  N4_16 
REMARK    8  A    between atoms: C8_21  and  N6_22 
REMARK    9  A    between atoms: C10_32  and  N10_33 
ROOT
HETATM    1  C5  UNL     1      24.009  -9.254  15.876  1.00  0.00     0.164 A 
HETATM    2  N2  UNL     1      22.807  -9.113  15.294  1.00  0.00    -0.331 N 
ATOM      3  H2  UNL     1      22.148  -9.871  15.115  1.00  0.00     0.168 HD
HETATM    4  C6  UNL     1      22.602  -7.812  14.979  1.00  0.00     0.133 A 
HETATM    5  C7  UNL     1      21.607  -7.079  14.392  1.00  0.00     0.166 A 
HETATM    6  N5  UNL     1      21.682  -5.746  14.202  1.00  0.00    -0.173 N 
ATOM      7  H5  UNL     1      20.924  -5.226  13.761  1.00  0.00     0.186 HD
HETATM    8  C8  UNL     1      22.805  -5.133  14.622  1.00  0.00     0.679 A 
HETATM    9  N7  UNL     1      23.798  -5.826  15.202  1.00  0.00    -0.168 N 
ATOM     10  H7  UNL     1      24.631  -5.321  15.504  1.00  0.00     0.186 HD
HETATM   11  C9  UNL     1      23.746  -7.165  15.403  1.00  0.00     0.195 A 
HETATM   12  O2  UNL     1      24.544  -8.060  15.925  1.00  0.00    -0.275 OA
ENDROOT
BRANCH   1  13
HETATM   13  C3  UNL     1      24.601 -10.558  16.369  1.00  0.00     0.323 C 
BRANCH  13  14
HETATM   14  N1  UNL     1      25.898 -10.772  15.848  1.00  0.00    -0.035 N 
ATOM     15  H12 UNL     1      26.405 -11.480  16.380  1.00  0.00     0.281 HD
ATOM     16  H11 UNL     1      26.511  -9.976  16.026  1.00  0.00     0.281 HD
BRANCH  14  17
HETATM   17  C2  UNL     1      25.845 -11.097  14.452  1.00  0.00     0.309 C 
HETATM   18  C1  UNL     1      26.506 -10.015  13.606  1.00  0.00     0.065 C 
BRANCH  17  19
HETATM   19  N8  UNL     1      26.615 -12.328  14.196  1.00  0.00    -0.196 N 
HETATM   20  N9  UNL     1      27.466 -12.545  13.208  1.00  0.00    -0.124 N 
HETATM   21  C10 UNL     1      27.957 -13.802  13.345  1.00  0.00     0.694 A 
ATOM     22  H9  UNL     1      27.712 -11.883  12.472  1.00  0.00     0.206 HD
HETATM   23  N11 UNL     1      27.403 -14.367  14.431  1.00  0.00    -0.139 N 
HETATM   24  C11 UNL     1      26.573 -13.423  14.938  1.00  0.00     0.357 A 
ATOM     25  H11 UNL     1      27.570 -15.305  14.795  1.00  0.00     0.189 HD
HETATM   26  O3  UNL     1      25.860 -13.570  15.971  1.00  0.00    -0.244 OA
BRANCH  21  27
HETATM   27  N10 UNL     1      28.811 -14.324  12.544  1.00  0.00    -0.233 N 
ATOM     28 2H10 UNL     1      29.519 -15.026  12.762  1.00  0.00     0.174 HD
ATOM     29 1H10 UNL     1      28.880 -14.084  11.554  1.00  0.00     0.174 HD
ENDBRANCH  21  27
ENDBRANCH  17  19
ENDBRANCH  14  17
ENDBRANCH  13  14
BRANCH  13  30
HETATM   30  C4  UNL     1      24.446 -10.674  17.824  1.00  0.00     0.272 C 
HETATM   31  O1  UNL     1      24.410  -9.723  18.546  1.00  0.00    -0.304 OA
ENDBRANCH  13  30
ENDBRANCH   1  13
BRANCH   5  32
HETATM   32  N3  UNL     1      20.549  -7.715  14.008  1.00  0.00    -0.290 N 
ATOM     33  H3  UNL     1      19.911  -8.080  14.716  1.00  0.00     0.188 HD
BRANCH  32  34
HETATM   34  N4  UNL     1      20.250  -7.919  12.668  1.00  0.00    -0.344 N 
ATOM     35  H42 UNL     1      20.751  -7.358  11.979  1.00  0.00     0.176 HD
ATOM     36  H41 UNL     1      19.557  -8.602  12.362  1.00  0.00     0.176 HD
ENDBRANCH  32  34
ENDBRANCH   5  32
BRANCH   8  37
HETATM   37  N6  UNL     1      22.901  -3.839  14.447  1.00  0.00    -0.234 N 
ATOM     38  H62 UNL     1      22.084  -3.236  14.538  1.00  0.00     0.174 HD
ATOM     39  H61 UNL     1      23.817  -3.453  14.220  1.00  0.00     0.174 HD
ENDBRANCH   8  37
TORSDOF 9
ENDMDL
MODEL 4
REMARK VINA RESULT: -8.310421907      1.639      7.419
REMARK  9 active torsions:
REMARK  status: ('A' for Active; 'I' for Inactive)
REMARK    1  A    between atoms: C2_2  and  N1_3 
REMARK    2  A    between atoms: C2_2  and  N8_29 
REMARK    3  A    between atoms: N1_3  and  C3_6 
REMARK    4  A    between atoms: C3_6  and  C4_7 
REMARK    5  A    between atoms: C3_6  and  C5_9 
REMARK    6  A    between atoms: C7_13  and  N3_14 
REMARK    7  A    between atoms: N3_14  and  N4_16 
REMARK    8  A    between atoms: C8_21  and  N6_22 
REMARK    9  A    between atoms: C10_32  and  N10_33 
ROOT
HETATM    1  C5  UNL     1      24.938  -9.520  15.856  1.00  0.00     0.164 A 
HETATM    2  N2  UNL     1      25.188 -10.449  16.793  1.00  0.00    -0.331 N 
ATOM      3  H2  UNL     1      24.947 -10.366  17.781  1.00  0.00     0.168 HD
HETATM    4  C6  UNL     1      25.806 -11.513  16.229  1.00  0.00     0.133 A 
HETATM    5  C7  UNL     1      26.292 -12.719  16.655  1.00  0.00     0.166 A 
HETATM    6  N5  UNL     1      26.881 -13.612  15.835  1.00  0.00    -0.173 N 
ATOM      7  H5  UNL     1      27.234 -14.504  16.182  1.00  0.00     0.186 HD
HETATM    8  C8  UNL     1      26.983 -13.273  14.536  1.00  0.00     0.679 A 
HETATM    9  N7  UNL     1      26.516 -12.096  14.088  1.00  0.00    -0.168 N 
ATOM     10  H7  UNL     1      26.615 -11.880  13.096  1.00  0.00     0.186 HD
HETATM   11  C9  UNL     1      25.921 -11.183  14.892  1.00  0.00     0.195 A 
HETATM   12  O2  UNL     1      25.393  -9.998  14.725  1.00  0.00    -0.275 OA
ENDROOT
BRANCH   1  13
HETATM   13  C3  UNL     1      24.260  -8.187  16.096  1.00  0.00     0.323 C 
BRANCH  13  14
HETATM   14  N1  UNL     1      23.847  -7.587  14.884  1.00  0.00    -0.035 N 
ATOM     15  H12 UNL     1      23.429  -8.268  14.250  1.00  0.00     0.281 HD
ATOM     16  H11 UNL     1      24.644  -7.309  14.311  1.00  0.00     0.281 HD
BRANCH  14  17
HETATM   17  C2  UNL     1      22.964  -6.484  15.132  1.00  0.00     0.309 C 
HETATM   18  C1  UNL     1      23.636  -5.153  14.811  1.00  0.00     0.065 C 
BRANCH  17  19
HETATM   19  N8  UNL     1      21.797  -6.568  14.234  1.00  0.00    -0.196 N 
HETATM   20  N9  UNL     1      21.148  -5.560  13.674  1.00  0.00    -0.124 N 
HETATM   21  C10 UNL     1      20.144  -6.075  12.921  1.00  0.00     0.694 A 
ATOM     22  H9  UNL     1      21.365  -4.570  13.788  1.00  0.00     0.206 HD
HETATM   23  N11 UNL     1      20.174  -7.414  13.016  1.00  0.00    -0.139 N 
HETATM   24  C11 UNL     1      21.215  -7.688  13.840  1.00  0.00     0.357 A 
ATOM     25  H11 UNL     1      19.548  -8.082  12.566  1.00  0.00     0.189 HD
HETATM   26  O3  UNL     1      21.576  -8.850  14.184  1.00  0.00    -0.244 OA
BRANCH  21  27
HETATM   27  N10 UNL     1      19.324  -5.359  12.244  1.00  0.00    -0.233 N 
ATOM     28 2H10 UNL     1      19.193  -4.348  12.295  1.00  0.00     0.174 HD
ATOM     29 1H10 UNL     1      18.683  -5.739  11.547  1.00  0.00     0.174 HD
ENDBRANCH  21  27
ENDBRANCH  17  19
ENDBRANCH  14  17
ENDBRANCH  13  14
BRANCH  13  30
HETATM   30  C4  UNL     1      23.247  -8.310  17.152  1.00  0.00     0.272 C 
HETATM   31  O1  UNL     1      23.504  -8.712  18.247  1.00  0.00    -0.304 OA
ENDBRANCH  13  30
ENDBRANCH   1  13
BRANCH   5  32
HETATM   32  N3  UNL     1      26.167 -12.998  17.911  1.00  0.00    -0.290 N 
ATOM     33  H3  UNL     1      25.270 -12.827  18.366  1.00  0.00     0.188 HD
BRANCH  32  34
HETATM   34  N4  UNL     1      27.210 -13.521  18.662  1.00  0.00    -0.344 N 
ATOM     35  H42 UNL     1      27.656 -12.912  19.347  1.00  0.00     0.176 HD
ATOM     36  H41 UNL     1      27.535 -14.481  18.549  1.00  0.00     0.176 HD
ENDBRANCH  32  34
ENDBRANCH   5  32
BRANCH   8  37
HETATM   37  N6  UNL     1      27.554 -14.124  13.720  1.00  0.00    -0.234 N 
ATOM     38  H62 UNL     1      28.535 -14.377  13.831  1.00  0.00     0.174 HD
ATOM     39  H61 UNL     1      26.987 -14.525  12.974  1.00  0.00     0.174 HD
ENDBRANCH   8  37
TORSDOF 9
ENDMDL
MODEL 5
REMARK VINA RESULT: -8.251120647      2.038      2.558
REMARK  9 active torsions:
REMARK  status: ('A' for Active; 'I' for Inactive)
REMARK    1  A    between atoms: C2_2  and  N1_3 
REMARK    2  A    between atoms: C2_2  and  N8_29 
REMARK    3  A    between atoms: N1_3  and  C3_6 
REMARK    4  A    between atoms: C3_6  and  C4_7 
REMARK    5  A    between atoms: C3_6  and  C5_9 
REMARK    6  A    between atoms: C7_13  and  N3_14 
REMARK    7  A    between atoms: N3_14  and  N4_16 
REMARK    8  A    between atoms: C8_21  and  N6_22 
REMARK    9  A    between atoms: C10_32  and  N10_33 
ROOT
HETATM    1  C5  UNL     1      23.444  -9.138  16.120  1.00  0.00     0.164 A 
HETATM    2  N2  UNL     1      23.900  -7.888  15.944  1.00  0.00    -0.331 N 
ATOM      3  H2  UNL     1      24.784  -7.529  16.307  1.00  0.00     0.168 HD
HETATM    4  C6  UNL     1      23.012  -7.176  15.212  1.00  0.00     0.133 A 
HETATM    5  C7  UNL     1      22.922  -5.900  14.727  1.00  0.00     0.166 A 
HETATM    6  N5  UNL     1      21.878  -5.455  14.000  1.00  0.00    -0.173 N 
ATOM      7  H5  UNL     1      21.840  -4.497  13.652  1.00  0.00     0.186 HD
HETATM    8  C8  UNL     1      20.887  -6.333  13.754  1.00  0.00     0.679 A 
HETATM    9  N7  UNL     1      20.947  -7.592  14.217  1.00  0.00    -0.168 N 
ATOM     10  H7  UNL     1      20.174  -8.224  14.007  1.00  0.00     0.186 HD
HETATM   11  C9  UNL     1      21.985  -8.062  14.949  1.00  0.00     0.195 A 
HETATM   12  O2  UNL     1      22.289  -9.206  15.507  1.00  0.00    -0.275 OA
ENDROOT
BRANCH   1  13
HETATM   13  C3  UNL     1      24.153 -10.235  16.888  1.00  0.00     0.323 C 
BRANCH  13  14
HETATM   14  N1  UNL     1      25.156 -10.854  16.105  1.00  0.00    -0.035 N 
ATOM     15  H12 UNL     1      26.090 -10.555  16.385  1.00  0.00     0.281 HD
ATOM     16  H11 UNL     1      25.159 -10.500  15.149  1.00  0.00     0.281 HD
BRANCH  14  17
HETATM   17  C2  UNL     1      25.025 -12.282  16.140  1.00  0.00     0.309 C 
HETATM   18  C1  UNL     1      25.692 -12.929  14.931  1.00  0.00     0.065 C 
BRANCH  17  19
HETATM   19  N8  UNL     1      25.731 -12.820  17.318  1.00  0.00    -0.196 N 
HETATM   20  N9  UNL     1      27.036 -12.968  17.466  1.00  0.00    -0.124 N 
HETATM   21  C10 UNL     1      27.263 -13.491  18.697  1.00  0.00     0.694 A 
ATOM     22  H9  UNL     1      27.749 -12.732  16.775  1.00  0.00     0.206 HD
HETATM   23  N11 UNL     1      26.083 -13.665  19.316  1.00  0.00    -0.139 N 
HETATM   24  C11 UNL     1      25.151 -13.237  18.431  1.00  0.00     0.357 A 
ATOM     25  H11 UNL     1      25.924 -14.040  20.252  1.00  0.00     0.189 HD
HETATM   26  O3  UNL     1      23.904 -13.239  18.640  1.00  0.00    -0.244 OA
BRANCH  21  27
HETATM   27  N10 UNL     1      28.431 -13.757  19.153  1.00  0.00    -0.233 N 
ATOM     28 2H10 UNL     1      29.328 -13.438  18.788  1.00  0.00     0.174 HD
ATOM     29 1H10 UNL     1      28.599 -14.346  19.970  1.00  0.00     0.174 HD
ENDBRANCH  21  27
ENDBRANCH  17  19
ENDBRANCH  14  17
ENDBRANCH  13  14
BRANCH  13  30
HETATM   30  C4  UNL     1      24.555  -9.754  18.216  1.00  0.00     0.272 C 
HETATM   31  O1  UNL     1      25.320  -8.849  18.369  1.00  0.00    -0.304 OA
ENDBRANCH  13  30
ENDBRANCH   1  13
BRANCH   5  32
HETATM   32  N3  UNL     1      23.901  -5.096  14.990  1.00  0.00    -0.290 N 
ATOM     33  H3  UNL     1      24.826  -5.489  15.164  1.00  0.00     0.188 HD
BRANCH  32  34
HETATM   34  N4  UNL     1      23.736  -3.720  15.042  1.00  0.00    -0.344 N 
ATOM     35  H42 UNL     1      24.537  -3.135  14.802  1.00  0.00     0.176 HD
ATOM     36  H41 UNL     1      22.853  -3.285  15.310  1.00  0.00     0.176 HD
ENDBRANCH  32  34
ENDBRANCH   5  32
BRANCH   8  37
HETATM   37  N6  UNL     1      19.862  -5.923  13.051  1.00  0.00    -0.234 N 
ATOM     38  H62 UNL     1      19.374  -5.059  13.291  1.00  0.00     0.174 HD
ATOM     39  H61 UNL     1      19.566  -6.491  12.258  1.00  0.00     0.174 HD
ENDBRANCH   8  37
TORSDOF 9
ENDMDL
