MODEL 1
REMARK VINA RESULT: -8.668669358      0.000      0.000
REMARK  9 active torsions:
REMARK  status: ('A' for Active; 'I' for Inactive)
REMARK    1  A    between atoms: N1_1  and  C1_4 
REMARK    2  A    between atoms: C4_12  and  C5_13 
REMARK    3  A    between atoms: C5_13  and  O2_14 
REMARK    4  A    between atoms: C5_13  and  N4_16 
REMARK    5  A    between atoms: N4_16  and  C6_19 
REMARK    6  A    between atoms: C6_19  and  N5_20 
REMARK    7  A    between atoms: C6_19  and  C7_24 
REMARK    8  A    between atoms: C7_24  and  N6_25 
REMARK    9  A    between atoms: C10_32  and  N9_33 
ROOT
HETATM    1  C1  UNL     1      27.573 -13.598  13.518  1.00  0.00     0.680 A 
HETATM    2  N2  UNL     1      27.410 -12.409  12.908  1.00  0.00    -0.154 N 
ATOM      3  H2  UNL     1      27.786 -12.286  11.967  1.00  0.00     0.187 HD
HETATM    4  C2  UNL     1      26.771 -11.376  13.488  1.00  0.00     0.290 A 
HETATM    5  O1  UNL     1      26.624 -10.270  12.909  1.00  0.00    -0.265 OA
HETATM    6  C3  UNL     1      26.247 -11.504  14.763  1.00  0.00     0.147 A 
HETATM    7  N3  UNL     1      25.602 -10.489  15.373  1.00  0.00    -0.345 N 
ATOM      8  H3  UNL     1      25.497  -9.602  14.881  1.00  0.00     0.166 HD
HETATM    9  C4  UNL     1      25.087 -10.613  16.626  1.00  0.00     0.110 A 
HETATM   10  C10 UNL     1      25.257 -11.828  17.243  1.00  0.00     0.128 A 
HETATM   11  N10 UNL     1      25.912 -12.850  16.618  1.00  0.00    -0.325 N 
ATOM     12  H10 UNL     1      26.021 -13.740  17.106  1.00  0.00     0.169 HD
HETATM   13  C11 UNL     1      26.417 -12.723  15.383  1.00  0.00     0.155 A 
HETATM   14  N11 UNL     1      27.065 -13.729  14.760  1.00  0.00    -0.174 N 
ATOM     15  H11 UNL     1      27.175 -14.620  15.245  1.00  0.00     0.186 HD
ENDROOT
BRANCH   9  16
HETATM   16  C5  UNL     1      24.373  -9.463  17.248  1.00  0.00     0.376 C 
BRANCH  16  17
HETATM   17  O2  UNL     1      24.788  -9.251  18.554  1.00  0.00    -0.365 OA
ATOM     18  H2  UNL     1      25.660  -8.874  18.586  1.00  0.00     0.212 HD
ENDBRANCH  16  17
BRANCH  16  19
HETATM   19  N4  UNL     1      22.965  -9.454  17.044  1.00  0.00    -0.013 N 
ATOM     20  H42 UNL     1      22.579 -10.393  16.946  1.00  0.00     0.283 HD
ATOM     21  H41 UNL     1      22.452  -9.175  17.880  1.00  0.00     0.283 HD
BRANCH  19  22
HETATM   22  C6  UNL     1      22.661  -8.602  15.892  1.00  0.00     0.403 C 
BRANCH  22  23
HETATM   23  N5  UNL     1      22.311  -9.430  14.740  1.00  0.00    -0.048 N 
ATOM     24  H53 UNL     1      21.957 -10.345  15.020  1.00  0.00     0.276 HD
ATOM     25  H52 UNL     1      21.477  -9.088  14.263  1.00  0.00     0.276 HD
ATOM     26  H51 UNL     1      23.109  -9.505  14.111  1.00  0.00     0.276 HD
ENDBRANCH  22  23
BRANCH  22  27
HETATM   27  C7  UNL     1      23.833  -7.741  15.482  1.00  0.00     0.212 C 
BRANCH  27  28
HETATM   28  N6  UNL     1      23.293  -6.475  15.036  1.00  0.00    -0.283 N 
HETATM   29  C8  UNL     1      22.122  -6.268  14.459  1.00  0.00     0.201 A 
HETATM   30  N7  UNL     1      21.981  -4.942  14.190  1.00  0.00    -0.346 N 
HETATM   31  C9  UNL     1      23.112  -4.366  14.625  1.00  0.00     0.198 A 
ATOM     32  H7  UNL     1      21.184  -4.482  13.749  1.00  0.00     0.167 HD
HETATM   33  N8  UNL     1      23.907  -5.320  15.142  1.00  0.00    -0.293 N 
ATOM     34  H8  UNL     1      24.831  -5.170  15.548  1.00  0.00     0.188 HD
ENDBRANCH  27  28
ENDBRANCH  22  27
ENDBRANCH  19  22
ENDBRANCH  16  19
ENDBRANCH   9  16
BRANCH  10  35
HETATM   35  N9  UNL     1      24.812 -12.034  18.435  1.00  0.00    -0.384 N 
ATOM     36  H92 UNL     1      23.801 -12.058  18.571  1.00  0.00     0.157 HD
ATOM     37  H91 UNL     1      25.452 -12.178  19.216  1.00  0.00     0.157 HD
ENDBRANCH  10  35
BRANCH   1  38
HETATM   38  N1  UNL     1      28.187 -14.588  12.961  1.00  0.00    -0.234 N 
ATOM     39  H12 UNL     1      28.702 -15.258  13.533  1.00  0.00     0.174 HD
ATOM     40  H11 UNL     1      28.184 -14.740  11.952  1.00  0.00     0.174 HD
ENDBRANCH   1  38
TORSDOF 9
ENDMDL
MODEL 2
REMARK VINA RESULT: -8.587910571      1.403      1.920
REMARK  9 active torsions:
REMARK  status: ('A' for Active; 'I' for Inactive)
REMARK    1  A    between atoms: N1_1  and  C1_4 
REMARK    2  A    between atoms: C4_12  and  C5_13 
REMARK    3  A    between atoms: C5_13  and  O2_14 
REMARK    4  A    between atoms: C5_13  and  N4_16 
REMARK    5  A    between atoms: N4_16  and  C6_19 
REMARK    6  A    between atoms: C6_19  and  N5_20 
REMARK    7  A    between atoms: C6_19  and  C7_24 
REMARK    8  A    between atoms: C7_24  and  N6_25 
REMARK    9  A    between atoms: C10_32  and  N9_33 
ROOT
HETATM    1  C1  UNL     1      27.607 -13.682  13.611  1.00  0.00     0.680 A 
HETATM    2  N2  UNL     1      27.451 -12.590  12.838  1.00  0.00    -0.154 N 
ATOM      3  H2  UNL     1      27.871 -12.585  11.909  1.00  0.00     0.187 HD
HETATM    4  C2  UNL     1      26.762 -11.506  13.242  1.00  0.00     0.290 A 
HETATM    5  O1  UNL     1      26.622 -10.493  12.513  1.00  0.00    -0.265 OA
HETATM    6  C3  UNL     1      26.177 -11.476  14.497  1.00  0.00     0.147 A 
HETATM    7  N3  UNL     1      25.482 -10.407  14.934  1.00  0.00    -0.345 N 
ATOM      8  H3  UNL     1      25.384  -9.597  14.321  1.00  0.00     0.166 HD
HETATM    9  C4  UNL     1      24.907 -10.376  16.165  1.00  0.00     0.110 A 
HETATM   10  C10 UNL     1      25.071 -11.492  16.949  1.00  0.00     0.128 A 
HETATM   11  N10 UNL     1      25.777 -12.571  16.499  1.00  0.00    -0.325 N 
ATOM     12  H10 UNL     1      25.879 -13.383  17.108  1.00  0.00     0.169 HD
HETATM   13  C11 UNL     1      26.340 -12.596  15.284  1.00  0.00     0.155 A 
HETATM   14  N11 UNL     1      27.040 -13.659  14.833  1.00  0.00    -0.174 N 
ATOM     15  H11 UNL     1      27.144 -14.473  15.439  1.00  0.00     0.186 HD
ENDROOT
BRANCH   9  16
HETATM   16  C5  UNL     1      24.139  -9.172  16.592  1.00  0.00     0.376 C 
BRANCH  16  17
HETATM   17  O2  UNL     1      24.476  -8.782  17.879  1.00  0.00    -0.365 OA
ATOM     18  H2  UNL     1      23.707  -8.702  18.432  1.00  0.00     0.212 HD
ENDBRANCH  16  17
BRANCH  16  19
HETATM   19  N4  UNL     1      22.745  -9.224  16.312  1.00  0.00    -0.013 N 
ATOM     20  H42 UNL     1      22.437 -10.157  16.037  1.00  0.00     0.283 HD
ATOM     21  H41 UNL     1      22.175  -9.130  17.153  1.00  0.00     0.283 HD
BRANCH  19  22
HETATM   22  C6  UNL     1      22.428  -8.210  15.305  1.00  0.00     0.403 C 
BRANCH  22  23
HETATM   23  N5  UNL     1      23.291  -7.044  15.485  1.00  0.00    -0.048 N 
ATOM     24  H53 UNL     1      22.918  -6.395  16.178  1.00  0.00     0.276 HD
ATOM     25  H52 UNL     1      24.162  -7.283  15.959  1.00  0.00     0.276 HD
ATOM     26  H51 UNL     1      23.455  -6.592  14.587  1.00  0.00     0.276 HD
ENDBRANCH  22  23
BRANCH  22  27
HETATM   27  C7  UNL     1      21.000  -7.726  15.398  1.00  0.00     0.212 C 
BRANCH  27  28
HETATM   28  N6  UNL     1      20.619  -7.273  14.078  1.00  0.00    -0.283 N 
HETATM   29  C8  UNL     1      20.362  -6.031  13.704  1.00  0.00     0.201 A 
HETATM   30  N7  UNL     1      20.041  -6.016  12.382  1.00  0.00    -0.346 N 
HETATM   31  C9  UNL     1      20.114  -7.294  11.982  1.00  0.00     0.198 A 
ATOM     32  H7  UNL     1      19.795  -5.204  11.816  1.00  0.00     0.167 HD
HETATM   33  N8  UNL     1      20.470  -8.054  13.033  1.00  0.00    -0.293 N 
ATOM     34  H8  UNL     1      20.602  -9.066  13.020  1.00  0.00     0.188 HD
ENDBRANCH  27  28
ENDBRANCH  22  27
ENDBRANCH  19  22
ENDBRANCH  16  19
ENDBRANCH   9  16
BRANCH  10  35
HETATM   35  N9  UNL     1      24.570 -11.549  18.135  1.00  0.00    -0.384 N 
ATOM     36  H92 UNL     1      24.152 -10.701  18.519  1.00  0.00     0.157 HD
ATOM     37  H91 UNL     1      24.585 -12.418  18.669  1.00  0.00     0.157 HD
ENDBRANCH  10  35
BRANCH   1  38
HETATM   38  N1  UNL     1      28.268 -14.721  13.222  1.00  0.00    -0.234 N 
ATOM     39  H12 UNL     1      28.614 -14.778  12.264  1.00  0.00     0.174 HD
ATOM     40  H11 UNL     1      28.468 -15.509  13.839  1.00  0.00     0.174 HD
ENDBRANCH   1  38
TORSDOF 9
ENDMDL
MODEL 3
REMARK VINA RESULT: -7.862290672      1.245      1.453
REMARK  9 active torsions:
REMARK  status: ('A' for Active; 'I' for Inactive)
REMARK    1  A    between atoms: N1_1  and  C1_4 
REMARK    2  A    between atoms: C4_12  and  C5_13 
REMARK    3  A    between atoms: C5_13  and  O2_14 
REMARK    4  A    between atoms: C5_13  and  N4_16 
REMARK    5  A    between atoms: N4_16  and  C6_19 
REMARK    6  A    between atoms: C6_19  and  N5_20 
REMARK    7  A    between atoms: C6_19  and  C7_24 
REMARK    8  A    between atoms: C7_24  and  N6_25 
REMARK    9  A    between atoms: C10_32  and  N9_33 
ROOT
HETATM    1  C1  UNL     1      27.354 -13.571  14.063  1.00  0.00     0.680 A 
HETATM    2  N2  UNL     1      27.149 -12.572  13.185  1.00  0.00    -0.154 N 
ATOM      3  H2  UNL     1      27.549 -12.652  12.249  1.00  0.00     0.187 HD
HETATM    4  C2  UNL     1      26.438 -11.470  13.491  1.00  0.00     0.290 A 
HETATM    5  O1  UNL     1      26.252 -10.543  12.663  1.00  0.00    -0.265 OA
HETATM    6  C3  UNL     1      25.881 -11.325  14.749  1.00  0.00     0.147 A 
HETATM    7  N3  UNL     1      25.164 -10.234  15.090  1.00  0.00    -0.345 N 
ATOM      8  H3  UNL     1      25.029  -9.496  14.399  1.00  0.00     0.166 HD
HETATM    9  C4  UNL     1      24.615 -10.089  16.325  1.00  0.00     0.110 A 
HETATM   10  C10 UNL     1      24.829 -11.113  17.217  1.00  0.00     0.128 A 
HETATM   11  N10 UNL     1      25.557 -12.213  16.864  1.00  0.00    -0.325 N 
ATOM     12  H10 UNL     1      25.696 -12.955  17.551  1.00  0.00     0.169 HD
HETATM   13  C11 UNL     1      26.094 -12.351  15.644  1.00  0.00     0.155 A 
HETATM   14  N11 UNL     1      26.814 -13.436  15.290  1.00  0.00    -0.174 N 
ATOM     15  H11 UNL     1      26.955 -14.179  15.975  1.00  0.00     0.186 HD
ENDROOT
BRANCH   9  16
HETATM   16  C5  UNL     1      23.822  -8.870  16.643  1.00  0.00     0.376 C 
BRANCH  16  17
HETATM   17  O2  UNL     1      24.317  -8.216  17.762  1.00  0.00    -0.365 OA
ATOM     18  H2  UNL     1      23.762  -7.488  18.015  1.00  0.00     0.212 HD
ENDBRANCH  16  17
BRANCH  16  19
HETATM   19  N4  UNL     1      22.411  -9.051  16.614  1.00  0.00    -0.013 N 
ATOM     20  H42 UNL     1      22.135 -10.000  16.866  1.00  0.00     0.283 HD
ATOM     21  H41 UNL     1      21.939  -8.560  17.374  1.00  0.00     0.283 HD
BRANCH  19  22
HETATM   22  C6  UNL     1      21.912  -8.653  15.297  1.00  0.00     0.403 C 
BRANCH  22  23
HETATM   23  N5  UNL     1      22.306  -9.642  14.296  1.00  0.00    -0.048 N 
ATOM     24  H53 UNL     1      23.233  -9.452  13.914  1.00  0.00     0.276 HD
ATOM     25  H52 UNL     1      22.502 -10.552  14.714  1.00  0.00     0.276 HD
ATOM     26  H51 UNL     1      21.596  -9.700  13.567  1.00  0.00     0.276 HD
ENDBRANCH  22  23
BRANCH  22  27
HETATM   27  C7  UNL     1      22.462  -7.320  14.846  1.00  0.00     0.212 C 
BRANCH  27  28
HETATM   28  N6  UNL     1      21.412  -6.657  14.103  1.00  0.00    -0.283 N 
HETATM   29  C8  UNL     1      20.493  -7.227  13.342  1.00  0.00     0.201 A 
HETATM   30  N7  UNL     1      19.686  -6.266  12.816  1.00  0.00    -0.346 N 
HETATM   31  C9  UNL     1      20.158  -5.104  13.290  1.00  0.00     0.198 A 
ATOM     32  H7  UNL     1      18.890  -6.402  12.193  1.00  0.00     0.167 HD
HETATM   33  N8  UNL     1      21.217  -5.359  14.079  1.00  0.00    -0.293 N 
ATOM     34  H8  UNL     1      21.774  -4.663  14.574  1.00  0.00     0.188 HD
ENDBRANCH  27  28
ENDBRANCH  22  27
ENDBRANCH  19  22
ENDBRANCH  16  19
ENDBRANCH   9  16
BRANCH  10  35
HETATM   35  N9  UNL     1      24.357 -11.058  18.415  1.00  0.00    -0.384 N 
ATOM     36  H92 UNL     1      23.610 -11.706  18.665  1.00  0.00     0.157 HD
ATOM     37  H91 UNL     1      24.726 -10.392  19.093  1.00  0.00     0.157 HD
ENDBRANCH  10  35
BRANCH   1  38
HETATM   38  N1  UNL     1      28.037 -14.627  13.768  1.00  0.00    -0.234 N 
ATOM     39  H12 UNL     1      27.922 -15.073  12.858  1.00  0.00     0.174 HD
ATOM     40  H11 UNL     1      28.704 -15.050  14.414  1.00  0.00     0.174 HD
ENDBRANCH   1  38
TORSDOF 9
ENDMDL
MODEL 4
REMARK VINA RESULT: -7.471113921      2.345      4.028
REMARK  9 active torsions:
REMARK  status: ('A' for Active; 'I' for Inactive)
REMARK    1  A    between atoms: N1_1  and  C1_4 
REMARK    2  A    between atoms: C4_12  and  C5_13 
REMARK    3  A    between atoms: C5_13  and  O2_14 
REMARK    4  A    between atoms: C5_13  and  N4_16 
REMARK    5  A    between atoms: N4_16  and  C6_19 
REMARK    6  A    between atoms: C6_19  and  N5_20 
REMARK    7  A    between atoms: C6_19  and  C7_24 
REMARK    8  A    between atoms: C7_24  and  N6_25 
REMARK    9  A    between atoms: C10_32  and  N9_33 
ROOT
HETATM    1  C1  UNL     1      26.720 -13.929  19.250  1.00  0.00     0.680 A 
HETATM    2  N2  UNL     1      25.390 -13.796  19.404  1.00  0.00    -0.154 N 
ATOM      3  H2  UNL     1      24.928 -14.324  20.146  1.00  0.00     0.187 HD
HETATM    4  C2  UNL     1      24.643 -12.997  18.620  1.00  0.00     0.290 A 
HETATM    5  O1  UNL     1      23.401 -12.880  18.773  1.00  0.00    -0.265 OA
HETATM    6  C3  UNL     1      25.233 -12.265  17.604  1.00  0.00     0.147 A 
HETATM    7  N3  UNL     1      24.515 -11.455  16.800  1.00  0.00    -0.345 N 
ATOM      8  H3  UNL     1      23.508 -11.379  16.945  1.00  0.00     0.166 HD
HETATM    9  C4  UNL     1      25.093 -10.735  15.801  1.00  0.00     0.110 A 
HETATM   10  C10 UNL     1      26.451 -10.876  15.649  1.00  0.00     0.128 A 
HETATM   11  N10 UNL     1      27.170 -11.698  16.467  1.00  0.00    -0.325 N 
ATOM     12  H10 UNL     1      28.178 -11.779  16.325  1.00  0.00     0.169 HD
HETATM   13  C11 UNL     1      26.595 -12.404  17.450  1.00  0.00     0.155 A 
HETATM   14  N11 UNL     1      27.301 -13.219  18.263  1.00  0.00    -0.174 N 
ATOM     15  H11 UNL     1      28.308 -13.302  18.124  1.00  0.00     0.186 HD
ENDROOT
BRANCH   9  16
HETATM   16  C5  UNL     1      24.253  -9.846  14.950  1.00  0.00     0.376 C 
BRANCH  16  17
HETATM   17  O2  UNL     1      24.342 -10.191  13.610  1.00  0.00    -0.365 OA
ATOM     18  H2  UNL     1      23.562  -9.934  13.131  1.00  0.00     0.212 HD
ENDBRANCH  16  17
BRANCH  16  19
HETATM   19  N4  UNL     1      24.376  -8.458  15.235  1.00  0.00    -0.013 N 
ATOM     20  H42 UNL     1      25.127  -8.261  15.897  1.00  0.00     0.283 HD
ATOM     21  H41 UNL     1      24.743  -7.928  14.444  1.00  0.00     0.283 HD
BRANCH  19  22
HETATM   22  C6  UNL     1      23.080  -7.954  15.692  1.00  0.00     0.403 C 
BRANCH  22  23
HETATM   23  N5  UNL     1      23.006  -8.023  17.150  1.00  0.00    -0.048 N 
ATOM     24  H53 UNL     1      22.056  -8.204  17.477  1.00  0.00     0.276 HD
ATOM     25  H52 UNL     1      23.452  -8.863  17.517  1.00  0.00     0.276 HD
ATOM     26  H51 UNL     1      23.395  -7.173  17.558  1.00  0.00     0.276 HD
ENDBRANCH  22  23
BRANCH  22  27
HETATM   27  C7  UNL     1      21.921  -8.757  15.149  1.00  0.00     0.212 C 
BRANCH  27  28
HETATM   28  N6  UNL     1      21.224  -7.910  14.205  1.00  0.00    -0.283 N 
HETATM   29  C8  UNL     1      21.151  -6.590  14.222  1.00  0.00     0.201 A 
HETATM   30  N7  UNL     1      20.406  -6.167  13.166  1.00  0.00    -0.346 N 
HETATM   31  C9  UNL     1      20.036  -7.282  12.520  1.00  0.00     0.198 A 
ATOM     32  H7  UNL     1      20.176  -5.204  12.918  1.00  0.00     0.167 HD
HETATM   33  N8  UNL     1      20.545  -8.344  13.169  1.00  0.00    -0.293 N 
ATOM     34  H8  UNL     1      20.425  -9.321  12.901  1.00  0.00     0.188 HD
ENDBRANCH  27  28
ENDBRANCH  22  27
ENDBRANCH  19  22
ENDBRANCH  16  19
ENDBRANCH   9  16
BRANCH  10  35
HETATM   35  N9  UNL     1      27.083 -10.241  14.721  1.00  0.00    -0.384 N 
ATOM     36  H92 UNL     1      26.545  -9.627  14.109  1.00  0.00     0.157 HD
ATOM     37  H91 UNL     1      28.091 -10.345  14.609  1.00  0.00     0.157 HD
ENDBRANCH  10  35
BRANCH   1  38
HETATM   38  N1  UNL     1      27.435 -14.697  20.003  1.00  0.00    -0.234 N 
ATOM     39  H12 UNL     1      28.426 -14.498  20.143  1.00  0.00     0.174 HD
ATOM     40  H11 UNL     1      27.051 -15.515  20.476  1.00  0.00     0.174 HD
ENDBRANCH   1  38
TORSDOF 9
ENDMDL
MODEL 5
REMARK VINA RESULT: -7.276070509      2.444      3.666
REMARK  9 active torsions:
REMARK  status: ('A' for Active; 'I' for Inactive)
REMARK    1  A    between atoms: N1_1  and  C1_4 
REMARK    2  A    between atoms: C4_12  and  C5_13 
REMARK    3  A    between atoms: C5_13  and  O2_14 
REMARK    4  A    between atoms: C5_13  and  N4_16 
REMARK    5  A    between atoms: N4_16  and  C6_19 
REMARK    6  A    between atoms: C6_19  and  N5_20 
REMARK    7  A    between atoms: C6_19  and  C7_24 
REMARK    8  A    between atoms: C7_24  and  N6_25 
REMARK    9  A    between atoms: C10_32  and  N9_33 
ROOT
HETATM    1  C1  UNL     1      26.435 -13.558  18.930  1.00  0.00     0.680 A 
HETATM    2  N2  UNL     1      26.939 -13.624  17.683  1.00  0.00    -0.154 N 
ATOM      3  H2  UNL     1      27.642 -14.333  17.476  1.00  0.00     0.187 HD
HETATM    4  C2  UNL     1      26.552 -12.791  16.698  1.00  0.00     0.290 A 
HETATM    5  O1  UNL     1      27.029 -12.862  15.537  1.00  0.00    -0.265 OA
HETATM    6  C3  UNL     1      25.600 -11.816  16.939  1.00  0.00     0.147 A 
HETATM    7  N3  UNL     1      25.191 -10.966  15.976  1.00  0.00    -0.345 N 
ATOM      8  H3  UNL     1      25.594 -11.044  15.043  1.00  0.00     0.166 HD
HETATM    9  C4  UNL     1      24.256 -10.006  16.211  1.00  0.00     0.110 A 
HETATM   10  C10 UNL     1      23.747  -9.944  17.486  1.00  0.00     0.128 A 
HETATM   11  N10 UNL     1      24.167 -10.809  18.455  1.00  0.00    -0.325 N 
ATOM     12  H10 UNL     1      23.767 -10.734  19.391  1.00  0.00     0.169 HD
HETATM   13  C11 UNL     1      25.088 -11.753  18.217  1.00  0.00     0.155 A 
HETATM   14  N11 UNL     1      25.508 -12.610  19.172  1.00  0.00    -0.174 N 
ATOM     15  H11 UNL     1      25.110 -12.538  20.108  1.00  0.00     0.186 HD
ENDROOT
BRANCH   9  16
HETATM   16  C5  UNL     1      23.832  -9.102  15.107  1.00  0.00     0.376 C 
BRANCH  16  17
HETATM   17  O2  UNL     1      23.857  -9.748  13.880  1.00  0.00    -0.365 OA
ATOM     18  H2  UNL     1      24.580  -9.447  13.342  1.00  0.00     0.212 HD
ENDBRANCH  16  17
BRANCH  16  19
HETATM   19  N4  UNL     1      24.428  -7.810  15.131  1.00  0.00    -0.013 N 
ATOM     20  H42 UNL     1      24.833  -7.585  16.040  1.00  0.00     0.283 HD
ATOM     21  H41 UNL     1      25.285  -7.766  14.579  1.00  0.00     0.283 HD
BRANCH  19  22
HETATM   22  C6  UNL     1      23.435  -6.825  14.700  1.00  0.00     0.403 C 
BRANCH  22  23
HETATM   23  N5  UNL     1      23.787  -5.505  15.217  1.00  0.00    -0.048 N 
ATOM     24  H53 UNL     1      23.956  -4.833  14.468  1.00  0.00     0.276 HD
ATOM     25  H52 UNL     1      22.992  -5.041  15.657  1.00  0.00     0.276 HD
ATOM     26  H51 UNL     1      24.583  -5.581  15.850  1.00  0.00     0.276 HD
ENDBRANCH  22  23
BRANCH  22  27
HETATM   27  C7  UNL     1      22.045  -7.144  15.202  1.00  0.00     0.212 C 
BRANCH  27  28
HETATM   28  N6  UNL     1      21.151  -7.037  14.070  1.00  0.00    -0.283 N 
HETATM   29  C8  UNL     1      20.627  -8.031  13.373  1.00  0.00     0.201 A 
HETATM   30  N7  UNL     1      19.837  -7.522  12.388  1.00  0.00    -0.346 N 
HETATM   31  C9  UNL     1      19.911  -6.190  12.523  1.00  0.00     0.198 A 
ATOM     32  H7  UNL     1      19.302  -8.044  11.694  1.00  0.00     0.167 HD
HETATM   33  N8  UNL     1      20.721  -5.907  13.559  1.00  0.00    -0.293 N 
ATOM     34  H8  UNL     1      20.961  -4.973  13.891  1.00  0.00     0.188 HD
ENDBRANCH  27  28
ENDBRANCH  22  27
ENDBRANCH  19  22
ENDBRANCH  16  19
ENDBRANCH   9  16
BRANCH  10  35
HETATM   35  N9  UNL     1      22.864  -9.060  17.804  1.00  0.00    -0.384 N 
ATOM     36  H92 UNL     1      22.318  -9.213  18.653  1.00  0.00     0.157 HD
ATOM     37  H91 UNL     1      22.722  -8.230  17.229  1.00  0.00     0.157 HD
ENDBRANCH  10  35
BRANCH   1  38
HETATM   38  N1  UNL     1      26.807 -14.356  19.874  1.00  0.00    -0.234 N 
ATOM     39  H12 UNL     1      27.799 -14.484  20.074  1.00  0.00     0.174 HD
ATOM     40  H11 UNL     1      26.144 -14.879  20.446  1.00  0.00     0.174 HD
ENDBRANCH   1  38
TORSDOF 9
ENDMDL
