MODEL 1
REMARK VINA RESULT: -7.703471818      0.000      0.000
REMARK  5 active torsions:
REMARK  status: ('A' for Active; 'I' for Inactive)
REMARK    1  A    between atoms: N1_1  and  C1_4 
REMARK       I    between atoms: N3_11  and  C5_13 
REMARK       I    between atoms: C5_13  and  N4_14 
REMARK       I    between atoms: C5_13  and  N5_18 
REMARK    2  A    between atoms: C7_24  and  N7_25 
REMARK    3  A    between atoms: N7_25  and  C8_27 
REMARK    4  A    between atoms: N9_34  and  C12_35 
REMARK    5  A    between atoms: C12_35  and  O2_36 
ROOT
HETATM    1  C1  UNL     1      25.216 -12.564  18.967  1.00  0.00     0.680 A 
HETATM    2  N2  UNL     1      25.980 -13.304  18.182  1.00  0.00    -0.155 N 
ATOM      3  H2  UNL     1      26.409 -14.161  18.529  1.00  0.00     0.187 HD
HETATM    4  C2  UNL     1      26.179 -12.899  16.906  1.00  0.00     0.276 A 
HETATM    5  O1  UNL     1      26.920 -13.663  16.220  1.00  0.00    -0.267 OA
HETATM    6  C3  UNL     1      25.624 -11.752  16.391  1.00  0.00     0.106 A 
HETATM    7  C4  UNL     1      25.844 -11.388  15.078  1.00  0.00     0.079 A 
HETATM    8  N3  UNL     1      26.566 -12.100  14.379  1.00  0.00    -0.338 N 
ATOM      9  H3  UNL     1      26.901 -12.893  14.927  1.00  0.00     0.163 HD
HETATM   10  C5  UNL     1      27.072 -12.174  13.089  1.00  0.00     0.480 C 
HETATM   11  N4  UNL     1      28.342 -12.947  13.107  1.00  0.00    -0.033 N 
ATOM     12  H41 UNL     1      28.714 -13.002  12.159  1.00  0.00     0.278 HD
ATOM     13  H42 UNL     1      28.229 -13.868  13.532  1.00  0.00     0.278 HD
ATOM     14  H43 UNL     1      29.019 -12.566  13.767  1.00  0.00     0.278 HD
HETATM   15  N5  UNL     1      26.249 -12.881  12.130  1.00  0.00    -0.033 N 
ATOM     16  H51 UNL     1      26.621 -12.936  11.182  1.00  0.00     0.278 HD
ATOM     17  H52 UNL     1      25.312 -12.479  12.113  1.00  0.00     0.278 HD
ATOM     18  H53 UNL     1      26.039 -13.818  12.476  1.00  0.00     0.278 HD
HETATM   19  C6  UNL     1      25.214 -10.216  14.664  1.00  0.00     0.117 A 
HETATM   20  N6  UNL     1      25.472  -9.809  13.338  1.00  0.00    -0.096 NA
HETATM   21  C7  UNL     1      24.414  -9.442  15.485  1.00  0.00     0.134 A 
HETATM   22  N9  UNL     1      24.237  -9.860  16.791  1.00  0.00    -0.294 N 
HETATM   23  C13 UNL     1      24.829 -10.991  17.230  1.00  0.00     0.144 A 
HETATM   24  N10 UNL     1      24.643 -11.419  18.507  1.00  0.00    -0.175 N 
ATOM     25  H10 UNL     1      24.059 -10.869  19.136  1.00  0.00     0.186 HD
ENDROOT
BRANCH  21  26
HETATM   26  N7  UNL     1      23.716  -8.308  15.037  1.00  0.00    -0.368 N 
ATOM     27  H7  UNL     1      24.325  -7.535  14.769  1.00  0.00     0.161 HD
BRANCH  26  28
HETATM   28  C8  UNL     1      22.340  -8.021  14.882  1.00  0.00     0.110 C 
HETATM   29  C9  UNL     1      22.004  -6.666  14.324  1.00  0.00     0.054 C 
HETATM   30  C10 UNL     1      20.538  -6.897  13.909  1.00  0.00     0.234 C 
HETATM   31  N8  UNL     1      20.648  -8.137  13.197  1.00  0.00    -0.073 N 
HETATM   32  C11 UNL     1      21.728  -8.892  13.741  1.00  0.00     0.257 C 
ATOM     33  H82 UNL     1      19.773  -8.661  13.192  1.00  0.00     0.277 HD
ATOM     34  H81 UNL     1      20.739  -8.000  12.191  1.00  0.00     0.277 HD
ENDBRANCH  26  28
ENDBRANCH  21  26
BRANCH  22  35
HETATM   35  C12 UNL     1      23.469  -9.089  17.728  1.00  0.00     0.298 C 
BRANCH  35  36
HETATM   36  O2  UNL     1      23.921  -7.781  17.849  1.00  0.00    -0.382 OA
ATOM     37  H2  UNL     1      23.701  -7.243  17.097  1.00  0.00     0.211 HD
ENDBRANCH  35  36
ENDBRANCH  22  35
BRANCH   1  38
HETATM   38  N1  UNL     1      25.028 -12.957  20.191  1.00  0.00    -0.234 N 
ATOM     39  H12 UNL     1      24.838 -13.938  20.401  1.00  0.00     0.174 HD
ATOM     40  H11 UNL     1      25.074 -12.262  20.935  1.00  0.00     0.174 HD
ENDBRANCH   1  38
TORSDOF 5
ENDMDL
MODEL 2
REMARK VINA RESULT: -6.817140426      1.104      1.406
REMARK  5 active torsions:
REMARK  status: ('A' for Active; 'I' for Inactive)
REMARK    1  A    between atoms: N1_1  and  C1_4 
REMARK       I    between atoms: N3_11  and  C5_13 
REMARK       I    between atoms: C5_13  and  N4_14 
REMARK       I    between atoms: C5_13  and  N5_18 
REMARK    2  A    between atoms: C7_24  and  N7_25 
REMARK    3  A    between atoms: N7_25  and  C8_27 
REMARK    4  A    between atoms: N9_34  and  C12_35 
REMARK    5  A    between atoms: C12_35  and  O2_36 
ROOT
HETATM    1  C1  UNL     1      25.202 -12.492  18.907  1.00  0.00     0.680 A 
HETATM    2  N2  UNL     1      26.014 -13.220  18.160  1.00  0.00    -0.155 N 
ATOM      3  H2  UNL     1      26.471 -14.048  18.542  1.00  0.00     0.187 HD
HETATM    4  C2  UNL     1      26.225 -12.844  16.878  1.00  0.00     0.276 A 
HETATM    5  O1  UNL     1      27.012 -13.594  16.230  1.00  0.00    -0.267 OA
HETATM    6  C3  UNL     1      25.633 -11.736  16.318  1.00  0.00     0.106 A 
HETATM    7  C4  UNL     1      25.866 -11.401  14.999  1.00  0.00     0.079 A 
HETATM    8  N3  UNL     1      26.634 -12.101  14.337  1.00  0.00    -0.338 N 
ATOM      9  H3  UNL     1      26.989 -12.863  14.914  1.00  0.00     0.163 HD
HETATM   10  C5  UNL     1      27.171 -12.190  13.061  1.00  0.00     0.480 C 
HETATM   11  N4  UNL     1      28.472 -12.907  13.128  1.00  0.00    -0.033 N 
ATOM     12  H41 UNL     1      28.867 -12.973  12.190  1.00  0.00     0.278 HD
ATOM     13  H42 UNL     1      28.388 -13.819  13.577  1.00  0.00     0.278 HD
ATOM     14  H43 UNL     1      29.117 -12.478  13.791  1.00  0.00     0.278 HD
HETATM   15  N5  UNL     1      26.400 -12.959  12.105  1.00  0.00    -0.033 N 
ATOM     16  H51 UNL     1      26.795 -13.024  11.167  1.00  0.00     0.278 HD
ATOM     17  H52 UNL     1      25.447 -12.598  12.057  1.00  0.00     0.278 HD
ATOM     18  H53 UNL     1      26.222 -13.893  12.474  1.00  0.00     0.278 HD
HETATM   19  C6  UNL     1      25.197 -10.269  14.537  1.00  0.00     0.117 A 
HETATM   20  N6  UNL     1      25.467  -9.889  13.206  1.00  0.00    -0.096 NA
HETATM   21  C7  UNL     1      24.348  -9.507  15.319  1.00  0.00     0.134 A 
HETATM   22  N9  UNL     1      24.159  -9.895  16.632  1.00  0.00    -0.294 N 
HETATM   23  C13 UNL     1      24.788 -10.987  17.116  1.00  0.00     0.144 A 
HETATM   24  N10 UNL     1      24.591 -11.386  18.401  1.00  0.00    -0.175 N 
ATOM     25  H10 UNL     1      23.971 -10.843  19.001  1.00  0.00     0.186 HD
ENDROOT
BRANCH  21  26
HETATM   26  N7  UNL     1      23.612  -8.417  14.823  1.00  0.00    -0.368 N 
ATOM     27  H7  UNL     1      22.986  -8.664  14.057  1.00  0.00     0.161 HD
BRANCH  26  28
HETATM   28  C8  UNL     1      23.562  -7.048  15.171  1.00  0.00     0.110 C 
HETATM   29  C9  UNL     1      24.601  -6.165  14.539  1.00  0.00     0.054 C 
HETATM   30  C10 UNL     1      23.973  -4.781  14.789  1.00  0.00     0.234 C 
HETATM   31  N8  UNL     1      22.628  -5.007  14.347  1.00  0.00    -0.073 N 
HETATM   32  C11 UNL     1      22.294  -6.376  14.556  1.00  0.00     0.257 C 
ATOM     33  H82 UNL     1      21.962  -4.374  14.789  1.00  0.00     0.277 HD
ATOM     34  H81 UNL     1      22.483  -4.715  13.381  1.00  0.00     0.277 HD
ENDBRANCH  26  28
ENDBRANCH  21  26
BRANCH  22  35
HETATM   35  C12 UNL     1      23.338  -9.131  17.530  1.00  0.00     0.298 C 
BRANCH  35  36
HETATM   36  O2  UNL     1      23.983  -8.004  18.023  1.00  0.00    -0.382 OA
ATOM     37  H2  UNL     1      24.909  -8.148  18.183  1.00  0.00     0.211 HD
ENDBRANCH  35  36
ENDBRANCH  22  35
BRANCH   1  38
HETATM   38  N1  UNL     1      25.004 -12.857  20.137  1.00  0.00    -0.234 N 
ATOM     39  H12 UNL     1      25.431 -13.708  20.505  1.00  0.00     0.174 HD
ATOM     40  H11 UNL     1      24.409 -12.274  20.726  1.00  0.00     0.174 HD
ENDBRANCH   1  38
TORSDOF 5
ENDMDL
MODEL 3
REMARK VINA RESULT: -6.675987835      0.839      1.070
REMARK  5 active torsions:
REMARK  status: ('A' for Active; 'I' for Inactive)
REMARK    1  A    between atoms: N1_1  and  C1_4 
REMARK       I    between atoms: N3_11  and  C5_13 
REMARK       I    between atoms: C5_13  and  N4_14 
REMARK       I    between atoms: C5_13  and  N5_18 
REMARK    2  A    between atoms: C7_24  and  N7_25 
REMARK    3  A    between atoms: N7_25  and  C8_27 
REMARK    4  A    between atoms: N9_34  and  C12_35 
REMARK    5  A    between atoms: C12_35  and  O2_36 
ROOT
HETATM    1  C1  UNL     1      24.901 -12.641  18.803  1.00  0.00     0.680 A 
HETATM    2  N2  UNL     1      25.588 -13.446  18.011  1.00  0.00    -0.155 N 
ATOM      3  H2  UNL     1      25.847 -14.383  18.319  1.00  0.00     0.187 HD
HETATM    4  C2  UNL     1      25.940 -13.000  16.784  1.00  0.00     0.276 A 
HETATM    5  O1  UNL     1      26.594 -13.831  16.087  1.00  0.00    -0.267 OA
HETATM    6  C3  UNL     1      25.617 -11.745  16.324  1.00  0.00     0.106 A 
HETATM    7  C4  UNL     1      25.985 -11.341  15.057  1.00  0.00     0.079 A 
HETATM    8  N3  UNL     1      26.630 -12.117  14.351  1.00  0.00    -0.338 N 
ATOM      9  H3  UNL     1      26.792 -12.988  14.857  1.00  0.00     0.163 HD
HETATM   10  C5  UNL     1      27.207 -12.192  13.091  1.00  0.00     0.480 C 
HETATM   11  N4  UNL     1      28.330 -13.166  13.127  1.00  0.00    -0.033 N 
ATOM     12  H41 UNL     1      28.755 -13.222  12.201  1.00  0.00     0.278 HD
ATOM     13  H42 UNL     1      28.040 -14.080  13.474  1.00  0.00     0.278 HD
ATOM     14  H43 UNL     1      29.012 -12.946  13.853  1.00  0.00     0.278 HD
HETATM   15  N5  UNL     1      26.350 -12.689  12.035  1.00  0.00    -0.033 N 
ATOM     16  H51 UNL     1      26.775 -12.745  11.109  1.00  0.00     0.278 HD
ATOM     17  H52 UNL     1      25.495 -12.136  11.992  1.00  0.00     0.278 HD
ATOM     18  H53 UNL     1      25.967 -13.598  12.297  1.00  0.00     0.278 HD
HETATM   19  C6  UNL     1      25.585 -10.056  14.694  1.00  0.00     0.117 A 
HETATM   20  N6  UNL     1      25.999  -9.613  13.421  1.00  0.00    -0.096 NA
HETATM   21  C7  UNL     1      24.866  -9.213  15.522  1.00  0.00     0.134 A 
HETATM   22  N9  UNL     1      24.531  -9.678  16.780  1.00  0.00    -0.294 N 
HETATM   23  C13 UNL     1      24.898 -10.918  17.168  1.00  0.00     0.144 A 
HETATM   24  N10 UNL     1      24.555 -11.389  18.396  1.00  0.00    -0.175 N 
ATOM     25  H10 UNL     1      24.025 -10.790  19.029  1.00  0.00     0.186 HD
ENDROOT
BRANCH  21  26
HETATM   26  N7  UNL     1      24.394  -7.952  15.119  1.00  0.00    -0.368 N 
ATOM     27  H7  UNL     1      24.947  -7.176  15.482  1.00  0.00     0.161 HD
BRANCH  26  28
HETATM   28  C8  UNL     1      23.308  -7.540  14.312  1.00  0.00     0.110 C 
HETATM   29  C9  UNL     1      21.968  -8.130  14.652  1.00  0.00     0.054 C 
HETATM   30  C10 UNL     1      21.042  -7.156  13.900  1.00  0.00     0.234 C 
HETATM   31  N8  UNL     1      21.576  -5.893  14.319  1.00  0.00    -0.073 N 
HETATM   32  C11 UNL     1      22.968  -6.041  14.584  1.00  0.00     0.257 C 
ATOM     33  H82 UNL     1      21.386  -5.148  13.648  1.00  0.00     0.277 HD
ATOM     34  H81 UNL     1      21.070  -5.501  15.113  1.00  0.00     0.277 HD
ENDBRANCH  26  28
ENDBRANCH  21  26
BRANCH  22  35
HETATM   35  C12 UNL     1      23.834  -8.851  17.725  1.00  0.00     0.298 C 
BRANCH  35  36
HETATM   36  O2  UNL     1      22.602  -9.375  18.096  1.00  0.00    -0.382 OA
ATOM     37  H2  UNL     1      22.183  -9.862  17.396  1.00  0.00     0.211 HD
ENDBRANCH  35  36
ENDBRANCH  22  35
BRANCH   1  38
HETATM   38  N1  UNL     1      24.565 -13.074  19.981  1.00  0.00    -0.234 N 
ATOM     39  H12 UNL     1      24.843 -12.569  20.822  1.00  0.00     0.174 HD
ATOM     40  H11 UNL     1      24.017 -13.932  20.042  1.00  0.00     0.174 HD
ENDBRANCH   1  38
TORSDOF 5
ENDMDL
MODEL 4
REMARK VINA RESULT: -6.452707390      1.632      4.209
REMARK  5 active torsions:
REMARK  status: ('A' for Active; 'I' for Inactive)
REMARK    1  A    between atoms: N1_1  and  C1_4 
REMARK       I    between atoms: N3_11  and  C5_13 
REMARK       I    between atoms: C5_13  and  N4_14 
REMARK       I    between atoms: C5_13  and  N5_18 
REMARK    2  A    between atoms: C7_24  and  N7_25 
REMARK    3  A    between atoms: N7_25  and  C8_27 
REMARK    4  A    between atoms: N9_34  and  C12_35 
REMARK    5  A    between atoms: C12_35  and  O2_36 
ROOT
HETATM    1  C1  UNL     1      26.995 -13.186  14.538  1.00  0.00     0.680 A 
HETATM    2  N2  UNL     1      26.897 -13.767  15.721  1.00  0.00    -0.155 N 
ATOM      3  H2  UNL     1      27.327 -14.675  15.893  1.00  0.00     0.187 HD
HETATM    4  C2  UNL     1      26.215 -13.129  16.700  1.00  0.00     0.276 A 
HETATM    5  O1  UNL     1      26.169 -13.750  17.803  1.00  0.00    -0.267 OA
HETATM    6  C3  UNL     1      25.617 -11.904  16.518  1.00  0.00     0.106 A 
HETATM    7  C4  UNL     1      24.944 -11.286  17.553  1.00  0.00     0.079 A 
HETATM    8  N3  UNL     1      24.869 -11.861  18.639  1.00  0.00    -0.338 N 
ATOM      9  H3  UNL     1      25.352 -12.759  18.586  1.00  0.00     0.163 HD
HETATM   10  C5  UNL     1      24.342 -11.686  19.910  1.00  0.00     0.480 C 
HETATM   11  N4  UNL     1      24.106 -13.018  20.528  1.00  0.00    -0.033 N 
ATOM     12  H41 UNL     1      23.718 -12.889  21.463  1.00  0.00     0.278 HD
ATOM     13  H42 UNL     1      24.945 -13.597  20.534  1.00  0.00     0.278 HD
ATOM     14  H43 UNL     1      23.521 -13.617  19.946  1.00  0.00     0.278 HD
HETATM   15  N5  UNL     1      25.202 -11.011  20.860  1.00  0.00    -0.033 N 
ATOM     16  H51 UNL     1      24.815 -10.883  21.795  1.00  0.00     0.278 HD
ATOM     17  H52 UNL     1      25.501 -10.113  20.481  1.00  0.00     0.278 HD
ATOM     18  H53 UNL     1      26.101 -11.492  20.919  1.00  0.00     0.278 HD
HETATM   19  C6  UNL     1      24.396 -10.040  17.255  1.00  0.00     0.117 A 
HETATM   20  N6  UNL     1      23.664  -9.421  18.290  1.00  0.00    -0.096 NA
HETATM   21  C7  UNL     1      24.499  -9.431  16.017  1.00  0.00     0.134 A 
HETATM   22  N9  UNL     1      25.182 -10.105  15.023  1.00  0.00    -0.294 N 
HETATM   23  C13 UNL     1      25.730 -11.314  15.272  1.00  0.00     0.144 A 
HETATM   24  N10 UNL     1      26.422 -11.973  14.305  1.00  0.00    -0.175 N 
ATOM     25  H10 UNL     1      26.513 -11.550  13.382  1.00  0.00     0.186 HD
ENDROOT
BRANCH  21  26
HETATM   26  N7  UNL     1      24.016  -8.139  15.749  1.00  0.00    -0.368 N 
ATOM     27  H7  UNL     1      24.742  -7.422  15.765  1.00  0.00     0.161 HD
BRANCH  26  28
HETATM   28  C8  UNL     1      22.729  -7.629  15.462  1.00  0.00     0.110 C 
HETATM   29  C9  UNL     1      22.676  -6.434  14.552  1.00  0.00     0.054 C 
HETATM   30  C10 UNL     1      21.191  -6.464  14.146  1.00  0.00     0.234 C 
HETATM   31  N8  UNL     1      21.032  -7.845  13.792  1.00  0.00    -0.073 N 
HETATM   32  C11 UNL     1      21.936  -8.630  14.563  1.00  0.00     0.257 C 
ATOM     33  H82 UNL     1      20.067  -8.161  13.884  1.00  0.00     0.277 HD
ATOM     34  H81 UNL     1      21.138  -8.003  12.790  1.00  0.00     0.277 HD
ENDBRANCH  26  28
ENDBRANCH  21  26
BRANCH  22  35
HETATM   35  C12 UNL     1      25.290  -9.574  13.693  1.00  0.00     0.298 C 
BRANCH  35  36
HETATM   36  O2  UNL     1      26.547  -9.770  13.133  1.00  0.00    -0.382 OA
ATOM     37  H2  UNL     1      26.525  -9.821  12.185  1.00  0.00     0.211 HD
ENDBRANCH  35  36
ENDBRANCH  22  35
BRANCH   1  38
HETATM   38  N1  UNL     1      27.651 -13.802  13.602  1.00  0.00    -0.234 N 
ATOM     39  H12 UNL     1      27.188 -14.086  12.739  1.00  0.00     0.174 HD
ATOM     40  H11 UNL     1      28.641 -13.994  13.752  1.00  0.00     0.174 HD
ENDBRANCH   1  38
TORSDOF 5
ENDMDL
MODEL 5
REMARK VINA RESULT: -5.577240843      1.940      6.378
REMARK  5 active torsions:
REMARK  status: ('A' for Active; 'I' for Inactive)
REMARK    1  A    between atoms: N1_1  and  C1_4 
REMARK       I    between atoms: N3_11  and  C5_13 
REMARK       I    between atoms: C5_13  and  N4_14 
REMARK       I    between atoms: C5_13  and  N5_18 
REMARK    2  A    between atoms: C7_24  and  N7_25 
REMARK    3  A    between atoms: N7_25  and  C8_27 
REMARK    4  A    between atoms: N9_34  and  C12_35 
REMARK    5  A    between atoms: C12_35  and  O2_36 
ROOT
HETATM    1  C1  UNL     1      23.532  -7.648  15.833  1.00  0.00     0.680 A 
HETATM    2  N2  UNL     1      23.366  -7.866  17.126  1.00  0.00    -0.155 N 
ATOM      3  H2  UNL     1      22.912  -7.171  17.718  1.00  0.00     0.187 HD
HETATM    4  C2  UNL     1      23.813  -9.032  17.648  1.00  0.00     0.276 A 
HETATM    5  O1  UNL     1      23.615  -9.164  18.891  1.00  0.00    -0.267 OA
HETATM    6  C3  UNL     1      24.433  -9.999  16.892  1.00  0.00     0.106 A 
HETATM    7  C4  UNL     1      24.858 -11.180  17.467  1.00  0.00     0.079 A 
HETATM    8  N3  UNL     1      24.691 -11.344  18.676  1.00  0.00    -0.338 N 
ATOM      9  H3  UNL     1      24.235 -10.523  19.075  1.00  0.00     0.163 HD
HETATM   10  C5  UNL     1      24.922 -12.282  19.673  1.00  0.00     0.480 C 
HETATM   11  N4  UNL     1      25.019 -11.587  20.984  1.00  0.00    -0.033 N 
ATOM     12  H41 UNL     1      25.189 -12.277  21.716  1.00  0.00     0.278 HD
ATOM     13  H42 UNL     1      24.201 -11.010  21.178  1.00  0.00     0.278 HD
ATOM     14  H43 UNL     1      25.721 -10.847  20.979  1.00  0.00     0.278 HD
HETATM   15  N5  UNL     1      23.871 -13.258  19.874  1.00  0.00    -0.033 N 
ATOM     16  H51 UNL     1      24.041 -13.947  20.607  1.00  0.00     0.278 HD
ATOM     17  H52 UNL     1      23.661 -13.729  18.995  1.00  0.00     0.278 HD
ATOM     18  H53 UNL     1      22.984 -12.783  20.042  1.00  0.00     0.278 HD
HETATM   19  C6  UNL     1      25.455 -12.092  16.599  1.00  0.00     0.117 A 
HETATM   20  N6  UNL     1      25.938 -13.281  17.185  1.00  0.00    -0.096 NA
HETATM   21  C7  UNL     1      25.628 -11.864  15.246  1.00  0.00     0.134 A 
HETATM   22  N9  UNL     1      25.184 -10.660  14.734  1.00  0.00    -0.294 N 
HETATM   23  C13 UNL     1      24.598  -9.751  15.541  1.00  0.00     0.144 A 
HETATM   24  N10 UNL     1      24.140  -8.573  15.041  1.00  0.00    -0.175 N 
ATOM     25  H10 UNL     1      24.254  -8.377  14.047  1.00  0.00     0.186 HD
ENDROOT
BRANCH  21  26
HETATM   26  N7  UNL     1      26.155 -12.822  14.363  1.00  0.00    -0.368 N 
ATOM     27  H7  UNL     1      25.440 -13.364  13.877  1.00  0.00     0.161 HD
BRANCH  26  28
HETATM   28  C8  UNL     1      27.474 -13.188  14.010  1.00  0.00     0.110 C 
HETATM   29  C9  UNL     1      27.728 -14.657  13.823  1.00  0.00     0.054 C 
HETATM   30  C10 UNL     1      29.062 -14.609  13.055  1.00  0.00     0.234 C 
HETATM   31  N8  UNL     1      28.760 -13.636  12.045  1.00  0.00    -0.073 N 
HETATM   32  C11 UNL     1      27.798 -12.719  12.556  1.00  0.00     0.257 C 
ATOM     33  H82 UNL     1      29.596 -13.167  11.696  1.00  0.00     0.277 HD
ATOM     34  H81 UNL     1      28.461 -14.065  11.170  1.00  0.00     0.277 HD
ENDBRANCH  26  28
ENDBRANCH  21  26
BRANCH  22  35
HETATM   35  C12 UNL     1      25.373 -10.317  13.351  1.00  0.00     0.298 C 
BRANCH  35  36
HETATM   36  O2  UNL     1      26.659  -9.871  13.077  1.00  0.00    -0.382 OA
ATOM     37  H2  UNL     1      26.887  -9.942  12.158  1.00  0.00     0.211 HD
ENDBRANCH  35  36
ENDBRANCH  22  35
BRANCH   1  38
HETATM   38  N1  UNL     1      23.102  -6.527  15.337  1.00  0.00    -0.234 N 
ATOM     39  H12 UNL     1      22.865  -6.450  14.348  1.00  0.00     0.174 HD
ATOM     40  H11 UNL     1      23.007  -5.727  15.962  1.00  0.00     0.174 HD
ENDBRANCH   1  38
TORSDOF 5
ENDMDL
