MODEL 1
REMARK VINA RESULT: -6.010143613      0.000      0.000
REMARK  9 active torsions:
REMARK  status: ('A' for Active; 'I' for Inactive)
REMARK       I    between atoms: C1_4  and  N2_5 
REMARK       I    between atoms: C1_4  and  N3_12 
REMARK    1  A    between atoms: N2_5  and  C2_7 
REMARK    2  A    between atoms: C2_7  and  C3_8 
REMARK    3  A    between atoms: C3_8  and  C4_9 
REMARK    4  A    between atoms: C4_9  and  C5_10 
REMARK    5  A    between atoms: C9_16  and  C10_17 
REMARK    6  A    between atoms: C10_17  and  N4_18 
REMARK    7  A    between atoms: N4_18  and  C11_20 
REMARK    8  A    between atoms: C11_20  and  N5_22 
REMARK    9  A    between atoms: N5_22  and  C12_24 
ROOT
HETATM    1  N1  UNL     1       2.307 -11.676   4.651  1.00  0.00    -0.235 N 
ATOM      2  H11 UNL     1       3.207 -11.214   4.786  1.00  0.00     0.174 HD
ATOM      3  H12 UNL     1       2.051 -12.426   5.293  1.00  0.00     0.174 HD
HETATM    4  C1  UNL     1       1.598 -11.273   3.697  1.00  0.00     0.670 C 
HETATM    5  N2  UNL     1       0.322 -11.928   3.506  1.00  0.00    -0.227 N 
ATOM      6  H2  UNL     1      -0.204 -11.757   2.649  1.00  0.00     0.177 HD
HETATM    7  N3  UNL     1       1.949 -10.240   2.814  1.00  0.00    -0.209 N 
HETATM    8  C6  UNL     1       1.769  -8.809   3.102  1.00  0.00     0.142 C 
HETATM    9  C7  UNL     1       1.050  -8.429   1.798  1.00  0.00     0.023 C 
HETATM   10  C8  UNL     1       1.870  -9.111   0.754  1.00  0.00     0.033 C 
HETATM   11  C9  UNL     1       2.415 -10.374   1.486  1.00  0.00     0.140 C 
ENDROOT
BRANCH  11  12
HETATM   12  C10 UNL     1       3.812 -10.589   1.112  1.00  0.00     0.089 C 
BRANCH  12  13
HETATM   13  N4  UNL     1       4.151 -11.570   0.175  1.00  0.00    -0.345 N 
ATOM     14  H4  UNL     1       4.169 -12.502   0.590  1.00  0.00     0.167 HD
BRANCH  13  15
HETATM   15  C11 UNL     1       4.472 -11.599  -1.180  1.00  0.00     0.171 C 
HETATM   16  S1  UNL     1       5.951 -11.351  -1.766  1.00  0.00    -0.041 SA
BRANCH  15  17
HETATM   17  N5  UNL     1       3.453 -11.922  -2.136  1.00  0.00    -0.362 N 
ATOM     18  H5  UNL     1       3.610 -12.648  -2.835  1.00  0.00     0.162 HD
BRANCH  17  19
HETATM   19  C12 UNL     1       2.218 -11.214  -2.096  1.00  0.00     0.083 C 
HETATM   20  C13 UNL     1       1.044 -12.054  -1.560  1.00  0.00     0.025 C 
HETATM   21  C14 UNL     1       0.172 -11.250  -2.533  1.00  0.00     0.004 C 
HETATM   22  C15 UNL     1       1.430 -11.182  -3.410  1.00  0.00     0.025 C 
ENDBRANCH  17  19
ENDBRANCH  15  17
ENDBRANCH  13  15
ENDBRANCH  12  13
ENDBRANCH  11  12
BRANCH   5  23
HETATM   23  C2  UNL     1      -0.221 -12.816   4.500  1.00  0.00     0.138 C 
BRANCH  23  24
HETATM   24  C3  UNL     1      -1.715 -12.918   4.314  1.00  0.00     0.021 C 
BRANCH  24  25
HETATM   25  C4  UNL     1      -2.365 -11.536   4.381  1.00  0.00     0.012 C 
BRANCH  25  26
HETATM   26  C5  UNL     1      -3.806 -11.630   3.995  1.00  0.00     0.085 C 
HETATM   27 BR1  UNL     1      -4.350 -13.483   4.204  1.00  0.00    -0.097 Br
ENDBRANCH  25  26
ENDBRANCH  24  25
ENDBRANCH  23  24
ENDBRANCH   5  23
TORSDOF 9
ENDMDL
MODEL 2
REMARK VINA RESULT: -5.993194146      4.225      7.666
REMARK  9 active torsions:
REMARK  status: ('A' for Active; 'I' for Inactive)
REMARK       I    between atoms: C1_4  and  N2_5 
REMARK       I    between atoms: C1_4  and  N3_12 
REMARK    1  A    between atoms: N2_5  and  C2_7 
REMARK    2  A    between atoms: C2_7  and  C3_8 
REMARK    3  A    between atoms: C3_8  and  C4_9 
REMARK    4  A    between atoms: C4_9  and  C5_10 
REMARK    5  A    between atoms: C9_16  and  C10_17 
REMARK    6  A    between atoms: C10_17  and  N4_18 
REMARK    7  A    between atoms: N4_18  and  C11_20 
REMARK    8  A    between atoms: C11_20  and  N5_22 
REMARK    9  A    between atoms: N5_22  and  C12_24 
ROOT
HETATM    1  N1  UNL     1      -0.008  -9.716   0.127  1.00  0.00    -0.235 N 
ATOM      2  H11 UNL     1      -0.682  -9.216   0.708  1.00  0.00     0.174 HD
ATOM      3  H12 UNL     1      -0.168  -9.742  -0.880  1.00  0.00     0.174 HD
HETATM    4  C1  UNL     1       0.959 -10.258   0.715  1.00  0.00     0.670 C 
HETATM    5  N2  UNL     1       1.915 -10.965  -0.109  1.00  0.00    -0.227 N 
ATOM      6  H2  UNL     1       2.612 -11.562   0.335  1.00  0.00     0.177 HD
HETATM    7  N3  UNL     1       1.180 -10.222   2.101  1.00  0.00    -0.209 N 
HETATM    8  C6  UNL     1       1.820  -9.102   2.808  1.00  0.00     0.142 C 
HETATM    9  C7  UNL     1       2.852  -9.925   3.596  1.00  0.00     0.023 C 
HETATM   10  C8  UNL     1       2.041 -11.063   4.119  1.00  0.00     0.033 C 
HETATM   11  C9  UNL     1       0.946 -11.262   3.029  1.00  0.00     0.140 C 
ENDROOT
BRANCH  11  12
HETATM   12  C10 UNL     1      -0.340 -11.528   3.673  1.00  0.00     0.089 C 
BRANCH  12  13
HETATM   13  N4  UNL     1      -1.184 -10.473   4.033  1.00  0.00    -0.345 N 
ATOM     14  H4  UNL     1      -1.902 -10.303   3.329  1.00  0.00     0.167 HD
BRANCH  13  15
HETATM   15  C11 UNL     1      -1.294  -9.595   5.109  1.00  0.00     0.171 C 
HETATM   16  S1  UNL     1      -0.696  -9.881   6.576  1.00  0.00    -0.041 SA
BRANCH  15  17
HETATM   17  N5  UNL     1      -1.927  -8.322   4.914  1.00  0.00    -0.362 N 
ATOM     18  H5  UNL     1      -1.447  -7.578   4.409  1.00  0.00     0.162 HD
BRANCH  17  19
HETATM   19  C12 UNL     1      -3.234  -8.114   5.438  1.00  0.00     0.083 C 
HETATM   20  C13 UNL     1      -4.188  -9.299   5.203  1.00  0.00     0.025 C 
HETATM   21  C14 UNL     1      -5.293  -8.241   5.089  1.00  0.00     0.004 C 
HETATM   22  C15 UNL     1      -4.192  -7.328   4.535  1.00  0.00     0.025 C 
ENDBRANCH  17  19
ENDBRANCH  15  17
ENDBRANCH  13  15
ENDBRANCH  12  13
ENDBRANCH  11  12
BRANCH   5  23
HETATM   23  C2  UNL     1       1.903 -10.845  -1.543  1.00  0.00     0.138 C 
BRANCH  23  24
HETATM   24  C3  UNL     1       3.146 -11.486  -2.108  1.00  0.00     0.021 C 
BRANCH  24  25
HETATM   25  C4  UNL     1       4.272 -11.488  -1.074  1.00  0.00     0.012 C 
BRANCH  25  26
HETATM   26  C5  UNL     1       5.563 -11.870  -1.724  1.00  0.00     0.085 C 
HETATM   27 BR1  UNL     1       5.514 -11.215  -3.552  1.00  0.00    -0.097 Br
ENDBRANCH  25  26
ENDBRANCH  24  25
ENDBRANCH  23  24
ENDBRANCH   5  23
TORSDOF 9
ENDMDL
MODEL 3
REMARK VINA RESULT: -5.973302380      1.721      2.726
REMARK  9 active torsions:
REMARK  status: ('A' for Active; 'I' for Inactive)
REMARK       I    between atoms: C1_4  and  N2_5 
REMARK       I    between atoms: C1_4  and  N3_12 
REMARK    1  A    between atoms: N2_5  and  C2_7 
REMARK    2  A    between atoms: C2_7  and  C3_8 
REMARK    3  A    between atoms: C3_8  and  C4_9 
REMARK    4  A    between atoms: C4_9  and  C5_10 
REMARK    5  A    between atoms: C9_16  and  C10_17 
REMARK    6  A    between atoms: C10_17  and  N4_18 
REMARK    7  A    between atoms: N4_18  and  C11_20 
REMARK    8  A    between atoms: C11_20  and  N5_22 
REMARK    9  A    between atoms: N5_22  and  C12_24 
ROOT
HETATM    1  N1  UNL     1       2.302 -11.500   4.292  1.00  0.00    -0.235 N 
ATOM      2  H11 UNL     1       3.255 -11.142   4.225  1.00  0.00     0.174 HD
ATOM      3  H12 UNL     1       2.084 -12.149   5.049  1.00  0.00     0.174 HD
HETATM    4  C1  UNL     1       1.484 -11.105   3.427  1.00  0.00     0.670 C 
HETATM    5  N2  UNL     1       0.131 -11.611   3.522  1.00  0.00    -0.227 N 
ATOM      6  H2  UNL     1      -0.515 -11.458   2.748  1.00  0.00     0.177 HD
HETATM    7  N3  UNL     1       1.783 -10.211   2.386  1.00  0.00    -0.209 N 
HETATM    8  C6  UNL     1       1.809  -8.748   2.534  1.00  0.00     0.142 C 
HETATM    9  C7  UNL     1       0.918  -8.407   1.329  1.00  0.00     0.023 C 
HETATM   10  C8  UNL     1       1.464  -9.282   0.251  1.00  0.00     0.033 C 
HETATM   11  C9  UNL     1       1.992 -10.528   1.024  1.00  0.00     0.140 C 
ENDROOT
BRANCH  11  12
HETATM   12  C10 UNL     1       3.271 -10.949   0.455  1.00  0.00     0.089 C 
BRANCH  12  13
HETATM   13  N4  UNL     1       3.306 -11.793  -0.660  1.00  0.00    -0.345 N 
ATOM     14  H4  UNL     1       3.454 -12.767  -0.395  1.00  0.00     0.167 HD
BRANCH  13  15
HETATM   15  C11 UNL     1       3.192 -11.643  -2.040  1.00  0.00     0.171 C 
HETATM   16  S1  UNL     1       1.809 -11.775  -2.854  1.00  0.00    -0.041 SA
BRANCH  15  17
HETATM   17  N5  UNL     1       4.353 -11.294  -2.807  1.00  0.00    -0.362 N 
ATOM     18  H5  UNL     1       4.284 -10.626  -3.575  1.00  0.00     0.162 HD
BRANCH  17  19
HETATM   19  C12 UNL     1       5.603 -11.894  -2.481  1.00  0.00     0.083 C 
HETATM   20  C13 UNL     1       6.608 -10.916  -1.848  1.00  0.00     0.025 C 
HETATM   21  C14 UNL     1       7.687 -11.737  -2.567  1.00  0.00     0.004 C 
HETATM   22  C15 UNL     1       6.611 -11.989  -3.632  1.00  0.00     0.025 C 
ENDBRANCH  17  19
ENDBRANCH  15  17
ENDBRANCH  13  15
ENDBRANCH  12  13
ENDBRANCH  11  12
BRANCH   5  23
HETATM   23  C2  UNL     1      -0.321 -12.326   4.686  1.00  0.00     0.138 C 
BRANCH  23  24
HETATM   24  C3  UNL     1      -1.435 -13.265   4.293  1.00  0.00     0.021 C 
BRANCH  24  25
HETATM   25  C4  UNL     1      -2.780 -12.540   4.294  1.00  0.00     0.012 C 
BRANCH  25  26
HETATM   26  C5  UNL     1      -3.896 -13.532   4.222  1.00  0.00     0.085 C 
HETATM   27 BR1  UNL     1      -5.317 -12.740   3.161  1.00  0.00    -0.097 Br
ENDBRANCH  25  26
ENDBRANCH  24  25
ENDBRANCH  23  24
ENDBRANCH   5  23
TORSDOF 9
ENDMDL
MODEL 4
REMARK VINA RESULT: -5.963366777      4.045      7.518
REMARK  9 active torsions:
REMARK  status: ('A' for Active; 'I' for Inactive)
REMARK       I    between atoms: C1_4  and  N2_5 
REMARK       I    between atoms: C1_4  and  N3_12 
REMARK    1  A    between atoms: N2_5  and  C2_7 
REMARK    2  A    between atoms: C2_7  and  C3_8 
REMARK    3  A    between atoms: C3_8  and  C4_9 
REMARK    4  A    between atoms: C4_9  and  C5_10 
REMARK    5  A    between atoms: C9_16  and  C10_17 
REMARK    6  A    between atoms: C10_17  and  N4_18 
REMARK    7  A    between atoms: N4_18  and  C11_20 
REMARK    8  A    between atoms: C11_20  and  N5_22 
REMARK    9  A    between atoms: N5_22  and  C12_24 
ROOT
HETATM    1  N1  UNL     1       3.734 -11.495   1.421  1.00  0.00    -0.235 N 
ATOM      2  H11 UNL     1       2.939 -11.798   1.985  1.00  0.00     0.174 HD
ATOM      3  H12 UNL     1       4.639 -11.395   1.880  1.00  0.00     0.174 HD
HETATM    4  C1  UNL     1       3.515 -11.268   0.206  1.00  0.00     0.670 C 
HETATM    5  N2  UNL     1       4.642 -10.839  -0.594  1.00  0.00    -0.227 N 
ATOM      6  H2  UNL     1       4.478 -10.479  -1.534  1.00  0.00     0.177 HD
HETATM    7  N3  UNL     1       2.269 -11.405  -0.426  1.00  0.00    -0.209 N 
HETATM    8  C6  UNL     1       1.728 -12.681  -0.919  1.00  0.00     0.142 C 
HETATM    9  C7  UNL     1       1.358 -12.210  -2.334  1.00  0.00     0.023 C 
HETATM   10  C8  UNL     1       0.682 -10.902  -2.085  1.00  0.00     0.033 C 
HETATM   11  C9  UNL     1       1.384 -10.369  -0.800  1.00  0.00     0.140 C 
ENDROOT
BRANCH  11  12
HETATM   12  C10 UNL     1       0.388  -9.765   0.084  1.00  0.00     0.089 C 
BRANCH  12  13
HETATM   13  N4  UNL     1       0.788  -9.041   1.212  1.00  0.00    -0.345 N 
ATOM     14  H4  UNL     1       1.065  -8.089   0.974  1.00  0.00     0.167 HD
BRANCH  13  15
HETATM   15  C11 UNL     1       0.905  -9.290   2.577  1.00  0.00     0.171 C 
HETATM   16  S1  UNL     1       0.557 -10.699   3.274  1.00  0.00    -0.041 SA
BRANCH  15  17
HETATM   17  N5  UNL     1       1.416  -8.262   3.437  1.00  0.00    -0.362 N 
ATOM     18  H5  UNL     1       1.481  -7.298   3.110  1.00  0.00     0.162 HD
BRANCH  17  19
HETATM   19  C12 UNL     1       1.833  -8.607   4.755  1.00  0.00     0.083 C 
HETATM   20  C13 UNL     1       1.143  -7.780   5.854  1.00  0.00     0.025 C 
HETATM   21  C14 UNL     1       2.464  -7.907   6.622  1.00  0.00     0.004 C 
HETATM   22  C15 UNL     1       3.125  -7.937   5.237  1.00  0.00     0.025 C 
ENDBRANCH  17  19
ENDBRANCH  15  17
ENDBRANCH  13  15
ENDBRANCH  12  13
ENDBRANCH  11  12
BRANCH   5  23
HETATM   23  C2  UNL     1       5.988 -10.910  -0.092  1.00  0.00     0.138 C 
BRANCH  23  24
HETATM   24  C3  UNL     1       6.917 -11.314  -1.210  1.00  0.00     0.021 C 
BRANCH  24  25
HETATM   25  C4  UNL     1       6.153 -12.054  -2.309  1.00  0.00     0.012 C 
BRANCH  25  26
HETATM   26  C5  UNL     1       6.231 -11.288  -3.590  1.00  0.00     0.085 C 
HETATM   27 BR1  UNL     1       4.421 -11.097  -4.269  1.00  0.00    -0.097 Br
ENDBRANCH  25  26
ENDBRANCH  24  25
ENDBRANCH  23  24
ENDBRANCH   5  23
TORSDOF 9
ENDMDL
MODEL 5
REMARK VINA RESULT: -5.959964238      2.324      4.627
REMARK  9 active torsions:
REMARK  status: ('A' for Active; 'I' for Inactive)
REMARK       I    between atoms: C1_4  and  N2_5 
REMARK       I    between atoms: C1_4  and  N3_12 
REMARK    1  A    between atoms: N2_5  and  C2_7 
REMARK    2  A    between atoms: C2_7  and  C3_8 
REMARK    3  A    between atoms: C3_8  and  C4_9 
REMARK    4  A    between atoms: C4_9  and  C5_10 
REMARK    5  A    between atoms: C9_16  and  C10_17 
REMARK    6  A    between atoms: C10_17  and  N4_18 
REMARK    7  A    between atoms: N4_18  and  C11_20 
REMARK    8  A    between atoms: C11_20  and  N5_22 
REMARK    9  A    between atoms: N5_22  and  C12_24 
ROOT
HETATM    1  N1  UNL     1       1.453  -8.705  -0.247  1.00  0.00    -0.235 N 
ATOM      2  H11 UNL     1       1.378  -8.355  -1.202  1.00  0.00     0.174 HD
ATOM      3  H12 UNL     1       1.476  -8.026   0.514  1.00  0.00     0.174 HD
HETATM    4  C1  UNL     1       1.514  -9.950  -0.100  1.00  0.00     0.670 C 
HETATM    5  N2  UNL     1       1.620 -10.446   1.255  1.00  0.00    -0.227 N 
ATOM      6  H2  UNL     1       1.846 -11.429   1.411  1.00  0.00     0.177 HD
HETATM    7  N3  UNL     1       1.481 -10.886  -1.146  1.00  0.00    -0.209 N 
HETATM    8  C6  UNL     1       0.248 -11.366  -1.788  1.00  0.00     0.142 C 
HETATM    9  C7  UNL     1       0.540 -12.871  -1.685  1.00  0.00     0.023 C 
HETATM   10  C8  UNL     1       1.962 -12.967  -2.126  1.00  0.00     0.033 C 
HETATM   11  C9  UNL     1       2.574 -11.605  -1.681  1.00  0.00     0.140 C 
ENDROOT
BRANCH  11  12
HETATM   12  C10 UNL     1       3.466 -11.106  -2.728  1.00  0.00     0.089 C 
BRANCH  12  13
HETATM   13  N4  UNL     1       4.716 -11.698  -2.935  1.00  0.00    -0.345 N 
ATOM     14  H4  UNL     1       4.680 -12.419  -3.655  1.00  0.00     0.167 HD
BRANCH  13  15
HETATM   15  C11 UNL     1       5.997 -11.555  -2.407  1.00  0.00     0.171 C 
HETATM   16  S1  UNL     1       7.349 -11.926  -3.200  1.00  0.00    -0.041 SA
BRANCH  15  17
HETATM   17  N5  UNL     1       6.159 -10.992  -1.098  1.00  0.00    -0.362 N 
ATOM     18  H5  UNL     1       6.360  -9.999  -0.982  1.00  0.00     0.162 HD
BRANCH  17  19
HETATM   19  C12 UNL     1       6.035 -11.841   0.039  1.00  0.00     0.083 C 
HETATM   20  C13 UNL     1       4.961 -11.377   1.039  1.00  0.00     0.025 C 
HETATM   21  C14 UNL     1       5.881 -11.953   2.123  1.00  0.00     0.004 C 
HETATM   22  C15 UNL     1       7.028 -11.573   1.176  1.00  0.00     0.025 C 
ENDBRANCH  17  19
ENDBRANCH  15  17
ENDBRANCH  13  15
ENDBRANCH  12  13
ENDBRANCH  11  12
BRANCH   5  23
HETATM   23  C2  UNL     1       1.413  -9.584   2.388  1.00  0.00     0.138 C 
BRANCH  23  24
HETATM   24  C3  UNL     1       2.452  -9.883   3.440  1.00  0.00     0.021 C 
BRANCH  24  25
HETATM   25  C4  UNL     1       2.119 -11.180   4.177  1.00  0.00     0.012 C 
BRANCH  25  26
HETATM   26  C5  UNL     1       0.716 -11.131   4.690  1.00  0.00     0.085 C 
HETATM   27 BR1  UNL     1      -0.166 -12.772   4.141  1.00  0.00    -0.097 Br
ENDBRANCH  25  26
ENDBRANCH  24  25
ENDBRANCH  23  24
ENDBRANCH   5  23
TORSDOF 9
ENDMDL
