MODEL 1
REMARK VINA RESULT: -7.643201315      0.000      0.000
REMARK  7 active torsions:
REMARK  status: ('A' for Active; 'I' for Inactive)
REMARK       I    between atoms: C1_4  and  N3_6 
REMARK       I    between atoms: C2_8  and  N5_10 
REMARK    1  A    between atoms: N5_10  and  C3_12 
REMARK    2  A    between atoms: C3_12  and  C4_13 
REMARK    3  A    between atoms: N6_16  and  C7_17 
REMARK    4  A    between atoms: C7_17  and  C8_18 
REMARK    5  A    between atoms: C11_21  and  C12_22 
REMARK    6  A    between atoms: C12_22  and  C13_23 
REMARK    7  A    between atoms: C13_23  and  C14_24 
ROOT
HETATM    1  C4  UNL     1      12.520 -11.738   0.240  1.00  0.00     0.007 C 
HETATM    2  C5  UNL     1      12.522 -11.079  -1.108  1.00  0.00     0.036 C 
HETATM    3  C6  UNL     1      11.129 -10.716  -1.553  1.00  0.00     0.273 C 
HETATM    4  N6  UNL     1      10.193 -11.803  -1.502  1.00  0.00     0.092 N 
HETATM    5  C17 UNL     1      10.883 -13.021  -1.121  1.00  0.00     0.273 C 
HETATM    6  C18 UNL     1      11.443 -12.809   0.256  1.00  0.00     0.036 C 
ENDROOT
BRANCH   1   7
HETATM    7  C3  UNL     1      12.231 -10.780   1.350  1.00  0.00     0.127 C 
BRANCH   7   8
HETATM    8  N5  UNL     1      12.570  -9.416   1.088  1.00  0.00    -0.364 N 
HETATM    9  C2  UNL     1      11.608  -8.404   1.016  1.00  0.00     0.190 C 
HETATM   10  N3  UNL     1      11.987  -7.236   0.606  1.00  0.00    -0.305 N 
HETATM   11  N4  UNL     1      10.266  -8.660   1.373  1.00  0.00    -0.063 NA
HETATM   12  C1  UNL     1      13.313  -6.959   0.247  1.00  0.00     0.188 C 
ATOM     13  H3  UNL     1      11.295  -6.490   0.541  1.00  0.00     0.171 HD
HETATM   14  N1  UNL     1      13.773  -7.296  -0.902  1.00  0.00    -0.373 N 
HETATM   15  N2  UNL     1      14.188  -6.297   1.160  1.00  0.00    -0.064 NA
ATOM     16  H12 UNL     1      14.739  -7.094  -1.163  1.00  0.00     0.158 HD
ATOM     17  H11 UNL     1      13.148  -7.769  -1.555  1.00  0.00     0.158 HD
ATOM     18  H5  UNL     1      13.551  -9.172   0.949  1.00  0.00     0.162 HD
ENDBRANCH   7   8
ENDBRANCH   1   7
BRANCH   4  19
HETATM   19  C7  UNL     1       9.421 -11.943  -2.715  1.00  0.00     0.311 C 
BRANCH  19  20
HETATM   20  C8  UNL     1       7.964 -11.822  -2.446  1.00  0.00    -0.030 A 
HETATM   21  C9  UNL     1       7.046 -11.922  -3.495  1.00  0.00     0.009 A 
HETATM   22  C10 UNL     1       5.691 -11.808  -3.275  1.00  0.00     0.007 A 
HETATM   23  C11 UNL     1       5.161 -11.589  -2.020  1.00  0.00    -0.058 A 
HETATM   24  C15 UNL     1       6.064 -11.490  -0.985  1.00  0.00     0.007 A 
HETATM   25  C16 UNL     1       7.434 -11.605  -1.192  1.00  0.00     0.009 A 
BRANCH  23  26
HETATM   26  C12 UNL     1       3.716 -11.457  -1.801  1.00  0.00     0.039 C 
BRANCH  26  27
HETATM   27  C13 UNL     1       3.300 -11.253  -0.382  1.00  0.00     0.015 C 
BRANCH  27  28
HETATM   28  C14 UNL     1       1.782 -11.488  -0.355  1.00  0.00     0.085 C 
HETATM   29 BR1  UNL     1       1.247 -12.785  -1.665  1.00  0.00    -0.097 Br
ENDBRANCH  27  28
ENDBRANCH  26  27
ENDBRANCH  23  26
ENDBRANCH  19  20
ENDBRANCH   4  19
TORSDOF 7
ENDMDL
MODEL 2
REMARK VINA RESULT: -7.614264644      5.553      8.867
REMARK  7 active torsions:
REMARK  status: ('A' for Active; 'I' for Inactive)
REMARK       I    between atoms: C1_4  and  N3_6 
REMARK       I    between atoms: C2_8  and  N5_10 
REMARK    1  A    between atoms: N5_10  and  C3_12 
REMARK    2  A    between atoms: C3_12  and  C4_13 
REMARK    3  A    between atoms: N6_16  and  C7_17 
REMARK    4  A    between atoms: C7_17  and  C8_18 
REMARK    5  A    between atoms: C11_21  and  C12_22 
REMARK    6  A    between atoms: C12_22  and  C13_23 
REMARK    7  A    between atoms: C13_23  and  C14_24 
ROOT
HETATM    1  C4  UNL     1       0.698 -12.169  -1.742  1.00  0.00     0.007 C 
HETATM    2  C5  UNL     1       1.748 -13.138  -2.200  1.00  0.00     0.036 C 
HETATM    3  C6  UNL     1       3.116 -12.509  -2.222  1.00  0.00     0.273 C 
HETATM    4  N6  UNL     1       3.186 -11.276  -2.955  1.00  0.00     0.092 N 
HETATM    5  C17 UNL     1       1.904 -11.011  -3.581  1.00  0.00     0.273 C 
HETATM    6  C18 UNL     1       0.890 -10.858  -2.484  1.00  0.00     0.036 C 
ENDROOT
BRANCH   1   7
HETATM    7  C3  UNL     1       0.777 -11.882  -0.277  1.00  0.00     0.127 C 
BRANCH   7   8
HETATM    8  N5  UNL     1       1.108 -10.534   0.068  1.00  0.00    -0.364 N 
HETATM    9  C2  UNL     1       2.279 -10.201   0.754  1.00  0.00     0.190 C 
HETATM   10  N3  UNL     1       2.410  -8.983   1.172  1.00  0.00    -0.305 N 
HETATM   11  N4  UNL     1       3.278 -11.171   0.987  1.00  0.00    -0.063 NA
HETATM   12  C1  UNL     1       1.433  -8.003   0.953  1.00  0.00     0.188 C 
ATOM     13  H3  UNL     1       3.256  -8.726   1.681  1.00  0.00     0.171 HD
HETATM   14  N1  UNL     1       0.384  -7.936   1.688  1.00  0.00    -0.373 N 
HETATM   15  N2  UNL     1       1.581  -7.056  -0.106  1.00  0.00    -0.064 NA
ATOM     16  H12 UNL     1      -0.327  -7.222   1.528  1.00  0.00     0.158 HD
ATOM     17  H11 UNL     1       0.278  -8.612   2.444  1.00  0.00     0.158 HD
ATOM     18  H5  UNL     1       0.465  -9.788  -0.198  1.00  0.00     0.162 HD
ENDBRANCH   7   8
ENDBRANCH   1   7
BRANCH   4  19
HETATM   19  C7  UNL     1       4.292 -11.230  -3.882  1.00  0.00     0.311 C 
BRANCH  19  20
HETATM   20  C8  UNL     1       5.593 -11.392  -3.180  1.00  0.00    -0.030 A 
HETATM   21  C9  UNL     1       5.739 -10.948  -1.864  1.00  0.00     0.009 A 
HETATM   22  C10 UNL     1       6.934 -11.081  -1.192  1.00  0.00     0.007 A 
HETATM   23  C11 UNL     1       8.049 -11.652  -1.770  1.00  0.00    -0.058 A 
HETATM   24  C15 UNL     1       7.906 -12.090  -3.068  1.00  0.00     0.007 A 
HETATM   25  C16 UNL     1       6.706 -11.965  -3.757  1.00  0.00     0.009 A 
BRANCH  23  26
HETATM   26  C12 UNL     1       9.320 -11.777  -1.047  1.00  0.00     0.039 C 
BRANCH  26  27
HETATM   27  C13 UNL     1      10.524 -11.993  -1.902  1.00  0.00     0.015 C 
BRANCH  27  28
HETATM   28  C14 UNL     1      11.385 -13.023  -1.155  1.00  0.00     0.085 C 
HETATM   29 BR1  UNL     1      11.832 -14.514  -2.278  1.00  0.00    -0.097 Br
ENDBRANCH  27  28
ENDBRANCH  26  27
ENDBRANCH  23  26
ENDBRANCH  19  20
ENDBRANCH   4  19
TORSDOF 7
ENDMDL
MODEL 3
REMARK VINA RESULT: -7.482513892      6.327     10.038
REMARK  7 active torsions:
REMARK  status: ('A' for Active; 'I' for Inactive)
REMARK       I    between atoms: C1_4  and  N3_6 
REMARK       I    between atoms: C2_8  and  N5_10 
REMARK    1  A    between atoms: N5_10  and  C3_12 
REMARK    2  A    between atoms: C3_12  and  C4_13 
REMARK    3  A    between atoms: N6_16  and  C7_17 
REMARK    4  A    between atoms: C7_17  and  C8_18 
REMARK    5  A    between atoms: C11_21  and  C12_22 
REMARK    6  A    between atoms: C12_22  and  C13_23 
REMARK    7  A    between atoms: C13_23  and  C14_24 
ROOT
HETATM    1  C4  UNL     1       0.800  -8.778   1.598  1.00  0.00     0.007 C 
HETATM    2  C5  UNL     1       0.332 -10.172   1.302  1.00  0.00     0.036 C 
HETATM    3  C6  UNL     1       1.483 -11.096   1.004  1.00  0.00     0.273 C 
HETATM    4  N6  UNL     1       2.375 -10.616  -0.013  1.00  0.00     0.092 N 
HETATM    5  C17 UNL     1       1.857  -9.380  -0.570  1.00  0.00     0.273 C 
HETATM    6  C18 UNL     1       1.813  -8.371   0.541  1.00  0.00     0.036 C 
ENDROOT
BRANCH   1   7
HETATM    7  C3  UNL     1       1.461  -8.662   2.934  1.00  0.00     0.127 C 
BRANCH   7   8
HETATM    8  N5  UNL     1       0.577  -8.461   4.040  1.00  0.00    -0.364 N 
HETATM    9  C2  UNL     1       0.342  -9.448   5.003  1.00  0.00     0.190 C 
HETATM   10  N3  UNL     1      -0.599  -9.238   5.866  1.00  0.00    -0.305 N 
HETATM   11  N4  UNL     1       1.106 -10.634   5.018  1.00  0.00    -0.063 NA
HETATM   12  C1  UNL     1      -1.370  -8.069   5.870  1.00  0.00     0.188 C 
ATOM     13  H3  UNL     1      -0.787  -9.952   6.570  1.00  0.00     0.171 HD
HETATM   14  N1  UNL     1      -2.351  -7.917   5.057  1.00  0.00    -0.373 N 
HETATM   15  N2  UNL     1      -1.075  -7.010   6.781  1.00  0.00    -0.064 NA
ATOM     16  H12 UNL     1      -2.912  -7.065   5.060  1.00  0.00     0.158 HD
ATOM     17  H11 UNL     1      -2.562  -8.674   4.406  1.00  0.00     0.158 HD
ATOM     18  H5  UNL     1       0.101  -7.563   4.131  1.00  0.00     0.162 HD
ENDBRANCH   7   8
ENDBRANCH   1   7
BRANCH   4  19
HETATM   19  C7  UNL     1       2.676 -11.609  -1.018  1.00  0.00     0.311 C 
BRANCH  19  20
HETATM   20  C8  UNL     1       4.122 -11.609  -1.363  1.00  0.00    -0.030 A 
HETATM   21  C9  UNL     1       4.524 -11.545  -2.700  1.00  0.00     0.009 A 
HETATM   22  C10 UNL     1       5.857 -11.549  -3.048  1.00  0.00     0.007 A 
HETATM   23  C11 UNL     1       6.866 -11.616  -2.110  1.00  0.00    -0.058 A 
HETATM   24  C15 UNL     1       6.472 -11.679  -0.792  1.00  0.00     0.007 A 
HETATM   25  C16 UNL     1       5.132 -11.674  -0.426  1.00  0.00     0.009 A 
BRANCH  23  26
HETATM   26  C12 UNL     1       8.283 -11.631  -2.495  1.00  0.00     0.039 C 
BRANCH  26  27
HETATM   27  C13 UNL     1       9.252 -11.741  -1.365  1.00  0.00     0.015 C 
BRANCH  27  28
HETATM   28  C14 UNL     1      10.641 -11.832  -2.016  1.00  0.00     0.085 C 
HETATM   29 BR1  UNL     1      11.344 -13.616  -1.926  1.00  0.00    -0.097 Br
ENDBRANCH  27  28
ENDBRANCH  26  27
ENDBRANCH  23  26
ENDBRANCH  19  20
ENDBRANCH   4  19
TORSDOF 7
ENDMDL
MODEL 4
REMARK VINA RESULT: -7.428636604      6.057      9.926
REMARK  7 active torsions:
REMARK  status: ('A' for Active; 'I' for Inactive)
REMARK       I    between atoms: C1_4  and  N3_6 
REMARK       I    between atoms: C2_8  and  N5_10 
REMARK    1  A    between atoms: N5_10  and  C3_12 
REMARK    2  A    between atoms: C3_12  and  C4_13 
REMARK    3  A    between atoms: N6_16  and  C7_17 
REMARK    4  A    between atoms: C7_17  and  C8_18 
REMARK    5  A    between atoms: C11_21  and  C12_22 
REMARK    6  A    between atoms: C12_22  and  C13_23 
REMARK    7  A    between atoms: C13_23  and  C14_24 
ROOT
HETATM    1  C4  UNL     1       1.010  -9.009   1.828  1.00  0.00     0.007 C 
HETATM    2  C5  UNL     1       0.320 -10.175   1.184  1.00  0.00     0.036 C 
HETATM    3  C6  UNL     1       1.305 -11.154   0.602  1.00  0.00     0.273 C 
HETATM    4  N6  UNL     1       2.271 -10.564  -0.281  1.00  0.00     0.092 N 
HETATM    5  C17 UNL     1       1.967  -9.157  -0.461  1.00  0.00     0.273 C 
HETATM    6  C18 UNL     1       2.082  -8.496   0.883  1.00  0.00     0.036 C 
ENDROOT
BRANCH   1   7
HETATM    7  C3  UNL     1       1.672  -9.371   3.119  1.00  0.00     0.127 C 
BRANCH   7   8
HETATM    8  N5  UNL     1       0.959 -10.305   3.933  1.00  0.00    -0.364 N 
HETATM    9  C2  UNL     1       0.897 -10.194   5.326  1.00  0.00     0.190 C 
HETATM   10  N3  UNL     1       0.377 -11.176   5.989  1.00  0.00    -0.305 N 
HETATM   11  N4  UNL     1       1.396  -9.045   5.978  1.00  0.00    -0.063 NA
HETATM   12  C1  UNL     1      -0.124 -12.325   5.363  1.00  0.00     0.188 C 
ATOM     13  H3  UNL     1       0.331 -11.112   7.006  1.00  0.00     0.171 HD
HETATM   14  N1  UNL     1       0.658 -13.261   4.969  1.00  0.00    -0.373 N 
HETATM   15  N2  UNL     1      -1.527 -12.476   5.142  1.00  0.00    -0.064 NA
ATOM     16  H12 UNL     1       0.293 -14.098   4.514  1.00  0.00     0.158 HD
ATOM     17  H11 UNL     1       1.660 -13.154   5.127  1.00  0.00     0.158 HD
ATOM     18  H5  UNL     1       0.477 -11.083   3.481  1.00  0.00     0.162 HD
ENDBRANCH   7   8
ENDBRANCH   1   7
BRANCH   4  19
HETATM   19  C7  UNL     1       2.410 -11.280  -1.528  1.00  0.00     0.311 C 
BRANCH  19  20
HETATM   20  C8  UNL     1       3.838 -11.408  -1.921  1.00  0.00    -0.030 A 
HETATM   21  C9  UNL     1       4.811 -11.672  -0.953  1.00  0.00     0.009 A 
HETATM   22  C10 UNL     1       6.142 -11.791  -1.288  1.00  0.00     0.007 A 
HETATM   23  C11 UNL     1       6.593 -11.657  -2.585  1.00  0.00    -0.058 A 
HETATM   24  C15 UNL     1       5.636 -11.397  -3.541  1.00  0.00     0.007 A 
HETATM   25  C16 UNL     1       4.289 -11.276  -3.217  1.00  0.00     0.009 A 
BRANCH  23  26
HETATM   26  C12 UNL     1       8.016 -11.773  -2.927  1.00  0.00     0.039 C 
BRANCH  26  27
HETATM   27  C13 UNL     1       8.949 -11.852  -1.766  1.00  0.00     0.015 C 
BRANCH  27  28
HETATM   28  C14 UNL     1      10.363 -11.810  -2.364  1.00  0.00     0.085 C 
HETATM   29 BR1  UNL     1      11.377 -13.368  -1.885  1.00  0.00    -0.097 Br
ENDBRANCH  27  28
ENDBRANCH  26  27
ENDBRANCH  23  26
ENDBRANCH  19  20
ENDBRANCH   4  19
TORSDOF 7
ENDMDL
MODEL 5
REMARK VINA RESULT: -7.378745074      0.987      1.489
REMARK  7 active torsions:
REMARK  status: ('A' for Active; 'I' for Inactive)
REMARK       I    between atoms: C1_4  and  N3_6 
REMARK       I    between atoms: C2_8  and  N5_10 
REMARK    1  A    between atoms: N5_10  and  C3_12 
REMARK    2  A    between atoms: C3_12  and  C4_13 
REMARK    3  A    between atoms: N6_16  and  C7_17 
REMARK    4  A    between atoms: C7_17  and  C8_18 
REMARK    5  A    between atoms: C11_21  and  C12_22 
REMARK    6  A    between atoms: C12_22  and  C13_23 
REMARK    7  A    between atoms: C13_23  and  C14_24 
ROOT
HETATM    1  C4  UNL     1      12.616 -11.481   0.764  1.00  0.00     0.007 C 
HETATM    2  C5  UNL     1      12.777 -10.969  -0.637  1.00  0.00     0.036 C 
HETATM    3  C6  UNL     1      11.455 -10.570  -1.240  1.00  0.00     0.273 C 
HETATM    4  N6  UNL     1      10.444 -11.587  -1.167  1.00  0.00     0.092 N 
HETATM    5  C17 UNL     1      11.013 -12.798  -0.606  1.00  0.00     0.273 C 
HETATM    6  C18 UNL     1      11.469 -12.477   0.789  1.00  0.00     0.036 C 
ENDROOT
BRANCH   1   7
HETATM    7  C3  UNL     1      12.303 -10.397   1.743  1.00  0.00     0.127 C 
BRANCH   7   8
HETATM    8  N5  UNL     1      12.963  -9.150   1.511  1.00  0.00    -0.364 N 
HETATM    9  C2  UNL     1      13.217  -8.233   2.535  1.00  0.00     0.190 C 
HETATM   10  N3  UNL     1      13.663  -7.063   2.203  1.00  0.00    -0.305 N 
HETATM   11  N4  UNL     1      12.985  -8.577   3.884  1.00  0.00    -0.063 NA
HETATM   12  C1  UNL     1      13.902  -6.699   0.872  1.00  0.00     0.188 C 
ATOM     13  H3  UNL     1      13.846  -6.381   2.939  1.00  0.00     0.171 HD
HETATM   14  N1  UNL     1      12.943  -6.337   0.100  1.00  0.00    -0.373 N 
HETATM   15  N2  UNL     1      15.225  -6.730   0.338  1.00  0.00    -0.064 NA
ATOM     16  H12 UNL     1      13.117  -6.072  -0.869  1.00  0.00     0.158 HD
ATOM     17  H11 UNL     1      11.996  -6.315   0.481  1.00  0.00     0.158 HD
ATOM     18  H5  UNL     1      13.261  -8.922   0.562  1.00  0.00     0.162 HD
ENDBRANCH   7   8
ENDBRANCH   1   7
BRANCH   4  19
HETATM   19  C7  UNL     1       9.769 -11.806  -2.424  1.00  0.00     0.311 C 
BRANCH  19  20
HETATM   20  C8  UNL     1       8.292 -11.758  -2.261  1.00  0.00    -0.030 A 
HETATM   21  C9  UNL     1       7.733 -11.503  -1.006  1.00  0.00     0.009 A 
HETATM   22  C10 UNL     1       6.368 -11.458  -0.825  1.00  0.00     0.007 A 
HETATM   23  C11 UNL     1       5.478 -11.660  -1.859  1.00  0.00    -0.058 A 
HETATM   24  C15 UNL     1       6.026 -11.911  -3.097  1.00  0.00     0.007 A 
HETATM   25  C16 UNL     1       7.401 -11.958  -3.294  1.00  0.00     0.009 A 
BRANCH  23  26
HETATM   26  C12 UNL     1       4.025 -11.621  -1.650  1.00  0.00     0.039 C 
BRANCH  26  27
HETATM   27  C13 UNL     1       3.586 -11.281  -0.264  1.00  0.00     0.015 C 
BRANCH  27  28
HETATM   28  C14 UNL     1       2.052 -11.348  -0.285  1.00  0.00     0.085 C 
HETATM   29 BR1  UNL     1       1.417 -12.518  -1.667  1.00  0.00    -0.097 Br
ENDBRANCH  27  28
ENDBRANCH  26  27
ENDBRANCH  23  26
ENDBRANCH  19  20
ENDBRANCH   4  19
TORSDOF 7
ENDMDL
