MODEL 1
REMARK VINA RESULT: -7.277568060      0.000      0.000
REMARK  9 active torsions:
REMARK  status: ('A' for Active; 'I' for Inactive)
REMARK    1  A    between atoms: C3_3  and  O1_4 
REMARK    2  A    between atoms: C4_6  and  C5_7 
REMARK    3  A    between atoms: C5_7  and  C6_8 
REMARK    4  A    between atoms: C8_12  and  C9_13 
REMARK    5  A    between atoms: C9_13  and  C10_14 
REMARK    6  A    between atoms: C10_14  and  C11_15 
REMARK    7  A    between atoms: C11_15  and  C12_16 
REMARK    8  A    between atoms: C12_16  and  C13_17 
REMARK    9  A    between atoms: C18_24  and  O2_26 
ROOT
HETATM    1  C1  UNL     1       2.282 -11.280  -4.868  1.00  0.00     0.015 C 
HETATM    2  C2  UNL     1       2.210 -11.563  -3.717  1.00  0.00    -0.075 C 
HETATM    3  C3  UNL     1       2.123 -11.930  -2.326  1.00  0.00     0.155 C 
HETATM    4  C4  UNL     1       3.491 -11.960  -1.664  1.00  0.00     0.042 C 
HETATM    5  C16 UNL     1       3.136 -11.903  -0.212  1.00  0.00     0.028 C 
HETATM    6  C17 UNL     1       1.740 -11.339  -0.087  1.00  0.00     0.096 C 
HETATM    7 BR1  UNL     1       1.797  -9.721   0.952  1.00  0.00    -0.088 Br
HETATM    8  C18 UNL     1       1.308 -10.979  -1.494  1.00  0.00     0.110 C 
HETATM    9  C19 UNL     1      -0.159 -11.352  -1.721  1.00  0.00     0.051 C 
ENDROOT
BRANCH   3  10
HETATM   10  O1  UNL     1       1.575 -13.212  -2.138  1.00  0.00    -0.374 OA
ATOM     11  H1  UNL     1       1.412 -13.409  -1.224  1.00  0.00     0.212 HD
ENDBRANCH   3  10
BRANCH   4  12
HETATM   12  C5  UNL     1       4.390 -10.902  -2.183  1.00  0.00     0.067 C 
BRANCH  12  13
HETATM   13  C6  UNL     1       5.805 -11.264  -2.378  1.00  0.00     0.028 A 
HETATM   14  C7  UNL     1       6.307 -11.646  -3.625  1.00  0.00     0.114 A 
HETATM   15  N1  UNL     1       7.611 -11.860  -3.460  1.00  0.00    -0.354 N 
HETATM   16  C8  UNL     1       7.975 -11.643  -2.201  1.00  0.00     0.083 A 
ATOM     17  H1  UNL     1       8.246 -12.153  -4.202  1.00  0.00     0.166 HD
HETATM   18  N2  UNL     1       6.858 -11.277  -1.549  1.00  0.00    -0.343 N 
HETATM   19  C15 UNL     1       6.868 -10.922  -0.142  1.00  0.00     0.157 C 
BRANCH  16  20
HETATM   20  C9  UNL     1       9.355 -11.771  -1.590  1.00  0.00     0.076 C 
BRANCH  20  21
HETATM   21  C10 UNL     1      10.408 -11.714  -2.647  1.00  0.00     0.008 C 
BRANCH  21  22
HETATM   22  C11 UNL     1      11.614 -12.517  -2.247  1.00  0.00     0.004 C 
BRANCH  22  23
HETATM   23  C12 UNL     1      11.236 -13.968  -2.088  1.00  0.00     0.026 C 
BRANCH  23  24
HETATM   24  C13 UNL     1      12.291 -14.862  -2.666  1.00  0.00    -0.037 C 
HETATM   25  C14 UNL     1      12.690 -15.899  -1.992  1.00  0.00     0.007 C 
ENDBRANCH  23  24
ENDBRANCH  22  23
ENDBRANCH  21  22
ENDBRANCH  20  21
ENDBRANCH  16  20
ENDBRANCH  12  13
ENDBRANCH   4  12
BRANCH   8  26
HETATM   26  O2  UNL     1       1.463  -9.653  -1.805  1.00  0.00    -0.385 OA
ATOM     27  H2  UNL     1       0.732  -9.095  -1.567  1.00  0.00     0.210 HD
ENDBRANCH   8  26
TORSDOF 9
ENDMDL
MODEL 2
REMARK VINA RESULT: -6.900437339      0.721      1.376
REMARK  9 active torsions:
REMARK  status: ('A' for Active; 'I' for Inactive)
REMARK    1  A    between atoms: C3_3  and  O1_4 
REMARK    2  A    between atoms: C4_6  and  C5_7 
REMARK    3  A    between atoms: C5_7  and  C6_8 
REMARK    4  A    between atoms: C8_12  and  C9_13 
REMARK    5  A    between atoms: C9_13  and  C10_14 
REMARK    6  A    between atoms: C10_14  and  C11_15 
REMARK    7  A    between atoms: C11_15  and  C12_16 
REMARK    8  A    between atoms: C12_16  and  C13_17 
REMARK    9  A    between atoms: C18_24  and  O2_26 
ROOT
HETATM    1  C1  UNL     1       2.834 -11.301  -4.426  1.00  0.00     0.015 C 
HETATM    2  C2  UNL     1       2.548 -11.533  -3.298  1.00  0.00    -0.075 C 
HETATM    3  C3  UNL     1       2.203 -11.839  -1.932  1.00  0.00     0.155 C 
HETATM    4  C4  UNL     1       3.412 -11.764  -1.015  1.00  0.00     0.042 C 
HETATM    5  C16 UNL     1       2.775 -11.659   0.334  1.00  0.00     0.028 C 
HETATM    6  C17 UNL     1       1.359 -11.167   0.152  1.00  0.00     0.096 C 
HETATM    7 BR1  UNL     1       1.138  -9.501   1.089  1.00  0.00    -0.088 Br
HETATM    8  C18 UNL     1       1.198 -10.896  -1.331  1.00  0.00     0.110 C 
HETATM    9  C19 UNL     1      -0.177 -11.358  -1.819  1.00  0.00     0.051 C 
ENDROOT
BRANCH   3  10
HETATM   10  O1  UNL     1       1.685 -13.139  -1.783  1.00  0.00    -0.374 OA
ATOM     11  H1  UNL     1       2.347 -13.810  -1.898  1.00  0.00     0.212 HD
ENDBRANCH   3  10
BRANCH   4  12
HETATM   12  C5  UNL     1       4.349 -10.685  -1.407  1.00  0.00     0.067 C 
BRANCH  12  13
HETATM   13  C6  UNL     1       5.789 -10.985  -1.318  1.00  0.00     0.028 A 
HETATM   14  C7  UNL     1       6.488 -10.913  -0.109  1.00  0.00     0.114 A 
HETATM   15  N1  UNL     1       7.740 -11.281  -0.372  1.00  0.00    -0.354 N 
HETATM   16  C8  UNL     1       7.890 -11.582  -1.658  1.00  0.00     0.083 A 
ATOM     17  H1  UNL     1       8.486 -11.326   0.322  1.00  0.00     0.166 HD
HETATM   18  N2  UNL     1       6.685 -11.396  -2.225  1.00  0.00    -0.343 N 
HETATM   19  C15 UNL     1       6.447 -11.661  -3.632  1.00  0.00     0.157 C 
BRANCH  16  20
HETATM   20  C9  UNL     1       9.143 -12.042  -2.372  1.00  0.00     0.076 C 
BRANCH  20  21
HETATM   21  C10 UNL     1      10.363 -11.642  -1.609  1.00  0.00     0.008 C 
BRANCH  21  22
HETATM   22  C11 UNL     1      11.062 -12.847  -1.046  1.00  0.00     0.004 C 
BRANCH  22  23
HETATM   23  C12 UNL     1      11.109 -13.945  -2.079  1.00  0.00     0.026 C 
BRANCH  23  24
HETATM   24  C13 UNL     1      12.499 -14.489  -2.218  1.00  0.00    -0.037 C 
HETATM   25  C14 UNL     1      12.675 -15.773  -2.308  1.00  0.00     0.007 C 
ENDBRANCH  23  24
ENDBRANCH  22  23
ENDBRANCH  21  22
ENDBRANCH  20  21
ENDBRANCH  16  20
ENDBRANCH  12  13
ENDBRANCH   4  12
BRANCH   8  26
HETATM   26  O2  UNL     1       1.354  -9.579  -1.680  1.00  0.00    -0.385 OA
ATOM     27  H2  UNL     1       1.652  -9.010  -0.981  1.00  0.00     0.210 HD
ENDBRANCH   8  26
TORSDOF 9
ENDMDL
MODEL 3
REMARK VINA RESULT: -6.823902477      4.405      9.141
REMARK  9 active torsions:
REMARK  status: ('A' for Active; 'I' for Inactive)
REMARK    1  A    between atoms: C3_3  and  O1_4 
REMARK    2  A    between atoms: C4_6  and  C5_7 
REMARK    3  A    between atoms: C5_7  and  C6_8 
REMARK    4  A    between atoms: C8_12  and  C9_13 
REMARK    5  A    between atoms: C9_13  and  C10_14 
REMARK    6  A    between atoms: C10_14  and  C11_15 
REMARK    7  A    between atoms: C11_15  and  C12_16 
REMARK    8  A    between atoms: C12_16  and  C13_17 
REMARK    9  A    between atoms: C18_24  and  O2_26 
ROOT
HETATM    1  C1  UNL     1      11.295 -14.781  -2.167  1.00  0.00     0.015 C 
HETATM    2  C2  UNL     1      11.782 -13.699  -2.114  1.00  0.00    -0.075 C 
HETATM    3  C3  UNL     1      12.371 -12.384  -2.074  1.00  0.00     0.155 C 
HETATM    4  C4  UNL     1      11.336 -11.312  -1.776  1.00  0.00     0.042 C 
HETATM    5  C16 UNL     1      12.192 -10.164  -1.341  1.00  0.00     0.028 C 
HETATM    6  C17 UNL     1      13.532 -10.711  -0.909  1.00  0.00     0.096 C 
HETATM    7 BR1  UNL     1      13.838 -10.261   0.936  1.00  0.00    -0.088 Br
HETATM    8  C18 UNL     1      13.422 -12.219  -1.012  1.00  0.00     0.110 C 
HETATM    9  C19 UNL     1      14.711 -12.818  -1.580  1.00  0.00     0.051 C 
ENDROOT
BRANCH   3  10
HETATM   10  O1  UNL     1      12.963 -12.020  -3.297  1.00  0.00    -0.374 OA
ATOM     11  H1  UNL     1      13.907 -11.941  -3.236  1.00  0.00     0.212 HD
ENDBRANCH   3  10
BRANCH   4  12
HETATM   12  C5  UNL     1      10.299 -11.780  -0.826  1.00  0.00     0.067 C 
BRANCH  12  13
HETATM   13  C6  UNL     1       8.897 -11.694  -1.271  1.00  0.00     0.028 A 
HETATM   14  C7  UNL     1       8.547 -11.712  -2.624  1.00  0.00     0.114 A 
HETATM   15  N1  UNL     1       7.217 -11.661  -2.673  1.00  0.00    -0.354 N 
HETATM   16  C8  UNL     1       6.696 -11.611  -1.451  1.00  0.00     0.083 A 
ATOM     17  H1  UNL     1       6.671 -11.660  -3.534  1.00  0.00     0.166 HD
HETATM   18  N2  UNL     1       7.738 -11.633  -0.603  1.00  0.00    -0.343 N 
HETATM   19  C15 UNL     1       7.558 -11.626   0.838  1.00  0.00     0.157 C 
BRANCH  16  20
HETATM   20  C9  UNL     1       5.235 -11.544  -1.059  1.00  0.00     0.076 C 
BRANCH  20  21
HETATM   21  C10 UNL     1       4.358 -11.725  -2.254  1.00  0.00     0.008 C 
BRANCH  21  22
HETATM   22  C11 UNL     1       2.908 -11.731  -1.860  1.00  0.00     0.004 C 
BRANCH  22  23
HETATM   23  C12 UNL     1       2.039 -11.790  -3.091  1.00  0.00     0.026 C 
BRANCH  23  24
HETATM   24  C13 UNL     1       0.752 -11.054  -2.873  1.00  0.00    -0.037 C 
HETATM   25  C14 UNL     1      -0.027 -11.406  -1.893  1.00  0.00     0.007 C 
ENDBRANCH  23  24
ENDBRANCH  22  23
ENDBRANCH  21  22
ENDBRANCH  20  21
ENDBRANCH  16  20
ENDBRANCH  12  13
ENDBRANCH   4  12
BRANCH   8  26
HETATM   26  O2  UNL     1      13.150 -12.844   0.178  1.00  0.00    -0.385 OA
ATOM     27  H2  UNL     1      13.443 -13.746   0.235  1.00  0.00     0.210 HD
ENDBRANCH   8  26
TORSDOF 9
ENDMDL
MODEL 4
REMARK VINA RESULT: -6.740910648      4.265      8.745
REMARK  9 active torsions:
REMARK  status: ('A' for Active; 'I' for Inactive)
REMARK    1  A    between atoms: C3_3  and  O1_4 
REMARK    2  A    between atoms: C4_6  and  C5_7 
REMARK    3  A    between atoms: C5_7  and  C6_8 
REMARK    4  A    between atoms: C8_12  and  C9_13 
REMARK    5  A    between atoms: C9_13  and  C10_14 
REMARK    6  A    between atoms: C10_14  and  C11_15 
REMARK    7  A    between atoms: C11_15  and  C12_16 
REMARK    8  A    between atoms: C12_16  and  C13_17 
REMARK    9  A    between atoms: C18_24  and  O2_26 
ROOT
HETATM    1  C1  UNL     1      10.963 -13.229  -1.638  1.00  0.00     0.015 C 
HETATM    2  C2  UNL     1      11.051 -12.241  -0.987  1.00  0.00    -0.075 C 
HETATM    3  C3  UNL     1      11.155 -11.027  -0.216  1.00  0.00     0.155 C 
HETATM    4  C4  UNL     1       9.817 -10.621   0.378  1.00  0.00     0.042 C 
HETATM    5  C16 UNL     1      10.230  -9.665   1.453  1.00  0.00     0.028 C 
HETATM    6  C17 UNL     1      11.678  -9.931   1.792  1.00  0.00     0.096 C 
HETATM    7 BR1  UNL     1      11.817 -10.423   3.646  1.00  0.00    -0.088 Br
HETATM    8  C18 UNL     1      12.090 -11.127   0.957  1.00  0.00     0.110 C 
HETATM    9  C19 UNL     1      13.504 -10.938   0.402  1.00  0.00     0.051 C 
ENDROOT
BRANCH   3  10
HETATM   10  O1  UNL     1      11.583  -9.931  -0.989  1.00  0.00    -0.374 OA
ATOM     11  H1  UNL     1      10.869  -9.351  -1.225  1.00  0.00     0.212 HD
ENDBRANCH   3  10
BRANCH   4  12
HETATM   12  C5  UNL     1       9.006 -11.791   0.789  1.00  0.00     0.067 C 
BRANCH  12  13
HETATM   13  C6  UNL     1       7.577 -11.775   0.426  1.00  0.00     0.028 A 
HETATM   14  C7  UNL     1       6.567 -11.843   1.389  1.00  0.00     0.114 A 
HETATM   15  N1  UNL     1       5.411 -11.764   0.733  1.00  0.00    -0.354 N 
HETATM   16  C8  UNL     1       5.611 -11.651  -0.576  1.00  0.00     0.083 A 
ATOM     17  H1  UNL     1       4.493 -11.787   1.177  1.00  0.00     0.166 HD
HETATM   18  N2  UNL     1       6.944 -11.659  -0.749  1.00  0.00    -0.343 N 
HETATM   19  C15 UNL     1       7.551 -11.519  -2.060  1.00  0.00     0.157 C 
BRANCH  16  20
HETATM   20  C9  UNL     1       4.576 -11.536  -1.675  1.00  0.00     0.076 C 
BRANCH  20  21
HETATM   21  C10 UNL     1       3.198 -11.499  -1.100  1.00  0.00     0.008 C 
BRANCH  21  22
HETATM   22  C11 UNL     1       2.289 -12.450  -1.826  1.00  0.00     0.004 C 
BRANCH  22  23
HETATM   23  C12 UNL     1       1.871 -11.855  -3.148  1.00  0.00     0.026 C 
BRANCH  23  24
HETATM   24  C13 UNL     1       0.683 -10.957  -2.979  1.00  0.00    -0.037 C 
HETATM   25  C14 UNL     1      -0.211 -11.244  -2.079  1.00  0.00     0.007 C 
ENDBRANCH  23  24
ENDBRANCH  22  23
ENDBRANCH  21  22
ENDBRANCH  20  21
ENDBRANCH  16  20
ENDBRANCH  12  13
ENDBRANCH   4  12
BRANCH   8  26
HETATM   26  O2  UNL     1      12.052 -12.321   1.630  1.00  0.00    -0.385 OA
ATOM     27  H2  UNL     1      11.239 -12.500   2.088  1.00  0.00     0.210 HD
ENDBRANCH   8  26
TORSDOF 9
ENDMDL
MODEL 5
REMARK VINA RESULT: -6.724564876      4.137      8.497
REMARK  9 active torsions:
REMARK  status: ('A' for Active; 'I' for Inactive)
REMARK    1  A    between atoms: C3_3  and  O1_4 
REMARK    2  A    between atoms: C4_6  and  C5_7 
REMARK    3  A    between atoms: C5_7  and  C6_8 
REMARK    4  A    between atoms: C8_12  and  C9_13 
REMARK    5  A    between atoms: C9_13  and  C10_14 
REMARK    6  A    between atoms: C10_14  and  C11_15 
REMARK    7  A    between atoms: C11_15  and  C12_16 
REMARK    8  A    between atoms: C12_16  and  C13_17 
REMARK    9  A    between atoms: C18_24  and  O2_26 
ROOT
HETATM    1  C1  UNL     1      11.417 -13.467  -1.481  1.00  0.00     0.015 C 
HETATM    2  C2  UNL     1      11.394 -12.510  -0.779  1.00  0.00    -0.075 C 
HETATM    3  C3  UNL     1      11.372 -11.334   0.054  1.00  0.00     0.155 C 
HETATM    4  C4  UNL     1       9.988 -10.711   0.115  1.00  0.00     0.042 C 
HETATM    5  C16 UNL     1      10.089  -9.843   1.329  1.00  0.00     0.028 C 
HETATM    6  C17 UNL     1      11.230 -10.350   2.179  1.00  0.00     0.096 C 
HETATM    7 BR1  UNL     1      10.557 -10.865   3.906  1.00  0.00    -0.088 Br
HETATM    8  C18 UNL     1      11.747 -11.594   1.486  1.00  0.00     0.110 C 
HETATM    9  C19 UNL     1      13.276 -11.643   1.532  1.00  0.00     0.051 C 
ENDROOT
BRANCH   3  10
HETATM   10  O1  UNL     1      12.230 -10.322  -0.417  1.00  0.00    -0.374 OA
ATOM     11  H1  UNL     1      11.889  -9.451  -0.256  1.00  0.00     0.212 HD
ENDBRANCH   3  10
BRANCH   4  12
HETATM   12  C5  UNL     1       8.912 -11.730   0.100  1.00  0.00     0.067 C 
BRANCH  12  13
HETATM   13  C6  UNL     1       7.885 -11.604  -0.950  1.00  0.00     0.028 A 
HETATM   14  C7  UNL     1       8.215 -11.568  -2.308  1.00  0.00     0.114 A 
HETATM   15  N1  UNL     1       7.066 -11.492  -2.975  1.00  0.00    -0.354 N 
HETATM   16  C8  UNL     1       6.029 -11.478  -2.143  1.00  0.00     0.083 A 
ATOM     17  H1  UNL     1       6.990 -11.450  -3.991  1.00  0.00     0.166 HD
HETATM   18  N2  UNL     1       6.548 -11.548  -0.905  1.00  0.00    -0.343 N 
HETATM   19  C15 UNL     1       5.709 -11.590   0.279  1.00  0.00     0.157 C 
BRANCH  16  20
HETATM   20  C9  UNL     1       4.556 -11.400  -2.483  1.00  0.00     0.076 C 
BRANCH  20  21
HETATM   21  C10 UNL     1       4.363 -11.191  -3.950  1.00  0.00     0.008 C 
BRANCH  21  22
HETATM   22  C11 UNL     1       2.903 -11.200  -4.305  1.00  0.00     0.004 C 
BRANCH  22  23
HETATM   23  C12 UNL     1       2.098 -11.761  -3.160  1.00  0.00     0.026 C 
BRANCH  23  24
HETATM   24  C13 UNL     1       0.826 -10.990  -2.972  1.00  0.00    -0.037 C 
HETATM   25  C14 UNL     1      -0.043 -11.395  -2.095  1.00  0.00     0.007 C 
ENDBRANCH  23  24
ENDBRANCH  22  23
ENDBRANCH  21  22
ENDBRANCH  20  21
ENDBRANCH  16  20
ENDBRANCH  12  13
ENDBRANCH   4  12
BRANCH   8  26
HETATM   26  O2  UNL     1      11.267 -12.767   2.009  1.00  0.00    -0.385 OA
ATOM     27  H2  UNL     1      11.387 -12.869   2.946  1.00  0.00     0.210 HD
ENDBRANCH   8  26
TORSDOF 9
ENDMDL
