MODEL 1
REMARK VINA RESULT: -7.884074241      0.000      0.000
REMARK  7 active torsions:
REMARK  status: ('A' for Active; 'I' for Inactive)
REMARK    1  A    between atoms: C1_2  and  C2_4 
REMARK    2  A    between atoms: C2_4  and  N2_5 
REMARK       I    between atoms: N2_5  and  C3_7 
REMARK    3  A    between atoms: C3_7  and  C4_9 
REMARK    4  A    between atoms: C4_9  and  C5_10 
REMARK    5  A    between atoms: C4_9  and  N3_17 
REMARK    6  A    between atoms: C5_10  and  C6_11 
REMARK       I    between atoms: N3_17  and  C12_19 
REMARK       I    between atoms: C12_19  and  N4_21 
REMARK    7  A    between atoms: N4_21  and  C13_23 
ROOT
HETATM    1  C4  UNL     1       5.222 -11.287  -1.024  1.00  0.00     0.182 C 
ENDROOT
BRANCH   1   2
HETATM    2  C3  UNL     1       6.675 -11.372  -1.093  1.00  0.00     0.241 C 
HETATM    3  N2  UNL     1       7.459 -11.504   0.077  1.00  0.00    -0.351 N 
ATOM      4  H2  UNL     1       6.966 -11.539   0.970  1.00  0.00     0.163 HD
HETATM    5  O2  UNL     1       7.266 -11.337  -2.200  1.00  0.00    -0.271 OA
BRANCH   3   6
HETATM    6  C2  UNL     1       8.890 -11.592   0.112  1.00  0.00     0.222 C 
BRANCH   6   7
HETATM    7  C1  UNL     1       9.450 -10.814   1.221  1.00  0.00     0.248 C 
HETATM    8  N1  UNL     1       8.877  -9.529   1.474  1.00  0.00    -0.061 NA
HETATM    9  O1  UNL     1      10.391 -11.242   1.923  1.00  0.00    -0.275 OA
ENDBRANCH   6   7
ENDBRANCH   3   6
ENDBRANCH   1   2
BRANCH   1  10
HETATM   10  C5  UNL     1       4.425 -12.248  -1.826  1.00  0.00     0.073 C 
BRANCH  10  11
HETATM   11  C6  UNL     1       3.055 -11.915  -2.168  1.00  0.00    -0.056 A 
HETATM   12  C7  UNL     1       2.723 -11.254  -3.331  1.00  0.00     0.007 A 
HETATM   13  C8  UNL     1       1.427 -10.928  -3.667  1.00  0.00     0.001 A 
HETATM   14  C9  UNL     1       0.385 -11.264  -2.829  1.00  0.00     0.000 A 
HETATM   15  C10 UNL     1       0.692 -11.925  -1.660  1.00  0.00     0.001 A 
HETATM   16  C11 UNL     1       1.989 -12.250  -1.325  1.00  0.00     0.007 A 
ENDBRANCH  10  11
ENDBRANCH   1  10
BRANCH   1  17
HETATM   17  N3  UNL     1       4.874 -11.611   0.387  1.00  0.00    -0.330 N 
HETATM   18  C12 UNL     1       3.991 -10.804   1.118  1.00  0.00     0.317 C 
HETATM   19  O3  UNL     1       3.503  -9.790   0.526  1.00  0.00    -0.247 OA
HETATM   20  N4  UNL     1       3.663 -11.113   2.460  1.00  0.00    -0.338 N 
ATOM     21  H4  UNL     1       4.073 -11.933   2.908  1.00  0.00     0.164 HD
ATOM     22  H3  UNL     1       5.285 -12.433   0.828  1.00  0.00     0.165 HD
BRANCH  20  23
HETATM   23  C13 UNL     1       2.767 -10.286   3.181  1.00  0.00     0.094 C 
HETATM   24  C14 UNL     1       2.370 -10.876   4.527  1.00  0.00     0.009 C 
HETATM   25  C15 UNL     1       1.718  -9.733   5.299  1.00  0.00     0.011 C 
HETATM   26  C19 UNL     1       1.376 -11.981   4.409  1.00  0.00     0.011 C 
HETATM   27  C16 UNL     1       0.546  -9.186   4.548  1.00  0.00    -0.013 C 
HETATM   28  C17 UNL     1      -0.480 -10.310   4.422  1.00  0.00     0.009 C 
HETATM   29  C22 UNL     1       0.890  -8.757   3.144  1.00  0.00     0.011 C 
HETATM   30  C18 UNL     1       0.137 -11.475   3.704  1.00  0.00    -0.013 C 
HETATM   31  C20 UNL     1       0.539 -11.050   2.321  1.00  0.00     0.011 C 
HETATM   32  C21 UNL     1       1.518  -9.923   2.409  1.00  0.00     0.009 C 
ENDBRANCH  20  23
ENDBRANCH   1  17
TORSDOF 7
ENDMDL
MODEL 2
REMARK VINA RESULT: -7.852019654      2.736      6.244
REMARK  7 active torsions:
REMARK  status: ('A' for Active; 'I' for Inactive)
REMARK    1  A    between atoms: C1_2  and  C2_4 
REMARK    2  A    between atoms: C2_4  and  N2_5 
REMARK       I    between atoms: N2_5  and  C3_7 
REMARK    3  A    between atoms: C3_7  and  C4_9 
REMARK    4  A    between atoms: C4_9  and  C5_10 
REMARK    5  A    between atoms: C4_9  and  N3_17 
REMARK    6  A    between atoms: C5_10  and  C6_11 
REMARK       I    between atoms: N3_17  and  C12_19 
REMARK       I    between atoms: C12_19  and  N4_21 
REMARK    7  A    between atoms: N4_21  and  C13_23 
ROOT
HETATM    1  C4  UNL     1       8.214 -11.190   0.626  1.00  0.00     0.182 C 
ENDROOT
BRANCH   1   2
HETATM    2  C3  UNL     1       8.060 -10.481   1.889  1.00  0.00     0.241 C 
HETATM    3  N2  UNL     1       7.369 -11.063   2.978  1.00  0.00    -0.351 N 
ATOM      4  H2  UNL     1       6.986 -11.999   2.843  1.00  0.00     0.163 HD
HETATM    5  O2  UNL     1       8.547  -9.334   2.042  1.00  0.00    -0.271 OA
BRANCH   3   6
HETATM    6  C2  UNL     1       7.164 -10.446   4.256  1.00  0.00     0.222 C 
BRANCH   6   7
HETATM    7  C1  UNL     1       5.821 -10.717   4.776  1.00  0.00     0.248 C 
HETATM    8  N1  UNL     1       5.690 -10.907   6.186  1.00  0.00    -0.061 NA
HETATM    9  O1  UNL     1       4.821 -10.782   4.028  1.00  0.00    -0.275 OA
ENDBRANCH   6   7
ENDBRANCH   3   6
ENDBRANCH   1   2
BRANCH   1  10
HETATM   10  C5  UNL     1       9.232 -12.266   0.544  1.00  0.00     0.073 C 
BRANCH  10  11
HETATM   11  C6  UNL     1      10.194 -12.247  -0.542  1.00  0.00    -0.056 A 
HETATM   12  C7  UNL     1      11.446 -12.812  -0.432  1.00  0.00     0.007 A 
HETATM   13  C8  UNL     1      12.369 -12.798  -1.455  1.00  0.00     0.001 A 
HETATM   14  C9  UNL     1      12.064 -12.204  -2.660  1.00  0.00     0.000 A 
HETATM   15  C10 UNL     1      10.818 -11.633  -2.794  1.00  0.00     0.001 A 
HETATM   16  C11 UNL     1       9.896 -11.647  -1.771  1.00  0.00     0.007 A 
ENDBRANCH  10  11
ENDBRANCH   1  10
BRANCH   1  17
HETATM   17  N3  UNL     1       6.920 -11.895   0.409  1.00  0.00    -0.330 N 
HETATM   18  C12 UNL     1       5.877 -11.289  -0.308  1.00  0.00     0.317 C 
HETATM   19  O3  UNL     1       6.085 -10.120  -0.760  1.00  0.00    -0.247 OA
HETATM   20  N4  UNL     1       4.648 -11.960  -0.511  1.00  0.00    -0.338 N 
ATOM     21  H4  UNL     1       4.512 -12.898  -0.134  1.00  0.00     0.164 HD
ATOM     22  H3  UNL     1       6.790 -12.833   0.786  1.00  0.00     0.165 HD
BRANCH  20  23
HETATM   23  C13 UNL     1       3.608 -11.332  -1.239  1.00  0.00     0.094 C 
HETATM   24  C14 UNL     1       2.489 -10.814  -0.346  1.00  0.00     0.009 C 
HETATM   25  C15 UNL     1       1.663  -9.880  -1.223  1.00  0.00     0.011 C 
HETATM   26  C19 UNL     1       1.592 -11.896   0.151  1.00  0.00     0.011 C 
HETATM   27  C16 UNL     1       1.144 -10.601  -2.426  1.00  0.00    -0.013 C 
HETATM   28  C17 UNL     1       0.221 -11.713  -1.928  1.00  0.00     0.009 C 
HETATM   29  C22 UNL     1       2.231 -11.270  -3.230  1.00  0.00     0.011 C 
HETATM   30  C18 UNL     1       0.988 -12.633  -1.023  1.00  0.00    -0.013 C 
HETATM   31  C20 UNL     1       2.111 -13.266  -1.793  1.00  0.00     0.011 C 
HETATM   32  C21 UNL     1       3.014 -12.200  -2.327  1.00  0.00     0.009 C 
ENDBRANCH  20  23
ENDBRANCH   1  17
TORSDOF 7
ENDMDL
MODEL 3
REMARK VINA RESULT: -7.823304208      2.403      8.154
REMARK  7 active torsions:
REMARK  status: ('A' for Active; 'I' for Inactive)
REMARK    1  A    between atoms: C1_2  and  C2_4 
REMARK    2  A    between atoms: C2_4  and  N2_5 
REMARK       I    between atoms: N2_5  and  C3_7 
REMARK    3  A    between atoms: C3_7  and  C4_9 
REMARK    4  A    between atoms: C4_9  and  C5_10 
REMARK    5  A    between atoms: C4_9  and  N3_17 
REMARK    6  A    between atoms: C5_10  and  C6_11 
REMARK       I    between atoms: N3_17  and  C12_19 
REMARK       I    between atoms: C12_19  and  N4_21 
REMARK    7  A    between atoms: N4_21  and  C13_23 
ROOT
HETATM    1  C4  UNL     1       4.479 -11.135  -0.266  1.00  0.00     0.182 C 
ENDROOT
BRANCH   1   2
HETATM    2  C3  UNL     1       3.659 -11.485  -1.417  1.00  0.00     0.241 C 
HETATM    3  N2  UNL     1       2.325 -11.931  -1.261  1.00  0.00    -0.351 N 
ATOM      4  H2  UNL     1       1.961 -11.995  -0.310  1.00  0.00     0.163 HD
HETATM    5  O2  UNL     1       4.117 -11.392  -2.582  1.00  0.00    -0.271 OA
BRANCH   3   6
HETATM    6  C2  UNL     1       1.442 -12.300  -2.329  1.00  0.00     0.222 C 
BRANCH   6   7
HETATM    7  C1  UNL     1       0.483 -11.233  -2.628  1.00  0.00     0.248 C 
HETATM    8  N1  UNL     1      -0.585 -11.032  -1.699  1.00  0.00    -0.061 NA
HETATM    9  O1  UNL     1       0.581 -10.519  -3.649  1.00  0.00    -0.275 OA
ENDBRANCH   6   7
ENDBRANCH   3   6
ENDBRANCH   1   2
BRANCH   1  10
HETATM   10  C5  UNL     1       4.010 -11.545   1.080  1.00  0.00     0.073 C 
BRANCH  10  11
HETATM   11  C6  UNL     1       3.197 -10.627   1.856  1.00  0.00    -0.056 A 
HETATM   12  C7  UNL     1       2.410  -9.660   1.269  1.00  0.00     0.007 A 
HETATM   13  C8  UNL     1       1.636  -8.780   1.993  1.00  0.00     0.001 A 
HETATM   14  C9  UNL     1       1.620  -8.837   3.370  1.00  0.00     0.000 A 
HETATM   15  C10 UNL     1       2.399  -9.796   3.979  1.00  0.00     0.001 A 
HETATM   16  C11 UNL     1       3.173 -10.675   3.254  1.00  0.00     0.007 A 
ENDBRANCH  10  11
ENDBRANCH   1  10
BRANCH   1  17
HETATM   17  N3  UNL     1       5.756 -11.877  -0.450  1.00  0.00    -0.330 N 
HETATM   18  C12 UNL     1       6.989 -11.207  -0.455  1.00  0.00     0.317 C 
HETATM   19  O3  UNL     1       6.966  -9.947  -0.296  1.00  0.00    -0.247 OA
HETATM   20  N4  UNL     1       8.201 -11.916  -0.632  1.00  0.00    -0.338 N 
ATOM     21  H4  UNL     1       8.186 -12.928  -0.759  1.00  0.00     0.164 HD
ATOM     22  H3  UNL     1       5.735 -12.889  -0.575  1.00  0.00     0.165 HD
BRANCH  20  23
HETATM   23  C13 UNL     1       9.436 -11.221  -0.632  1.00  0.00     0.094 C 
HETATM   24  C14 UNL     1      10.450 -11.816  -1.599  1.00  0.00     0.009 C 
HETATM   25  C15 UNL     1      11.549 -10.768  -1.736  1.00  0.00     0.011 C 
HETATM   26  C19 UNL     1      11.070 -13.074  -1.093  1.00  0.00     0.011 C 
HETATM   27  C16 UNL     1      12.150 -10.451  -0.404  1.00  0.00    -0.013 C 
HETATM   28  C17 UNL     1      12.790 -11.734   0.125  1.00  0.00     0.009 C 
HETATM   29  C22 UNL     1      11.128 -10.025   0.620  1.00  0.00     0.011 C 
HETATM   30  C18 UNL     1      11.746 -12.806   0.234  1.00  0.00    -0.013 C 
HETATM   31  C20 UNL     1      10.688 -12.375   1.208  1.00  0.00     0.011 C 
HETATM   32  C21 UNL     1      10.067 -11.099   0.738  1.00  0.00     0.009 C 
ENDBRANCH  20  23
ENDBRANCH   1  17
TORSDOF 7
ENDMDL
MODEL 4
REMARK VINA RESULT: -7.632110449      3.274      9.060
REMARK  7 active torsions:
REMARK  status: ('A' for Active; 'I' for Inactive)
REMARK    1  A    between atoms: C1_2  and  C2_4 
REMARK    2  A    between atoms: C2_4  and  N2_5 
REMARK       I    between atoms: N2_5  and  C3_7 
REMARK    3  A    between atoms: C3_7  and  C4_9 
REMARK    4  A    between atoms: C4_9  and  C5_10 
REMARK    5  A    between atoms: C4_9  and  N3_17 
REMARK    6  A    between atoms: C5_10  and  C6_11 
REMARK       I    between atoms: N3_17  and  C12_19 
REMARK       I    between atoms: C12_19  and  N4_21 
REMARK    7  A    between atoms: N4_21  and  C13_23 
ROOT
HETATM    1  C4  UNL     1       5.937 -11.266  -1.992  1.00  0.00     0.182 C 
ENDROOT
BRANCH   1   2
HETATM    2  C3  UNL     1       4.987 -11.298  -3.094  1.00  0.00     0.241 C 
HETATM    3  N2  UNL     1       3.592 -11.344  -2.860  1.00  0.00    -0.351 N 
ATOM      4  H2  UNL     1       3.280 -11.351  -1.888  1.00  0.00     0.163 HD
HETATM    5  O2  UNL     1       5.385 -11.279  -4.284  1.00  0.00    -0.271 OA
BRANCH   3   6
HETATM    6  C2  UNL     1       2.580 -11.380  -3.876  1.00  0.00     0.222 C 
BRANCH   6   7
HETATM    7  C1  UNL     1       1.236 -11.273  -3.301  1.00  0.00     0.248 C 
HETATM    8  N1  UNL     1       0.899 -12.183  -2.251  1.00  0.00    -0.061 NA
HETATM    9  O1  UNL     1       0.407 -10.428  -3.701  1.00  0.00    -0.275 OA
ENDBRANCH   6   7
ENDBRANCH   3   6
ENDBRANCH   1   2
BRANCH   1  10
HETATM   10  C5  UNL     1       5.745 -12.220  -0.871  1.00  0.00     0.073 C 
BRANCH  10  11
HETATM   11  C6  UNL     1       5.069 -11.769   0.331  1.00  0.00    -0.056 A 
HETATM   12  C7  UNL     1       3.826 -11.175   0.303  1.00  0.00     0.007 A 
HETATM   13  C8  UNL     1       3.175 -10.739   1.437  1.00  0.00     0.001 A 
HETATM   14  C9  UNL     1       3.760 -10.887   2.675  1.00  0.00     0.000 A 
HETATM   15  C10 UNL     1       5.003 -11.478   2.729  1.00  0.00     0.001 A 
HETATM   16  C11 UNL     1       5.654 -11.913   1.595  1.00  0.00     0.007 A 
ENDBRANCH  10  11
ENDBRANCH   1  10
BRANCH   1  17
HETATM   17  N3  UNL     1       7.244 -11.660  -2.586  1.00  0.00    -0.330 N 
HETATM   18  C12 UNL     1       8.423 -11.634  -1.825  1.00  0.00     0.317 C 
HETATM   19  O3  UNL     1       8.326 -11.261  -0.614  1.00  0.00    -0.247 OA
HETATM   20  N4  UNL     1       9.664 -12.007  -2.393  1.00  0.00    -0.338 N 
ATOM     21  H4  UNL     1       9.710 -12.300  -3.370  1.00  0.00     0.164 HD
ATOM     22  H3  UNL     1       7.284 -11.954  -3.562  1.00  0.00     0.165 HD
BRANCH  20  23
HETATM   23  C13 UNL     1      10.843 -11.975  -1.608  1.00  0.00     0.094 C 
HETATM   24  C14 UNL     1      12.040 -11.410  -2.360  1.00  0.00     0.009 C 
HETATM   25  C15 UNL     1      13.092 -11.118  -1.295  1.00  0.00     0.011 C 
HETATM   26  C19 UNL     1      12.624 -12.375  -3.335  1.00  0.00     0.011 C 
HETATM   27  C16 UNL     1      13.432 -12.358  -0.530  1.00  0.00    -0.013 C 
HETATM   28  C17 UNL     1      14.034 -13.354  -1.520  1.00  0.00     0.009 C 
HETATM   29  C22 UNL     1      12.226 -13.028   0.078  1.00  0.00     0.011 C 
HETATM   30  C18 UNL     1      13.042 -13.635  -2.612  1.00  0.00    -0.013 C 
HETATM   31  C20 UNL     1      11.809 -14.252  -2.017  1.00  0.00     0.011 C 
HETATM   32  C21 UNL     1      11.216 -13.316  -1.014  1.00  0.00     0.009 C 
ENDBRANCH  20  23
ENDBRANCH   1  17
TORSDOF 7
ENDMDL
MODEL 5
REMARK VINA RESULT: -7.557159170      2.119      5.583
REMARK  7 active torsions:
REMARK  status: ('A' for Active; 'I' for Inactive)
REMARK    1  A    between atoms: C1_2  and  C2_4 
REMARK    2  A    between atoms: C2_4  and  N2_5 
REMARK       I    between atoms: N2_5  and  C3_7 
REMARK    3  A    between atoms: C3_7  and  C4_9 
REMARK    4  A    between atoms: C4_9  and  C5_10 
REMARK    5  A    between atoms: C4_9  and  N3_17 
REMARK    6  A    between atoms: C5_10  and  C6_11 
REMARK       I    between atoms: N3_17  and  C12_19 
REMARK       I    between atoms: C12_19  and  N4_21 
REMARK    7  A    between atoms: N4_21  and  C13_23 
ROOT
HETATM    1  C4  UNL     1       5.643 -11.387  -2.054  1.00  0.00     0.182 C 
ENDROOT
BRANCH   1   2
HETATM    2  C3  UNL     1       4.638 -11.340  -3.107  1.00  0.00     0.241 C 
HETATM    3  N2  UNL     1       3.260 -11.477  -2.813  1.00  0.00    -0.351 N 
ATOM      4  H2  UNL     1       3.000 -11.608  -1.835  1.00  0.00     0.163 HD
HETATM    5  O2  UNL     1       4.972 -11.169  -4.304  1.00  0.00    -0.271 OA
BRANCH   3   6
HETATM    6  C2  UNL     1       2.198 -11.447  -3.777  1.00  0.00     0.222 C 
BRANCH   6   7
HETATM    7  C1  UNL     1       0.912 -11.130  -3.151  1.00  0.00     0.248 C 
HETATM    8  N1  UNL     1       0.559 -11.861  -1.975  1.00  0.00    -0.061 NA
HETATM    9  O1  UNL     1       0.143 -10.261  -3.616  1.00  0.00    -0.275 OA
ENDBRANCH   6   7
ENDBRANCH   3   6
ENDBRANCH   1   2
BRANCH   1  10
HETATM   10  C5  UNL     1       6.985 -10.822  -2.339  1.00  0.00     0.073 C 
BRANCH  10  11
HETATM   11  C6  UNL     1       8.146 -11.397  -1.687  1.00  0.00    -0.056 A 
HETATM   12  C7  UNL     1       9.188 -11.958  -2.393  1.00  0.00     0.007 A 
HETATM   13  C8  UNL     1      10.295 -12.511  -1.787  1.00  0.00     0.001 A 
HETATM   14  C9  UNL     1      10.404 -12.521  -0.413  1.00  0.00     0.000 A 
HETATM   15  C10 UNL     1       9.375 -11.965   0.314  1.00  0.00     0.001 A 
HETATM   16  C11 UNL     1       8.268 -11.413  -0.294  1.00  0.00     0.007 A 
ENDBRANCH  10  11
ENDBRANCH   1  10
BRANCH   1  17
HETATM   17  N3  UNL     1       5.110 -10.529  -0.960  1.00  0.00    -0.330 N 
HETATM   18  C12 UNL     1       4.178 -11.028  -0.037  1.00  0.00     0.317 C 
HETATM   19  O3  UNL     1       3.813 -12.238  -0.175  1.00  0.00    -0.247 OA
HETATM   20  N4  UNL     1       3.673 -10.210   1.001  1.00  0.00    -0.338 N 
ATOM     21  H4  UNL     1       3.984  -9.242   1.084  1.00  0.00     0.164 HD
ATOM     22  H3  UNL     1       5.427  -9.563  -0.880  1.00  0.00     0.165 HD
BRANCH  20  23
HETATM   23  C13 UNL     1       2.734 -10.734   1.924  1.00  0.00     0.094 C 
HETATM   24  C14 UNL     1       1.320 -10.223   1.685  1.00  0.00     0.009 C 
HETATM   25  C15 UNL     1       0.411 -11.134   2.504  1.00  0.00     0.011 C 
HETATM   26  C19 UNL     1       1.118  -8.823   2.156  1.00  0.00     0.011 C 
HETATM   27  C16 UNL     1       0.792 -11.103   3.950  1.00  0.00    -0.013 C 
HETATM   28  C17 UNL     1       0.587  -9.672   4.444  1.00  0.00     0.009 C 
HETATM   29  C22 UNL     1       2.243 -11.439   4.188  1.00  0.00     0.011 C 
HETATM   30  C18 UNL     1       1.435  -8.735   3.633  1.00  0.00    -0.013 C 
HETATM   31  C20 UNL     1       2.882  -9.091   3.813  1.00  0.00     0.011 C 
HETATM   32  C21 UNL     1       3.109 -10.501   3.371  1.00  0.00     0.009 C 
ENDBRANCH  20  23
ENDBRANCH   1  17
TORSDOF 7
ENDMDL
