MODEL 1
REMARK VINA RESULT: -4.826180250      0.000      0.000
REMARK  2 active torsions:
REMARK  status: ('A' for Active; 'I' for Inactive)
REMARK    1  A    between atoms: C2_2  and  O1_3 
REMARK    2  A    between atoms: C2_2  and  C3_5 
ROOT
HETATM    1  C1  UNL     1       1.939 -22.228  -6.475  1.00  0.00     0.058 C 
HETATM    2  C2  UNL     1       1.068 -22.551  -5.552  1.00  0.00     0.133 C 
ENDROOT
BRANCH   2   3
HETATM    3  O1  UNL     1       1.363 -22.253  -4.228  1.00  0.00    -0.355 OA
ATOM      4  H1  UNL     1       2.239 -22.430  -3.907  1.00  0.00     0.218 HD
ENDBRANCH   2   3
BRANCH   2   5
HETATM    5  C3  UNL     1      -0.181 -23.209  -5.909  1.00  0.00     0.232 C 
HETATM    6  O2  UNL     1      -0.312 -24.436  -5.723  1.00  0.00    -0.642 OA
HETATM    7  O3  UNL     1      -1.213 -22.488  -6.447  1.00  0.00    -0.642 OA
ENDBRANCH   2   5
TORSDOF 2
ENDMDL
MODEL 2
REMARK VINA RESULT: -4.393792591      1.271      2.677
REMARK  2 active torsions:
REMARK  status: ('A' for Active; 'I' for Inactive)
REMARK    1  A    between atoms: C2_2  and  O1_3 
REMARK    2  A    between atoms: C2_2  and  C3_5 
ROOT
HETATM    1  C1  UNL     1      -1.270 -23.059  -6.461  1.00  0.00     0.058 C 
HETATM    2  C2  UNL     1      -0.171 -23.499  -5.902  1.00  0.00     0.133 C 
ENDROOT
BRANCH   2   3
HETATM    3  O1  UNL     1      -0.129 -24.818  -5.467  1.00  0.00    -0.355 OA
ATOM      4  H1  UNL     1      -0.931 -25.217  -5.151  1.00  0.00     0.218 HD
ENDBRANCH   2   3
BRANCH   2   5
HETATM    5  C3  UNL     1       0.982 -22.624  -5.740  1.00  0.00     0.232 C 
HETATM    6  O2  UNL     1       1.325 -22.252  -4.599  1.00  0.00    -0.642 OA
HETATM    7  O3  UNL     1       1.691 -22.205  -6.834  1.00  0.00    -0.642 OA
ENDBRANCH   2   5
TORSDOF 2
ENDMDL
MODEL 3
REMARK VINA RESULT: -4.207880169      1.235      2.801
REMARK  2 active torsions:
REMARK  status: ('A' for Active; 'I' for Inactive)
REMARK    1  A    between atoms: C2_2  and  O1_3 
REMARK    2  A    between atoms: C2_2  and  C3_5 
ROOT
HETATM    1  C1  UNL     1      -0.697 -24.363  -5.639  1.00  0.00     0.058 C 
HETATM    2  C2  UNL     1      -0.438 -23.135  -6.012  1.00  0.00     0.133 C 
ENDROOT
BRANCH   2   3
HETATM    3  O1  UNL     1      -1.449 -22.399  -6.619  1.00  0.00    -0.355 OA
ATOM      4  H1  UNL     1      -1.251 -21.520  -6.919  1.00  0.00     0.218 HD
ENDBRANCH   2   3
BRANCH   2   5
HETATM    5  C3  UNL     1       0.880 -22.555  -5.795  1.00  0.00     0.232 C 
HETATM    6  O2  UNL     1       1.272 -22.320  -4.634  1.00  0.00    -0.642 OA
HETATM    7  O3  UNL     1       1.691 -22.266  -6.860  1.00  0.00    -0.642 OA
ENDBRANCH   2   5
TORSDOF 2
ENDMDL
MODEL 4
REMARK VINA RESULT: -3.947761882      5.893      6.881
REMARK  2 active torsions:
REMARK  status: ('A' for Active; 'I' for Inactive)
REMARK    1  A    between atoms: C2_2  and  O1_3 
REMARK    2  A    between atoms: C2_2  and  C3_5 
ROOT
HETATM    1  C1  UNL     1      -3.313 -26.442  -6.142  1.00  0.00     0.058 C 
HETATM    2  C2  UNL     1      -4.152 -26.950  -5.275  1.00  0.00     0.133 C 
ENDROOT
BRANCH   2   3
HETATM    3  O1  UNL     1      -4.823 -26.088  -4.418  1.00  0.00    -0.355 OA
ATOM      4  H1  UNL     1      -4.498 -25.200  -4.321  1.00  0.00     0.218 HD
ENDBRANCH   2   3
BRANCH   2   5
HETATM    5  C3  UNL     1      -4.374 -28.388  -5.213  1.00  0.00     0.232 C 
HETATM    6  O2  UNL     1      -3.459 -29.142  -4.824  1.00  0.00    -0.642 OA
HETATM    7  O3  UNL     1      -5.583 -28.917  -5.579  1.00  0.00    -0.642 OA
ENDBRANCH   2   5
TORSDOF 2
ENDMDL
MODEL 5
REMARK VINA RESULT: -3.911872677      6.334      7.318
REMARK  2 active torsions:
REMARK  status: ('A' for Active; 'I' for Inactive)
REMARK    1  A    between atoms: C2_2  and  O1_3 
REMARK    2  A    between atoms: C2_2  and  C3_5 
ROOT
HETATM    1  C1  UNL     1      -4.628 -26.090  -6.611  1.00  0.00     0.058 C 
HETATM    2  C2  UNL     1      -4.950 -26.720  -5.509  1.00  0.00     0.133 C 
ENDROOT
BRANCH   2   3
HETATM    3  O1  UNL     1      -4.824 -26.049  -4.300  1.00  0.00    -0.355 OA
ATOM      4  H1  UNL     1      -4.961 -26.535  -3.495  1.00  0.00     0.218 HD
ENDBRANCH   2   3
BRANCH   2   5
HETATM    5  C3  UNL     1      -5.430 -28.095  -5.554  1.00  0.00     0.232 C 
HETATM    6  O2  UNL     1      -4.661 -29.031  -5.255  1.00  0.00    -0.642 OA
HETATM    7  O3  UNL     1      -6.721 -28.364  -5.922  1.00  0.00    -0.642 OA
ENDBRANCH   2   5
TORSDOF 2
ENDMDL
