MODEL 1
REMARK VINA RESULT: -3.388267386      0.000      0.000
REMARK  1 active torsions:
REMARK  status: ('A' for Active; 'I' for Inactive)
REMARK    1  A    between atoms: O1_1  and  C1_3 
ROOT
HETATM    1  C1  UNL     1      -3.097 -25.275  -3.475  1.00  0.00     0.118 C 
HETATM    2  C2  UNL     1      -4.155 -24.171  -3.480  1.00  0.00     0.032 C 
HETATM    3  C3  UNL     1      -3.858 -24.041  -4.976  1.00  0.00     0.005 C 
HETATM    4  C4  UNL     1      -2.448 -24.520  -4.641  1.00  0.00     0.032 C 
ENDROOT
BRANCH   1   5
HETATM    5  O1  UNL     1      -2.309 -25.319  -2.348  1.00  0.00    -0.396 OA
ATOM      6  H1  UNL     1      -1.382 -25.184  -2.501  1.00  0.00     0.210 HD
ENDBRANCH   1   5
TORSDOF 1
ENDMDL
MODEL 2
REMARK VINA RESULT: -3.344014935      2.950      3.231
REMARK  1 active torsions:
REMARK  status: ('A' for Active; 'I' for Inactive)
REMARK    1  A    between atoms: O1_1  and  C1_3 
ROOT
HETATM    1  C1  UNL     1      -1.017 -23.969  -5.465  1.00  0.00     0.118 C 
HETATM    2  C2  UNL     1      -1.444 -22.988  -6.558  1.00  0.00     0.032 C 
HETATM    3  C3  UNL     1      -2.793 -23.713  -6.533  1.00  0.00     0.005 C 
HETATM    4  C4  UNL     1      -2.012 -24.950  -6.096  1.00  0.00     0.032 C 
ENDROOT
BRANCH   1   5
HETATM    5  O1  UNL     1       0.289 -24.391  -5.541  1.00  0.00    -0.396 OA
ATOM      6  H1  UNL     1       0.719 -24.520  -4.704  1.00  0.00     0.210 HD
ENDBRANCH   1   5
TORSDOF 1
ENDMDL
MODEL 3
REMARK VINA RESULT: -3.337926864      2.468      2.969
REMARK  1 active torsions:
REMARK  status: ('A' for Active; 'I' for Inactive)
REMARK    1  A    between atoms: O1_1  and  C1_3 
ROOT
HETATM    1  C1  UNL     1      -0.825 -24.360  -5.823  1.00  0.00     0.118 C 
HETATM    2  C2  UNL     1      -2.017 -24.281  -4.867  1.00  0.00     0.032 C 
HETATM    3  C3  UNL     1      -2.764 -23.612  -6.025  1.00  0.00     0.005 C 
HETATM    4  C4  UNL     1      -1.400 -23.102  -6.485  1.00  0.00     0.032 C 
ENDROOT
BRANCH   1   5
HETATM    5  O1  UNL     1       0.403 -24.156  -5.239  1.00  0.00    -0.396 OA
ATOM      6  H1  UNL     1       1.130 -24.086  -5.847  1.00  0.00     0.210 HD
ENDBRANCH   1   5
TORSDOF 1
ENDMDL
MODEL 4
REMARK VINA RESULT: -3.302979855      0.820      1.425
REMARK  1 active torsions:
REMARK  status: ('A' for Active; 'I' for Inactive)
REMARK    1  A    between atoms: O1_1  and  C1_3 
ROOT
HETATM    1  C1  UNL     1      -3.036 -24.842  -3.461  1.00  0.00     0.118 C 
HETATM    2  C2  UNL     1      -2.213 -24.377  -4.663  1.00  0.00     0.032 C 
HETATM    3  C3  UNL     1      -3.344 -24.950  -5.522  1.00  0.00     0.005 C 
HETATM    4  C4  UNL     1      -3.580 -25.939  -4.383  1.00  0.00     0.032 C 
ENDROOT
BRANCH   1   5
HETATM    5  O1  UNL     1      -2.299 -25.331  -2.407  1.00  0.00    -0.396 OA
ATOM      6  H1  UNL     1      -1.641 -25.975  -2.642  1.00  0.00     0.210 HD
ENDBRANCH   1   5
TORSDOF 1
ENDMDL
MODEL 5
REMARK VINA RESULT: -3.282507872      0.730      1.397
REMARK  1 active torsions:
REMARK  status: ('A' for Active; 'I' for Inactive)
REMARK    1  A    between atoms: O1_1  and  C1_3 
ROOT
HETATM    1  C1  UNL     1      -2.821 -24.850  -3.562  1.00  0.00     0.118 C 
HETATM    2  C2  UNL     1      -3.634 -25.859  -4.373  1.00  0.00     0.032 C 
HETATM    3  C3  UNL     1      -4.544 -24.679  -4.727  1.00  0.00     0.005 C 
HETATM    4  C4  UNL     1      -4.137 -24.085  -3.381  1.00  0.00     0.032 C 
ENDROOT
BRANCH   1   5
HETATM    5  O1  UNL     1      -2.305 -25.334  -2.383  1.00  0.00    -0.396 OA
ATOM      6  H1  UNL     1      -2.107 -26.263  -2.382  1.00  0.00     0.210 HD
ENDBRANCH   1   5
TORSDOF 1
ENDMDL
