MODEL 1
REMARK VINA RESULT: -4.621483678      0.000      0.000
REMARK  0 active torsions:
REMARK  status: ('A' for Active; 'I' for Inactive)
REMARK       I    between atoms: C1_2  and  N1_4 
ROOT
HETATM    1  O1  UNL     1       0.679 -21.997  -5.915  1.00  0.00    -0.629 OA
HETATM    2  C1  UNL     1       1.180 -23.109  -5.616  1.00  0.00     0.294 C 
HETATM    3  O2  UNL     1       2.541 -23.238  -5.504  1.00  0.00    -0.629 OA
HETATM    4  N1  UNL     1       0.306 -24.188  -5.407  1.00  0.00    -0.264 N 
ATOM      5  H1  UNL     1       0.703 -25.096  -5.164  1.00  0.00     0.181 HD
HETATM    6  S1  UNL     1      -1.431 -24.047  -5.545  1.00  0.00     0.047 SA
ENDROOT
TORSDOF 0
ENDMDL
MODEL 2
REMARK VINA RESULT: -3.797326787      1.787      2.021
REMARK  0 active torsions:
REMARK  status: ('A' for Active; 'I' for Inactive)
REMARK       I    between atoms: C1_2  and  N1_4 
ROOT
HETATM    1  O1  UNL     1       0.246 -24.212  -5.799  1.00  0.00    -0.629 OA
HETATM    2  C1  UNL     1      -0.061 -23.021  -6.052  1.00  0.00     0.294 C 
HETATM    3  O2  UNL     1       0.838 -22.015  -5.807  1.00  0.00    -0.629 OA
HETATM    4  N1  UNL     1      -1.336 -22.771  -6.584  1.00  0.00    -0.264 N 
ATOM      5  H1  UNL     1      -1.596 -21.807  -6.794  1.00  0.00     0.181 HD
HETATM    6  S1  UNL     1      -2.500 -24.037  -6.905  1.00  0.00     0.047 SA
ENDROOT
TORSDOF 0
ENDMDL
MODEL 3
REMARK VINA RESULT: -3.706180711      1.205      1.344
REMARK  0 active torsions:
REMARK  status: ('A' for Active; 'I' for Inactive)
REMARK       I    between atoms: C1_2  and  N1_4 
ROOT
HETATM    1  O1  UNL     1      -0.771 -22.369  -6.534  1.00  0.00    -0.629 OA
HETATM    2  C1  UNL     1      -0.066 -23.011  -5.717  1.00  0.00     0.294 C 
HETATM    3  O2  UNL     1       1.092 -22.458  -5.230  1.00  0.00    -0.629 OA
HETATM    4  N1  UNL     1      -0.503 -24.288  -5.333  1.00  0.00    -0.264 N 
ATOM      5  H1  UNL     1       0.062 -24.818  -4.669  1.00  0.00     0.181 HD
HETATM    6  S1  UNL     1      -1.973 -25.014  -5.941  1.00  0.00     0.047 SA
ENDROOT
TORSDOF 0
ENDMDL
MODEL 4
REMARK VINA RESULT: -3.681977935      7.584      7.803
REMARK  0 active torsions:
REMARK  status: ('A' for Active; 'I' for Inactive)
REMARK       I    between atoms: C1_2  and  N1_4 
ROOT
HETATM    1  O1  UNL     1      -4.587 -28.763  -5.324  1.00  0.00    -0.629 OA
HETATM    2  C1  UNL     1      -5.549 -27.981  -5.519  1.00  0.00     0.294 C 
HETATM    3  O2  UNL     1      -6.766 -28.477  -5.911  1.00  0.00    -0.629 OA
HETATM    4  N1  UNL     1      -5.329 -26.608  -5.324  1.00  0.00    -0.264 N 
ATOM      5  H1  UNL     1      -6.104 -25.963  -5.480  1.00  0.00     0.181 HD
HETATM    6  S1  UNL     1      -3.787 -25.952  -4.827  1.00  0.00     0.047 SA
ENDROOT
TORSDOF 0
ENDMDL
MODEL 5
REMARK VINA RESULT: -3.618918417      2.642      2.917
REMARK  0 active torsions:
REMARK  status: ('A' for Active; 'I' for Inactive)
REMARK       I    between atoms: C1_2  and  N1_4 
ROOT
HETATM    1  O1  UNL     1      -1.133 -22.601  -6.473  1.00  0.00    -0.629 OA
HETATM    2  C1  UNL     1      -0.958 -23.689  -5.870  1.00  0.00     0.294 C 
HETATM    3  O2  UNL     1      -2.015 -24.543  -5.680  1.00  0.00    -0.629 OA
HETATM    4  N1  UNL     1       0.335 -23.985  -5.410  1.00  0.00    -0.264 N 
ATOM      5  H1  UNL     1       0.487 -24.866  -4.920  1.00  0.00     0.181 HD
HETATM    6  S1  UNL     1       1.696 -22.912  -5.640  1.00  0.00     0.047 SA
ENDROOT
TORSDOF 0
ENDMDL
