MODEL 1
REMARK VINA RESULT: -7.164565264      0.000      0.000
REMARK  4 active torsions:
REMARK  status: ('A' for Active; 'I' for Inactive)
REMARK    1  A    between atoms: O1_2  and  C2_3 
REMARK    2  A    between atoms: C2_3  and  C3_7 
REMARK    3  A    between atoms: C4_12  and  N4_13 
REMARK    4  A    between atoms: C8_22  and  N7_23 
ROOT
HETATM    1  N4  UNL     1      24.319   4.296  32.096  1.00  0.00    -0.066 N 
HETATM    2  N5  UNL     1      23.081   4.710  32.300  1.00  0.00    -0.277 N 
ATOM      3  H5  UNL     1      22.851   5.093  33.217  1.00  0.00     0.188 HD
HETATM    4  C5  UNL     1      22.104   4.659  31.377  1.00  0.00     0.091 A 
HETATM    5  C6  UNL     1      20.724   5.128  31.628  1.00  0.00     0.076 C 
HETATM    6  C7  UNL     1      22.420   4.141  30.139  1.00  0.00     0.283 A 
HETATM    7  O2  UNL     1      21.544   4.062  29.213  1.00  0.00    -0.265 OA
HETATM    8  N6  UNL     1      23.678   3.719  29.925  1.00  0.00    -0.153 N 
ATOM      9  H6  UNL     1      23.926   3.334  29.013  1.00  0.00     0.187 HD
HETATM   10  C8  UNL     1      24.620   3.792  30.885  1.00  0.00     0.702 A 
ENDROOT
BRANCH   1  11
HETATM   11  C4  UNL     1      25.308   4.384  33.136  1.00  0.00     0.192 A 
HETATM   12  C3  UNL     1      25.913   3.482  33.969  1.00  0.00     0.147 A 
HETATM   13  N2  UNL     1      26.590   4.502  34.483  1.00  0.00    -0.292 N 
HETATM   14  N3  UNL     1      26.020   5.358  33.697  1.00  0.00    -0.281 N 
ATOM     15  H2  UNL     1      27.293   4.580  35.218  1.00  0.00     0.187 HD
ATOM     16  H3  UNL     1      26.088   6.367  33.563  1.00  0.00     0.188 HD
BRANCH  12  17
HETATM   17  C2  UNL     1      25.847   2.028  34.198  1.00  0.00     0.168 C 
HETATM   18  N1  UNL     1      24.763   1.434  34.495  1.00  0.00    -0.378 N 
ATOM     19  H12 UNL     1      24.717   0.427  34.654  1.00  0.00     0.158 HD
ATOM     20  H11 UNL     1      23.908   1.983  34.577  1.00  0.00     0.158 HD
BRANCH  17  21
HETATM   21  O1  UNL     1      27.010   1.281  34.086  1.00  0.00    -0.339 OA
HETATM   22  C1  UNL     1      28.284   1.863  33.868  1.00  0.00     0.211 C 
ENDBRANCH  17  21
ENDBRANCH  12  17
ENDBRANCH   1  11
BRANCH  10  23
HETATM   23  N7  UNL     1      25.830   3.366  30.620  1.00  0.00    -0.233 N 
ATOM     24  H72 UNL     1      26.548   4.045  30.370  1.00  0.00     0.174 HD
ATOM     25  H71 UNL     1      26.052   2.371  30.663  1.00  0.00     0.174 HD
ENDBRANCH  10  23
TORSDOF 4
ENDMDL
MODEL 2
REMARK VINA RESULT: -7.084237222      2.833      4.180
REMARK  4 active torsions:
REMARK  status: ('A' for Active; 'I' for Inactive)
REMARK    1  A    between atoms: O1_2  and  C2_3 
REMARK    2  A    between atoms: C2_3  and  C3_7 
REMARK    3  A    between atoms: C4_12  and  N4_13 
REMARK    4  A    between atoms: C8_22  and  N7_23 
ROOT
HETATM    1  N4  UNL     1      25.410   5.223  33.323  1.00  0.00    -0.066 N 
HETATM    2  N5  UNL     1      26.177   6.065  33.993  1.00  0.00    -0.277 N 
ATOM      3  H5  UNL     1      27.179   5.873  34.029  1.00  0.00     0.188 HD
HETATM    4  C5  UNL     1      25.724   7.158  34.632  1.00  0.00     0.091 A 
HETATM    5  C6  UNL     1      26.602   8.087  35.377  1.00  0.00     0.076 C 
HETATM    6  C7  UNL     1      24.371   7.414  34.581  1.00  0.00     0.283 A 
HETATM    7  O2  UNL     1      23.868   8.433  35.163  1.00  0.00    -0.265 OA
HETATM    8  N6  UNL     1      23.584   6.562  33.900  1.00  0.00    -0.153 N 
ATOM      9  H6  UNL     1      22.581   6.739  33.854  1.00  0.00     0.187 HD
HETATM   10  C8  UNL     1      24.090   5.480  33.277  1.00  0.00     0.702 A 
ENDROOT
BRANCH   1  11
HETATM   11  C4  UNL     1      25.972   4.075  32.666  1.00  0.00     0.192 A 
HETATM   12  C3  UNL     1      26.640   2.956  33.085  1.00  0.00     0.147 A 
HETATM   13  N2  UNL     1      26.698   2.587  31.811  1.00  0.00    -0.292 N 
HETATM   14  N3  UNL     1      26.067   3.643  31.411  1.00  0.00    -0.281 N 
ATOM     15  H2  UNL     1      27.091   1.777  31.331  1.00  0.00     0.187 HD
ATOM     16  H3  UNL     1      25.766   4.000  30.504  1.00  0.00     0.188 HD
BRANCH  12  17
HETATM   17  C2  UNL     1      27.095   2.403  34.373  1.00  0.00     0.168 C 
HETATM   18  N1  UNL     1      28.323   2.352  34.696  1.00  0.00    -0.378 N 
ATOM     19  H12 UNL     1      28.638   1.969  35.588  1.00  0.00     0.158 HD
ATOM     20  H11 UNL     1      29.019   2.708  34.042  1.00  0.00     0.158 HD
BRANCH  17  21
HETATM   21  O1  UNL     1      26.148   1.919  35.263  1.00  0.00    -0.339 OA
HETATM   22  C1  UNL     1      24.768   1.835  34.952  1.00  0.00     0.211 C 
ENDBRANCH  17  21
ENDBRANCH  12  17
ENDBRANCH   1  11
BRANCH  10  23
HETATM   23  N7  UNL     1      23.277   4.684  32.629  1.00  0.00    -0.233 N 
ATOM     24  H72 UNL     1      23.659   4.060  31.918  1.00  0.00     0.174 HD
ATOM     25  H71 UNL     1      22.276   4.685  32.830  1.00  0.00     0.174 HD
ENDBRANCH  10  23
TORSDOF 4
ENDMDL
MODEL 3
REMARK VINA RESULT: -7.066353565      2.032      3.033
REMARK  4 active torsions:
REMARK  status: ('A' for Active; 'I' for Inactive)
REMARK    1  A    between atoms: O1_2  and  C2_3 
REMARK    2  A    between atoms: C2_3  and  C3_7 
REMARK    3  A    between atoms: C4_12  and  N4_13 
REMARK    4  A    between atoms: C8_22  and  N7_23 
ROOT
HETATM    1  N4  UNL     1      24.966   4.426  32.584  1.00  0.00    -0.066 N 
HETATM    2  N5  UNL     1      23.751   4.367  32.068  1.00  0.00    -0.277 N 
ATOM      3  H5  UNL     1      23.549   3.615  31.409  1.00  0.00     0.188 HD
HETATM    4  C5  UNL     1      22.764   5.234  32.355  1.00  0.00     0.091 A 
HETATM    5  C6  UNL     1      21.410   5.148  31.763  1.00  0.00     0.076 C 
HETATM    6  C7  UNL     1      23.041   6.247  33.246  1.00  0.00     0.283 A 
HETATM    7  O2  UNL     1      22.153   7.107  33.566  1.00  0.00    -0.265 OA
HETATM    8  N6  UNL     1      24.275   6.313  33.776  1.00  0.00    -0.153 N 
ATOM      9  H6  UNL     1      24.494   7.058  34.437  1.00  0.00     0.187 HD
HETATM   10  C8  UNL     1      25.229   5.418  33.454  1.00  0.00     0.702 A 
ENDROOT
BRANCH   1  11
HETATM   11  C4  UNL     1      25.968   3.460  32.226  1.00  0.00     0.192 A 
HETATM   12  C3  UNL     1      26.805   2.634  32.928  1.00  0.00     0.147 A 
HETATM   13  N2  UNL     1      27.267   2.208  31.758  1.00  0.00    -0.292 N 
HETATM   14  N3  UNL     1      26.478   2.988  31.091  1.00  0.00    -0.281 N 
ATOM     15  H2  UNL     1      27.975   1.525  31.488  1.00  0.00     0.187 HD
ATOM     16  H3  UNL     1      26.313   3.167  30.101  1.00  0.00     0.188 HD
BRANCH  12  17
HETATM   17  C2  UNL     1      27.077   2.343  34.346  1.00  0.00     0.168 C 
HETATM   18  N1  UNL     1      28.239   2.052  34.771  1.00  0.00    -0.378 N 
ATOM     19  H12 UNL     1      28.427   1.850  35.753  1.00  0.00     0.158 HD
ATOM     20  H11 UNL     1      29.011   2.019  34.106  1.00  0.00     0.158 HD
BRANCH  17  21
HETATM   21  O1  UNL     1      26.026   2.388  35.250  1.00  0.00    -0.339 OA
HETATM   22  C1  UNL     1      24.786   1.739  35.025  1.00  0.00     0.211 C 
ENDBRANCH  17  21
ENDBRANCH  12  17
ENDBRANCH   1  11
BRANCH  10  23
HETATM   23  N7  UNL     1      26.414   5.532  34.001  1.00  0.00    -0.233 N 
ATOM     24  H72 UNL     1      26.501   6.021  34.892  1.00  0.00     0.174 HD
ATOM     25  H71 UNL     1      27.237   5.137  33.546  1.00  0.00     0.174 HD
ENDBRANCH  10  23
TORSDOF 4
ENDMDL
MODEL 4
REMARK VINA RESULT: -6.988049760      2.257      3.254
REMARK  4 active torsions:
REMARK  status: ('A' for Active; 'I' for Inactive)
REMARK    1  A    between atoms: O1_2  and  C2_3 
REMARK    2  A    between atoms: C2_3  and  C3_7 
REMARK    3  A    between atoms: C4_12  and  N4_13 
REMARK    4  A    between atoms: C8_22  and  N7_23 
ROOT
HETATM    1  N4  UNL     1      24.962   4.521  32.531  1.00  0.00    -0.066 N 
HETATM    2  N5  UNL     1      25.286   5.511  33.344  1.00  0.00    -0.277 N 
ATOM      3  H5  UNL     1      26.235   5.532  33.716  1.00  0.00     0.188 HD
HETATM    4  C5  UNL     1      24.445   6.494  33.712  1.00  0.00     0.091 A 
HETATM    5  C6  UNL     1      24.830   7.594  34.624  1.00  0.00     0.076 C 
HETATM    6  C7  UNL     1      23.163   6.462  33.206  1.00  0.00     0.283 A 
HETATM    7  O2  UNL     1      22.310   7.362  33.511  1.00  0.00    -0.265 OA
HETATM    8  N6  UNL     1      22.827   5.458  32.378  1.00  0.00    -0.153 N 
ATOM      9  H6  UNL     1      21.882   5.422  31.996  1.00  0.00     0.187 HD
HETATM   10  C8  UNL     1      23.709   4.497  32.041  1.00  0.00     0.702 A 
ENDROOT
BRANCH   1  11
HETATM   11  C4  UNL     1      25.919   3.506  32.185  1.00  0.00     0.192 A 
HETATM   12  C3  UNL     1      26.755   2.687  32.896  1.00  0.00     0.147 A 
HETATM   13  N2  UNL     1      27.159   2.190  31.733  1.00  0.00    -0.292 N 
HETATM   14  N3  UNL     1      26.372   2.963  31.057  1.00  0.00    -0.281 N 
ATOM     15  H2  UNL     1      27.835   1.472  31.472  1.00  0.00     0.187 HD
ATOM     16  H3  UNL     1      26.177   3.102  30.066  1.00  0.00     0.188 HD
BRANCH  12  17
HETATM   17  C2  UNL     1      27.068   2.454  34.317  1.00  0.00     0.168 C 
HETATM   18  N1  UNL     1      28.260   2.311  34.736  1.00  0.00    -0.378 N 
ATOM     19  H12 UNL     1      28.477   2.150  35.720  1.00  0.00     0.158 HD
ATOM     20  H11 UNL     1      29.026   2.359  34.066  1.00  0.00     0.158 HD
BRANCH  17  21
HETATM   21  O1  UNL     1      26.026   2.389  35.229  1.00  0.00    -0.339 OA
HETATM   22  C1  UNL     1      24.793   1.747  34.948  1.00  0.00     0.211 C 
ENDBRANCH  17  21
ENDBRANCH  12  17
ENDBRANCH   1  11
BRANCH  10  23
HETATM   23  N7  UNL     1      23.326   3.542  31.231  1.00  0.00    -0.233 N 
ATOM     24  H72 UNL     1      23.059   3.783  30.276  1.00  0.00     0.174 HD
ATOM     25  H71 UNL     1      23.295   2.572  31.546  1.00  0.00     0.174 HD
ENDBRANCH  10  23
TORSDOF 4
ENDMDL
MODEL 5
REMARK VINA RESULT: -6.984006829      1.207      1.439
REMARK  4 active torsions:
REMARK  status: ('A' for Active; 'I' for Inactive)
REMARK    1  A    between atoms: O1_2  and  C2_3 
REMARK    2  A    between atoms: C2_3  and  C3_7 
REMARK    3  A    between atoms: C4_12  and  N4_13 
REMARK    4  A    between atoms: C8_22  and  N7_23 
ROOT
HETATM    1  N4  UNL     1      24.262   4.593  32.332  1.00  0.00    -0.066 N 
HETATM    2  N5  UNL     1      23.007   4.974  32.494  1.00  0.00    -0.277 N 
ATOM      3  H5  UNL     1      22.792   5.589  33.279  1.00  0.00     0.188 HD
HETATM    4  C5  UNL     1      21.994   4.603  31.690  1.00  0.00     0.091 A 
HETATM    5  C6  UNL     1      20.595   5.042  31.891  1.00  0.00     0.076 C 
HETATM    6  C7  UNL     1      22.289   3.774  30.630  1.00  0.00     0.283 A 
HETATM    7  O2  UNL     1      21.379   3.381  29.825  1.00  0.00    -0.265 OA
HETATM    8  N6  UNL     1      23.564   3.383  30.459  1.00  0.00    -0.153 N 
ATOM      9  H6  UNL     1      23.797   2.769  29.679  1.00  0.00     0.187 HD
HETATM   10  C8  UNL     1      24.542   3.783  31.295  1.00  0.00     0.702 A 
ENDROOT
BRANCH   1  11
HETATM   11  C4  UNL     1      25.289   5.033  33.236  1.00  0.00     0.192 A 
HETATM   12  C3  UNL     1      26.235   4.403  34.000  1.00  0.00     0.147 A 
HETATM   13  N2  UNL     1      26.621   5.607  34.407  1.00  0.00    -0.292 N 
HETATM   14  N3  UNL     1      25.728   6.206  33.686  1.00  0.00    -0.281 N 
ATOM     15  H2  UNL     1      27.346   5.934  35.045  1.00  0.00     0.187 HD
ATOM     16  H3  UNL     1      25.466   7.179  33.528  1.00  0.00     0.188 HD
BRANCH  12  17
HETATM   17  C2  UNL     1      26.646   3.013  34.259  1.00  0.00     0.168 C 
HETATM   18  N1  UNL     1      27.819   2.710  34.645  1.00  0.00    -0.378 N 
ATOM     19  H12 UNL     1      28.104   1.747  34.824  1.00  0.00     0.158 HD
ATOM     20  H11 UNL     1      28.500   3.457  34.781  1.00  0.00     0.158 HD
BRANCH  17  21
HETATM   21  O1  UNL     1      25.720   1.997  34.074  1.00  0.00    -0.339 OA
HETATM   22  C1  UNL     1      24.640   1.765  34.962  1.00  0.00     0.211 C 
ENDBRANCH  17  21
ENDBRANCH  12  17
ENDBRANCH   1  11
BRANCH  10  23
HETATM   23  N7  UNL     1      25.766   3.371  31.080  1.00  0.00    -0.233 N 
ATOM     24  H72 UNL     1      26.479   3.551  31.787  1.00  0.00     0.174 HD
ATOM     25  H71 UNL     1      26.006   2.876  30.221  1.00  0.00     0.174 HD
ENDBRANCH  10  23
TORSDOF 4
ENDMDL
