MODEL 1
REMARK VINA RESULT: -7.162713783      0.000      0.000
REMARK  5 active torsions:
REMARK  status: ('A' for Active; 'I' for Inactive)
REMARK    1  A    between atoms: N1_3  and  N2_5 
REMARK    2  A    between atoms: N2_5  and  C3_7 
REMARK    3  A    between atoms: C4_10  and  N4_11 
REMARK    4  A    between atoms: C6_19  and  N7_20 
REMARK    5  A    between atoms: C8_23  and  N8_24 
ROOT
HETATM    1  C3  UNL     1      25.564   5.820  33.841  1.00  0.00     0.166 A 
HETATM    2  N3  UNL     1      24.482   5.250  33.289  1.00  0.00    -0.173 N 
ATOM      3  H3  UNL     1      24.550   4.376  32.767  1.00  0.00     0.186 HD
HETATM    4  C4  UNL     1      23.306   5.880  33.453  1.00  0.00     0.679 A 
HETATM    5  N5  UNL     1      23.174   7.031  34.132  1.00  0.00    -0.174 N 
ATOM      6  H5  UNL     1      22.253   7.459  34.221  1.00  0.00     0.186 HD
HETATM    7  C5  UNL     1      24.243   7.629  34.698  1.00  0.00     0.153 A 
HETATM    8  N6  UNL     1      24.148   8.767  35.376  1.00  0.00    -0.323 N 
ATOM      9  H6  UNL     1      23.235   9.211  35.477  1.00  0.00     0.169 HD
HETATM   10  C6  UNL     1      25.243   9.360  35.944  1.00  0.00     0.147 A 
HETATM   11  C8  UNL     1      26.465   8.744  35.796  1.00  0.00     0.144 A 
HETATM   12  N9  UNL     1      26.545   7.590  35.106  1.00  0.00    -0.334 N 
ATOM     13  H9  UNL     1      27.453   7.139  35.000  1.00  0.00     0.168 HD
HETATM   14  C9  UNL     1      25.470   7.020  34.556  1.00  0.00     0.125 A 
ENDROOT
BRANCH   1  15
HETATM   15  N2  UNL     1      26.706   5.269  33.719  1.00  0.00    -0.284 N 
ATOM     16  H2  UNL     1      27.456   5.794  33.268  1.00  0.00     0.188 HD
BRANCH  15  17
HETATM   17  N1  UNL     1      26.968   3.991  34.172  1.00  0.00    -0.315 N 
HETATM   18  C2  UNL     1      27.815   3.194  33.596  1.00  0.00     0.075 C 
HETATM   19  C1  UNL     1      28.082   1.826  34.098  1.00  0.00     0.056 C 
ATOM     20  H1  UNL     1      26.472   3.657  34.998  1.00  0.00     0.185 HD
ENDBRANCH  15  17
ENDBRANCH   1  15
BRANCH   4  21
HETATM   21  N4  UNL     1      22.262   5.323  32.917  1.00  0.00    -0.234 N 
ATOM     22  H42 UNL     1      22.127   5.365  31.907  1.00  0.00     0.174 HD
ATOM     23  H41 UNL     1      21.611   4.858  33.550  1.00  0.00     0.174 HD
ENDBRANCH   4  21
BRANCH  11  24
HETATM   24  N8  UNL     1      27.555   9.232  36.298  1.00  0.00    -0.382 N 
ATOM     25  H82 UNL     1      27.942  10.076  35.877  1.00  0.00     0.157 HD
ATOM     26  H81 UNL     1      28.032   8.804  37.092  1.00  0.00     0.157 HD
ENDBRANCH  11  24
BRANCH  10  27
HETATM   27  N7  UNL     1      25.071  10.562  36.646  1.00  0.00    -0.378 N 
HETATM   28  C7  UNL     1      23.746  11.012  37.023  1.00  0.00     0.148 C 
ATOM     29  H7  UNL     1      25.886  11.124  36.894  1.00  0.00     0.160 HD
ENDBRANCH  10  27
TORSDOF 5
ENDMDL
MODEL 2
REMARK VINA RESULT: -6.870112442      2.185      5.997
REMARK  5 active torsions:
REMARK  status: ('A' for Active; 'I' for Inactive)
REMARK    1  A    between atoms: N1_3  and  N2_5 
REMARK    2  A    between atoms: N2_5  and  C3_7 
REMARK    3  A    between atoms: C4_10  and  N4_11 
REMARK    4  A    between atoms: C6_19  and  N7_20 
REMARK    5  A    between atoms: C8_23  and  N8_24 
ROOT
HETATM    1  C3  UNL     1      26.235   4.621  33.696  1.00  0.00     0.166 A 
HETATM    2  N3  UNL     1      27.292   3.827  33.468  1.00  0.00    -0.173 N 
ATOM      3  H3  UNL     1      28.118   3.856  34.066  1.00  0.00     0.186 HD
HETATM    4  C4  UNL     1      27.216   2.992  32.417  1.00  0.00     0.679 A 
HETATM    5  N5  UNL     1      26.149   2.923  31.606  1.00  0.00    -0.174 N 
ATOM      6  H5  UNL     1      26.153   2.268  30.825  1.00  0.00     0.186 HD
HETATM    7  C5  UNL     1      25.070   3.708  31.809  1.00  0.00     0.153 A 
HETATM    8  N6  UNL     1      23.998   3.665  31.027  1.00  0.00    -0.323 N 
ATOM      9  H6  UNL     1      23.983   3.016  30.240  1.00  0.00     0.169 HD
HETATM   10  C6  UNL     1      22.914   4.470  31.247  1.00  0.00     0.147 A 
HETATM   11  C8  UNL     1      22.955   5.338  32.314  1.00  0.00     0.144 A 
HETATM   12  N9  UNL     1      24.050   5.370  33.099  1.00  0.00    -0.334 N 
ATOM     13  H9  UNL     1      24.074   6.016  33.888  1.00  0.00     0.168 HD
HETATM   14  C9  UNL     1      25.103   4.581  32.875  1.00  0.00     0.125 A 
ENDROOT
BRANCH   1  15
HETATM   15  N2  UNL     1      26.250   5.432  34.678  1.00  0.00    -0.284 N 
ATOM     16  H2  UNL     1      25.986   5.088  35.601  1.00  0.00     0.188 HD
BRANCH  15  17
HETATM   17  N1  UNL     1      26.608   6.760  34.541  1.00  0.00    -0.315 N 
HETATM   18  C2  UNL     1      26.252   7.681  35.382  1.00  0.00     0.075 C 
HETATM   19  C1  UNL     1      26.647   9.099  35.218  1.00  0.00     0.056 C 
ATOM     20  H1  UNL     1      27.180   7.028  33.741  1.00  0.00     0.185 HD
ENDBRANCH  15  17
ENDBRANCH   1  15
BRANCH   4  21
HETATM   21  N4  UNL     1      28.242   2.225  32.201  1.00  0.00    -0.234 N 
ATOM     22  H42 UNL     1      28.969   2.138  32.911  1.00  0.00     0.174 HD
ATOM     23  H41 UNL     1      28.271   1.735  31.307  1.00  0.00     0.174 HD
ENDBRANCH   4  21
BRANCH  11  24
HETATM   24  N8  UNL     1      21.976   6.137  32.600  1.00  0.00    -0.382 N 
ATOM     25  H82 UNL     1      22.098   6.789  33.375  1.00  0.00     0.157 HD
ATOM     26  H81 UNL     1      21.098   6.135  32.081  1.00  0.00     0.157 HD
ENDBRANCH  11  24
BRANCH  10  27
HETATM   27  N7  UNL     1      21.814   4.373  30.382  1.00  0.00    -0.378 N 
HETATM   28  C7  UNL     1      21.289   3.077  30.000  1.00  0.00     0.148 C 
ATOM     29  H7  UNL     1      21.381   5.222  30.017  1.00  0.00     0.160 HD
ENDBRANCH  10  27
TORSDOF 5
ENDMDL
MODEL 3
REMARK VINA RESULT: -6.839866900      2.218      4.750
REMARK  5 active torsions:
REMARK  status: ('A' for Active; 'I' for Inactive)
REMARK    1  A    between atoms: N1_3  and  N2_5 
REMARK    2  A    between atoms: N2_5  and  C3_7 
REMARK    3  A    between atoms: C4_10  and  N4_11 
REMARK    4  A    between atoms: C6_19  and  N7_20 
REMARK    5  A    between atoms: C8_23  and  N8_24 
ROOT
HETATM    1  C3  UNL     1      25.242   3.170  32.449  1.00  0.00     0.166 A 
HETATM    2  N3  UNL     1      26.303   2.359  32.329  1.00  0.00    -0.173 N 
ATOM      3  H3  UNL     1      26.238   1.467  31.840  1.00  0.00     0.186 HD
HETATM    4  C4  UNL     1      27.457   2.774  32.882  1.00  0.00     0.679 A 
HETATM    5  N5  UNL     1      27.584   3.940  33.535  1.00  0.00    -0.174 N 
ATOM      6  H5  UNL     1      28.487   4.197  33.932  1.00  0.00     0.186 HD
HETATM    7  C5  UNL     1      26.535   4.778  33.672  1.00  0.00     0.153 A 
HETATM    8  N6  UNL     1      26.626   5.938  34.310  1.00  0.00    -0.323 N 
ATOM      9  H6  UNL     1      27.521   6.214  34.715  1.00  0.00     0.169 HD
HETATM   10  C6  UNL     1      25.551   6.775  34.441  1.00  0.00     0.147 A 
HETATM   11  C8  UNL     1      24.353   6.384  33.887  1.00  0.00     0.144 A 
HETATM   12  N9  UNL     1      24.276   5.203  33.242  1.00  0.00    -0.334 N 
ATOM     13  H9  UNL     1      23.386   4.919  32.835  1.00  0.00     0.168 HD
HETATM   14  C9  UNL     1      25.331   4.394  33.121  1.00  0.00     0.125 A 
ENDROOT
BRANCH   1  15
HETATM   15  N2  UNL     1      24.122   2.831  31.945  1.00  0.00    -0.284 N 
ATOM     16  H2  UNL     1      23.564   2.124  32.424  1.00  0.00     0.188 HD
BRANCH  15  17
HETATM   17  N1  UNL     1      23.634   3.381  30.775  1.00  0.00    -0.315 N 
HETATM   18  C2  UNL     1      22.368   3.534  30.538  1.00  0.00     0.075 C 
HETATM   19  C1  UNL     1      21.865   4.127  29.277  1.00  0.00     0.056 C 
ATOM     20  H1  UNL     1      24.301   3.682  30.065  1.00  0.00     0.185 HD
ENDBRANCH  15  17
ENDBRANCH   1  15
BRANCH   4  21
HETATM   21  N4  UNL     1      28.482   1.985  32.763  1.00  0.00    -0.234 N 
ATOM     22  H42 UNL     1      28.340   1.000  32.539  1.00  0.00     0.174 HD
ATOM     23  H41 UNL     1      29.402   2.401  32.904  1.00  0.00     0.174 HD
ENDBRANCH   4  21
BRANCH  11  24
HETATM   24  N8  UNL     1      23.283   7.110  33.961  1.00  0.00    -0.382 N 
ATOM     25  H82 UNL     1      23.317   7.961  34.521  1.00  0.00     0.157 HD
ATOM     26  H81 UNL     1      22.418   6.861  33.481  1.00  0.00     0.157 HD
ENDBRANCH  11  24
BRANCH  10  27
HETATM   27  N7  UNL     1      25.717   7.986  35.128  1.00  0.00    -0.378 N 
HETATM   28  C7  UNL     1      27.009   8.644  35.159  1.00  0.00     0.148 C 
ATOM     29  H7  UNL     1      24.923   8.408  35.610  1.00  0.00     0.160 HD
ENDBRANCH  10  27
TORSDOF 5
ENDMDL
MODEL 4
REMARK VINA RESULT: -6.821302159      1.886      4.118
REMARK  5 active torsions:
REMARK  status: ('A' for Active; 'I' for Inactive)
REMARK    1  A    between atoms: N1_3  and  N2_5 
REMARK    2  A    between atoms: N2_5  and  C3_7 
REMARK    3  A    between atoms: C4_10  and  N4_11 
REMARK    4  A    between atoms: C6_19  and  N7_20 
REMARK    5  A    between atoms: C8_23  and  N8_24 
ROOT
HETATM    1  C3  UNL     1      24.236   5.140  32.649  1.00  0.00     0.166 A 
HETATM    2  N3  UNL     1      25.032   4.134  32.257  1.00  0.00    -0.173 N 
ATOM      3  H3  UNL     1      24.715   3.437  31.583  1.00  0.00     0.186 HD
HETATM    4  C4  UNL     1      26.265   4.084  32.790  1.00  0.00     0.679 A 
HETATM    5  N5  UNL     1      26.721   4.981  33.680  1.00  0.00    -0.174 N 
ATOM      6  H5  UNL     1      27.667   4.888  34.047  1.00  0.00     0.186 HD
HETATM    7  C5  UNL     1      25.944   6.004  34.094  1.00  0.00     0.153 A 
HETATM    8  N6  UNL     1      26.362   6.908  34.972  1.00  0.00    -0.323 N 
ATOM      9  H6  UNL     1      27.306   6.833  35.351  1.00  0.00     0.169 HD
HETATM   10  C6  UNL     1      25.560   7.939  35.381  1.00  0.00     0.147 A 
HETATM   11  C8  UNL     1      24.291   8.022  34.857  1.00  0.00     0.144 A 
HETATM   12  N9  UNL     1      23.880   7.097  33.967  1.00  0.00    -0.334 N 
ATOM     13  H9  UNL     1      22.939   7.164  33.582  1.00  0.00     0.168 HD
HETATM   14  C9  UNL     1      24.671   6.095  33.575  1.00  0.00     0.125 A 
ENDROOT
BRANCH   1  15
HETATM   15  N2  UNL     1      23.057   5.238  32.178  1.00  0.00    -0.284 N 
ATOM     16  H2  UNL     1      22.482   6.033  32.459  1.00  0.00     0.188 HD
BRANCH  15  17
HETATM   17  N1  UNL     1      22.525   4.312  31.301  1.00  0.00    -0.315 N 
HETATM   18  C2  UNL     1      21.310   4.377  30.852  1.00  0.00     0.075 C 
HETATM   19  C1  UNL     1      20.759   3.373  29.912  1.00  0.00     0.056 C 
ATOM     20  H1  UNL     1      23.116   3.541  30.991  1.00  0.00     0.185 HD
ENDBRANCH  15  17
ENDBRANCH   1  15
BRANCH   4  21
HETATM   21  N4  UNL     1      27.032   3.109  32.406  1.00  0.00    -0.234 N 
ATOM     22  H42 UNL     1      27.770   3.282  31.724  1.00  0.00     0.174 HD
ATOM     23  H41 UNL     1      26.853   2.193  32.817  1.00  0.00     0.174 HD
ENDBRANCH   4  21
BRANCH  11  24
HETATM   24  N8  UNL     1      23.462   8.962  35.186  1.00  0.00    -0.382 N 
ATOM     25  H82 UNL     1      23.843   9.882  35.409  1.00  0.00     0.157 HD
ATOM     26  H81 UNL     1      22.454   8.814  35.227  1.00  0.00     0.157 HD
ENDBRANCH  11  24
BRANCH  10  27
HETATM   27  N7  UNL     1      26.066   8.859  36.311  1.00  0.00    -0.378 N 
HETATM   28  C7  UNL     1      27.421   9.360  36.190  1.00  0.00     0.148 C 
ATOM     29  H7  UNL     1      25.476   9.177  37.080  1.00  0.00     0.160 HD
ENDBRANCH  10  27
TORSDOF 5
ENDMDL
MODEL 5
REMARK VINA RESULT: -6.600092831      2.005      6.201
REMARK  5 active torsions:
REMARK  status: ('A' for Active; 'I' for Inactive)
REMARK    1  A    between atoms: N1_3  and  N2_5 
REMARK    2  A    between atoms: N2_5  and  C3_7 
REMARK    3  A    between atoms: C4_10  and  N4_11 
REMARK    4  A    between atoms: C6_19  and  N7_20 
REMARK    5  A    between atoms: C8_23  and  N8_24 
ROOT
HETATM    1  C3  UNL     1      23.764   5.630  33.716  1.00  0.00     0.166 A 
HETATM    2  N3  UNL     1      24.014   6.918  33.995  1.00  0.00    -0.173 N 
ATOM      3  H3  UNL     1      23.266   7.611  34.023  1.00  0.00     0.186 HD
HETATM    4  C4  UNL     1      25.293   7.256  34.235  1.00  0.00     0.679 A 
HETATM    5  N5  UNL     1      26.306   6.375  34.208  1.00  0.00    -0.174 N 
ATOM      6  H5  UNL     1      27.255   6.695  34.400  1.00  0.00     0.186 HD
HETATM    7  C5  UNL     1      26.087   5.073  33.931  1.00  0.00     0.153 A 
HETATM    8  N6  UNL     1      27.065   4.176  33.896  1.00  0.00    -0.323 N 
ATOM      9  H6  UNL     1      28.021   4.476  34.086  1.00  0.00     0.169 HD
HETATM   10  C6  UNL     1      26.824   2.859  33.612  1.00  0.00     0.147 A 
HETATM   11  C8  UNL     1      25.527   2.476  33.360  1.00  0.00     0.144 A 
HETATM   12  N9  UNL     1      24.545   3.397  33.399  1.00  0.00    -0.334 N 
ATOM     13  H9  UNL     1      23.586   3.107  33.211  1.00  0.00     0.168 HD
HETATM   14  C9  UNL     1      24.791   4.680  33.677  1.00  0.00     0.125 A 
ENDROOT
BRANCH   1  15
HETATM   15  N2  UNL     1      22.572   5.250  33.479  1.00  0.00    -0.284 N 
ATOM     16  H2  UNL     1      22.083   4.703  34.187  1.00  0.00     0.188 HD
BRANCH  15  17
HETATM   17  N1  UNL     1      21.914   5.551  32.302  1.00  0.00    -0.315 N 
HETATM   18  C2  UNL     1      21.419   4.647  31.515  1.00  0.00     0.075 C 
HETATM   19  C1  UNL     1      20.717   4.990  30.257  1.00  0.00     0.056 C 
ATOM     20  H1  UNL     1      21.813   6.531  32.039  1.00  0.00     0.185 HD
ENDBRANCH  15  17
ENDBRANCH   1  15
BRANCH   4  21
HETATM   21  N4  UNL     1      25.530   8.504  34.505  1.00  0.00    -0.234 N 
ATOM     22  H42 UNL     1      25.890   8.765  35.423  1.00  0.00     0.174 HD
ATOM     23  H41 UNL     1      25.338   9.180  33.766  1.00  0.00     0.174 HD
ENDBRANCH   4  21
BRANCH  11  24
HETATM   24  N8  UNL     1      25.205   1.252  33.083  1.00  0.00    -0.382 N 
ATOM     25  H82 UNL     1      25.947   0.611  32.804  1.00  0.00     0.157 HD
ATOM     26  H81 UNL     1      24.244   0.913  33.134  1.00  0.00     0.157 HD
ENDBRANCH  11  24
BRANCH  10  27
HETATM   27  N7  UNL     1      27.905   1.965  33.592  1.00  0.00    -0.378 N 
HETATM   28  C7  UNL     1      28.765   1.875  32.428  1.00  0.00     0.148 C 
ATOM     29  H7  UNL     1      28.087   1.372  34.402  1.00  0.00     0.160 HD
ENDBRANCH  10  27
TORSDOF 5
ENDMDL
