MODEL 1
REMARK VINA RESULT: -7.975680284      0.000      0.000
REMARK  6 active torsions:
REMARK  status: ('A' for Active; 'I' for Inactive)
REMARK    1  A    between atoms: C2_2  and  C4_4 
REMARK    2  A    between atoms: C4_4  and  N1_5 
REMARK    3  A    between atoms: C9_12  and  N3_13 
REMARK    4  A    between atoms: N4_17  and  C13_18 
REMARK    5  A    between atoms: C13_18  and  C14_19 
REMARK    6  A    between atoms: C21_29  and  N6_30 
ROOT
HETATM    1  N1  UNL     1       2.737   6.196  10.159  1.00  0.00     0.094 N 
HETATM    2  C5  UNL     1       3.323   5.340   9.089  1.00  0.00     0.277 C 
HETATM    3  C6  UNL     1       2.210   5.063   8.101  1.00  0.00     0.075 C 
HETATM    4  C7  UNL     1       1.000   4.534   8.820  1.00  0.00     0.013 A 
HETATM    5  C8  UNL     1       0.970   4.600  10.177  1.00  0.00     0.065 A 
HETATM    6  N2  UNL     1      -0.101   4.125  10.852  1.00  0.00    -0.193 N 
ATOM      7  H2  UNL     1      -0.134   4.167  11.871  1.00  0.00     0.184 HD
HETATM    8  C9  UNL     1      -1.123   3.597  10.158  1.00  0.00     0.689 A 
HETATM    9  N5  UNL     1      -1.102   3.528   8.818  1.00  0.00    -0.176 N 
ATOM     10  H5  UNL     1      -1.894   3.120   8.321  1.00  0.00     0.186 HD
HETATM   11  C21 UNL     1      -0.041   3.996   8.119  1.00  0.00     0.123 A 
HETATM   12  C22 UNL     1       2.069   5.179  10.996  1.00  0.00     0.330 C 
ENDROOT
BRANCH   8  13
HETATM   13  N3  UNL     1      -2.228   3.120  10.892  1.00  0.00    -0.150 N 
HETATM   14  C10 UNL     1      -2.089   2.158  11.993  1.00  0.00     0.158 C 
HETATM   15  C11 UNL     1      -3.433   1.472  11.992  1.00  0.00     0.048 C 
HETATM   16  C12 UNL     1      -3.901   1.269  13.437  1.00  0.00     0.279 C 
HETATM   17  C19 UNL     1      -4.413   2.591  11.598  1.00  0.00     0.114 C 
HETATM   18  N4  UNL     1      -3.845   2.662  13.875  1.00  0.00     0.090 N 
HETATM   19  C18 UNL     1      -4.729   3.302  12.911  1.00  0.00     0.287 C 
HETATM   20  C20 UNL     1      -3.603   3.442  10.710  1.00  0.00     0.244 C 
HETATM   21  O1  UNL     1      -4.013   4.311   9.915  1.00  0.00    -0.272 OA
BRANCH  18  22
HETATM   22  C13 UNL     1      -4.315   2.824  15.227  1.00  0.00     0.277 C 
BRANCH  22  23
HETATM   23  C14 UNL     1      -5.603   2.184  15.559  1.00  0.00     0.014 C 
HETATM   24  C15 UNL     1      -6.486   3.213  16.297  1.00  0.00     0.006 C 
HETATM   25  C16 UNL     1      -7.044   2.016  17.064  1.00  0.00     0.001 C 
HETATM   26  C17 UNL     1      -5.725   1.295  16.744  1.00  0.00     0.006 C 
ENDBRANCH  22  23
ENDBRANCH  18  22
ENDBRANCH   8  13
BRANCH  11  27
HETATM   27  N6  UNL     1      -0.073   3.911   6.840  1.00  0.00    -0.385 N 
ATOM     28  H62 UNL     1       0.733   3.505   6.365  1.00  0.00     0.157 HD
ATOM     29  H61 UNL     1      -0.858   4.222   6.269  1.00  0.00     0.157 HD
ENDBRANCH  11  27
BRANCH   1  30
HETATM   30  C4  UNL     1       3.820   6.750  10.940  1.00  0.00     0.276 C 
BRANCH  30  31
HETATM   31  C2  UNL     1       4.500   5.836  11.893  1.00  0.00     0.006 C 
HETATM   32  C1  UNL     1       5.913   5.470  11.647  1.00  0.00     0.011 C 
HETATM   33  C3  UNL     1       4.416   6.513  13.276  1.00  0.00     0.011 C 
ENDBRANCH  30  31
ENDBRANCH   1  30
TORSDOF 6
ENDMDL
MODEL 2
REMARK VINA RESULT: -7.882532443      5.559      7.985
REMARK  6 active torsions:
REMARK  status: ('A' for Active; 'I' for Inactive)
REMARK    1  A    between atoms: C2_2  and  C4_4 
REMARK    2  A    between atoms: C4_4  and  N1_5 
REMARK    3  A    between atoms: C9_12  and  N3_13 
REMARK    4  A    between atoms: N4_17  and  C13_18 
REMARK    5  A    between atoms: C13_18  and  C14_19 
REMARK    6  A    between atoms: C21_29  and  N6_30 
ROOT
HETATM    1  N1  UNL     1      -8.193   8.817   7.579  1.00  0.00     0.094 N 
HETATM    2  C5  UNL     1      -7.147   9.650   6.921  1.00  0.00     0.277 C 
HETATM    3  C6  UNL     1      -6.021   8.710   6.549  1.00  0.00     0.075 C 
HETATM    4  C7  UNL     1      -5.604   7.903   7.747  1.00  0.00     0.013 A 
HETATM    5  C8  UNL     1      -6.389   7.933   8.856  1.00  0.00     0.065 A 
HETATM    6  N2  UNL     1      -6.036   7.223   9.952  1.00  0.00    -0.193 N 
ATOM      7  H2  UNL     1      -6.616   7.241  10.791  1.00  0.00     0.184 HD
HETATM    8  C9  UNL     1      -4.908   6.495   9.917  1.00  0.00     0.689 A 
HETATM    9  N5  UNL     1      -4.127   6.458   8.826  1.00  0.00    -0.176 N 
ATOM     10  H5  UNL     1      -3.276   5.896   8.833  1.00  0.00     0.186 HD
HETATM   11  C21 UNL     1      -4.458   7.160   7.717  1.00  0.00     0.123 A 
HETATM   12  C22 UNL     1      -7.650   8.717   8.949  1.00  0.00     0.330 C 
ENDROOT
BRANCH   8  13
HETATM   13  N3  UNL     1      -4.574   5.759  11.073  1.00  0.00    -0.150 N 
HETATM   14  C10 UNL     1      -4.549   6.362  12.412  1.00  0.00     0.158 C 
HETATM   15  C11 UNL     1      -3.555   5.490  13.138  1.00  0.00     0.048 C 
HETATM   16  C12 UNL     1      -4.063   5.213  14.557  1.00  0.00     0.279 C 
HETATM   17  C19 UNL     1      -3.793   4.091  12.542  1.00  0.00     0.114 C 
HETATM   18  N4  UNL     1      -5.357   4.630  14.209  1.00  0.00     0.090 N 
HETATM   19  C18 UNL     1      -4.951   3.521  13.357  1.00  0.00     0.287 C 
HETATM   20  C20 UNL     1      -4.205   4.387  11.160  1.00  0.00     0.244 C 
HETATM   21  O1  UNL     1      -4.239   3.597  10.195  1.00  0.00    -0.272 OA
BRANCH  18  22
HETATM   22  C13 UNL     1      -6.077   4.179  15.371  1.00  0.00     0.277 C 
BRANCH  22  23
HETATM   23  C14 UNL     1      -5.977   2.742  15.695  1.00  0.00     0.014 C 
HETATM   24  C15 UNL     1      -7.099   2.385  16.693  1.00  0.00     0.006 C 
HETATM   25  C16 UNL     1      -6.110   1.373  17.270  1.00  0.00     0.001 C 
HETATM   26  C17 UNL     1      -4.991   2.258  16.698  1.00  0.00     0.006 C 
ENDBRANCH  22  23
ENDBRANCH  18  22
ENDBRANCH   8  13
BRANCH  11  27
HETATM   27  N6  UNL     1      -3.680   7.088   6.700  1.00  0.00    -0.385 N 
ATOM     28  H62 UNL     1      -3.974   6.516   5.909  1.00  0.00     0.157 HD
ATOM     29  H61 UNL     1      -2.784   7.571   6.634  1.00  0.00     0.157 HD
ENDBRANCH  11  27
BRANCH   1  30
HETATM   30  C4  UNL     1      -9.410   9.595   7.656  1.00  0.00     0.276 C 
BRANCH  30  31
HETATM   31  C2  UNL     1      -9.496  10.799   6.791  1.00  0.00     0.006 C 
HETATM   32  C1  UNL     1     -10.587  10.886   5.794  1.00  0.00     0.011 C 
HETATM   33  C3  UNL     1      -9.621  12.006   7.742  1.00  0.00     0.011 C 
ENDBRANCH  30  31
ENDBRANCH   1  30
TORSDOF 6
ENDMDL
MODEL 3
REMARK VINA RESULT: -7.800606540      1.470      8.394
REMARK  6 active torsions:
REMARK  status: ('A' for Active; 'I' for Inactive)
REMARK    1  A    between atoms: C2_2  and  C4_4 
REMARK    2  A    between atoms: C4_4  and  N1_5 
REMARK    3  A    between atoms: C9_12  and  N3_13 
REMARK    4  A    between atoms: N4_17  and  C13_18 
REMARK    5  A    between atoms: C13_18  and  C14_19 
REMARK    6  A    between atoms: C21_29  and  N6_30 
ROOT
HETATM    1  N1  UNL     1      -3.687   2.298  14.708  1.00  0.00     0.094 N 
HETATM    2  C5  UNL     1      -4.759   1.615  13.929  1.00  0.00     0.277 C 
HETATM    3  C6  UNL     1      -4.060   0.801  12.861  1.00  0.00     0.075 C 
HETATM    4  C7  UNL     1      -3.100   1.669  12.095  1.00  0.00     0.013 A 
HETATM    5  C8  UNL     1      -2.817   2.908  12.577  1.00  0.00     0.065 A 
HETATM    6  N2  UNL     1      -1.963   3.714  11.906  1.00  0.00    -0.193 N 
ATOM      7  H2  UNL     1      -1.745   4.646  12.258  1.00  0.00     0.184 HD
HETATM    8  C9  UNL     1      -1.406   3.265  10.770  1.00  0.00     0.689 A 
HETATM    9  N5  UNL     1      -1.679   2.043  10.286  1.00  0.00    -0.176 N 
ATOM     10  H5  UNL     1      -1.241   1.734   9.419  1.00  0.00     0.186 HD
HETATM   11  C21 UNL     1      -2.532   1.218  10.938  1.00  0.00     0.123 A 
HETATM   12  C22 UNL     1      -3.399   3.453  13.833  1.00  0.00     0.330 C 
ENDROOT
BRANCH   8  13
HETATM   13  N3  UNL     1      -0.513   4.127  10.100  1.00  0.00    -0.150 N 
HETATM   14  C10 UNL     1       0.161   5.244  10.774  1.00  0.00     0.158 C 
HETATM   15  C11 UNL     1       0.414   6.200   9.635  1.00  0.00     0.048 C 
HETATM   16  C12 UNL     1       1.813   6.808   9.783  1.00  0.00     0.279 C 
HETATM   17  C19 UNL     1       0.699   5.276   8.439  1.00  0.00     0.114 C 
HETATM   18  N4  UNL     1       2.581   5.565   9.814  1.00  0.00     0.090 N 
HETATM   19  C18 UNL     1       2.187   4.953   8.553  1.00  0.00     0.287 C 
HETATM   20  C20 UNL     1      -0.129   4.095   8.729  1.00  0.00     0.244 C 
HETATM   21  O1  UNL     1      -0.463   3.192   7.936  1.00  0.00    -0.272 OA
BRANCH  18  22
HETATM   22  C13 UNL     1       3.999   5.807   9.875  1.00  0.00     0.277 C 
BRANCH  22  23
HETATM   23  C14 UNL     1       4.632   5.692  11.205  1.00  0.00     0.014 C 
HETATM   24  C15 UNL     1       3.525   5.462  12.255  1.00  0.00     0.006 C 
HETATM   25  C16 UNL     1       4.419   6.254  13.207  1.00  0.00     0.001 C 
HETATM   26  C17 UNL     1       5.033   6.909  11.960  1.00  0.00     0.006 C 
ENDBRANCH  22  23
ENDBRANCH  18  22
ENDBRANCH   8  13
BRANCH  11  27
HETATM   27  N6  UNL     1      -2.756   0.059  10.436  1.00  0.00    -0.385 N 
ATOM     28  H62 UNL     1      -3.509  -0.500  10.835  1.00  0.00     0.157 HD
ATOM     29  H61 UNL     1      -2.226  -0.336   9.659  1.00  0.00     0.157 HD
ENDBRANCH  11  27
BRANCH   1  30
HETATM   30  C4  UNL     1      -4.272   2.818  15.924  1.00  0.00     0.276 C 
BRANCH  30  31
HETATM   31  C2  UNL     1      -5.658   2.388  16.242  1.00  0.00     0.006 C 
HETATM   32  C1  UNL     1      -5.902   1.630  17.491  1.00  0.00     0.011 C 
HETATM   33  C3  UNL     1      -6.508   3.674  16.291  1.00  0.00     0.011 C 
ENDBRANCH  30  31
ENDBRANCH   1  30
TORSDOF 6
ENDMDL
MODEL 4
REMARK VINA RESULT: -7.797949056      1.002      1.175
REMARK  6 active torsions:
REMARK  status: ('A' for Active; 'I' for Inactive)
REMARK    1  A    between atoms: C2_2  and  C4_4 
REMARK    2  A    between atoms: C4_4  and  N1_5 
REMARK    3  A    between atoms: C9_12  and  N3_13 
REMARK    4  A    between atoms: N4_17  and  C13_18 
REMARK    5  A    between atoms: C13_18  and  C14_19 
REMARK    6  A    between atoms: C21_29  and  N6_30 
ROOT
HETATM    1  N1  UNL     1       2.411   5.576  10.018  1.00  0.00     0.094 N 
HETATM    2  C5  UNL     1       2.458   5.304   8.554  1.00  0.00     0.277 C 
HETATM    3  C6  UNL     1       1.105   5.698   8.000  1.00  0.00     0.075 C 
HETATM    4  C7  UNL     1       0.011   5.032   8.789  1.00  0.00     0.013 A 
HETATM    5  C8  UNL     1       0.334   4.414   9.955  1.00  0.00     0.065 A 
HETATM    6  N2  UNL     1      -0.628   3.801  10.682  1.00  0.00    -0.193 N 
ATOM      7  H2  UNL     1      -0.397   3.332  11.557  1.00  0.00     0.184 HD
HETATM    8  C9  UNL     1      -1.893   3.820  10.231  1.00  0.00     0.689 A 
HETATM    9  N5  UNL     1      -2.221   4.429   9.081  1.00  0.00    -0.176 N 
ATOM     10  H5  UNL     1      -3.191   4.424   8.766  1.00  0.00     0.186 HD
HETATM   11  C21 UNL     1      -1.277   5.049   8.334  1.00  0.00     0.123 A 
HETATM   12  C22 UNL     1       1.716   4.367  10.504  1.00  0.00     0.330 C 
ENDROOT
BRANCH   8  13
HETATM   13  N3  UNL     1      -2.872   3.180  11.017  1.00  0.00    -0.150 N 
HETATM   14  C10 UNL     1      -2.585   1.980  11.813  1.00  0.00     0.158 C 
HETATM   15  C11 UNL     1      -3.937   1.315  11.893  1.00  0.00     0.048 C 
HETATM   16  C12 UNL     1      -4.152   0.768  13.308  1.00  0.00     0.279 C 
HETATM   17  C19 UNL     1      -4.920   2.497  11.961  1.00  0.00     0.114 C 
HETATM   18  N4  UNL     1      -3.958   2.014  14.048  1.00  0.00     0.090 N 
HETATM   19  C18 UNL     1      -4.969   2.868  13.441  1.00  0.00     0.287 C 
HETATM   20  C20 UNL     1      -4.242   3.537  11.170  1.00  0.00     0.244 C 
HETATM   21  O1  UNL     1      -4.746   4.574  10.693  1.00  0.00    -0.272 OA
BRANCH  18  22
HETATM   22  C13 UNL     1      -4.176   1.843  15.461  1.00  0.00     0.277 C 
BRANCH  22  23
HETATM   23  C14 UNL     1      -5.580   1.737  15.905  1.00  0.00     0.014 C 
HETATM   24  C15 UNL     1      -5.899   2.944  16.813  1.00  0.00     0.006 C 
HETATM   25  C16 UNL     1      -6.830   1.992  17.562  1.00  0.00     0.001 C 
HETATM   26  C17 UNL     1      -5.953   0.845  17.035  1.00  0.00     0.006 C 
ENDBRANCH  22  23
ENDBRANCH  18  22
ENDBRANCH   8  13
BRANCH  11  27
HETATM   27  N6  UNL     1      -1.643   5.619   7.246  1.00  0.00    -0.385 N 
ATOM     28  H62 UNL     1      -0.971   6.215   6.764  1.00  0.00     0.157 HD
ATOM     29  H61 UNL     1      -2.569   5.510   6.830  1.00  0.00     0.157 HD
ENDBRANCH  11  27
BRANCH   1  30
HETATM   30  C4  UNL     1       3.762   5.528  10.532  1.00  0.00     0.276 C 
BRANCH  30  31
HETATM   31  C2  UNL     1       4.098   6.467  11.633  1.00  0.00     0.006 C 
HETATM   32  C1  UNL     1       3.098   7.484  12.033  1.00  0.00     0.011 C 
HETATM   33  C3  UNL     1       4.409   5.594  12.865  1.00  0.00     0.011 C 
ENDBRANCH  30  31
ENDBRANCH   1  30
TORSDOF 6
ENDMDL
MODEL 5
REMARK VINA RESULT: -7.705245795      5.401      7.875
REMARK  6 active torsions:
REMARK  status: ('A' for Active; 'I' for Inactive)
REMARK    1  A    between atoms: C2_2  and  C4_4 
REMARK    2  A    between atoms: C4_4  and  N1_5 
REMARK    3  A    between atoms: C9_12  and  N3_13 
REMARK    4  A    between atoms: N4_17  and  C13_18 
REMARK    5  A    between atoms: C13_18  and  C14_19 
REMARK    6  A    between atoms: C21_29  and  N6_30 
ROOT
HETATM    1  N1  UNL     1      -7.310   9.134   8.269  1.00  0.00     0.094 N 
HETATM    2  C5  UNL     1      -7.190  10.384   9.071  1.00  0.00     0.277 C 
HETATM    3  C6  UNL     1      -5.732  10.505   9.463  1.00  0.00     0.075 C 
HETATM    4  C7  UNL     1      -5.262   9.228  10.104  1.00  0.00     0.013 A 
HETATM    5  C8  UNL     1      -6.062   8.132  10.031  1.00  0.00     0.065 A 
HETATM    6  N2  UNL     1      -5.669   6.971  10.605  1.00  0.00    -0.193 N 
ATOM      7  H2  UNL     1      -6.262   6.143  10.559  1.00  0.00     0.184 HD
HETATM    8  C9  UNL     1      -4.485   6.929  11.236  1.00  0.00     0.689 A 
HETATM    9  N5  UNL     1      -3.688   8.006  11.312  1.00  0.00    -0.176 N 
ATOM     10  H5  UNL     1      -2.795   7.941  11.801  1.00  0.00     0.186 HD
HETATM   11  C21 UNL     1      -4.059   9.180  10.747  1.00  0.00     0.123 A 
HETATM   12  C22 UNL     1      -7.380   8.120   9.341  1.00  0.00     0.330 C 
ENDROOT
BRANCH   8  13
HETATM   13  N3  UNL     1      -4.101   5.702  11.815  1.00  0.00    -0.150 N 
HETATM   14  C10 UNL     1      -3.822   5.559  13.250  1.00  0.00     0.158 C 
HETATM   15  C11 UNL     1      -2.864   4.394  13.277  1.00  0.00     0.048 C 
HETATM   16  C12 UNL     1      -3.213   3.475  14.453  1.00  0.00     0.279 C 
HETATM   17  C19 UNL     1      -3.359   3.488  12.135  1.00  0.00     0.114 C 
HETATM   18  N4  UNL     1      -4.607   3.206  14.104  1.00  0.00     0.090 N 
HETATM   19  C18 UNL     1      -4.465   2.648  12.768  1.00  0.00     0.287 C 
HETATM   20  C20 UNL     1      -3.906   4.450  11.164  1.00  0.00     0.244 C 
HETATM   21  O1  UNL     1      -4.170   4.245   9.962  1.00  0.00    -0.272 OA
BRANCH  18  22
HETATM   22  C13 UNL     1      -5.222   2.275  15.015  1.00  0.00     0.277 C 
BRANCH  22  23
HETATM   23  C14 UNL     1      -5.347   2.710  16.420  1.00  0.00     0.014 C 
HETATM   24  C15 UNL     1      -5.722   1.485  17.280  1.00  0.00     0.006 C 
HETATM   25  C16 UNL     1      -6.507   2.472  18.143  1.00  0.00     0.001 C 
HETATM   26  C17 UNL     1      -6.588   3.372  16.901  1.00  0.00     0.006 C 
ENDBRANCH  22  23
ENDBRANCH  18  22
ENDBRANCH   8  13
BRANCH  11  27
HETATM   27  N6  UNL     1      -3.260  10.178  10.845  1.00  0.00    -0.385 N 
ATOM     28  H62 UNL     1      -3.581  11.086  10.512  1.00  0.00     0.157 HD
ATOM     29  H61 UNL     1      -2.321  10.118  11.239  1.00  0.00     0.157 HD
ENDBRANCH  11  27
BRANCH   1  30
HETATM   30  C4  UNL     1      -8.594   9.143   7.604  1.00  0.00     0.276 C 
BRANCH  30  31
HETATM   31  C2  UNL     1      -9.079  10.451   7.094  1.00  0.00     0.006 C 
HETATM   32  C1  UNL     1      -8.699  10.869   5.725  1.00  0.00     0.011 C 
HETATM   33  C3  UNL     1     -10.618  10.400   7.168  1.00  0.00     0.011 C 
ENDBRANCH  30  31
ENDBRANCH   1  30
TORSDOF 6
ENDMDL
