MODEL 1
REMARK VINA RESULT: -7.204569407      0.000      0.000
REMARK  4 active torsions:
REMARK  status: ('A' for Active; 'I' for Inactive)
REMARK    1  A    between atoms: O1_1  and  C1_3 
REMARK    2  A    between atoms: C1_3  and  C2_4 
REMARK    3  A    between atoms: C4_7  and  N1_8 
REMARK    4  A    between atoms: C8_12  and  O3_13 
ROOT
HETATM    1  C2  UNL     1      -1.110  -3.378  18.852  1.00  0.00     0.207 C 
HETATM    2  C3  UNL     1      -2.334  -3.253  19.685  1.00  0.00     0.210 C 
HETATM    3  O2  UNL     1      -2.097  -2.763  20.970  1.00  0.00    -0.340 OA
HETATM    4  C4  UNL     1      -1.295  -1.632  20.790  1.00  0.00     0.406 C 
HETATM    5  O4  UNL     1      -0.072  -2.062  20.367  1.00  0.00    -0.185 OA
HETATM    6  O5  UNL     1      -0.026  -2.671  19.253  1.00  0.00    -0.227 OA
ENDROOT
BRANCH   4   7
HETATM    7  N1  UNL     1      -1.212  -0.814  21.956  1.00  0.00    -0.342 N 
HETATM    8  C5  UNL     1      -2.292   0.061  22.181  1.00  0.00     0.063 C 
HETATM    9  C6  UNL     1      -1.943   1.453  22.591  1.00  0.00     0.047 C 
HETATM   10  C7  UNL     1      -0.782   1.572  23.504  1.00  0.00     0.038 C 
HETATM   11  C8  UNL     1       0.006   0.295  23.676  1.00  0.00     0.136 C 
HETATM   12  C9  UNL     1       0.081  -0.351  22.290  1.00  0.00     0.158 C 
BRANCH  11  13
HETATM   13  O3  UNL     1       1.274   0.538  24.165  1.00  0.00    -0.394 OA
ATOM     14  H3  UNL     1       1.841  -0.218  24.065  1.00  0.00     0.210 HD
ENDBRANCH  11  13
ENDBRANCH   4   7
BRANCH   1  15
HETATM   15  C1  UNL     1      -1.470  -2.897  17.439  1.00  0.00     0.201 C 
BRANCH  15  16
HETATM   16  O1  UNL     1      -0.874  -1.695  17.146  1.00  0.00    -0.398 OA
ATOM     17  H1  UNL     1       0.046  -1.692  17.387  1.00  0.00     0.209 HD
ENDBRANCH  15  16
ENDBRANCH   1  15
TORSDOF 4
ENDMDL
MODEL 2
REMARK VINA RESULT: -7.181560135      1.799      2.226
REMARK  4 active torsions:
REMARK  status: ('A' for Active; 'I' for Inactive)
REMARK    1  A    between atoms: O1_1  and  C1_3 
REMARK    2  A    between atoms: C1_3  and  C2_4 
REMARK    3  A    between atoms: C4_7  and  N1_8 
REMARK    4  A    between atoms: C8_12  and  O3_13 
ROOT
HETATM    1  C2  UNL     1      -1.357  -3.221  19.405  1.00  0.00     0.207 C 
HETATM    2  C3  UNL     1      -2.692  -3.029  20.031  1.00  0.00     0.210 C 
HETATM    3  O2  UNL     1      -2.653  -2.350  21.250  1.00  0.00    -0.340 OA
HETATM    4  C4  UNL     1      -1.858  -1.225  21.019  1.00  0.00     0.406 C 
HETATM    5  O4  UNL     1      -0.578  -1.658  20.839  1.00  0.00    -0.185 OA
HETATM    6  O5  UNL     1      -0.358  -2.417  19.845  1.00  0.00    -0.227 OA
ENDROOT
BRANCH   4   7
HETATM    7  N1  UNL     1      -1.963  -0.245  22.051  1.00  0.00    -0.342 N 
HETATM    8  C5  UNL     1      -0.868  -0.148  22.930  1.00  0.00     0.063 C 
HETATM    9  C6  UNL     1      -1.193  -0.030  24.382  1.00  0.00     0.047 C 
HETATM   10  C7  UNL     1      -2.384   0.791  24.701  1.00  0.00     0.038 C 
HETATM   11  C8  UNL     1      -3.214   1.174  23.498  1.00  0.00     0.136 C 
HETATM   12  C9  UNL     1      -3.254  -0.063  22.596  1.00  0.00     0.158 C 
BRANCH  11  13
HETATM   13  O3  UNL     1      -4.492   1.551  23.858  1.00  0.00    -0.394 OA
ATOM     14  H3  UNL     1      -4.761   2.348  23.416  1.00  0.00     0.210 HD
ENDBRANCH  11  13
ENDBRANCH   4   7
BRANCH   1  15
HETATM   15  C1  UNL     1      -1.519  -2.963  17.901  1.00  0.00     0.201 C 
BRANCH  15  16
HETATM   16  O1  UNL     1      -0.683  -1.964  17.465  1.00  0.00    -0.398 OA
ATOM     17  H1  UNL     1      -0.572  -1.986  16.522  1.00  0.00     0.209 HD
ENDBRANCH  15  16
ENDBRANCH   1  15
TORSDOF 4
ENDMDL
MODEL 3
REMARK VINA RESULT: -6.840242876      1.549      1.789
REMARK  4 active torsions:
REMARK  status: ('A' for Active; 'I' for Inactive)
REMARK    1  A    between atoms: O1_1  and  C1_3 
REMARK    2  A    between atoms: C1_3  and  C2_4 
REMARK    3  A    between atoms: C4_7  and  N1_8 
REMARK    4  A    between atoms: C8_12  and  O3_13 
ROOT
HETATM    1  C2  UNL     1      -1.755  -2.951  19.437  1.00  0.00     0.207 C 
HETATM    2  C3  UNL     1      -3.038  -2.606  20.105  1.00  0.00     0.210 C 
HETATM    3  O2  UNL     1      -2.887  -2.127  21.407  1.00  0.00    -0.340 OA
HETATM    4  C4  UNL     1      -1.893  -1.148  21.327  1.00  0.00     0.406 C 
HETATM    5  O4  UNL     1      -0.714  -1.783  21.067  1.00  0.00    -0.185 OA
HETATM    6  O5  UNL     1      -0.629  -2.419  19.971  1.00  0.00    -0.227 OA
ENDROOT
BRANCH   4   7
HETATM    7  N1  UNL     1      -1.824  -0.324  22.489  1.00  0.00    -0.342 N 
HETATM    8  C5  UNL     1      -2.437  -0.832  23.651  1.00  0.00     0.063 C 
HETATM    9  C6  UNL     1      -3.267   0.128  24.436  1.00  0.00     0.047 C 
HETATM   10  C7  UNL     1      -2.742   1.511  24.506  1.00  0.00     0.038 C 
HETATM   11  C8  UNL     1      -1.584   1.783  23.574  1.00  0.00     0.136 C 
HETATM   12  C9  UNL     1      -1.916   1.068  22.261  1.00  0.00     0.158 C 
BRANCH  11  13
HETATM   13  O3  UNL     1      -1.409   3.135  23.357  1.00  0.00    -0.394 OA
ATOM     14  H3  UNL     1      -0.783   3.511  23.966  1.00  0.00     0.210 HD
ENDBRANCH  11  13
ENDBRANCH   4   7
BRANCH   1  15
HETATM   15  C1  UNL     1      -1.849  -2.455  17.988  1.00  0.00     0.201 C 
BRANCH  15  16
HETATM   16  O1  UNL     1      -0.621  -2.084  17.498  1.00  0.00    -0.398 OA
ATOM     17  H1  UNL     1      -0.675  -1.802  16.593  1.00  0.00     0.209 HD
ENDBRANCH  15  16
ENDBRANCH   1  15
TORSDOF 4
ENDMDL
MODEL 4
REMARK VINA RESULT: -6.412076577      2.050      2.832
REMARK  4 active torsions:
REMARK  status: ('A' for Active; 'I' for Inactive)
REMARK    1  A    between atoms: O1_1  and  C1_3 
REMARK    2  A    between atoms: C1_3  and  C2_4 
REMARK    3  A    between atoms: C4_7  and  N1_8 
REMARK    4  A    between atoms: C8_12  and  O3_13 
ROOT
HETATM    1  C2  UNL     1      -2.091  -3.464  18.777  1.00  0.00     0.207 C 
HETATM    2  C3  UNL     1      -2.825  -2.207  18.477  1.00  0.00     0.210 C 
HETATM    3  O2  UNL     1      -3.418  -1.617  19.595  1.00  0.00    -0.340 OA
HETATM    4  C4  UNL     1      -2.416  -1.587  20.569  1.00  0.00     0.406 C 
HETATM    5  O4  UNL     1      -2.184  -2.874  20.957  1.00  0.00    -0.185 OA
HETATM    6  O5  UNL     1      -1.749  -3.675  20.072  1.00  0.00    -0.227 OA
ENDROOT
BRANCH   4   7
HETATM    7  N1  UNL     1      -2.731  -0.735  21.669  1.00  0.00    -0.342 N 
HETATM    8  C5  UNL     1      -1.637  -0.167  22.350  1.00  0.00     0.063 C 
HETATM    9  C6  UNL     1      -1.704  -0.183  23.841  1.00  0.00     0.047 C 
HETATM   10  C7  UNL     1      -3.048   0.051  24.418  1.00  0.00     0.038 C 
HETATM   11  C8  UNL     1      -4.171   0.027  23.407  1.00  0.00     0.136 C 
HETATM   12  C9  UNL     1      -3.851  -1.118  22.442  1.00  0.00     0.158 C 
BRANCH  11  13
HETATM   13  O3  UNL     1      -5.397  -0.177  24.009  1.00  0.00    -0.394 OA
ATOM     14  H3  UNL     1      -6.057  -0.445  23.380  1.00  0.00     0.210 HD
ENDBRANCH  11  13
ENDBRANCH   4   7
BRANCH   1  15
HETATM   15  C1  UNL     1      -0.790  -3.437  17.963  1.00  0.00     0.201 C 
BRANCH  15  16
HETATM   16  O1  UNL     1       0.242  -2.879  18.675  1.00  0.00    -0.398 OA
ATOM     17  H1  UNL     1       0.732  -3.536  19.156  1.00  0.00     0.209 HD
ENDBRANCH  15  16
ENDBRANCH   1  15
TORSDOF 4
ENDMDL
MODEL 5
REMARK VINA RESULT: -6.384532955      1.988      2.516
REMARK  4 active torsions:
REMARK  status: ('A' for Active; 'I' for Inactive)
REMARK    1  A    between atoms: O1_1  and  C1_3 
REMARK    2  A    between atoms: C1_3  and  C2_4 
REMARK    3  A    between atoms: C4_7  and  N1_8 
REMARK    4  A    between atoms: C8_12  and  O3_13 
ROOT
HETATM    1  C2  UNL     1      -2.103  -3.242  18.709  1.00  0.00     0.207 C 
HETATM    2  C3  UNL     1      -3.116  -2.161  18.584  1.00  0.00     0.210 C 
HETATM    3  O2  UNL     1      -3.716  -1.804  19.792  1.00  0.00    -0.340 OA
HETATM    4  C4  UNL     1      -2.659  -1.626  20.690  1.00  0.00     0.406 C 
HETATM    5  O4  UNL     1      -2.120  -2.855  20.936  1.00  0.00    -0.185 OA
HETATM    6  O5  UNL     1      -1.607  -3.469  19.950  1.00  0.00    -0.227 OA
ENDROOT
BRANCH   4   7
HETATM    7  N1  UNL     1      -3.048  -0.952  21.885  1.00  0.00    -0.342 N 
HETATM    8  C5  UNL     1      -4.297  -1.312  22.425  1.00  0.00     0.063 C 
HETATM    9  C6  UNL     1      -5.167  -0.191  22.888  1.00  0.00     0.047 C 
HETATM   10  C7  UNL     1      -4.458   0.937  23.534  1.00  0.00     0.038 C 
HETATM   11  C8  UNL     1      -2.953   0.881  23.402  1.00  0.00     0.136 C 
HETATM   12  C9  UNL     1      -2.667   0.406  21.975  1.00  0.00     0.158 C 
BRANCH  11  13
HETATM   13  O3  UNL     1      -2.374   2.115  23.627  1.00  0.00    -0.394 OA
ATOM     14  H3  UNL     1      -2.507   2.704  22.893  1.00  0.00     0.210 HD
ENDBRANCH  11  13
ENDBRANCH   4   7
BRANCH   1  15
HETATM   15  C1  UNL     1      -0.920  -2.863  17.808  1.00  0.00     0.201 C 
BRANCH  15  16
HETATM   16  O1  UNL     1       0.284  -3.129  18.414  1.00  0.00    -0.398 OA
ATOM     17  H1  UNL     1       0.350  -2.707  19.263  1.00  0.00     0.209 HD
ENDBRANCH  15  16
ENDBRANCH   1  15
TORSDOF 4
ENDMDL
