MODEL 1
REMARK VINA RESULT: -6.403449878      0.000      0.000
REMARK  4 active torsions:
REMARK  status: ('A' for Active; 'I' for Inactive)
REMARK    1  A    between atoms: O1_3  and  C2_4 
REMARK    2  A    between atoms: C3_5  and  O2_6 
REMARK    3  A    between atoms: C4_8  and  O3_9 
REMARK    4  A    between atoms: C7_13  and  N2_14 
ROOT
HETATM    1  N1  UNL     1       0.182   0.236  23.398  1.00  0.00    -0.164 NA
HETATM    2  C1  UNL     1      -0.735   0.540  22.730  1.00  0.00     0.229 C 
HETATM    3  O1  UNL     1      -1.795   0.882  21.939  1.00  0.00    -0.273 OA
ENDROOT
BRANCH   3   4
HETATM    4  C2  UNL     1      -3.071   0.382  22.161  1.00  0.00     0.202 C 
HETATM    5  C3  UNL     1      -3.638   0.820  23.510  1.00  0.00     0.183 C 
HETATM    6  C4  UNL     1      -5.160   0.745  23.347  1.00  0.00     0.172 C 
HETATM    7  C5  UNL     1      -5.463  -0.652  22.934  1.00  0.00     0.005 C 
HETATM    8  C6  UNL     1      -4.595  -1.467  22.392  1.00  0.00     0.001 C 
HETATM    9  C7  UNL     1      -3.170  -1.113  22.107  1.00  0.00     0.163 C 
BRANCH   5  10
HETATM   10  O2  UNL     1      -3.282   2.111  23.829  1.00  0.00    -0.390 OA
ATOM     11  H2  UNL     1      -2.748   2.153  24.613  1.00  0.00     0.210 HD
ENDBRANCH   5  10
BRANCH   6  12
HETATM   12  O3  UNL     1      -5.459   1.559  22.247  1.00  0.00    -0.389 OA
ATOM     13  H3  UNL     1      -5.752   2.384  22.615  1.00  0.00     0.210 HD
ENDBRANCH   6  12
BRANCH   9  14
HETATM   14  N2  UNL     1      -2.740  -1.678  20.859  1.00  0.00    -0.293 N 
HETATM   15  C8  UNL     1      -3.510  -1.684  19.739  1.00  0.00     0.112 A 
HETATM   16  C9  UNL     1      -2.791  -2.295  18.749  1.00  0.00     0.037 A 
HETATM   17  C10 UNL     1      -1.585  -2.644  19.319  1.00  0.00     0.108 A 
HETATM   18  N3  UNL     1      -1.584  -2.254  20.603  1.00  0.00    -0.309 N 
ATOM     19  H3  UNL     1      -0.820  -2.383  21.266  1.00  0.00     0.186 HD
ENDBRANCH   9  14
ENDBRANCH   3   4
TORSDOF 4
ENDMDL
MODEL 2
REMARK VINA RESULT: -6.368860953      2.231      4.352
REMARK  4 active torsions:
REMARK  status: ('A' for Active; 'I' for Inactive)
REMARK    1  A    between atoms: O1_3  and  C2_4 
REMARK    2  A    between atoms: C3_5  and  O2_6 
REMARK    3  A    between atoms: C4_8  and  O3_9 
REMARK    4  A    between atoms: C7_13  and  N2_14 
ROOT
HETATM    1  N1  UNL     1      -1.697   1.794  22.470  1.00  0.00    -0.164 NA
HETATM    2  C1  UNL     1      -1.588   0.625  22.491  1.00  0.00     0.229 C 
HETATM    3  O1  UNL     1      -1.473  -0.736  22.531  1.00  0.00    -0.273 OA
ENDROOT
BRANCH   3   4
HETATM    4  C2  UNL     1      -2.142  -1.558  21.634  1.00  0.00     0.202 C 
HETATM    5  C3  UNL     1      -1.343  -1.788  20.353  1.00  0.00     0.183 C 
HETATM    6  C4  UNL     1      -1.863  -3.115  19.790  1.00  0.00     0.172 C 
HETATM    7  C5  UNL     1      -3.332  -2.945  19.622  1.00  0.00     0.005 C 
HETATM    8  C6  UNL     1      -4.048  -2.048  20.248  1.00  0.00     0.001 C 
HETATM    9  C7  UNL     1      -3.495  -1.059  21.225  1.00  0.00     0.163 C 
BRANCH   5  10
HETATM   10  O2  UNL     1       0.008  -1.899  20.594  1.00  0.00    -0.390 OA
ATOM     11  H2  UNL     1       0.432  -2.499  19.992  1.00  0.00     0.210 HD
ENDBRANCH   5  10
BRANCH   6  12
HETATM   12  O3  UNL     1      -1.685  -4.051  20.816  1.00  0.00    -0.389 OA
ATOM     13  H3  UNL     1      -2.519  -4.090  21.271  1.00  0.00     0.210 HD
ENDBRANCH   6  12
BRANCH   9  14
HETATM   14  N2  UNL     1      -4.397  -0.864  22.325  1.00  0.00    -0.293 N 
HETATM   15  C8  UNL     1      -5.439   0.009  22.289  1.00  0.00     0.112 A 
HETATM   16  C9  UNL     1      -6.078  -0.064  23.496  1.00  0.00     0.037 A 
HETATM   17  C10 UNL     1      -5.385  -1.000  24.234  1.00  0.00     0.108 A 
HETATM   18  N3  UNL     1      -4.369  -1.469  23.494  1.00  0.00    -0.309 N 
ATOM     19  H3  UNL     1      -3.690  -2.172  23.787  1.00  0.00     0.186 HD
ENDBRANCH   9  14
ENDBRANCH   3   4
TORSDOF 4
ENDMDL
MODEL 3
REMARK VINA RESULT: -6.342598133      2.244      3.916
REMARK  4 active torsions:
REMARK  status: ('A' for Active; 'I' for Inactive)
REMARK    1  A    between atoms: O1_3  and  C2_4 
REMARK    2  A    between atoms: C3_5  and  O2_6 
REMARK    3  A    between atoms: C4_8  and  O3_9 
REMARK    4  A    between atoms: C7_13  and  N2_14 
ROOT
HETATM    1  N1  UNL     1      -1.121  -3.520  20.358  1.00  0.00    -0.164 NA
HETATM    2  C1  UNL     1      -1.912  -2.655  20.443  1.00  0.00     0.229 C 
HETATM    3  O1  UNL     1      -2.843  -1.660  20.531  1.00  0.00    -0.273 OA
ENDROOT
BRANCH   3   4
HETATM    4  C2  UNL     1      -3.588  -1.448  21.683  1.00  0.00     0.202 C 
HETATM    5  C3  UNL     1      -5.078  -1.704  21.465  1.00  0.00     0.183 C 
HETATM    6  C4  UNL     1      -5.634  -2.036  22.855  1.00  0.00     0.172 C 
HETATM    7  C5  UNL     1      -5.292  -0.877  23.724  1.00  0.00     0.005 C 
HETATM    8  C6  UNL     1      -4.342  -0.016  23.466  1.00  0.00     0.001 C 
HETATM    9  C7  UNL     1      -3.460  -0.069  22.259  1.00  0.00     0.163 C 
BRANCH   5  10
HETATM   10  O2  UNL     1      -5.305  -2.770  20.624  1.00  0.00    -0.390 OA
ATOM     11  H2  UNL     1      -6.204  -2.802  20.319  1.00  0.00     0.210 HD
ENDBRANCH   5  10
BRANCH   6  12
HETATM   12  O3  UNL     1      -4.872  -3.117  23.314  1.00  0.00    -0.389 OA
ATOM     13  H3  UNL     1      -5.142  -3.253  24.215  1.00  0.00     0.210 HD
ENDBRANCH   6  12
BRANCH   9  14
HETATM   14  N2  UNL     1      -2.112   0.297  22.591  1.00  0.00    -0.293 N 
HETATM   15  C8  UNL     1      -1.709   1.584  22.764  1.00  0.00     0.112 A 
HETATM   16  C9  UNL     1      -0.376   1.560  23.069  1.00  0.00     0.037 A 
HETATM   17  C10 UNL     1      -0.013   0.230  23.069  1.00  0.00     0.108 A 
HETATM   18  N3  UNL     1      -1.090  -0.514  22.776  1.00  0.00    -0.309 N 
ATOM     19  H3  UNL     1      -1.114  -1.531  22.707  1.00  0.00     0.186 HD
ENDBRANCH   9  14
ENDBRANCH   3   4
TORSDOF 4
ENDMDL
MODEL 4
REMARK VINA RESULT: -6.341321396      1.363      1.536
REMARK  4 active torsions:
REMARK  status: ('A' for Active; 'I' for Inactive)
REMARK    1  A    between atoms: O1_3  and  C2_4 
REMARK    2  A    between atoms: C3_5  and  O2_6 
REMARK    3  A    between atoms: C4_8  and  O3_9 
REMARK    4  A    between atoms: C7_13  and  N2_14 
ROOT
HETATM    1  N1  UNL     1      -0.782   0.400  22.378  1.00  0.00    -0.164 NA
HETATM    2  C1  UNL     1      -1.722  -0.245  22.659  1.00  0.00     0.229 C 
HETATM    3  O1  UNL     1      -2.818  -0.985  23.002  1.00  0.00    -0.273 OA
ENDROOT
BRANCH   3   4
HETATM    4  C2  UNL     1      -4.044  -0.822  22.372  1.00  0.00     0.202 C 
HETATM    5  C3  UNL     1      -5.170  -0.529  23.361  1.00  0.00     0.183 C 
HETATM    6  C4  UNL     1      -6.238   0.207  22.544  1.00  0.00     0.172 C 
HETATM    7  C5  UNL     1      -6.584  -0.692  21.411  1.00  0.00     0.005 C 
HETATM    8  C6  UNL     1      -5.816  -1.656  20.972  1.00  0.00     0.001 C 
HETATM    9  C7  UNL     1      -4.479  -1.997  21.548  1.00  0.00     0.163 C 
BRANCH   5  10
HETATM   10  O2  UNL     1      -4.757   0.280  24.395  1.00  0.00    -0.390 OA
ATOM     11  H2  UNL     1      -5.487   0.618  24.901  1.00  0.00     0.210 HD
ENDBRANCH   5  10
BRANCH   6  12
HETATM   12  O3  UNL     1      -5.587   1.316  21.989  1.00  0.00    -0.389 OA
ATOM     13  H3  UNL     1      -6.161   1.627  21.299  1.00  0.00     0.210 HD
ENDBRANCH   6  12
BRANCH   9  14
HETATM   14  N2  UNL     1      -3.549  -2.353  20.513  1.00  0.00    -0.293 N 
HETATM   15  C8  UNL     1      -3.609  -1.849  19.252  1.00  0.00     0.112 A 
HETATM   16  C9  UNL     1      -2.579  -2.401  18.539  1.00  0.00     0.037 A 
HETATM   17  C10 UNL     1      -1.921  -3.237  19.415  1.00  0.00     0.108 A 
HETATM   18  N3  UNL     1      -2.534  -3.187  20.607  1.00  0.00    -0.309 N 
ATOM     19  H3  UNL     1      -2.261  -3.704  21.442  1.00  0.00     0.186 HD
ENDBRANCH   9  14
ENDBRANCH   3   4
TORSDOF 4
ENDMDL
MODEL 5
REMARK VINA RESULT: -6.304210519      2.255      4.334
REMARK  4 active torsions:
REMARK  status: ('A' for Active; 'I' for Inactive)
REMARK    1  A    between atoms: O1_3  and  C2_4 
REMARK    2  A    between atoms: C3_5  and  O2_6 
REMARK    3  A    between atoms: C4_8  and  O3_9 
REMARK    4  A    between atoms: C7_13  and  N2_14 
ROOT
HETATM    1  N1  UNL     1      -2.108   1.703  22.271  1.00  0.00    -0.164 NA
HETATM    2  C1  UNL     1      -2.277   0.542  22.323  1.00  0.00     0.229 C 
HETATM    3  O1  UNL     1      -2.492  -0.805  22.388  1.00  0.00    -0.273 OA
ENDROOT
BRANCH   3   4
HETATM    4  C2  UNL     1      -2.532  -1.601  21.252  1.00  0.00     0.202 C 
HETATM    5  C3  UNL     1      -1.244  -1.510  20.436  1.00  0.00     0.183 C 
HETATM    6  C4  UNL     1      -1.183  -2.818  19.639  1.00  0.00     0.172 C 
HETATM    7  C5  UNL     1      -2.447  -2.885  18.857  1.00  0.00     0.005 C 
HETATM    8  C6  UNL     1      -3.534  -2.220  19.152  1.00  0.00     0.001 C 
HETATM    9  C7  UNL     1      -3.665  -1.293  20.318  1.00  0.00     0.163 C 
BRANCH   5  10
HETATM   10  O2  UNL     1      -0.127  -1.417  21.236  1.00  0.00    -0.390 OA
ATOM     11  H2  UNL     1       0.410  -0.665  21.016  1.00  0.00     0.210 HD
ENDBRANCH   5  10
BRANCH   6  12
HETATM   12  O3  UNL     1      -1.250  -3.841  20.593  1.00  0.00    -0.389 OA
ATOM     13  H3  UNL     1      -1.383  -4.641  20.098  1.00  0.00     0.210 HD
ENDBRANCH   6  12
BRANCH   9  14
HETATM   14  N2  UNL     1      -4.962  -1.410  20.924  1.00  0.00    -0.293 N 
HETATM   15  C8  UNL     1      -5.792  -2.464  20.709  1.00  0.00     0.112 A 
HETATM   16  C9  UNL     1      -6.930  -2.246  21.438  1.00  0.00     0.037 A 
HETATM   17  C10 UNL     1      -6.741  -1.042  22.080  1.00  0.00     0.108 A 
HETATM   18  N3  UNL     1      -5.534  -0.557  21.749  1.00  0.00    -0.309 N 
ATOM     19  H3  UNL     1      -5.131   0.319  22.078  1.00  0.00     0.186 HD
ENDBRANCH   9  14
ENDBRANCH   3   4
TORSDOF 4
ENDMDL
