MODEL 1
REMARK VINA RESULT: -5.857946361      0.000      0.000
REMARK  4 active torsions:
REMARK  status: ('A' for Active; 'I' for Inactive)
REMARK    1  A    between atoms: N1_2  and  C3_4 
REMARK    2  A    between atoms: C4_6  and  O2_8 
REMARK    3  A    between atoms: C6_10  and  O3_11 
REMARK    4  A    between atoms: C7_13  and  S1_14 
ROOT
HETATM    1  S1  UNL     1      -3.242  -1.506  20.475  1.00  0.00    -0.039 SA
HETATM    2  C8  UNL     1      -2.031  -2.817  20.355  1.00  0.00     0.134 C 
HETATM    3  N2  UNL     1      -1.235  -3.682  20.310  1.00  0.00    -0.184 NA
ENDROOT
BRANCH   1   4
HETATM    4  C7  UNL     1      -3.073  -0.753  22.090  1.00  0.00     0.145 C 
HETATM    5  C3  UNL     1      -4.255   0.176  22.413  1.00  0.00     0.239 C 
HETATM    6  O1  UNL     1      -3.816   0.747  23.590  1.00  0.00    -0.328 OA
HETATM    7  C4  UNL     1      -2.465   1.006  23.453  1.00  0.00     0.188 C 
HETATM    8  C5  UNL     1      -1.738   0.280  24.575  1.00  0.00     0.082 C 
HETATM    9  C6  UNL     1      -2.005   0.330  22.160  1.00  0.00     0.199 C 
BRANCH   5  10
HETATM   10  N1  UNL     1      -5.486  -0.535  22.477  1.00  0.00    -0.395 N 
HETATM   11  C1  UNL     1      -6.658   0.227  22.181  1.00  0.00     0.145 C 
HETATM   12  C2  UNL     1      -5.614  -1.461  23.566  1.00  0.00     0.145 C 
ENDBRANCH   5  10
BRANCH   7  13
HETATM   13  O2  UNL     1      -2.192   2.363  23.444  1.00  0.00    -0.363 OA
ATOM     14  H2  UNL     1      -2.139   2.712  22.562  1.00  0.00     0.213 HD
ENDBRANCH   7  13
BRANCH   9  15
HETATM   15  O3  UNL     1      -0.727  -0.182  22.263  1.00  0.00    -0.389 OA
ATOM     16  H3  UNL     1      -0.066   0.444  21.993  1.00  0.00     0.210 HD
ENDBRANCH   9  15
ENDBRANCH   1   4
TORSDOF 4
ENDMDL
MODEL 2
REMARK VINA RESULT: -5.536741798      2.697      4.106
REMARK  4 active torsions:
REMARK  status: ('A' for Active; 'I' for Inactive)
REMARK    1  A    between atoms: N1_2  and  C3_4 
REMARK    2  A    between atoms: C4_6  and  O2_8 
REMARK    3  A    between atoms: C6_10  and  O3_11 
REMARK    4  A    between atoms: C7_13  and  S1_14 
ROOT
HETATM    1  S1  UNL     1      -2.922   0.464  22.124  1.00  0.00    -0.039 SA
HETATM    2  C8  UNL     1      -2.268  -0.139  23.675  1.00  0.00     0.134 C 
HETATM    3  N2  UNL     1      -1.818  -0.558  24.679  1.00  0.00    -0.184 NA
ENDROOT
BRANCH   1   4
HETATM    4  C7  UNL     1      -2.799  -0.863  20.928  1.00  0.00     0.145 C 
HETATM    5  C3  UNL     1      -3.957  -1.866  21.067  1.00  0.00     0.239 C 
HETATM    6  O1  UNL     1      -3.551  -2.847  20.187  1.00  0.00    -0.328 OA
HETATM    7  C4  UNL     1      -2.186  -3.006  20.334  1.00  0.00     0.188 C 
HETATM    8  C5  UNL     1      -1.542  -2.770  18.976  1.00  0.00     0.082 C 
HETATM    9  C6  UNL     1      -1.693  -1.866  21.227  1.00  0.00     0.199 C 
BRANCH   5  10
HETATM   10  N1  UNL     1      -5.217  -1.261  20.802  1.00  0.00    -0.395 N 
HETATM   11  C1  UNL     1      -6.212  -1.431  21.813  1.00  0.00     0.145 C 
HETATM   12  C2  UNL     1      -5.689  -1.373  19.450  1.00  0.00     0.145 C 
ENDBRANCH   5  10
BRANCH   7  13
HETATM   13  O2  UNL     1      -1.858  -4.244  20.860  1.00  0.00    -0.363 OA
ATOM     14  H2  UNL     1      -2.588  -4.643  21.320  1.00  0.00     0.213 HD
ENDBRANCH   7  13
BRANCH   9  15
HETATM   15  O3  UNL     1      -0.443  -1.413  20.855  1.00  0.00    -0.389 OA
ATOM     16  H3  UNL     1       0.038  -1.044  21.586  1.00  0.00     0.210 HD
ENDBRANCH   9  15
ENDBRANCH   1   4
TORSDOF 4
ENDMDL
MODEL 3
REMARK VINA RESULT: -5.411564468      2.001      3.646
REMARK  4 active torsions:
REMARK  status: ('A' for Active; 'I' for Inactive)
REMARK    1  A    between atoms: N1_2  and  C3_4 
REMARK    2  A    between atoms: C4_6  and  O2_8 
REMARK    3  A    between atoms: C6_10  and  O3_11 
REMARK    4  A    between atoms: C7_13  and  S1_14 
ROOT
HETATM    1  S1  UNL     1      -3.288  -1.631  19.920  1.00  0.00    -0.039 SA
HETATM    2  C8  UNL     1      -2.034  -2.872  20.214  1.00  0.00     0.134 C 
HETATM    3  N2  UNL     1      -1.224  -3.695  20.437  1.00  0.00    -0.184 NA
ENDROOT
BRANCH   1   4
HETATM    4  C7  UNL     1      -3.909  -1.096  21.512  1.00  0.00     0.145 C 
HETATM    5  C3  UNL     1      -2.778  -0.949  22.545  1.00  0.00     0.239 C 
HETATM    6  O1  UNL     1      -3.510  -0.708  23.689  1.00  0.00    -0.328 OA
HETATM    7  C4  UNL     1      -4.617  -1.533  23.663  1.00  0.00     0.188 C 
HETATM    8  C5  UNL     1      -5.854  -0.653  23.757  1.00  0.00     0.082 C 
HETATM    9  C6  UNL     1      -4.672  -2.170  22.273  1.00  0.00     0.199 C 
BRANCH   5  10
HETATM   10  N1  UNL     1      -1.843   0.056  22.169  1.00  0.00    -0.395 N 
HETATM   11  C1  UNL     1      -0.491  -0.175  22.567  1.00  0.00     0.145 C 
HETATM   12  C2  UNL     1      -2.300   1.411  22.299  1.00  0.00     0.145 C 
ENDBRANCH   5  10
BRANCH   7  13
HETATM   13  O2  UNL     1      -4.579  -2.491  24.662  1.00  0.00    -0.363 OA
ATOM     14  H2  UNL     1      -5.169  -3.215  24.486  1.00  0.00     0.213 HD
ENDBRANCH   7  13
BRANCH   9  15
HETATM   15  O3  UNL     1      -5.966  -2.332  21.821  1.00  0.00    -0.389 OA
ATOM     16  H3  UNL     1      -6.423  -3.028  22.278  1.00  0.00     0.210 HD
ENDBRANCH   9  15
ENDBRANCH   1   4
TORSDOF 4
ENDMDL
MODEL 4
REMARK VINA RESULT: -5.190438111      2.295      2.577
REMARK  4 active torsions:
REMARK  status: ('A' for Active; 'I' for Inactive)
REMARK    1  A    between atoms: N1_2  and  C3_4 
REMARK    2  A    between atoms: C4_6  and  O2_8 
REMARK    3  A    between atoms: C6_10  and  O3_11 
REMARK    4  A    between atoms: C7_13  and  S1_14 
ROOT
HETATM    1  S1  UNL     1      -5.011  -0.667  22.505  1.00  0.00    -0.039 SA
HETATM    2  C8  UNL     1      -4.906  -2.452  22.452  1.00  0.00     0.134 C 
HETATM    3  N2  UNL     1      -4.818  -3.625  22.444  1.00  0.00    -0.184 NA
ENDROOT
BRANCH   1   4
HETATM    4  C7  UNL     1      -3.538  -0.060  23.321  1.00  0.00     0.145 C 
HETATM    5  C3  UNL     1      -3.855   1.094  24.288  1.00  0.00     0.239 C 
HETATM    6  O1  UNL     1      -2.581   1.487  24.642  1.00  0.00    -0.328 OA
HETATM    7  C4  UNL     1      -1.796   1.441  23.506  1.00  0.00     0.188 C 
HETATM    8  C5  UNL     1      -0.626   0.511  23.789  1.00  0.00     0.082 C 
HETATM    9  C6  UNL     1      -2.617   0.749  22.417  1.00  0.00     0.199 C 
BRANCH   5  10
HETATM   10  N1  UNL     1      -4.707   0.677  25.349  1.00  0.00    -0.395 N 
HETATM   11  C1  UNL     1      -5.351   1.725  26.076  1.00  0.00     0.145 C 
HETATM   12  C2  UNL     1      -4.218  -0.414  26.145  1.00  0.00     0.145 C 
ENDBRANCH   5  10
BRANCH   7  13
HETATM   13  O2  UNL     1      -1.379   2.700  23.108  1.00  0.00    -0.363 OA
ATOM     14  H2  UNL     1      -1.742   2.948  22.266  1.00  0.00     0.213 HD
ENDBRANCH   7  13
BRANCH   9  15
HETATM   15  O3  UNL     1      -1.838  -0.043  21.597  1.00  0.00    -0.389 OA
ATOM     16  H3  UNL     1      -1.047   0.400  21.315  1.00  0.00     0.210 HD
ENDBRANCH   9  15
ENDBRANCH   1   4
TORSDOF 4
ENDMDL
MODEL 5
REMARK VINA RESULT: -5.167870996      1.285      1.318
REMARK  4 active torsions:
REMARK  status: ('A' for Active; 'I' for Inactive)
REMARK    1  A    between atoms: N1_2  and  C3_4 
REMARK    2  A    between atoms: C4_6  and  O2_8 
REMARK    3  A    between atoms: C6_10  and  O3_11 
REMARK    4  A    between atoms: C7_13  and  S1_14 
ROOT
HETATM    1  S1  UNL     1      -2.949  -2.815  20.128  1.00  0.00    -0.039 SA
HETATM    2  C8  UNL     1      -1.332  -2.734  19.369  1.00  0.00     0.134 C 
HETATM    3  N2  UNL     1      -0.255  -2.671  18.898  1.00  0.00    -0.184 NA
ENDROOT
BRANCH   1   4
HETATM    4  C7  UNL     1      -2.971  -1.651  21.488  1.00  0.00     0.145 C 
HETATM    5  C3  UNL     1      -4.223  -0.757  21.454  1.00  0.00     0.239 C 
HETATM    6  O1  UNL     1      -3.926   0.135  22.463  1.00  0.00    -0.328 OA
HETATM    7  C4  UNL     1      -2.583   0.445  22.369  1.00  0.00     0.188 C 
HETATM    8  C5  UNL     1      -1.932   0.098  23.698  1.00  0.00     0.082 C 
HETATM    9  C6  UNL     1      -1.969  -0.514  21.347  1.00  0.00     0.199 C 
BRANCH   5  10
HETATM   10  N1  UNL     1      -5.419  -1.514  21.610  1.00  0.00    -0.395 N 
HETATM   11  C1  UNL     1      -6.590  -0.951  21.017  1.00  0.00     0.145 C 
HETATM   12  C2  UNL     1      -5.610  -2.115  22.900  1.00  0.00     0.145 C 
ENDBRANCH   5  10
BRANCH   7  13
HETATM   13  O2  UNL     1      -2.376   1.768  22.015  1.00  0.00    -0.363 OA
ATOM     14  H2  UNL     1      -3.058   2.096  21.439  1.00  0.00     0.213 HD
ENDBRANCH   7  13
BRANCH   9  15
HETATM   15  O3  UNL     1      -0.684  -0.886  21.684  1.00  0.00    -0.389 OA
ATOM     16  H3  UNL     1      -0.186  -1.185  20.932  1.00  0.00     0.210 HD
ENDBRANCH   9  15
ENDBRANCH   1   4
TORSDOF 4
ENDMDL
