MODEL 1
REMARK VINA RESULT: -6.521335240      0.000      0.000
REMARK  11 active torsions:
REMARK  status: ('A' for Active; 'I' for Inactive)
REMARK    1  A    between atoms: C2_2  and  C3_3 
REMARK    2  A    between atoms: C3_3  and  C4_4 
REMARK    3  A    between atoms: C4_4  and  C5_5 
REMARK    4  A    between atoms: C6_6  and  N1_7 
REMARK    5  A    between atoms: N1_7  and  N2_9 
REMARK    6  A    between atoms: N5_17  and  C8_18 
REMARK    7  A    between atoms: C8_18  and  C9_19 
REMARK    8  A    between atoms: C10_21  and  O2_22 
REMARK    9  A    between atoms: C11_24  and  O3_25 
REMARK   10  A    between atoms: C12_27  and  O4_28 
REMARK   11  A    between atoms: C13_30  and  O5_31 
ROOT
HETATM    1  C5  UNL     1      -2.869   2.919  11.973  1.00  0.00     0.058 A 
HETATM    2  C6  UNL     1      -1.754   3.724  12.062  1.00  0.00     0.090 A 
HETATM    3  C7  UNL     1      -1.988   4.562  13.131  1.00  0.00     0.140 A 
HETATM    4  N4  UNL     1      -3.204   4.256  13.651  1.00  0.00    -0.307 N 
ATOM      5  H4  UNL     1      -3.639   4.715  14.452  1.00  0.00     0.186 HD
HETATM    6  N5  UNL     1      -3.742   3.251  12.941  1.00  0.00    -0.292 N 
ENDROOT
BRANCH   6   7
HETATM    7  C8  UNL     1      -5.027   2.656  13.197  1.00  0.00     0.183 C 
BRANCH   7   8
HETATM    8  C9  UNL     1      -5.172   2.142  14.598  1.00  0.00     0.175 C 
HETATM    9  O1  UNL     1      -4.040   2.339  15.379  1.00  0.00    -0.349 OA
HETATM   10  C10 UNL     1      -4.124   1.443  16.446  1.00  0.00     0.288 C 
HETATM   11  C11 UNL     1      -5.512   1.113  16.862  1.00  0.00     0.204 C 
HETATM   12  C12 UNL     1      -6.538   2.159  16.598  1.00  0.00     0.183 C 
HETATM   13  C13 UNL     1      -6.290   2.908  15.291  1.00  0.00     0.180 C 
BRANCH  10  14
HETATM   14  O2  UNL     1      -3.437   0.284  16.015  1.00  0.00    -0.369 OA
ATOM     15  H2  UNL     1      -3.156  -0.153  16.811  1.00  0.00     0.212 HD
ENDBRANCH  10  14
BRANCH  11  16
HETATM   16  O3  UNL     1      -5.497   0.884  18.258  1.00  0.00    -0.388 OA
ATOM     17  H3  UNL     1      -6.390   0.959  18.570  1.00  0.00     0.210 HD
ENDBRANCH  11  16
BRANCH  12  18
HETATM   18  O4  UNL     1      -7.790   1.524  16.425  1.00  0.00    -0.390 OA
ATOM     19  H4  UNL     1      -8.292   1.627  17.225  1.00  0.00     0.210 HD
ENDBRANCH  12  18
BRANCH  13  20
HETATM   20  O5  UNL     1      -5.741   4.160  15.640  1.00  0.00    -0.390 OA
ATOM     21  H5  UNL     1      -6.175   4.798  15.084  1.00  0.00     0.210 HD
ENDBRANCH  13  20
ENDBRANCH   7   8
ENDBRANCH   6   7
BRANCH   1  22
HETATM   22  C4  UNL     1      -3.079   1.865  10.981  1.00  0.00     0.061 C 
BRANCH  22  23
HETATM   23  C3  UNL     1      -2.410   0.551  11.385  1.00  0.00     0.006 C 
BRANCH  23  24
HETATM   24  C2  UNL     1      -3.532  -0.484  11.426  1.00  0.00    -0.004 C 
HETATM   25  C1  UNL     1      -4.758  -0.007  10.683  1.00  0.00     0.005 C 
ENDBRANCH  23  24
ENDBRANCH  22  23
ENDBRANCH   1  22
BRANCH   2  26
HETATM   26  N1  UNL     1      -0.626   3.654  11.201  1.00  0.00    -0.284 N 
ATOM     27  H1  UNL     1      -0.759   3.588  10.192  1.00  0.00     0.188 HD
BRANCH  26  28
HETATM   28  N2  UNL     1       0.530   3.675  11.677  1.00  0.00    -0.249 N 
HETATM   29  N3  UNL     1       1.718   4.040  11.675  1.00  0.00    -0.331 N 
ATOM     30  H32 UNL     1       1.746   4.628  10.842  1.00  0.00     0.178 HD
ATOM     31  H31 UNL     1       2.661   4.056  12.063  1.00  0.00     0.178 HD
ATOM     32  H2  UNL     1       0.461   3.079  12.502  1.00  0.00     0.207 HD
ENDBRANCH  26  28
ENDBRANCH   2  26
TORSDOF 11
ENDMDL
MODEL 2
REMARK VINA RESULT: -6.501261039      1.463      3.045
REMARK  11 active torsions:
REMARK  status: ('A' for Active; 'I' for Inactive)
REMARK    1  A    between atoms: C2_2  and  C3_3 
REMARK    2  A    between atoms: C3_3  and  C4_4 
REMARK    3  A    between atoms: C4_4  and  C5_5 
REMARK    4  A    between atoms: C6_6  and  N1_7 
REMARK    5  A    between atoms: N1_7  and  N2_9 
REMARK    6  A    between atoms: N5_17  and  C8_18 
REMARK    7  A    between atoms: C8_18  and  C9_19 
REMARK    8  A    between atoms: C10_21  and  O2_22 
REMARK    9  A    between atoms: C11_24  and  O3_25 
REMARK   10  A    between atoms: C12_27  and  O4_28 
REMARK   11  A    between atoms: C13_30  and  O5_31 
ROOT
HETATM    1  C5  UNL     1      -2.438   3.161  11.712  1.00  0.00     0.058 A 
HETATM    2  C6  UNL     1      -1.350   2.474  11.221  1.00  0.00     0.090 A 
HETATM    3  C7  UNL     1      -1.668   1.139  11.346  1.00  0.00     0.140 A 
HETATM    4  N4  UNL     1      -2.908   1.048  11.895  1.00  0.00    -0.307 N 
ATOM      5  H4  UNL     1      -3.401   0.181  12.103  1.00  0.00     0.186 HD
HETATM    6  N5  UNL     1      -3.377   2.287  12.118  1.00  0.00    -0.292 N 
ENDROOT
BRANCH   6   7
HETATM    7  C8  UNL     1      -4.662   2.591  12.691  1.00  0.00     0.183 C 
BRANCH   7   8
HETATM    8  C9  UNL     1      -4.866   1.979  14.044  1.00  0.00     0.175 C 
HETATM    9  O1  UNL     1      -3.781   1.230  14.481  1.00  0.00    -0.349 OA
HETATM   10  C10 UNL     1      -4.256   0.374  15.477  1.00  0.00     0.288 C 
HETATM   11  C11 UNL     1      -5.405   0.912  16.251  1.00  0.00     0.204 C 
HETATM   12  C12 UNL     1      -5.489   2.395  16.347  1.00  0.00     0.183 C 
HETATM   13  C13 UNL     1      -5.036   3.094  15.067  1.00  0.00     0.180 C 
BRANCH  10  14
HETATM   14  O2  UNL     1      -4.614  -0.818  14.804  1.00  0.00    -0.369 OA
ATOM     15  H2  UNL     1      -3.920  -0.968  14.173  1.00  0.00     0.212 HD
ENDBRANCH  10  14
BRANCH  11  16
HETATM   16  O3  UNL     1      -5.303   0.411  17.569  1.00  0.00    -0.388 OA
ATOM     17  H3  UNL     1      -6.168   0.453  17.959  1.00  0.00     0.210 HD
ENDBRANCH  11  16
BRANCH  12  18
HETATM   18  O4  UNL     1      -6.847   2.758  16.502  1.00  0.00    -0.390 OA
ATOM     19  H4  UNL     1      -6.996   3.571  16.034  1.00  0.00     0.210 HD
ENDBRANCH  12  18
BRANCH  13  20
HETATM   20  O5  UNL     1      -3.740   3.592  15.315  1.00  0.00    -0.390 OA
ATOM     21  H5  UNL     1      -3.857   4.488  15.609  1.00  0.00     0.210 HD
ENDBRANCH  13  20
ENDBRANCH   7   8
ENDBRANCH   6   7
BRANCH   1  22
HETATM   22  C4  UNL     1      -2.563   4.616  11.784  1.00  0.00     0.061 C 
BRANCH  22  23
HETATM   23  C3  UNL     1      -1.904   5.190  13.039  1.00  0.00     0.006 C 
BRANCH  23  24
HETATM   24  C2  UNL     1      -2.755   6.396  13.434  1.00  0.00    -0.004 C 
HETATM   25  C1  UNL     1      -2.048   7.270  14.442  1.00  0.00     0.005 C 
ENDBRANCH  23  24
ENDBRANCH  22  23
ENDBRANCH   1  22
BRANCH   2  26
HETATM   26  N1  UNL     1      -0.171   3.074  10.703  1.00  0.00    -0.284 N 
ATOM     27  H1  UNL     1      -0.070   3.217   9.698  1.00  0.00     0.188 HD
BRANCH  26  28
HETATM   28  N2  UNL     1       0.745   3.429  11.477  1.00  0.00    -0.249 N 
HETATM   29  N3  UNL     1       1.694   4.163  11.802  1.00  0.00    -0.331 N 
ATOM     30  H32 UNL     1       1.729   4.806  11.011  1.00  0.00     0.178 HD
ATOM     31  H31 UNL     1       2.441   4.452  12.433  1.00  0.00     0.178 HD
ATOM     32  H2  UNL     1       0.677   2.766  12.250  1.00  0.00     0.207 HD
ENDBRANCH  26  28
ENDBRANCH   2  26
TORSDOF 11
ENDMDL
MODEL 3
REMARK VINA RESULT: -6.477748836      1.251      2.312
REMARK  11 active torsions:
REMARK  status: ('A' for Active; 'I' for Inactive)
REMARK    1  A    between atoms: C2_2  and  C3_3 
REMARK    2  A    between atoms: C3_3  and  C4_4 
REMARK    3  A    between atoms: C4_4  and  C5_5 
REMARK    4  A    between atoms: C6_6  and  N1_7 
REMARK    5  A    between atoms: N1_7  and  N2_9 
REMARK    6  A    between atoms: N5_17  and  C8_18 
REMARK    7  A    between atoms: C8_18  and  C9_19 
REMARK    8  A    between atoms: C10_21  and  O2_22 
REMARK    9  A    between atoms: C11_24  and  O3_25 
REMARK   10  A    between atoms: C12_27  and  O4_28 
REMARK   11  A    between atoms: C13_30  and  O5_31 
ROOT
HETATM    1  C5  UNL     1      -1.714   3.263  11.632  1.00  0.00     0.058 A 
HETATM    2  C6  UNL     1      -0.583   3.987  11.939  1.00  0.00     0.090 A 
HETATM    3  C7  UNL     1      -0.959   4.854  12.941  1.00  0.00     0.140 A 
HETATM    4  N4  UNL     1      -2.273   4.643  13.213  1.00  0.00    -0.307 N 
ATOM      5  H4  UNL     1      -2.821   5.143  13.913  1.00  0.00     0.186 HD
HETATM    6  N5  UNL     1      -2.734   3.669  12.411  1.00  0.00    -0.292 N 
ENDROOT
BRANCH   6   7
HETATM    7  C8  UNL     1      -4.084   3.171  12.410  1.00  0.00     0.183 C 
BRANCH   7   8
HETATM    8  C9  UNL     1      -4.577   2.798  13.776  1.00  0.00     0.175 C 
HETATM    9  O1  UNL     1      -5.963   2.761  13.871  1.00  0.00    -0.349 OA
HETATM   10  C10 UNL     1      -6.278   2.868  15.228  1.00  0.00     0.288 C 
HETATM   11  C11 UNL     1      -5.252   2.298  16.141  1.00  0.00     0.204 C 
HETATM   12  C12 UNL     1      -4.424   1.194  15.583  1.00  0.00     0.183 C 
HETATM   13  C13 UNL     1      -4.104   1.389  14.103  1.00  0.00     0.180 C 
BRANCH  10  14
HETATM   14  O2  UNL     1      -6.450   4.252  15.463  1.00  0.00    -0.369 OA
ATOM     15  H2  UNL     1      -5.902   4.686  14.820  1.00  0.00     0.212 HD
ENDBRANCH  10  14
BRANCH  11  16
HETATM   16  O3  UNL     1      -5.927   1.785  17.273  1.00  0.00    -0.388 OA
ATOM     17  H3  UNL     1      -5.837   0.840  17.256  1.00  0.00     0.210 HD
ENDBRANCH  11  16
BRANCH  12  18
HETATM   18  O4  UNL     1      -3.168   1.204  16.234  1.00  0.00    -0.390 OA
ATOM     19  H4  UNL     1      -2.681   1.963  15.936  1.00  0.00     0.210 HD
ENDBRANCH  12  18
BRANCH  13  20
HETATM   20  O5  UNL     1      -4.954   0.520  13.387  1.00  0.00    -0.390 OA
ATOM     21  H5  UNL     1      -4.653  -0.359  13.584  1.00  0.00     0.210 HD
ENDBRANCH  13  20
ENDBRANCH   7   8
ENDBRANCH   6   7
BRANCH   1  22
HETATM   22  C4  UNL     1      -1.803   2.212  10.618  1.00  0.00     0.061 C 
BRANCH  22  23
HETATM   23  C3  UNL     1      -1.747   0.813  11.231  1.00  0.00     0.006 C 
BRANCH  23  24
HETATM   24  C2  UNL     1      -2.940   0.061  10.645  1.00  0.00    -0.004 C 
HETATM   25  C1  UNL     1      -3.049  -1.337  11.207  1.00  0.00     0.005 C 
ENDBRANCH  23  24
ENDBRANCH  22  23
ENDBRANCH   1  22
BRANCH   2  26
HETATM   26  N1  UNL     1       0.684   3.825  11.315  1.00  0.00    -0.284 N 
ATOM     27  H1  UNL     1       0.776   3.220  10.499  1.00  0.00     0.188 HD
BRANCH  26  28
HETATM   28  N2  UNL     1       1.685   4.422  11.765  1.00  0.00    -0.249 N 
HETATM   29  N3  UNL     1       2.872   4.465  12.133  1.00  0.00    -0.331 N 
ATOM     30  H32 UNL     1       3.163   3.499  11.984  1.00  0.00     0.178 HD
ATOM     31  H31 UNL     1       3.689   4.952  12.500  1.00  0.00     0.178 HD
ATOM     32  H2  UNL     1       1.356   5.378  11.900  1.00  0.00     0.207 HD
ENDBRANCH  26  28
ENDBRANCH   2  26
TORSDOF 11
ENDMDL
MODEL 4
REMARK VINA RESULT: -6.416554767      1.643      2.681
REMARK  11 active torsions:
REMARK  status: ('A' for Active; 'I' for Inactive)
REMARK    1  A    between atoms: C2_2  and  C3_3 
REMARK    2  A    between atoms: C3_3  and  C4_4 
REMARK    3  A    between atoms: C4_4  and  C5_5 
REMARK    4  A    between atoms: C6_6  and  N1_7 
REMARK    5  A    between atoms: N1_7  and  N2_9 
REMARK    6  A    between atoms: N5_17  and  C8_18 
REMARK    7  A    between atoms: C8_18  and  C9_19 
REMARK    8  A    between atoms: C10_21  and  O2_22 
REMARK    9  A    between atoms: C11_24  and  O3_25 
REMARK   10  A    between atoms: C12_27  and  O4_28 
REMARK   11  A    between atoms: C13_30  and  O5_31 
ROOT
HETATM    1  C5  UNL     1      -2.536   3.000  11.634  1.00  0.00     0.058 A 
HETATM    2  C6  UNL     1      -1.391   2.368  11.201  1.00  0.00     0.090 A 
HETATM    3  C7  UNL     1      -1.643   1.019  11.326  1.00  0.00     0.140 A 
HETATM    4  N4  UNL     1      -2.900   0.867  11.818  1.00  0.00    -0.307 N 
ATOM      5  H4  UNL     1      -3.356  -0.024  12.012  1.00  0.00     0.186 HD
HETATM    6  N5  UNL     1      -3.444   2.080  12.006  1.00  0.00    -0.292 N 
ENDROOT
BRANCH   6   7
HETATM    7  C8  UNL     1      -4.769   2.320  12.516  1.00  0.00     0.183 C 
BRANCH   7   8
HETATM    8  C9  UNL     1      -4.936   1.907  13.947  1.00  0.00     0.175 C 
HETATM    9  O1  UNL     1      -3.834   1.233  14.460  1.00  0.00    -0.349 OA
HETATM   10  C10 UNL     1      -4.278   0.525  15.579  1.00  0.00     0.288 C 
HETATM   11  C11 UNL     1      -5.414   1.162  16.295  1.00  0.00     0.204 C 
HETATM   12  C12 UNL     1      -5.508   2.644  16.182  1.00  0.00     0.183 C 
HETATM   13  C13 UNL     1      -5.092   3.155  14.805  1.00  0.00     0.180 C 
BRANCH  10  14
HETATM   14  O2  UNL     1      -4.641  -0.753  15.092  1.00  0.00    -0.369 OA
ATOM     15  H2  UNL     1      -4.424  -1.358  15.791  1.00  0.00     0.212 HD
ENDBRANCH  10  14
BRANCH  11  16
HETATM   16  O3  UNL     1      -5.277   0.856  17.669  1.00  0.00    -0.388 OA
ATOM     17  H3  UNL     1      -4.362   0.969  17.898  1.00  0.00     0.210 HD
ENDBRANCH  11  16
BRANCH  12  18
HETATM   18  O4  UNL     1      -6.866   3.017  16.316  1.00  0.00    -0.390 OA
ATOM     19  H4  UNL     1      -6.912   3.964  16.381  1.00  0.00     0.210 HD
ENDBRANCH  12  18
BRANCH  13  20
HETATM   20  O5  UNL     1      -3.794   3.690  14.947  1.00  0.00    -0.390 OA
ATOM     21  H5  UNL     1      -3.235   2.958  15.178  1.00  0.00     0.210 HD
ENDBRANCH  13  20
ENDBRANCH   7   8
ENDBRANCH   6   7
BRANCH   1  22
HETATM   22  C4  UNL     1      -2.740   4.447  11.685  1.00  0.00     0.061 C 
BRANCH  22  23
HETATM   23  C3  UNL     1      -3.343   4.991  10.390  1.00  0.00     0.006 C 
BRANCH  23  24
HETATM   24  C2  UNL     1      -4.635   5.694  10.802  1.00  0.00    -0.004 C 
HETATM   25  C1  UNL     1      -4.608   6.101  12.257  1.00  0.00     0.005 C 
ENDBRANCH  23  24
ENDBRANCH  22  23
ENDBRANCH   1  22
BRANCH   2  26
HETATM   26  N1  UNL     1      -0.222   3.027  10.732  1.00  0.00    -0.284 N 
ATOM     27  H1  UNL     1      -0.074   3.150   9.731  1.00  0.00     0.188 HD
BRANCH  26  28
HETATM   28  N2  UNL     1       0.625   3.456  11.545  1.00  0.00    -0.249 N 
HETATM   29  N3  UNL     1       1.612   4.149  11.849  1.00  0.00    -0.331 N 
ATOM     30  H32 UNL     1       1.830   4.590  10.955  1.00  0.00     0.178 HD
ATOM     31  H31 UNL     1       2.303   4.499  12.511  1.00  0.00     0.178 HD
ATOM     32  H2  UNL     1       0.375   2.995  12.420  1.00  0.00     0.207 HD
ENDBRANCH  26  28
ENDBRANCH   2  26
TORSDOF 11
ENDMDL
MODEL 5
REMARK VINA RESULT: -6.364716155      4.114      6.654
REMARK  11 active torsions:
REMARK  status: ('A' for Active; 'I' for Inactive)
REMARK    1  A    between atoms: C2_2  and  C3_3 
REMARK    2  A    between atoms: C3_3  and  C4_4 
REMARK    3  A    between atoms: C4_4  and  C5_5 
REMARK    4  A    between atoms: C6_6  and  N1_7 
REMARK    5  A    between atoms: N1_7  and  N2_9 
REMARK    6  A    between atoms: N5_17  and  C8_18 
REMARK    7  A    between atoms: C8_18  and  C9_19 
REMARK    8  A    between atoms: C10_21  and  O2_22 
REMARK    9  A    between atoms: C11_24  and  O3_25 
REMARK   10  A    between atoms: C12_27  and  O4_28 
REMARK   11  A    between atoms: C13_30  and  O5_31 
ROOT
HETATM    1  C5  UNL     1      -4.375   1.758  14.007  1.00  0.00     0.058 A 
HETATM    2  C6  UNL     1      -4.317   0.451  14.440  1.00  0.00     0.090 A 
HETATM    3  C7  UNL     1      -4.344  -0.318  13.298  1.00  0.00     0.140 A 
HETATM    4  N4  UNL     1      -4.416   0.515  12.227  1.00  0.00    -0.307 N 
ATOM      5  H4  UNL     1      -4.449   0.223  11.250  1.00  0.00     0.186 HD
HETATM    6  N5  UNL     1      -4.435   1.785  12.664  1.00  0.00    -0.292 N 
ENDROOT
BRANCH   6   7
HETATM    7  C8  UNL     1      -4.505   2.947  11.817  1.00  0.00     0.183 C 
BRANCH   7   8
HETATM    8  C9  UNL     1      -3.195   3.291  11.174  1.00  0.00     0.175 C 
HETATM    9  O1  UNL     1      -2.678   2.266  10.391  1.00  0.00    -0.349 OA
HETATM   10  C10 UNL     1      -1.312   2.517  10.248  1.00  0.00     0.288 C 
HETATM   11  C11 UNL     1      -0.947   3.958  10.280  1.00  0.00     0.204 C 
HETATM   12  C12 UNL     1      -1.999   4.907   9.825  1.00  0.00     0.183 C 
HETATM   13  C13 UNL     1      -3.404   4.466  10.230  1.00  0.00     0.180 C 
BRANCH  10  14
HETATM   14  O2  UNL     1      -0.690   1.815  11.307  1.00  0.00    -0.369 OA
ATOM     15  H2  UNL     1       0.072   2.333  11.539  1.00  0.00     0.212 HD
ENDBRANCH  10  14
BRANCH  11  16
HETATM   16  O3  UNL     1       0.171   4.133   9.432  1.00  0.00    -0.388 OA
ATOM     17  H3  UNL     1       0.170   5.037   9.140  1.00  0.00     0.210 HD
ENDBRANCH  11  16
BRANCH  12  18
HETATM   18  O4  UNL     1      -1.800   6.144  10.481  1.00  0.00    -0.390 OA
ATOM     19  H4  UNL     1      -2.157   6.835   9.935  1.00  0.00     0.210 HD
ENDBRANCH  12  18
BRANCH  13  20
HETATM   20  O5  UNL     1      -4.009   3.930   9.074  1.00  0.00    -0.390 OA
ATOM     21  H5  UNL     1      -4.945   3.942   9.242  1.00  0.00     0.210 HD
ENDBRANCH  13  20
ENDBRANCH   7   8
ENDBRANCH   6   7
BRANCH   1  22
HETATM   22  C4  UNL     1      -4.373   2.940  14.869  1.00  0.00     0.061 C 
BRANCH  22  23
HETATM   23  C3  UNL     1      -5.787   3.410  15.207  1.00  0.00     0.006 C 
BRANCH  23  24
HETATM   24  C2  UNL     1      -5.797   4.912  14.926  1.00  0.00    -0.004 C 
HETATM   25  C1  UNL     1      -4.412   5.431  14.620  1.00  0.00     0.005 C 
ENDBRANCH  23  24
ENDBRANCH  22  23
ENDBRANCH   1  22
BRANCH   2  26
HETATM   26  N1  UNL     1      -4.245   0.044  15.800  1.00  0.00    -0.284 N 
ATOM     27  H1  UNL     1      -3.347  -0.217  16.206  1.00  0.00     0.188 HD
BRANCH  26  28
HETATM   28  N2  UNL     1      -5.280   0.006  16.499  1.00  0.00    -0.249 N 
HETATM   29  N3  UNL     1      -5.874  -0.030  17.591  1.00  0.00    -0.331 N 
ATOM     30  H32 UNL     1      -5.092  -0.024  18.245  1.00  0.00     0.178 HD
ATOM     31  H31 UNL     1      -6.718  -0.061  18.162  1.00  0.00     0.178 HD
ATOM     32  H2  UNL     1      -6.035   0.001  15.813  1.00  0.00     0.207 HD
ENDBRANCH  26  28
ENDBRANCH   2  26
TORSDOF 11
ENDMDL
