MODEL 1
REMARK VINA RESULT: -6.393903371      0.000      0.000
REMARK  11 active torsions:
REMARK  status: ('A' for Active; 'I' for Inactive)
REMARK    1  A    between atoms: C2_2  and  C3_3 
REMARK    2  A    between atoms: C3_3  and  C4_4 
REMARK    3  A    between atoms: C5_6  and  C6_7 
REMARK    4  A    between atoms: C6_7  and  O2_12 
REMARK    5  A    between atoms: N1_8  and  O1_10 
REMARK    6  A    between atoms: O2_12  and  C7_13 
REMARK    7  A    between atoms: C7_13  and  O3_14 
REMARK    8  A    between atoms: C11_19  and  C12_20 
REMARK    9  A    between atoms: C12_20  and  O5_21 
REMARK   10  A    between atoms: C13_23  and  O6_24 
REMARK   11  A    between atoms: C14_26  and  O7_27 
ROOT
HETATM    1  C7  UNL     1      -4.065   2.581  12.894  1.00  0.00     0.206 C 
HETATM    2  C9  UNL     1      -3.595   1.273  13.498  1.00  0.00     0.150 C 
HETATM    3  C10 UNL     1      -4.373   0.845  14.680  1.00  0.00     0.141 C 
HETATM    4  O4  UNL     1      -4.842  -0.267  14.700  1.00  0.00    -0.297 OA
HETATM    5  C11 UNL     1      -4.543   1.809  15.797  1.00  0.00     0.110 C 
HETATM    6  C13 UNL     1      -5.112   3.075  15.116  1.00  0.00     0.165 C 
HETATM    7  C14 UNL     1      -4.128   3.536  14.098  1.00  0.00     0.211 C 
ENDROOT
BRANCH   1   8
HETATM    8  O2  UNL     1      -3.042   3.017  12.054  1.00  0.00    -0.293 OA
BRANCH   8   9
HETATM    9  C6  UNL     1      -2.982   4.317  11.492  1.00  0.00     0.166 C 
HETATM   10  N1  UNL     1      -3.920   4.809  10.899  1.00  0.00    -0.247 N 
ATOM     11  H1  UNL     1      -3.578   5.729  10.621  1.00  0.00     0.196 HD
BRANCH   9  12
HETATM   12  C5  UNL     1      -1.715   5.051  11.665  1.00  0.00     0.077 C 
HETATM   13  C4  UNL     1      -1.555   6.123  12.375  1.00  0.00     0.016 C 
HETATM   14 CL1  UNL     1       0.126   6.832  12.406  1.00  0.00    -0.089 Cl
BRANCH  13  15
HETATM   15  C3  UNL     1      -2.504   6.897  13.173  1.00  0.00     0.051 C 
BRANCH  15  16
HETATM   16  C2  UNL     1      -2.196   6.950  14.652  1.00  0.00     0.001 C 
HETATM   17  C1  UNL     1      -1.750   8.298  15.138  1.00  0.00     0.005 C 
ENDBRANCH  15  16
ENDBRANCH  13  15
ENDBRANCH   9  12
BRANCH  10  18
HETATM   18  O1  UNL     1      -5.119   4.778  10.437  1.00  0.00    -0.288 OA
ATOM     19  H1  UNL     1      -5.846   4.339  10.011  1.00  0.00     0.244 HD
ENDBRANCH  10  18
ENDBRANCH   8   9
ENDBRANCH   1   8
BRANCH   1  20
HETATM   20  O3  UNL     1      -5.305   2.554  12.328  1.00  0.00    -0.357 OA
HETATM   21  C8  UNL     1      -5.402   1.578  11.364  1.00  0.00     0.205 C 
ENDBRANCH   1  20
BRANCH   7  22
HETATM   22  O7  UNL     1      -2.851   3.369  14.708  1.00  0.00    -0.387 OA
ATOM     23  H7  UNL     1      -2.360   4.117  14.387  1.00  0.00     0.210 HD
ENDBRANCH   7  22
BRANCH   6  24
HETATM   24  O6  UNL     1      -6.342   2.677  14.650  1.00  0.00    -0.392 OA
ATOM     25  H6  UNL     1      -6.640   2.049  15.297  1.00  0.00     0.210 HD
ENDBRANCH   6  24
BRANCH   5  26
HETATM   26  C12 UNL     1      -5.647   1.329  16.716  1.00  0.00     0.179 C 
BRANCH  26  27
HETATM   27  O5  UNL     1      -5.181   0.284  17.510  1.00  0.00    -0.400 OA
ATOM     28  H5  UNL     1      -5.209   0.537  18.425  1.00  0.00     0.209 HD
ENDBRANCH  26  27
ENDBRANCH   5  26
TORSDOF 11
ENDMDL
MODEL 2
REMARK VINA RESULT: -6.297720222      2.203      2.633
REMARK  11 active torsions:
REMARK  status: ('A' for Active; 'I' for Inactive)
REMARK    1  A    between atoms: C2_2  and  C3_3 
REMARK    2  A    between atoms: C3_3  and  C4_4 
REMARK    3  A    between atoms: C5_6  and  C6_7 
REMARK    4  A    between atoms: C6_7  and  O2_12 
REMARK    5  A    between atoms: N1_8  and  O1_10 
REMARK    6  A    between atoms: O2_12  and  C7_13 
REMARK    7  A    between atoms: C7_13  and  O3_14 
REMARK    8  A    between atoms: C11_19  and  C12_20 
REMARK    9  A    between atoms: C12_20  and  O5_21 
REMARK   10  A    between atoms: C13_23  and  O6_24 
REMARK   11  A    between atoms: C14_26  and  O7_27 
ROOT
HETATM    1  C7  UNL     1      -4.024   2.480  13.035  1.00  0.00     0.206 C 
HETATM    2  C9  UNL     1      -3.646   1.146  13.646  1.00  0.00     0.150 C 
HETATM    3  C10 UNL     1      -4.467   0.769  14.816  1.00  0.00     0.141 C 
HETATM    4  O4  UNL     1      -5.005  -0.311  14.829  1.00  0.00    -0.297 OA
HETATM    5  C11 UNL     1      -4.593   1.743  15.930  1.00  0.00     0.110 C 
HETATM    6  C13 UNL     1      -5.071   3.041  15.240  1.00  0.00     0.165 C 
HETATM    7  C14 UNL     1      -4.045   3.439  14.237  1.00  0.00     0.211 C 
ENDROOT
BRANCH   1   8
HETATM    8  O2  UNL     1      -2.963   2.851  12.210  1.00  0.00    -0.293 OA
BRANCH   8   9
HETATM    9  C6  UNL     1      -2.658   4.192  11.869  1.00  0.00     0.166 C 
HETATM   10  N1  UNL     1      -1.882   4.863  12.519  1.00  0.00    -0.247 N 
ATOM     11  H1  UNL     1      -1.872   5.761  12.035  1.00  0.00     0.196 HD
BRANCH   9  12
HETATM   12  C5  UNL     1      -3.335   4.740  10.680  1.00  0.00     0.077 C 
HETATM   13  C4  UNL     1      -4.317   5.584  10.693  1.00  0.00     0.016 C 
HETATM   14 CL1  UNL     1      -4.974   6.090   9.067  1.00  0.00    -0.089 Cl
BRANCH  13  15
HETATM   15  C3  UNL     1      -5.024   6.218  11.804  1.00  0.00     0.051 C 
BRANCH  15  16
HETATM   16  C2  UNL     1      -5.749   7.497  11.449  1.00  0.00     0.001 C 
HETATM   17  C1  UNL     1      -7.219   7.472  11.745  1.00  0.00     0.005 C 
ENDBRANCH  15  16
ENDBRANCH  13  15
ENDBRANCH   9  12
BRANCH  10  18
HETATM   18  O1  UNL     1      -1.065   5.034  13.496  1.00  0.00    -0.288 OA
ATOM     19  H1  UNL     1      -0.868   5.240  14.402  1.00  0.00     0.244 HD
ENDBRANCH  10  18
ENDBRANCH   8   9
ENDBRANCH   1   8
BRANCH   1  20
HETATM   20  O3  UNL     1      -5.254   2.531  12.450  1.00  0.00    -0.357 OA
HETATM   21  C8  UNL     1      -5.328   1.707  11.351  1.00  0.00     0.205 C 
ENDBRANCH   1  20
BRANCH   7  22
HETATM   22  O7  UNL     1      -2.790   3.192  14.867  1.00  0.00    -0.387 OA
ATOM     23  H7  UNL     1      -2.794   2.251  14.990  1.00  0.00     0.210 HD
ENDBRANCH   7  22
BRANCH   6  24
HETATM   24  O6  UNL     1      -6.316   2.721  14.756  1.00  0.00    -0.392 OA
ATOM     25  H6  UNL     1      -6.614   3.522  14.341  1.00  0.00     0.210 HD
ENDBRANCH   6  24
BRANCH   5  26
HETATM   26  C12 UNL     1      -5.739   1.334  16.833  1.00  0.00     0.179 C 
BRANCH  26  27
HETATM   27  O5  UNL     1      -5.345   0.274  17.645  1.00  0.00    -0.400 OA
ATOM     28  H5  UNL     1      -4.399   0.192  17.632  1.00  0.00     0.209 HD
ENDBRANCH  26  27
ENDBRANCH   5  26
TORSDOF 11
ENDMDL
MODEL 3
REMARK VINA RESULT: -6.272987341      1.789      3.356
REMARK  11 active torsions:
REMARK  status: ('A' for Active; 'I' for Inactive)
REMARK    1  A    between atoms: C2_2  and  C3_3 
REMARK    2  A    between atoms: C3_3  and  C4_4 
REMARK    3  A    between atoms: C5_6  and  C6_7 
REMARK    4  A    between atoms: C6_7  and  O2_12 
REMARK    5  A    between atoms: N1_8  and  O1_10 
REMARK    6  A    between atoms: O2_12  and  C7_13 
REMARK    7  A    between atoms: C7_13  and  O3_14 
REMARK    8  A    between atoms: C11_19  and  C12_20 
REMARK    9  A    between atoms: C12_20  and  O5_21 
REMARK   10  A    between atoms: C13_23  and  O6_24 
REMARK   11  A    between atoms: C14_26  and  O7_27 
ROOT
HETATM    1  C7  UNL     1      -4.716   3.526  13.777  1.00  0.00     0.206 C 
HETATM    2  C9  UNL     1      -6.049   3.453  14.494  1.00  0.00     0.150 C 
HETATM    3  C10 UNL     1      -6.031   2.611  15.708  1.00  0.00     0.141 C 
HETATM    4  O4  UNL     1      -6.432   3.074  16.747  1.00  0.00    -0.297 OA
HETATM    5  C11 UNL     1      -5.516   1.222  15.594  1.00  0.00     0.110 C 
HETATM    6  C13 UNL     1      -4.123   1.391  14.946  1.00  0.00     0.165 C 
HETATM    7  C14 UNL     1      -4.303   2.053  13.624  1.00  0.00     0.211 C 
ENDROOT
BRANCH   1   8
HETATM    8  O2  UNL     1      -4.980   4.031  12.505  1.00  0.00    -0.293 OA
BRANCH   8   9
HETATM    9  C6  UNL     1      -4.144   3.816  11.380  1.00  0.00     0.166 C 
HETATM   10  N1  UNL     1      -4.315   2.889  10.615  1.00  0.00    -0.247 N 
ATOM     11  H1  UNL     1      -3.572   3.001   9.926  1.00  0.00     0.196 HD
BRANCH   9  12
HETATM   12  C5  UNL     1      -3.046   4.780  11.182  1.00  0.00     0.077 C 
HETATM   13  C4  UNL     1      -1.797   4.564  11.448  1.00  0.00     0.016 C 
HETATM   14 CL1  UNL     1      -0.647   5.941  11.113  1.00  0.00    -0.089 Cl
BRANCH  13  15
HETATM   15  C3  UNL     1      -1.119   3.389  11.993  1.00  0.00     0.051 C 
BRANCH  15  16
HETATM   16  C2  UNL     1      -0.709   2.358  10.965  1.00  0.00     0.001 C 
HETATM   17  C1  UNL     1      -1.429   1.048  11.089  1.00  0.00     0.005 C 
ENDBRANCH  15  16
ENDBRANCH  13  15
ENDBRANCH   9  12
BRANCH  10  18
HETATM   18  O1  UNL     1      -4.944   1.840  10.220  1.00  0.00    -0.288 OA
ATOM     19  H1  UNL     1      -5.109   1.142   9.597  1.00  0.00     0.244 HD
ENDBRANCH  10  18
ENDBRANCH   8   9
ENDBRANCH   1   8
BRANCH   1  20
HETATM   20  O3  UNL     1      -3.719   4.162  14.455  1.00  0.00    -0.357 OA
HETATM   21  C8  UNL     1      -4.011   5.491  14.658  1.00  0.00     0.205 C 
ENDBRANCH   1  20
BRANCH   7  22
HETATM   22  O7  UNL     1      -5.464   1.450  13.058  1.00  0.00    -0.387 OA
ATOM     23  H7  UNL     1      -6.125   2.126  13.154  1.00  0.00     0.210 HD
ENDBRANCH   7  22
BRANCH   6  24
HETATM   24  O6  UNL     1      -3.400   2.083  15.888  1.00  0.00    -0.392 OA
ATOM     25  H6  UNL     1      -2.661   2.429  15.402  1.00  0.00     0.210 HD
ENDBRANCH   6  24
BRANCH   5  26
HETATM   26  C12 UNL     1      -5.240   0.669  16.977  1.00  0.00     0.179 C 
BRANCH  26  27
HETATM   27  O5  UNL     1      -5.918  -0.535  17.149  1.00  0.00    -0.400 OA
ATOM     28  H5  UNL     1      -6.620  -0.603  16.514  1.00  0.00     0.209 HD
ENDBRANCH  26  27
ENDBRANCH   5  26
TORSDOF 11
ENDMDL
MODEL 4
REMARK VINA RESULT: -6.229911417      2.196      3.470
REMARK  11 active torsions:
REMARK  status: ('A' for Active; 'I' for Inactive)
REMARK    1  A    between atoms: C2_2  and  C3_3 
REMARK    2  A    between atoms: C3_3  and  C4_4 
REMARK    3  A    between atoms: C5_6  and  C6_7 
REMARK    4  A    between atoms: C6_7  and  O2_12 
REMARK    5  A    between atoms: N1_8  and  O1_10 
REMARK    6  A    between atoms: O2_12  and  C7_13 
REMARK    7  A    between atoms: C7_13  and  O3_14 
REMARK    8  A    between atoms: C11_19  and  C12_20 
REMARK    9  A    between atoms: C12_20  and  O5_21 
REMARK   10  A    between atoms: C13_23  and  O6_24 
REMARK   11  A    between atoms: C14_26  and  O7_27 
ROOT
HETATM    1  C7  UNL     1      -3.837   3.668  12.249  1.00  0.00     0.206 C 
HETATM    2  C9  UNL     1      -2.624   2.869  11.818  1.00  0.00     0.150 C 
HETATM    3  C10 UNL     1      -2.951   1.555  11.224  1.00  0.00     0.141 C 
HETATM    4  O4  UNL     1      -2.496   1.272  10.144  1.00  0.00    -0.297 OA
HETATM    5  C11 UNL     1      -3.833   0.637  11.991  1.00  0.00     0.110 C 
HETATM    6  C13 UNL     1      -5.080   1.493  12.309  1.00  0.00     0.165 C 
HETATM    7  C14 UNL     1      -4.643   2.674  13.104  1.00  0.00     0.211 C 
ENDROOT
BRANCH   1   8
HETATM    8  O2  UNL     1      -3.367   4.674  13.092  1.00  0.00    -0.293 OA
BRANCH   8   9
HETATM    9  C6  UNL     1      -2.007   4.827  13.457  1.00  0.00     0.166 C 
HETATM   10  N1  UNL     1      -1.526   4.253  14.414  1.00  0.00    -0.247 N 
ATOM     11  H1  UNL     1      -0.552   4.558  14.416  1.00  0.00     0.196 HD
BRANCH   9  12
HETATM   12  C5  UNL     1      -1.195   5.723  12.614  1.00  0.00     0.077 C 
HETATM   13  C4  UNL     1      -1.227   7.018  12.642  1.00  0.00     0.016 C 
HETATM   14 CL1  UNL     1      -0.119   7.882  11.478  1.00  0.00    -0.089 Cl
BRANCH  13  15
HETATM   15  C3  UNL     1      -2.017   7.942  13.453  1.00  0.00     0.051 C 
BRANCH  15  16
HETATM   16  C2  UNL     1      -1.601   8.030  14.904  1.00  0.00     0.001 C 
HETATM   17  C1  UNL     1      -0.873   9.293  15.259  1.00  0.00     0.005 C 
ENDBRANCH  15  16
ENDBRANCH  13  15
ENDBRANCH   9  12
BRANCH  10  18
HETATM   18  O1  UNL     1      -1.601   3.463  15.425  1.00  0.00    -0.288 OA
ATOM     19  H1  UNL     1      -1.730   2.608  15.817  1.00  0.00     0.244 HD
ENDBRANCH  10  18
ENDBRANCH   8   9
ENDBRANCH   1   8
BRANCH   1  20
HETATM   20  O3  UNL     1      -4.650   4.093  11.241  1.00  0.00    -0.357 OA
HETATM   21  C8  UNL     1      -3.990   4.937  10.379  1.00  0.00     0.205 C 
ENDBRANCH   1  20
BRANCH   7  22
HETATM   22  O7  UNL     1      -3.670   2.172  14.016  1.00  0.00    -0.387 OA
ATOM     23  H7  UNL     1      -3.285   2.963  14.376  1.00  0.00     0.210 HD
ENDBRANCH   7  22
BRANCH   6  24
HETATM   24  O6  UNL     1      -5.630   1.749  11.075  1.00  0.00    -0.392 OA
ATOM     25  H6  UNL     1      -4.899   2.070  10.560  1.00  0.00     0.210 HD
ENDBRANCH   6  24
BRANCH   5  26
HETATM   26  C12 UNL     1      -4.334  -0.463  11.078  1.00  0.00     0.179 C 
BRANCH  26  27
HETATM   27  O5  UNL     1      -3.350  -1.436  10.926  1.00  0.00    -0.400 OA
ATOM     28  H5  UNL     1      -3.060  -1.737  11.779  1.00  0.00     0.209 HD
ENDBRANCH  26  27
ENDBRANCH   5  26
TORSDOF 11
ENDMDL
MODEL 5
REMARK VINA RESULT: -6.196556136      3.200      4.462
REMARK  11 active torsions:
REMARK  status: ('A' for Active; 'I' for Inactive)
REMARK    1  A    between atoms: C2_2  and  C3_3 
REMARK    2  A    between atoms: C3_3  and  C4_4 
REMARK    3  A    between atoms: C5_6  and  C6_7 
REMARK    4  A    between atoms: C6_7  and  O2_12 
REMARK    5  A    between atoms: N1_8  and  O1_10 
REMARK    6  A    between atoms: O2_12  and  C7_13 
REMARK    7  A    between atoms: C7_13  and  O3_14 
REMARK    8  A    between atoms: C11_19  and  C12_20 
REMARK    9  A    between atoms: C12_20  and  O5_21 
REMARK   10  A    between atoms: C13_23  and  O6_24 
REMARK   11  A    between atoms: C14_26  and  O7_27 
ROOT
HETATM    1  C7  UNL     1      -4.069   3.080  12.219  1.00  0.00     0.206 C 
HETATM    2  C9  UNL     1      -4.998   1.957  12.634  1.00  0.00     0.150 C 
HETATM    3  C10 UNL     1      -4.408   0.609  12.498  1.00  0.00     0.141 C 
HETATM    4  O4  UNL     1      -4.425  -0.136  13.446  1.00  0.00    -0.297 OA
HETATM    5  C11 UNL     1      -3.816   0.229  11.188  1.00  0.00     0.110 C 
HETATM    6  C13 UNL     1      -2.817   1.369  10.885  1.00  0.00     0.165 C 
HETATM    7  C14 UNL     1      -3.575   2.649  10.828  1.00  0.00     0.211 C 
ENDROOT
BRANCH   1   8
HETATM    8  O2  UNL     1      -4.865   4.212  12.059  1.00  0.00    -0.293 OA
BRANCH   8   9
HETATM    9  C6  UNL     1      -4.451   5.378  11.367  1.00  0.00     0.166 C 
HETATM   10  N1  UNL     1      -3.475   6.017  11.704  1.00  0.00    -0.247 N 
ATOM     11  H1  UNL     1      -3.438   6.779  11.027  1.00  0.00     0.196 HD
BRANCH   9  12
HETATM   12  C5  UNL     1      -5.269   5.781  10.209  1.00  0.00     0.077 C 
HETATM   13  C4  UNL     1      -6.173   6.710  10.212  1.00  0.00     0.016 C 
HETATM   14 CL1  UNL     1      -7.045   6.998   8.635  1.00  0.00    -0.089 Cl
BRANCH  13  15
HETATM   15  C3  UNL     1      -6.644   7.589  11.280  1.00  0.00     0.051 C 
BRANCH  15  16
HETATM   16  C2  UNL     1      -6.508   9.068  10.992  1.00  0.00     0.001 C 
HETATM   17  C1  UNL     1      -5.117   9.499  10.633  1.00  0.00     0.005 C 
ENDBRANCH  15  16
ENDBRANCH  13  15
ENDBRANCH   9  12
BRANCH  10  18
HETATM   18  O1  UNL     1      -2.464   6.235  12.467  1.00  0.00    -0.288 OA
ATOM     19  H1  UNL     1      -1.921   6.800  13.004  1.00  0.00     0.244 HD
ENDBRANCH  10  18
ENDBRANCH   8   9
ENDBRANCH   1   8
BRANCH   1  20
HETATM   20  O3  UNL     1      -2.970   3.254  13.007  1.00  0.00    -0.357 OA
HETATM   21  C8  UNL     1      -3.317   3.484  14.318  1.00  0.00     0.205 C 
ENDBRANCH   1  20
BRANCH   7  22
HETATM   22  O7  UNL     1      -4.784   2.338  10.140  1.00  0.00    -0.387 OA
ATOM     23  H7  UNL     1      -5.184   1.679  10.696  1.00  0.00     0.210 HD
ENDBRANCH   7  22
BRANCH   6  24
HETATM   24  O6  UNL     1      -1.872   1.255  11.876  1.00  0.00    -0.392 OA
ATOM     25  H6  UNL     1      -1.223   0.666  11.509  1.00  0.00     0.210 HD
ENDBRANCH   6  24
BRANCH   5  26
HETATM   26  C12 UNL     1      -2.960  -1.008  11.361  1.00  0.00     0.179 C 
BRANCH  26  27
HETATM   27  O5  UNL     1      -3.773  -2.129  11.508  1.00  0.00    -0.400 OA
ATOM     28  H5  UNL     1      -3.275  -2.915  11.317  1.00  0.00     0.209 HD
ENDBRANCH  26  27
ENDBRANCH   5  26
TORSDOF 11
ENDMDL
