MODEL 1
REMARK VINA RESULT: -6.882402718      0.000      0.000
REMARK  8 active torsions:
REMARK  status: ('A' for Active; 'I' for Inactive)
REMARK    1  A    between atoms: C3_4  and  O2_5 
REMARK    2  A    between atoms: O2_5  and  C4_6 
REMARK    3  A    between atoms: C4_6  and  C5_7 
REMARK    4  A    between atoms: C5_7  and  C6_8 
REMARK    5  A    between atoms: C6_8  and  S1_9 
REMARK    6  A    between atoms: S1_9  and  C7_10 
REMARK    7  A    between atoms: C10_22  and  O3_23 
REMARK    8  A    between atoms: C11_25  and  O4_26 
ROOT
HETATM    1  C4  UNL     1      -1.021   3.265  11.842  1.00  0.00     0.172 C 
ENDROOT
BRANCH   1   2
HETATM    2  O2  UNL     1      -1.736   2.135  11.837  1.00  0.00    -0.358 OA
BRANCH   2   3
HETATM    3  C3  UNL     1      -2.735   1.948  10.946  1.00  0.00     0.296 C 
HETATM    4  O1  UNL     1      -2.638   0.613  10.484  1.00  0.00    -0.351 OA
HETATM    5  C2  UNL     1      -2.841  -0.264  11.544  1.00  0.00     0.152 C 
HETATM    6  C1  UNL     1      -2.392  -1.663  11.195  1.00  0.00     0.042 C 
HETATM    7  C11 UNL     1      -4.317  -0.274  11.851  1.00  0.00     0.178 C 
HETATM    8  C10 UNL     1      -4.949   0.926  11.220  1.00  0.00     0.188 C 
HETATM    9  C9  UNL     1      -4.122   2.190  11.383  1.00  0.00     0.256 C 
HETATM   10  F1  UNL     1      -4.770   3.132  10.570  1.00  0.00    -0.241 F 
BRANCH   7  11
HETATM   11  O4  UNL     1      -4.563  -0.359  13.219  1.00  0.00    -0.390 OA
ATOM     12  H4  UNL     1      -5.058   0.386  13.537  1.00  0.00     0.210 HD
ENDBRANCH   7  11
BRANCH   8  13
HETATM   13  O3  UNL     1      -5.141   0.747   9.844  1.00  0.00    -0.390 OA
ATOM     14  H3  UNL     1      -5.596  -0.081   9.738  1.00  0.00     0.210 HD
ENDBRANCH   8  13
ENDBRANCH   2   3
ENDBRANCH   1   2
BRANCH   1  15
HETATM   15  C5  UNL     1      -1.797   4.494  12.339  1.00  0.00     0.037 C 
BRANCH  15  16
HETATM   16  C6  UNL     1      -2.028   4.266  13.839  1.00  0.00     0.083 C 
BRANCH  16  17
HETATM   17  S1  UNL     1      -3.799   4.307  14.223  1.00  0.00    -0.103 SA
BRANCH  17  18
HETATM   18  C7  UNL     1      -4.226   2.805  15.134  1.00  0.00     0.130 A 
HETATM   19  N1  UNL     1      -3.502   1.703  15.253  1.00  0.00    -0.286 N 
HETATM   20  N2  UNL     1      -3.940   0.725  15.929  1.00  0.00    -0.279 N 
ATOM     21  H1  UNL     1      -2.591   1.641  14.798  1.00  0.00     0.188 HD
HETATM   22  C8  UNL     1      -5.138   0.831  16.514  1.00  0.00     0.159 A 
ATOM     23  H2  UNL     1      -3.388  -0.128  16.027  1.00  0.00     0.189 HD
HETATM   24  N3  UNL     1      -5.754  -0.068  17.248  1.00  0.00    -0.379 N 
HETATM   25  S2  UNL     1      -5.613   2.407  16.048  1.00  0.00    -0.027 SA
ATOM     26  H32 UNL     1      -5.471  -1.008  17.525  1.00  0.00     0.158 HD
ATOM     27  H31 UNL     1      -6.668   0.013  17.694  1.00  0.00     0.158 HD
ENDBRANCH  17  18
ENDBRANCH  16  17
ENDBRANCH  15  16
ENDBRANCH   1  15
TORSDOF 8
ENDMDL
MODEL 2
REMARK VINA RESULT: -6.647242239      1.305      1.643
REMARK  8 active torsions:
REMARK  status: ('A' for Active; 'I' for Inactive)
REMARK    1  A    between atoms: C3_4  and  O2_5 
REMARK    2  A    between atoms: O2_5  and  C4_6 
REMARK    3  A    between atoms: C4_6  and  C5_7 
REMARK    4  A    between atoms: C5_7  and  C6_8 
REMARK    5  A    between atoms: C6_8  and  S1_9 
REMARK    6  A    between atoms: S1_9  and  C7_10 
REMARK    7  A    between atoms: C10_22  and  O3_23 
REMARK    8  A    between atoms: C11_25  and  O4_26 
ROOT
HETATM    1  C4  UNL     1      -0.592   2.992  11.447  1.00  0.00     0.172 C 
ENDROOT
BRANCH   1   2
HETATM    2  O2  UNL     1      -1.565   2.112  11.706  1.00  0.00    -0.358 OA
BRANCH   2   3
HETATM    3  C3  UNL     1      -2.649   2.018  10.906  1.00  0.00     0.296 C 
HETATM    4  O1  UNL     1      -2.756   0.664  10.504  1.00  0.00    -0.351 OA
HETATM    5  C2  UNL     1      -2.976  -0.137  11.618  1.00  0.00     0.152 C 
HETATM    6  C1  UNL     1      -2.733  -1.595  11.305  1.00  0.00     0.042 C 
HETATM    7  C11 UNL     1      -4.412   0.051  12.039  1.00  0.00     0.178 C 
HETATM    8  C10 UNL     1      -4.943   1.295  11.400  1.00  0.00     0.188 C 
HETATM    9  C9  UNL     1      -3.955   2.451  11.436  1.00  0.00     0.256 C 
HETATM   10  F1  UNL     1      -4.548   3.434  10.630  1.00  0.00    -0.241 F 
BRANCH   7  11
HETATM   11  O4  UNL     1      -4.552   0.052  13.424  1.00  0.00    -0.390 OA
ATOM     12  H4  UNL     1      -5.308  -0.450  13.705  1.00  0.00     0.210 HD
ENDBRANCH   7  11
BRANCH   8  13
HETATM   13  O3  UNL     1      -5.268   1.087  10.054  1.00  0.00    -0.390 OA
ATOM     14  H3  UNL     1      -5.853   1.793   9.803  1.00  0.00     0.210 HD
ENDBRANCH   8  13
ENDBRANCH   2   3
ENDBRANCH   1   2
BRANCH   1  15
HETATM   15  C5  UNL     1      -1.085   4.438  11.283  1.00  0.00     0.037 C 
BRANCH  15  16
HETATM   16  C6  UNL     1      -0.489   5.220  12.461  1.00  0.00     0.083 C 
BRANCH  16  17
HETATM   17  S1  UNL     1      -1.803   5.983  13.448  1.00  0.00    -0.103 SA
BRANCH  17  18
HETATM   18  C7  UNL     1      -2.846   4.673  14.130  1.00  0.00     0.130 A 
HETATM   19  N1  UNL     1      -2.469   3.463  14.515  1.00  0.00    -0.286 N 
HETATM   20  N2  UNL     1      -3.323   2.648  14.975  1.00  0.00    -0.279 N 
ATOM     21  H1  UNL     1      -1.490   3.188  14.442  1.00  0.00     0.188 HD
HETATM   22  C8  UNL     1      -4.601   3.033  15.060  1.00  0.00     0.159 A 
ATOM     23  H2  UNL     1      -3.041   1.714  15.275  1.00  0.00     0.189 HD
HETATM   24  N3  UNL     1      -5.621   2.334  15.505  1.00  0.00    -0.379 N 
HETATM   25  S2  UNL     1      -4.524   4.628  14.447  1.00  0.00    -0.027 SA
ATOM     26  H32 UNL     1      -5.666   1.383  15.870  1.00  0.00     0.158 HD
ATOM     27  H31 UNL     1      -6.596   2.628  15.570  1.00  0.00     0.158 HD
ENDBRANCH  17  18
ENDBRANCH  16  17
ENDBRANCH  15  16
ENDBRANCH   1  15
TORSDOF 8
ENDMDL
MODEL 3
REMARK VINA RESULT: -6.603191864      2.631      4.548
REMARK  8 active torsions:
REMARK  status: ('A' for Active; 'I' for Inactive)
REMARK    1  A    between atoms: C3_4  and  O2_5 
REMARK    2  A    between atoms: O2_5  and  C4_6 
REMARK    3  A    between atoms: C4_6  and  C5_7 
REMARK    4  A    between atoms: C5_7  and  C6_8 
REMARK    5  A    between atoms: C6_8  and  S1_9 
REMARK    6  A    between atoms: S1_9  and  C7_10 
REMARK    7  A    between atoms: C10_22  and  O3_23 
REMARK    8  A    between atoms: C11_25  and  O4_26 
ROOT
HETATM    1  C4  UNL     1      -4.388   1.326  14.019  1.00  0.00     0.172 C 
ENDROOT
BRANCH   1   2
HETATM    2  O2  UNL     1      -4.934   1.677  12.849  1.00  0.00    -0.358 OA
BRANCH   2   3
HETATM    3  C3  UNL     1      -4.830   0.876  11.766  1.00  0.00     0.296 C 
HETATM    4  O1  UNL     1      -4.482   1.701  10.669  1.00  0.00    -0.351 OA
HETATM    5  C2  UNL     1      -3.237   2.277  10.895  1.00  0.00     0.152 C 
HETATM    6  C1  UNL     1      -2.985   3.431   9.953  1.00  0.00     0.042 C 
HETATM    7  C11 UNL     1      -2.194   1.212  10.673  1.00  0.00     0.178 C 
HETATM    8  C10 UNL     1      -2.858  -0.128  10.704  1.00  0.00     0.188 C 
HETATM    9  C9  UNL     1      -3.887  -0.256  11.816  1.00  0.00     0.256 C 
HETATM   10  F1  UNL     1      -4.524  -1.479  11.555  1.00  0.00    -0.241 F 
BRANCH   7  11
HETATM   11  O4  UNL     1      -1.142   1.316  11.580  1.00  0.00    -0.390 OA
ATOM     12  H4  UNL     1      -0.480   0.653  11.432  1.00  0.00     0.210 HD
ENDBRANCH   7  11
BRANCH   8  13
HETATM   13  O3  UNL     1      -3.527  -0.403   9.505  1.00  0.00    -0.390 OA
ATOM     14  H3  UNL     1      -3.005  -0.021   8.809  1.00  0.00     0.210 HD
ENDBRANCH   8  13
ENDBRANCH   2   3
ENDBRANCH   1   2
BRANCH   1  15
HETATM   15  C5  UNL     1      -4.377   2.451  15.066  1.00  0.00     0.037 C 
BRANCH  15  16
HETATM   16  C6  UNL     1      -4.899   3.700  14.345  1.00  0.00     0.083 C 
BRANCH  16  17
HETATM   17  S1  UNL     1      -3.801   5.111  14.640  1.00  0.00    -0.103 SA
BRANCH  17  18
HETATM   18  C7  UNL     1      -2.359   4.955  13.560  1.00  0.00     0.130 A 
HETATM   19  N1  UNL     1      -1.540   3.920  13.457  1.00  0.00    -0.286 N 
HETATM   20  N2  UNL     1      -0.564   3.960  12.649  1.00  0.00    -0.279 N 
ATOM     21  H1  UNL     1      -1.694   3.089  14.029  1.00  0.00     0.188 HD
HETATM   22  C8  UNL     1      -0.383   5.061  11.912  1.00  0.00     0.159 A 
ATOM     23  H2  UNL     1       0.072   3.166  12.563  1.00  0.00     0.189 HD
HETATM   24  N3  UNL     1       0.564   5.287  11.029  1.00  0.00    -0.379 N 
HETATM   25  S2  UNL     1      -1.683   6.044  12.431  1.00  0.00    -0.027 SA
ATOM     26  H32 UNL     1       1.339   4.701  10.720  1.00  0.00     0.158 HD
ATOM     27  H31 UNL     1       0.702   6.127  10.467  1.00  0.00     0.158 HD
ENDBRANCH  17  18
ENDBRANCH  16  17
ENDBRANCH  15  16
ENDBRANCH   1  15
TORSDOF 8
ENDMDL
MODEL 4
REMARK VINA RESULT: -6.527530932      2.324      4.281
REMARK  8 active torsions:
REMARK  status: ('A' for Active; 'I' for Inactive)
REMARK    1  A    between atoms: C3_4  and  O2_5 
REMARK    2  A    between atoms: O2_5  and  C4_6 
REMARK    3  A    between atoms: C4_6  and  C5_7 
REMARK    4  A    between atoms: C5_7  and  C6_8 
REMARK    5  A    between atoms: C6_8  and  S1_9 
REMARK    6  A    between atoms: S1_9  and  C7_10 
REMARK    7  A    between atoms: C10_22  and  O3_23 
REMARK    8  A    between atoms: C11_25  and  O4_26 
ROOT
HETATM    1  C4  UNL     1      -4.762   1.266  14.450  1.00  0.00     0.172 C 
ENDROOT
BRANCH   1   2
HETATM    2  O2  UNL     1      -4.776   1.782  13.216  1.00  0.00    -0.358 OA
BRANCH   2   3
HETATM    3  C3  UNL     1      -4.678   0.987  12.129  1.00  0.00     0.296 C 
HETATM    4  O1  UNL     1      -4.469   1.831  11.011  1.00  0.00    -0.351 OA
HETATM    5  C2  UNL     1      -3.263   2.506  11.155  1.00  0.00     0.152 C 
HETATM    6  C1  UNL     1      -3.165   3.671  10.198  1.00  0.00     0.042 C 
HETATM    7  C11 UNL     1      -2.153   1.527  10.867  1.00  0.00     0.178 C 
HETATM    8  C10 UNL     1      -2.704   0.138  10.942  1.00  0.00     0.188 C 
HETATM    9  C9  UNL     1      -3.646  -0.066  12.118  1.00  0.00     0.256 C 
HETATM   10  F1  UNL     1      -4.198  -1.338  11.899  1.00  0.00    -0.241 F 
BRANCH   7  11
HETATM   11  O4  UNL     1      -1.058   1.720  11.703  1.00  0.00    -0.390 OA
ATOM     12  H4  UNL     1      -0.293   1.243  11.403  1.00  0.00     0.210 HD
ENDBRANCH   7  11
BRANCH   8  13
HETATM   13  O3  UNL     1      -3.425  -0.197   9.788  1.00  0.00    -0.390 OA
ATOM     14  H3  UNL     1      -3.367  -1.140   9.695  1.00  0.00     0.210 HD
ENDBRANCH   8  13
ENDBRANCH   2   3
ENDBRANCH   1   2
BRANCH   1  15
HETATM   15  C5  UNL     1      -5.433   2.157  15.507  1.00  0.00     0.037 C 
BRANCH  15  16
HETATM   16  C6  UNL     1      -6.086   3.309  14.732  1.00  0.00     0.083 C 
BRANCH  16  17
HETATM   17  S1  UNL     1      -5.234   4.870  15.077  1.00  0.00    -0.103 SA
BRANCH  17  18
HETATM   18  C7  UNL     1      -3.583   4.800  14.342  1.00  0.00     0.130 A 
HETATM   19  N1  UNL     1      -2.664   3.864  14.520  1.00  0.00    -0.286 N 
HETATM   20  N2  UNL     1      -1.543   3.955  13.933  1.00  0.00    -0.279 N 
ATOM     21  H1  UNL     1      -2.856   3.069  15.129  1.00  0.00     0.188 HD
HETATM   22  C8  UNL     1      -1.315   5.007  13.140  1.00  0.00     0.159 A 
ATOM     23  H2  UNL     1      -0.829   3.237  14.063  1.00  0.00     0.189 HD
HETATM   24  N3  UNL     1      -0.225   5.272  12.455  1.00  0.00    -0.379 N 
HETATM   25  S2  UNL     1      -2.787   5.868  13.273  1.00  0.00    -0.027 SA
ATOM     26  H32 UNL     1       0.653   4.759  12.376  1.00  0.00     0.158 HD
ATOM     27  H31 UNL     1      -0.051   6.075  11.850  1.00  0.00     0.158 HD
ENDBRANCH  17  18
ENDBRANCH  16  17
ENDBRANCH  15  16
ENDBRANCH   1  15
TORSDOF 8
ENDMDL
MODEL 5
REMARK VINA RESULT: -6.488354184      3.843      5.007
REMARK  8 active torsions:
REMARK  status: ('A' for Active; 'I' for Inactive)
REMARK    1  A    between atoms: C3_4  and  O2_5 
REMARK    2  A    between atoms: O2_5  and  C4_6 
REMARK    3  A    between atoms: C4_6  and  C5_7 
REMARK    4  A    between atoms: C5_7  and  C6_8 
REMARK    5  A    between atoms: C6_8  and  S1_9 
REMARK    6  A    between atoms: S1_9  and  C7_10 
REMARK    7  A    between atoms: C10_22  and  O3_23 
REMARK    8  A    between atoms: C11_25  and  O4_26 
ROOT
HETATM    1  C4  UNL     1      -5.090   4.890  14.669  1.00  0.00     0.172 C 
ENDROOT
BRANCH   1   2
HETATM    2  O2  UNL     1      -5.500   3.779  14.046  1.00  0.00    -0.358 OA
BRANCH   2   3
HETATM    3  C3  UNL     1      -6.206   2.834  14.704  1.00  0.00     0.296 C 
HETATM    4  O1  UNL     1      -5.915   1.591  14.089  1.00  0.00    -0.351 OA
HETATM    5  C2  UNL     1      -4.564   1.301  14.242  1.00  0.00     0.152 C 
HETATM    6  C1  UNL     1      -4.129   0.196  13.308  1.00  0.00     0.042 C 
HETATM    7  C11 UNL     1      -4.350   0.863  15.669  1.00  0.00     0.178 C 
HETATM    8  C10 UNL     1      -5.531   1.286  16.485  1.00  0.00     0.188 C 
HETATM    9  C9  UNL     1      -6.007   2.692  16.158  1.00  0.00     0.256 C 
HETATM   10  F1  UNL     1      -7.213   2.819  16.865  1.00  0.00    -0.241 F 
BRANCH   7  11
HETATM   11  O4  UNL     1      -3.143   1.329  16.182  1.00  0.00    -0.390 OA
ATOM     12  H4  UNL     1      -3.222   1.595  17.089  1.00  0.00     0.210 HD
ENDBRANCH   7  11
BRANCH   8  13
HETATM   13  O3  UNL     1      -6.626   0.435  16.291  1.00  0.00    -0.390 OA
ATOM     14  H3  UNL     1      -6.292  -0.348  15.869  1.00  0.00     0.210 HD
ENDBRANCH   8  13
ENDBRANCH   2   3
ENDBRANCH   1   2
BRANCH   1  15
HETATM   15  C5  UNL     1      -3.564   5.070  14.687  1.00  0.00     0.037 C 
BRANCH  15  16
HETATM   16  C6  UNL     1      -3.258   6.158  13.649  1.00  0.00     0.083 C 
BRANCH  16  17
HETATM   17  S1  UNL     1      -1.611   5.911  12.936  1.00  0.00    -0.103 SA
BRANCH  17  18
HETATM   18  C7  UNL     1      -1.539   4.256  12.210  1.00  0.00     0.130 A 
HETATM   19  N1  UNL     1      -0.527   3.404  12.250  1.00  0.00    -0.286 N 
HETATM   20  N2  UNL     1      -0.627   2.272  11.689  1.00  0.00    -0.279 N 
ATOM     21  H1  UNL     1       0.335   3.658  12.734  1.00  0.00     0.188 HD
HETATM   22  C8  UNL     1      -1.766   1.963  11.061  1.00  0.00     0.159 A 
ATOM     23  H2  UNL     1       0.148   1.608  11.716  1.00  0.00     0.189 HD
HETATM   24  N3  UNL     1      -2.055   0.849  10.427  1.00  0.00    -0.379 N 
HETATM   25  S2  UNL     1      -2.696   3.376  11.313  1.00  0.00    -0.027 SA
ATOM     26  H32 UNL     1      -1.500   0.006  10.277  1.00  0.00     0.158 HD
ATOM     27  H31 UNL     1      -2.924   0.612   9.948  1.00  0.00     0.158 HD
ENDBRANCH  17  18
ENDBRANCH  16  17
ENDBRANCH  15  16
ENDBRANCH   1  15
TORSDOF 8
ENDMDL
