MODEL 1
REMARK VINA RESULT: -6.104428092      0.000      0.000
REMARK  9 active torsions:
REMARK  status: ('A' for Active; 'I' for Inactive)
REMARK    1  A    between atoms: S1_2  and  C2_3 
REMARK    2  A    between atoms: C3_4  and  O1_5 
REMARK    3  A    between atoms: C4_7  and  C5_8 
REMARK    4  A    between atoms: C5_8  and  S2_9 
REMARK    5  A    between atoms: S2_9  and  C6_10 
REMARK    6  A    between atoms: C6_10  and  C7_11 
REMARK    7  A    between atoms: C8_14  and  N1_15 
REMARK    8  A    between atoms: C11_20  and  N3_21 
REMARK    9  A    between atoms: C12_26  and  N5_27 
ROOT
HETATM    1  N1  UNL     1      -2.336   3.062  11.009  1.00  0.00    -0.093 N 
HETATM    2  N2  UNL     1      -3.005   3.739  10.090  1.00  0.00    -0.283 N 
ATOM      3  H2  UNL     1      -3.999   3.545   9.966  1.00  0.00     0.187 HD
HETATM    4  C9  UNL     1      -2.428   4.672   9.313  1.00  0.00     0.066 A 
HETATM    5  C10 UNL     1      -3.183   5.438   8.275  1.00  0.00     0.074 C 
HETATM    6  C11 UNL     1      -1.094   4.946   9.468  1.00  0.00     0.138 A 
HETATM    7  N4  UNL     1      -0.398   4.270  10.397  1.00  0.00    -0.174 N 
ATOM      8  H4  UNL     1       0.596   4.452  10.536  1.00  0.00     0.186 HD
HETATM    9  C12 UNL     1      -1.037   3.344  11.144  1.00  0.00     0.696 A 
ENDROOT
BRANCH   1  10
HETATM   10  C8  UNL     1      -2.980   2.095  11.804  1.00  0.00     0.279 C 
HETATM   11  C2  UNL     1      -4.368   1.709  11.515  1.00  0.00     0.129 C 
HETATM   12  C3  UNL     1      -5.003   1.801  12.922  1.00  0.00     0.166 C 
HETATM   13  C4  UNL     1      -4.206   3.002  13.425  1.00  0.00     0.163 C 
HETATM   14  O2  UNL     1      -2.913   2.528  13.154  1.00  0.00    -0.354 OA
BRANCH  11  15
HETATM   15  S1  UNL     1      -4.598  -0.012  11.015  1.00  0.00    -0.162 SA
HETATM   16  C1  UNL     1      -3.112  -0.984  11.090  1.00  0.00     0.090 C 
ENDBRANCH  11  15
BRANCH  12  17
HETATM   17  O1  UNL     1      -4.673   0.691  13.679  1.00  0.00    -0.392 OA
ATOM     18  H1  UNL     1      -3.788   0.404  13.485  1.00  0.00     0.210 HD
ENDBRANCH  12  17
BRANCH  13  19
HETATM   19  C5  UNL     1      -4.429   3.233  14.871  1.00  0.00     0.108 C 
BRANCH  19  20
HETATM   20  S2  UNL     1      -6.154   3.655  15.204  1.00  0.00    -0.164 SA
BRANCH  20  21
HETATM   21  C6  UNL     1      -6.777   2.817  16.681  1.00  0.00     0.105 C 
BRANCH  21  22
HETATM   22  C7  UNL     1      -6.583   1.316  16.616  1.00  0.00     0.232 C 
HETATM   23  F1  UNL     1      -7.735   0.643  16.988  1.00  0.00    -0.255 F 
ENDBRANCH  21  22
ENDBRANCH  20  21
ENDBRANCH  19  20
ENDBRANCH  13  19
ENDBRANCH   1  10
BRANCH   9  24
HETATM   24  N5  UNL     1      -0.366   2.720  12.011  1.00  0.00    -0.233 N 
ATOM     25  H52 UNL     1      -0.853   2.389  12.843  1.00  0.00     0.174 HD
ATOM     26  H51 UNL     1       0.630   2.570  11.849  1.00  0.00     0.174 HD
ENDBRANCH   9  24
BRANCH   6  27
HETATM   27  N3  UNL     1      -0.522   5.843   8.728  1.00  0.00    -0.383 N 
ATOM     28  H32 UNL     1      -0.643   5.841   7.715  1.00  0.00     0.157 HD
ATOM     29  H31 UNL     1       0.059   6.564   9.153  1.00  0.00     0.157 HD
ENDBRANCH   6  27
TORSDOF 9
ENDMDL
MODEL 2
REMARK VINA RESULT: -5.658896316      1.841      1.877
REMARK  9 active torsions:
REMARK  status: ('A' for Active; 'I' for Inactive)
REMARK    1  A    between atoms: S1_2  and  C2_3 
REMARK    2  A    between atoms: C3_4  and  O1_5 
REMARK    3  A    between atoms: C4_7  and  C5_8 
REMARK    4  A    between atoms: C5_8  and  S2_9 
REMARK    5  A    between atoms: S2_9  and  C6_10 
REMARK    6  A    between atoms: C6_10  and  C7_11 
REMARK    7  A    between atoms: C8_14  and  N1_15 
REMARK    8  A    between atoms: C11_20  and  N3_21 
REMARK    9  A    between atoms: C12_26  and  N5_27 
ROOT
HETATM    1  N1  UNL     1      -2.693   4.096  12.214  1.00  0.00    -0.093 N 
HETATM    2  N2  UNL     1      -3.516   5.101  11.965  1.00  0.00    -0.283 N 
ATOM      3  H2  UNL     1      -4.521   4.939  12.030  1.00  0.00     0.187 HD
HETATM    4  C9  UNL     1      -3.081   6.329  11.628  1.00  0.00     0.066 A 
HETATM    5  C10 UNL     1      -4.010   7.465  11.347  1.00  0.00     0.074 C 
HETATM    6  C11 UNL     1      -1.734   6.564  11.537  1.00  0.00     0.138 A 
HETATM    7  N4  UNL     1      -0.882   5.555  11.788  1.00  0.00    -0.174 N 
ATOM      8  H4  UNL     1       0.126   5.700  11.728  1.00  0.00     0.186 HD
HETATM    9  C12 UNL     1      -1.384   4.346  12.120  1.00  0.00     0.696 A 
ENDROOT
BRANCH   1  10
HETATM   10  C8  UNL     1      -3.190   2.827  12.566  1.00  0.00     0.279 C 
HETATM   11  C2  UNL     1      -4.511   2.394  12.089  1.00  0.00     0.129 C 
HETATM   12  C3  UNL     1      -5.146   1.874  13.399  1.00  0.00     0.166 C 
HETATM   13  C4  UNL     1      -4.525   2.897  14.345  1.00  0.00     0.163 C 
HETATM   14  O2  UNL     1      -3.179   2.734  13.983  1.00  0.00    -0.354 OA
BRANCH  11  15
HETATM   15  S1  UNL     1      -4.497   0.967  10.982  1.00  0.00    -0.162 SA
HETATM   16  C1  UNL     1      -2.872   0.311  10.678  1.00  0.00     0.090 C 
ENDBRANCH  11  15
BRANCH  12  17
HETATM   17  O1  UNL     1      -4.659   0.617  13.711  1.00  0.00    -0.392 OA
ATOM     18  H1  UNL     1      -5.330  -0.044  13.582  1.00  0.00     0.210 HD
ENDBRANCH  12  17
BRANCH  13  19
HETATM   19  C5  UNL     1      -4.772   2.545  15.763  1.00  0.00     0.108 C 
BRANCH  19  20
HETATM   20  S2  UNL     1      -6.521   2.720  16.181  1.00  0.00    -0.164 SA
BRANCH  20  21
HETATM   21  C6  UNL     1      -7.198   1.197  16.885  1.00  0.00     0.105 C 
BRANCH  21  22
HETATM   22  C7  UNL     1      -6.114   0.246  17.350  1.00  0.00     0.232 C 
HETATM   23  F1  UNL     1      -5.516   0.696  18.515  1.00  0.00    -0.255 F 
ENDBRANCH  21  22
ENDBRANCH  20  21
ENDBRANCH  19  20
ENDBRANCH  13  19
ENDBRANCH   1  10
BRANCH   9  24
HETATM   24  N5  UNL     1      -0.568   3.413  12.351  1.00  0.00    -0.233 N 
ATOM     25  H52 UNL     1       0.287   3.379  11.797  1.00  0.00     0.174 HD
ATOM     26  H51 UNL     1      -0.790   2.733  13.079  1.00  0.00     0.174 HD
ENDBRANCH   9  24
BRANCH   6  27
HETATM   27  N3  UNL     1      -1.298   7.740  11.215  1.00  0.00    -0.383 N 
ATOM     28  H32 UNL     1      -0.940   8.379  11.925  1.00  0.00     0.157 HD
ATOM     29  H31 UNL     1      -1.308   8.042  10.241  1.00  0.00     0.157 HD
ENDBRANCH   6  27
TORSDOF 9
ENDMDL
MODEL 3
REMARK VINA RESULT: -5.601920773      4.508      6.702
REMARK  9 active torsions:
REMARK  status: ('A' for Active; 'I' for Inactive)
REMARK    1  A    between atoms: S1_2  and  C2_3 
REMARK    2  A    between atoms: C3_4  and  O1_5 
REMARK    3  A    between atoms: C4_7  and  C5_8 
REMARK    4  A    between atoms: C5_8  and  S2_9 
REMARK    5  A    between atoms: S2_9  and  C6_10 
REMARK    6  A    between atoms: C6_10  and  C7_11 
REMARK    7  A    between atoms: C8_14  and  N1_15 
REMARK    8  A    between atoms: C11_20  and  N3_21 
REMARK    9  A    between atoms: C12_26  and  N5_27 
ROOT
HETATM    1  N1  UNL     1      -5.377   3.011  14.549  1.00  0.00    -0.093 N 
HETATM    2  N2  UNL     1      -5.129   1.835  15.101  1.00  0.00    -0.283 N 
ATOM      3  H2  UNL     1      -4.503   1.190  14.619  1.00  0.00     0.187 HD
HETATM    4  C9  UNL     1      -5.669   1.455  16.273  1.00  0.00     0.066 A 
HETATM    5  C10 UNL     1      -5.389   0.127  16.897  1.00  0.00     0.074 C 
HETATM    6  C11 UNL     1      -6.511   2.311  16.934  1.00  0.00     0.138 A 
HETATM    7  N4  UNL     1      -6.774   3.511  16.389  1.00  0.00    -0.174 N 
ATOM      8  H4  UNL     1      -7.397   4.169  16.858  1.00  0.00     0.186 HD
HETATM    9  C12 UNL     1      -6.200   3.830  15.209  1.00  0.00     0.696 A 
ENDROOT
BRANCH   1  10
HETATM   10  C8  UNL     1      -4.787   3.370  13.322  1.00  0.00     0.279 C 
HETATM   11  C2  UNL     1      -3.981   2.393  12.577  1.00  0.00     0.129 C 
HETATM   12  C3  UNL     1      -2.721   3.228  12.255  1.00  0.00     0.166 C 
HETATM   13  C4  UNL     1      -2.675   4.033  13.551  1.00  0.00     0.163 C 
HETATM   14  O2  UNL     1      -3.989   4.523  13.544  1.00  0.00    -0.354 OA
BRANCH  11  15
HETATM   15  S1  UNL     1      -4.646   1.919  10.966  1.00  0.00    -0.162 SA
HETATM   16  C1  UNL     1      -4.793   0.162  10.740  1.00  0.00     0.090 C 
ENDBRANCH  11  15
BRANCH  12  17
HETATM   17  O1  UNL     1      -2.962   4.088  11.198  1.00  0.00    -0.392 OA
ATOM     18  H1  UNL     1      -2.146   4.375  10.807  1.00  0.00     0.210 HD
ENDBRANCH  12  17
BRANCH  13  19
HETATM   19  C5  UNL     1      -1.669   5.118  13.481  1.00  0.00     0.108 C 
BRANCH  19  20
HETATM   20  S2  UNL     1      -2.354   6.680  14.075  1.00  0.00    -0.164 SA
BRANCH  20  21
HETATM   21  C6  UNL     1      -1.122   8.004  14.056  1.00  0.00     0.105 C 
BRANCH  21  22
HETATM   22  C7  UNL     1      -1.404   9.069  15.095  1.00  0.00     0.232 C 
HETATM   23  F1  UNL     1      -1.401   8.539  16.374  1.00  0.00    -0.255 F 
ENDBRANCH  21  22
ENDBRANCH  20  21
ENDBRANCH  19  20
ENDBRANCH  13  19
ENDBRANCH   1  10
BRANCH   9  24
HETATM   24  N5  UNL     1      -6.459   4.961  14.715  1.00  0.00    -0.233 N 
ATOM     25  H52 UNL     1      -6.350   5.077  13.708  1.00  0.00     0.174 HD
ATOM     26  H51 UNL     1      -6.766   5.711  15.335  1.00  0.00     0.174 HD
ENDBRANCH   9  24
BRANCH   6  27
HETATM   27  N3  UNL     1      -7.040   1.961  18.063  1.00  0.00    -0.383 N 
ATOM     28  H32 UNL     1      -6.900   1.024  18.440  1.00  0.00     0.157 HD
ATOM     29  H31 UNL     1      -7.605   2.625  18.592  1.00  0.00     0.157 HD
ENDBRANCH   6  27
TORSDOF 9
ENDMDL
MODEL 4
REMARK VINA RESULT: -5.533577278      3.833      5.903
REMARK  9 active torsions:
REMARK  status: ('A' for Active; 'I' for Inactive)
REMARK    1  A    between atoms: S1_2  and  C2_3 
REMARK    2  A    between atoms: C3_4  and  O1_5 
REMARK    3  A    between atoms: C4_7  and  C5_8 
REMARK    4  A    between atoms: C5_8  and  S2_9 
REMARK    5  A    between atoms: S2_9  and  C6_10 
REMARK    6  A    between atoms: C6_10  and  C7_11 
REMARK    7  A    between atoms: C8_14  and  N1_15 
REMARK    8  A    between atoms: C11_20  and  N3_21 
REMARK    9  A    between atoms: C12_26  and  N5_27 
ROOT
HETATM    1  N1  UNL     1      -3.705   1.872  12.057  1.00  0.00    -0.093 N 
HETATM    2  N2  UNL     1      -3.577   2.461  13.234  1.00  0.00    -0.283 N 
ATOM      3  H2  UNL     1      -3.245   3.425  13.266  1.00  0.00     0.187 HD
HETATM    4  C9  UNL     1      -3.867   1.840  14.392  1.00  0.00     0.066 A 
HETATM    5  C10 UNL     1      -3.723   2.505  15.722  1.00  0.00     0.074 C 
HETATM    6  C11 UNL     1      -4.316   0.546  14.366  1.00  0.00     0.138 A 
HETATM    7  N4  UNL     1      -4.454  -0.069  13.179  1.00  0.00    -0.174 N 
ATOM      8  H4  UNL     1      -4.786  -1.032  13.129  1.00  0.00     0.186 HD
HETATM    9  C12 UNL     1      -4.144   0.611  12.054  1.00  0.00     0.696 A 
ENDROOT
BRANCH   1  10
HETATM   10  C8  UNL     1      -3.393   2.560  10.869  1.00  0.00     0.279 C 
HETATM   11  C2  UNL     1      -2.209   3.427  10.809  1.00  0.00     0.129 C 
HETATM   12  C3  UNL     1      -2.807   4.707  10.182  1.00  0.00     0.166 C 
HETATM   13  C4  UNL     1      -4.174   4.644  10.859  1.00  0.00     0.163 C 
HETATM   14  O2  UNL     1      -4.526   3.333  10.504  1.00  0.00    -0.354 OA
BRANCH  11  15
HETATM   15  S1  UNL     1      -0.929   2.899   9.648  1.00  0.00    -0.162 SA
HETATM   16  C1  UNL     1       0.681   3.565  10.004  1.00  0.00     0.090 C 
ENDBRANCH  11  15
BRANCH  12  17
HETATM   17  O1  UNL     1      -2.972   4.551   8.817  1.00  0.00    -0.392 OA
ATOM     18  H1  UNL     1      -2.163   4.744   8.358  1.00  0.00     0.210 HD
ENDBRANCH  12  17
BRANCH  13  19
HETATM   19  C5  UNL     1      -5.105   5.649  10.296  1.00  0.00     0.108 C 
BRANCH  19  20
HETATM   20  S2  UNL     1      -4.626   7.322  10.779  1.00  0.00    -0.164 SA
BRANCH  20  21
HETATM   21  C6  UNL     1      -6.067   8.377  11.064  1.00  0.00     0.105 C 
BRANCH  21  22
HETATM   22  C7  UNL     1      -7.364   7.595  11.057  1.00  0.00     0.232 C 
HETATM   23  F1  UNL     1      -7.833   7.383  12.343  1.00  0.00    -0.255 F 
ENDBRANCH  21  22
ENDBRANCH  20  21
ENDBRANCH  19  20
ENDBRANCH  13  19
ENDBRANCH   1  10
BRANCH   9  24
HETATM   24  N5  UNL     1      -4.281   0.016  10.950  1.00  0.00    -0.233 N 
ATOM     25  H52 UNL     1      -5.228  -0.170  10.623  1.00  0.00     0.174 HD
ATOM     26  H51 UNL     1      -3.446  -0.254  10.429  1.00  0.00     0.174 HD
ENDBRANCH   9  24
BRANCH   6  27
HETATM   27  N3  UNL     1      -4.601  -0.067  15.471  1.00  0.00    -0.383 N 
ATOM     28  H32 UNL     1      -5.409  -0.687  15.534  1.00  0.00     0.157 HD
ATOM     29  H31 UNL     1      -4.016   0.064  16.296  1.00  0.00     0.157 HD
ENDBRANCH   6  27
TORSDOF 9
ENDMDL
MODEL 5
REMARK VINA RESULT: -5.422166244      3.984      6.739
REMARK  9 active torsions:
REMARK  status: ('A' for Active; 'I' for Inactive)
REMARK    1  A    between atoms: S1_2  and  C2_3 
REMARK    2  A    between atoms: C3_4  and  O1_5 
REMARK    3  A    between atoms: C4_7  and  C5_8 
REMARK    4  A    between atoms: C5_8  and  S2_9 
REMARK    5  A    between atoms: S2_9  and  C6_10 
REMARK    6  A    between atoms: C6_10  and  C7_11 
REMARK    7  A    between atoms: C8_14  and  N1_15 
REMARK    8  A    between atoms: C11_20  and  N3_21 
REMARK    9  A    between atoms: C12_26  and  N5_27 
ROOT
HETATM    1  N1  UNL     1      -4.517   2.056  15.067  1.00  0.00    -0.093 N 
HETATM    2  N2  UNL     1      -5.409   2.910  15.541  1.00  0.00    -0.283 N 
ATOM      3  H2  UNL     1      -5.407   3.867  15.189  1.00  0.00     0.187 HD
HETATM    4  C9  UNL     1      -6.318   2.566  16.471  1.00  0.00     0.066 A 
HETATM    5  C10 UNL     1      -7.327   3.529  17.007  1.00  0.00     0.074 C 
HETATM    6  C11 UNL     1      -6.335   1.284  16.954  1.00  0.00     0.138 A 
HETATM    7  N4  UNL     1      -5.437   0.402  16.483  1.00  0.00    -0.174 N 
ATOM      8  H4  UNL     1      -5.426  -0.559  16.824  1.00  0.00     0.186 HD
HETATM    9  C12 UNL     1      -4.549   0.812  15.551  1.00  0.00     0.696 A 
ENDROOT
BRANCH   1  10
HETATM   10  C8  UNL     1      -3.583   2.456  14.092  1.00  0.00     0.279 C 
HETATM   11  C2  UNL     1      -3.502   3.866  13.684  1.00  0.00     0.129 C 
HETATM   12  C3  UNL     1      -3.513   3.733  12.144  1.00  0.00     0.166 C 
HETATM   13  C4  UNL     1      -4.467   2.545  12.051  1.00  0.00     0.163 C 
HETATM   14  O2  UNL     1      -3.807   1.673  12.929  1.00  0.00    -0.354 OA
BRANCH  11  15
HETATM   15  S1  UNL     1      -1.938   4.685  14.066  1.00  0.00    -0.162 SA
HETATM   16  C1  UNL     1      -2.030   6.460  14.025  1.00  0.00     0.090 C 
ENDBRANCH  11  15
BRANCH  12  17
HETATM   17  O1  UNL     1      -2.268   3.350  11.678  1.00  0.00    -0.392 OA
ATOM     18  H1  UNL     1      -1.603   3.494  12.341  1.00  0.00     0.210 HD
ENDBRANCH  12  17
BRANCH  13  19
HETATM   19  C5  UNL     1      -4.534   2.010  10.671  1.00  0.00     0.108 C 
BRANCH  19  20
HETATM   20  S2  UNL     1      -4.879   0.236  10.677  1.00  0.00    -0.164 SA
BRANCH  20  21
HETATM   21  C6  UNL     1      -3.361  -0.742  10.570  1.00  0.00     0.105 C 
BRANCH  21  22
HETATM   22  C7  UNL     1      -3.300  -1.828  11.625  1.00  0.00     0.232 C 
HETATM   23  F1  UNL     1      -2.529  -2.898  11.204  1.00  0.00    -0.255 F 
ENDBRANCH  21  22
ENDBRANCH  20  21
ENDBRANCH  19  20
ENDBRANCH  13  19
ENDBRANCH   1  10
BRANCH   9  24
HETATM   24  N5  UNL     1      -3.716  -0.031  15.122  1.00  0.00    -0.233 N 
ATOM     25  H52 UNL     1      -2.846   0.320  14.721  1.00  0.00     0.174 HD
ATOM     26  H51 UNL     1      -3.938  -1.024  15.191  1.00  0.00     0.174 HD
ENDBRANCH   9  24
BRANCH   6  27
HETATM   27  N3  UNL     1      -7.205   0.936  17.849  1.00  0.00    -0.383 N 
ATOM     28  H32 UNL     1      -7.343   1.495  18.691  1.00  0.00     0.157 HD
ATOM     29  H31 UNL     1      -7.765   0.094  17.720  1.00  0.00     0.157 HD
ENDBRANCH   6  27
TORSDOF 9
ENDMDL
