MODEL 1
REMARK VINA RESULT: -6.554807692      0.000      0.000
REMARK  8 active torsions:
REMARK  status: ('A' for Active; 'I' for Inactive)
REMARK    1  A    between atoms: O1_2  and  C2_3 
REMARK    2  A    between atoms: C3_5  and  C4_6 
REMARK    3  A    between atoms: C5_10  and  N2_11 
REMARK    4  A    between atoms: C8_16  and  N4_17 
REMARK    5  A    between atoms: C9_22  and  N6_23 
REMARK    6  A    between atoms: C11_29  and  O3_30 
REMARK    7  A    between atoms: O3_30  and  C12_31 
REMARK    8  A    between atoms: C12_31  and  C14_33 
ROOT
HETATM    1  N2  UNL     1      -4.339   3.606  13.129  1.00  0.00    -0.317 N 
HETATM    2  C6  UNL     1      -5.057   4.754  13.353  1.00  0.00     0.185 A 
HETATM    3  N3  UNL     1      -5.824   4.635  14.441  1.00  0.00    -0.346 N 
ATOM      4  H3  UNL     1      -6.450   5.346  14.819  1.00  0.00     0.167 HD
HETATM    5  C7  UNL     1      -5.622   3.414  14.942  1.00  0.00     0.123 A 
HETATM    6  C8  UNL     1      -6.141   2.757  16.042  1.00  0.00     0.145 A 
HETATM    7  N5  UNL     1      -5.729   1.502  16.287  1.00  0.00    -0.175 N 
ATOM      8  H5  UNL     1      -6.108   1.012  17.097  1.00  0.00     0.186 HD
HETATM    9  C9  UNL     1      -4.836   0.868  15.509  1.00  0.00     0.679 A 
HETATM   10  N7  UNL     1      -4.325   1.514  14.428  1.00  0.00    -0.174 N 
ATOM     11  H7  UNL     1      -3.647   1.037  13.834  1.00  0.00     0.186 HD
HETATM   12  C10 UNL     1      -4.699   2.776  14.127  1.00  0.00     0.155 A 
ENDROOT
BRANCH   1  13
HETATM   13  C5  UNL     1      -3.442   3.408  12.070  1.00  0.00     0.160 C 
HETATM   14  C3  UNL     1      -3.846   2.573  10.905  1.00  0.00     0.188 C 
HETATM   15  O2  UNL     1      -3.822   3.447   9.818  1.00  0.00    -0.346 OA
HETATM   16  C2  UNL     1      -2.613   4.120  10.030  1.00  0.00     0.291 C 
HETATM   17  C11 UNL     1      -2.825   4.616  11.427  1.00  0.00     0.203 C 
BRANCH  14  18
HETATM   18  C4  UNL     1      -5.102   1.825  11.051  1.00  0.00     0.087 C 
HETATM   19  N1  UNL     1      -5.256   0.652  10.624  1.00  0.00    -0.409 N 
ATOM     20  H12 UNL     1      -4.462   0.214  10.157  1.00  0.00     0.155 HD
ATOM     21  H11 UNL     1      -6.128   0.132  10.725  1.00  0.00     0.155 HD
ENDBRANCH  14  18
BRANCH  16  22
HETATM   22  O1  UNL     1      -1.623   3.154   9.925  1.00  0.00    -0.363 OA
HETATM   23  C1  UNL     1      -0.756   3.472   8.901  1.00  0.00     0.204 C 
ENDBRANCH  16  22
BRANCH  17  24
HETATM   24  O3  UNL     1      -1.784   5.171  12.061  1.00  0.00    -0.371 OA
BRANCH  24  25
HETATM   25  C12 UNL     1      -1.778   6.440  12.460  1.00  0.00     0.146 C 
HETATM   26  C13 UNL     1      -0.463   7.180  12.176  1.00  0.00     0.042 C 
BRANCH  25  27
HETATM   27  C14 UNL     1      -1.928   6.459  13.973  1.00  0.00     0.253 C 
HETATM   28  F1  UNL     1      -1.716   5.196  14.492  1.00  0.00    -0.253 F 
ENDBRANCH  25  27
ENDBRANCH  24  25
ENDBRANCH  17  24
ENDBRANCH   1  13
BRANCH   6  29
HETATM   29  N4  UNL     1      -6.991   3.376  16.773  1.00  0.00    -0.383 N 
ATOM     30  H42 UNL     1      -6.734   3.915  17.600  1.00  0.00     0.157 HD
ATOM     31  H41 UNL     1      -7.976   3.328  16.514  1.00  0.00     0.157 HD
ENDBRANCH   6  29
BRANCH   9  32
HETATM   32  N6  UNL     1      -4.421  -0.334  15.717  1.00  0.00    -0.234 N 
ATOM     33  H62 UNL     1      -5.109  -1.082  15.624  1.00  0.00     0.174 HD
ATOM     34  H61 UNL     1      -3.461  -0.573  15.966  1.00  0.00     0.174 HD
ENDBRANCH   9  32
TORSDOF 8
ENDMDL
MODEL 2
REMARK VINA RESULT: -6.508696619      1.288      2.490
REMARK  8 active torsions:
REMARK  status: ('A' for Active; 'I' for Inactive)
REMARK    1  A    between atoms: O1_2  and  C2_3 
REMARK    2  A    between atoms: C3_5  and  C4_6 
REMARK    3  A    between atoms: C5_10  and  N2_11 
REMARK    4  A    between atoms: C8_16  and  N4_17 
REMARK    5  A    between atoms: C9_22  and  N6_23 
REMARK    6  A    between atoms: C11_29  and  O3_30 
REMARK    7  A    between atoms: O3_30  and  C12_31 
REMARK    8  A    between atoms: C12_31  and  C14_33 
ROOT
HETATM    1  N2  UNL     1      -4.025   1.523  13.400  1.00  0.00    -0.317 N 
HETATM    2  C6  UNL     1      -3.938   0.278  13.972  1.00  0.00     0.185 A 
HETATM    3  N3  UNL     1      -4.681   0.208  15.081  1.00  0.00    -0.346 N 
ATOM      4  H3  UNL     1      -4.785  -0.606  15.687  1.00  0.00     0.167 HD
HETATM    5  C7  UNL     1      -5.261   1.398  15.251  1.00  0.00     0.123 A 
HETATM    6  C8  UNL     1      -6.121   1.890  16.215  1.00  0.00     0.145 A 
HETATM    7  N5  UNL     1      -6.539   3.162  16.106  1.00  0.00    -0.175 N 
ATOM      8  H5  UNL     1      -7.173   3.531  16.814  1.00  0.00     0.186 HD
HETATM    9  C9  UNL     1      -6.154   3.967  15.102  1.00  0.00     0.679 A 
HETATM   10  N7  UNL     1      -5.308   3.484  14.154  1.00  0.00    -0.174 N 
ATOM     11  H7  UNL     1      -5.014   4.091  13.390  1.00  0.00     0.186 HD
HETATM   12  C10 UNL     1      -4.852   2.214  14.207  1.00  0.00     0.155 A 
ENDROOT
BRANCH   1  13
HETATM   13  C5  UNL     1      -3.365   1.920  12.228  1.00  0.00     0.160 C 
HETATM   14  C3  UNL     1      -4.007   1.689  10.904  1.00  0.00     0.188 C 
HETATM   15  O2  UNL     1      -4.198   2.966  10.376  1.00  0.00    -0.346 OA
HETATM   16  C2  UNL     1      -2.965   3.568  10.654  1.00  0.00     0.291 C 
HETATM   17  C11 UNL     1      -2.883   3.338  12.131  1.00  0.00     0.203 C 
BRANCH  14  18
HETATM   18  C4  UNL     1      -5.213   0.850  10.908  1.00  0.00     0.087 C 
HETATM   19  N1  UNL     1      -5.379  -0.119  10.124  1.00  0.00    -0.409 N 
ATOM     20  H12 UNL     1      -4.631  -0.317   9.459  1.00  0.00     0.155 HD
ATOM     21  H11 UNL     1      -6.216  -0.701  10.126  1.00  0.00     0.155 HD
ENDBRANCH  14  18
BRANCH  16  22
HETATM   22  O1  UNL     1      -2.026   2.854   9.924  1.00  0.00    -0.363 OA
HETATM   23  C1  UNL     1      -1.257   3.713   9.170  1.00  0.00     0.204 C 
ENDBRANCH  16  22
BRANCH  17  24
HETATM   24  O3  UNL     1      -1.729   3.625  12.747  1.00  0.00    -0.371 OA
BRANCH  24  25
HETATM   25  C12 UNL     1      -1.516   4.779  13.375  1.00  0.00     0.146 C 
HETATM   26  C13 UNL     1      -2.773   5.643  13.545  1.00  0.00     0.042 C 
BRANCH  25  27
HETATM   27  C14 UNL     1      -0.571   5.612  12.523  1.00  0.00     0.253 C 
HETATM   28  F1  UNL     1       0.360   4.799  11.905  1.00  0.00    -0.253 F 
ENDBRANCH  25  27
ENDBRANCH  24  25
ENDBRANCH  17  24
ENDBRANCH   1  13
BRANCH   6  29
HETATM   29  N4  UNL     1      -6.477   1.109  17.165  1.00  0.00    -0.383 N 
ATOM     30  H42 UNL     1      -5.896   0.913  17.980  1.00  0.00     0.157 HD
ATOM     31  H41 UNL     1      -7.390   0.659  17.103  1.00  0.00     0.157 HD
ENDBRANCH   6  29
BRANCH   9  32
HETATM   32  N6  UNL     1      -6.536   5.191  14.970  1.00  0.00    -0.234 N 
ATOM     33  H62 UNL     1      -7.537   5.350  14.850  1.00  0.00     0.174 HD
ATOM     34  H61 UNL     1      -5.904   5.992  14.979  1.00  0.00     0.174 HD
ENDBRANCH   9  32
TORSDOF 8
ENDMDL
MODEL 3
REMARK VINA RESULT: -6.343191261      3.625      6.631
REMARK  8 active torsions:
REMARK  status: ('A' for Active; 'I' for Inactive)
REMARK    1  A    between atoms: O1_2  and  C2_3 
REMARK    2  A    between atoms: C3_5  and  C4_6 
REMARK    3  A    between atoms: C5_10  and  N2_11 
REMARK    4  A    between atoms: C8_16  and  N4_17 
REMARK    5  A    between atoms: C9_22  and  N6_23 
REMARK    6  A    between atoms: C11_29  and  O3_30 
REMARK    7  A    between atoms: O3_30  and  C12_31 
REMARK    8  A    between atoms: C12_31  and  C14_33 
ROOT
HETATM    1  N2  UNL     1      -2.287   3.938  11.732  1.00  0.00    -0.317 N 
HETATM    2  C6  UNL     1      -3.115   4.228  10.676  1.00  0.00     0.185 A 
HETATM    3  N3  UNL     1      -2.417   4.685   9.631  1.00  0.00    -0.346 N 
ATOM      4  H3  UNL     1      -2.798   4.970   8.729  1.00  0.00     0.167 HD
HETATM    5  C7  UNL     1      -1.130   4.701   9.986  1.00  0.00     0.123 A 
HETATM    6  C8  UNL     1       0.020   5.072   9.315  1.00  0.00     0.145 A 
HETATM    7  N5  UNL     1       1.195   4.969   9.959  1.00  0.00    -0.175 N 
ATOM      8  H5  UNL     1       2.047   5.242   9.469  1.00  0.00     0.186 HD
HETATM    9  C9  UNL     1       1.291   4.522  11.222  1.00  0.00     0.679 A 
HETATM   10  N7  UNL     1       0.161   4.156  11.882  1.00  0.00    -0.174 N 
ATOM     11  H7  UNL     1       0.229   3.816  12.840  1.00  0.00     0.186 HD
HETATM   12  C10 UNL     1      -1.051   4.236  11.290  1.00  0.00     0.155 A 
ENDROOT
BRANCH   1  13
HETATM   13  C5  UNL     1      -2.707   3.440  12.974  1.00  0.00     0.160 C 
HETATM   14  C3  UNL     1      -3.149   4.385  14.037  1.00  0.00     0.188 C 
HETATM   15  O2  UNL     1      -4.487   4.063  14.261  1.00  0.00    -0.346 OA
HETATM   16  C2  UNL     1      -4.433   2.665  14.305  1.00  0.00     0.291 C 
HETATM   17  C11 UNL     1      -3.771   2.382  12.992  1.00  0.00     0.203 C 
BRANCH  14  18
HETATM   18  C4  UNL     1      -2.905   5.810  13.778  1.00  0.00     0.087 C 
HETATM   19  N1  UNL     1      -1.913   6.432  14.237  1.00  0.00    -0.409 N 
ATOM     20  H12 UNL     1      -1.257   5.907  14.814  1.00  0.00     0.155 HD
ATOM     21  H11 UNL     1      -1.744   7.421  14.057  1.00  0.00     0.155 HD
ENDBRANCH  14  18
BRANCH  16  22
HETATM   22  O1  UNL     1      -3.647   2.354  15.404  1.00  0.00    -0.363 OA
HETATM   23  C1  UNL     1      -4.322   1.492  16.242  1.00  0.00     0.204 C 
ENDBRANCH  16  22
BRANCH  17  24
HETATM   24  O3  UNL     1      -3.377   1.127  12.745  1.00  0.00    -0.371 OA
BRANCH  24  25
HETATM   25  C12 UNL     1      -3.707   0.474  11.633  1.00  0.00     0.146 C 
HETATM   26  C13 UNL     1      -4.069  -1.001  11.855  1.00  0.00     0.042 C 
BRANCH  25  27
HETATM   27  C14 UNL     1      -2.490   0.453  10.721  1.00  0.00     0.253 C 
HETATM   28  F1  UNL     1      -1.338   0.673  11.453  1.00  0.00    -0.253 F 
ENDBRANCH  25  27
ENDBRANCH  24  25
ENDBRANCH  17  24
ENDBRANCH   1  13
BRANCH   6  29
HETATM   29  N4  UNL     1      -0.090   5.496   8.112  1.00  0.00    -0.383 N 
ATOM     30  H42 UNL     1      -0.199   4.881   7.306  1.00  0.00     0.157 HD
ATOM     31  H41 UNL     1      -0.068   6.503   7.951  1.00  0.00     0.157 HD
ENDBRANCH   6  29
BRANCH   9  32
HETATM   32  N6  UNL     1       2.402   4.413  11.867  1.00  0.00    -0.234 N 
ATOM     33  H62 UNL     1       3.241   4.244  11.312  1.00  0.00     0.174 HD
ATOM     34  H61 UNL     1       2.484   4.484  12.881  1.00  0.00     0.174 HD
ENDBRANCH   9  32
TORSDOF 8
ENDMDL
MODEL 4
REMARK VINA RESULT: -6.313590489      3.839      6.759
REMARK  8 active torsions:
REMARK  status: ('A' for Active; 'I' for Inactive)
REMARK    1  A    between atoms: O1_2  and  C2_3 
REMARK    2  A    between atoms: C3_5  and  C4_6 
REMARK    3  A    between atoms: C5_10  and  N2_11 
REMARK    4  A    between atoms: C8_16  and  N4_17 
REMARK    5  A    between atoms: C9_22  and  N6_23 
REMARK    6  A    between atoms: C11_29  and  O3_30 
REMARK    7  A    between atoms: O3_30  and  C12_31 
REMARK    8  A    between atoms: C12_31  and  C14_33 
ROOT
HETATM    1  N2  UNL     1      -2.297   3.471  11.481  1.00  0.00    -0.317 N 
HETATM    2  C6  UNL     1      -3.088   3.713  10.385  1.00  0.00     0.185 A 
HETATM    3  N3  UNL     1      -2.377   4.258   9.393  1.00  0.00    -0.346 N 
ATOM      4  H3  UNL     1      -2.732   4.531   8.476  1.00  0.00     0.167 HD
HETATM    5  C7  UNL     1      -1.119   4.380   9.821  1.00  0.00     0.123 A 
HETATM    6  C8  UNL     1       0.028   4.871   9.226  1.00  0.00     0.145 A 
HETATM    7  N5  UNL     1       1.169   4.859   9.935  1.00  0.00    -0.175 N 
ATOM      8  H5  UNL     1       2.018   5.220   9.502  1.00  0.00     0.186 HD
HETATM    9  C9  UNL     1       1.235   4.389  11.192  1.00  0.00     0.679 A 
HETATM   10  N7  UNL     1       0.108   3.906  11.778  1.00  0.00    -0.174 N 
ATOM     11  H7  UNL     1       0.153   3.549  12.731  1.00  0.00     0.186 HD
HETATM   12  C10 UNL     1      -1.071   3.891  11.118  1.00  0.00     0.155 A 
ENDROOT
BRANCH   1  13
HETATM   13  C5  UNL     1      -2.739   2.906  12.686  1.00  0.00     0.160 C 
HETATM   14  C3  UNL     1      -3.301   3.782  13.751  1.00  0.00     0.188 C 
HETATM   15  O2  UNL     1      -4.621   3.357  13.898  1.00  0.00    -0.346 OA
HETATM   16  C2  UNL     1      -4.465   1.966  13.906  1.00  0.00     0.291 C 
HETATM   17  C11 UNL     1      -3.721   1.773  12.621  1.00  0.00     0.203 C 
BRANCH  14  18
HETATM   18  C4  UNL     1      -3.151   5.228  13.544  1.00  0.00     0.087 C 
HETATM   19  N1  UNL     1      -2.206   5.899  14.032  1.00  0.00    -0.409 N 
ATOM     20  H12 UNL     1      -1.519   5.398  14.597  1.00  0.00     0.155 HD
ATOM     21  H11 UNL     1      -2.102   6.903  13.889  1.00  0.00     0.155 HD
ENDBRANCH  14  18
BRANCH  16  22
HETATM   22  O1  UNL     1      -3.712   1.679  15.035  1.00  0.00    -0.363 OA
HETATM   23  C1  UNL     1      -4.366   0.754  15.820  1.00  0.00     0.204 C 
ENDBRANCH  16  22
BRANCH  17  24
HETATM   24  O3  UNL     1      -3.223   0.558  12.360  1.00  0.00    -0.371 OA
BRANCH  24  25
HETATM   25  C12 UNL     1      -3.545  -0.133  11.269  1.00  0.00     0.146 C 
HETATM   26  C13 UNL     1      -4.880   0.282  10.634  1.00  0.00     0.042 C 
BRANCH  25  27
HETATM   27  C14 UNL     1      -3.729  -1.588  11.671  1.00  0.00     0.253 C 
HETATM   28  F1  UNL     1      -2.621  -2.329  11.307  1.00  0.00    -0.253 F 
ENDBRANCH  25  27
ENDBRANCH  24  25
ENDBRANCH  17  24
ENDBRANCH   1  13
BRANCH   6  29
HETATM   29  N4  UNL     1      -0.053   5.315   8.028  1.00  0.00    -0.383 N 
ATOM     30  H42 UNL     1      -0.879   5.200   7.440  1.00  0.00     0.157 HD
ATOM     31  H41 UNL     1       0.750   5.809   7.640  1.00  0.00     0.157 HD
ENDBRANCH   6  29
BRANCH   9  32
HETATM   32  N6  UNL     1       2.314   4.364  11.898  1.00  0.00    -0.234 N 
ATOM     33  H62 UNL     1       2.833   5.238  11.975  1.00  0.00     0.174 HD
ATOM     34  H61 UNL     1       2.667   3.532  12.372  1.00  0.00     0.174 HD
ENDBRANCH   9  32
TORSDOF 8
ENDMDL
MODEL 5
REMARK VINA RESULT: -6.276375407      2.127      3.843
REMARK  8 active torsions:
REMARK  status: ('A' for Active; 'I' for Inactive)
REMARK    1  A    between atoms: O1_2  and  C2_3 
REMARK    2  A    between atoms: C3_5  and  C4_6 
REMARK    3  A    between atoms: C5_10  and  N2_11 
REMARK    4  A    between atoms: C8_16  and  N4_17 
REMARK    5  A    between atoms: C9_22  and  N6_23 
REMARK    6  A    between atoms: C11_29  and  O3_30 
REMARK    7  A    between atoms: O3_30  and  C12_31 
REMARK    8  A    between atoms: C12_31  and  C14_33 
ROOT
HETATM    1  N2  UNL     1      -4.396   3.713  13.229  1.00  0.00    -0.317 N 
HETATM    2  C6  UNL     1      -5.174   4.827  13.427  1.00  0.00     0.185 A 
HETATM    3  N3  UNL     1      -5.954   4.682  14.503  1.00  0.00    -0.346 N 
ATOM      4  H3  UNL     1      -6.621   5.365  14.862  1.00  0.00     0.167 HD
HETATM    5  C7  UNL     1      -5.700   3.478  15.022  1.00  0.00     0.123 A 
HETATM    6  C8  UNL     1      -6.205   2.808  16.121  1.00  0.00     0.145 A 
HETATM    7  N5  UNL     1      -5.735   1.578  16.388  1.00  0.00    -0.175 N 
ATOM      8  H5  UNL     1      -6.104   1.079  17.197  1.00  0.00     0.186 HD
HETATM    9  C9  UNL     1      -4.798   0.981  15.633  1.00  0.00     0.679 A 
HETATM   10  N7  UNL     1      -4.301   1.639  14.553  1.00  0.00    -0.174 N 
ATOM     11  H7  UNL     1      -3.590   1.190  13.977  1.00  0.00     0.186 HD
HETATM   12  C10 UNL     1      -4.732   2.878  14.230  1.00  0.00     0.155 A 
ENDROOT
BRANCH   1  13
HETATM   13  C5  UNL     1      -3.472   3.549  12.188  1.00  0.00     0.160 C 
HETATM   14  C3  UNL     1      -2.083   4.063  12.344  1.00  0.00     0.188 C 
HETATM   15  O2  UNL     1      -1.276   2.927  12.279  1.00  0.00    -0.346 OA
HETATM   16  C2  UNL     1      -1.838   2.251  11.189  1.00  0.00     0.291 C 
HETATM   17  C11 UNL     1      -3.265   2.170  11.632  1.00  0.00     0.203 C 
BRANCH  14  18
HETATM   18  C4  UNL     1      -1.836   4.912  13.517  1.00  0.00     0.087 C 
HETATM   19  N1  UNL     1      -1.421   4.463  14.616  1.00  0.00    -0.409 N 
ATOM     20  H12 UNL     1      -1.253   3.459  14.679  1.00  0.00     0.155 HD
ATOM     21  H11 UNL     1      -1.250   5.053  15.430  1.00  0.00     0.155 HD
ENDBRANCH  14  18
BRANCH  16  22
HETATM   22  O1  UNL     1      -1.639   3.076  10.092  1.00  0.00    -0.363 OA
HETATM   23  C1  UNL     1      -0.326   3.008   9.677  1.00  0.00     0.204 C 
ENDBRANCH  16  22
BRANCH  17  24
HETATM   24  O3  UNL     1      -4.173   1.734  10.749  1.00  0.00    -0.371 OA
BRANCH  24  25
HETATM   25  C12 UNL     1      -4.659   0.496  10.769  1.00  0.00     0.146 C 
HETATM   26  C13 UNL     1      -4.547  -0.202  12.132  1.00  0.00     0.042 C 
BRANCH  25  27
HETATM   27  C14 UNL     1      -3.829  -0.352   9.817  1.00  0.00     0.253 C 
HETATM   28  F1  UNL     1      -3.149  -1.331  10.516  1.00  0.00    -0.253 F 
ENDBRANCH  25  27
ENDBRANCH  24  25
ENDBRANCH  17  24
ENDBRANCH   1  13
BRANCH   6  29
HETATM   29  N4  UNL     1      -7.097   3.392  16.829  1.00  0.00    -0.383 N 
ATOM     30  H42 UNL     1      -8.079   3.454  16.559  1.00  0.00     0.157 HD
ATOM     31  H41 UNL     1      -6.811   3.818  17.711  1.00  0.00     0.157 HD
ENDBRANCH   6  29
BRANCH   9  32
HETATM   32  N6  UNL     1      -4.328  -0.197  15.863  1.00  0.00    -0.234 N 
ATOM     33  H62 UNL     1      -4.926  -0.838  16.384  1.00  0.00     0.174 HD
ATOM     34  H61 UNL     1      -3.407  -0.514  15.558  1.00  0.00     0.174 HD
ENDBRANCH   9  32
TORSDOF 8
ENDMDL
