MODEL 1
REMARK VINA RESULT: -7.511877292      0.000      0.000
REMARK  8 active torsions:
REMARK  status: ('A' for Active; 'I' for Inactive)
REMARK    1  A    between atoms: C3_4  and  C4_5 
REMARK    2  A    between atoms: C4_5  and  S1_6 
REMARK    3  A    between atoms: S1_6  and  C5_7 
REMARK    4  A    between atoms: C5_7  and  C6_8 
REMARK    5  A    between atoms: C8_11  and  O2_12 
REMARK    6  A    between atoms: C9_14  and  O3_15 
REMARK    7  A    between atoms: C10_18  and  N1_19 
REMARK    8  A    between atoms: C12_23  and  C13_24 
ROOT
HETATM    1  C1  UNL     1      -2.964   6.968  14.611  1.00  0.00     0.059 C 
HETATM    2  C2  UNL     1      -3.539   5.807  13.827  1.00  0.00     0.170 C 
HETATM    3  F1  UNL     1      -2.708   4.740  13.698  1.00  0.00    -0.236 F 
HETATM    4  C3  UNL     1      -4.046   6.214  12.445  1.00  0.00     0.177 C 
HETATM    5  O4  UNL     1      -5.047   5.251  12.615  1.00  0.00    -0.353 OA
HETATM    6  C10 UNL     1      -4.993   5.573  13.987  1.00  0.00     0.270 C 
ENDROOT
BRANCH   4   7
HETATM    7  C4  UNL     1      -3.025   5.848  11.388  1.00  0.00     0.109 C 
BRANCH   7   8
HETATM    8  S1  UNL     1      -3.537   4.452  10.370  1.00  0.00    -0.164 SA
BRANCH   8   9
HETATM    9  C5  UNL     1      -2.878   2.887  10.958  1.00  0.00     0.108 C 
BRANCH   9  10
HETATM   10  C6  UNL     1      -3.884   2.000  11.621  1.00  0.00     0.162 C 
HETATM   11  O1  UNL     1      -3.494   1.510  12.844  1.00  0.00    -0.380 OA
HETATM   12  C7  UNL     1      -4.134   0.303  13.043  1.00  0.00     0.202 C 
HETATM   13  C8  UNL     1      -4.309  -0.336  11.685  1.00  0.00     0.173 C 
HETATM   14  C9  UNL     1      -4.126   0.807  10.744  1.00  0.00     0.178 C 
BRANCH  13  15
HETATM   15  O2  UNL     1      -3.354  -1.331  11.503  1.00  0.00    -0.391 OA
ATOM     16  H2  UNL     1      -3.242  -1.822  12.309  1.00  0.00     0.210 HD
ENDBRANCH  13  15
BRANCH  14  17
HETATM   17  O3  UNL     1      -3.092   0.627   9.832  1.00  0.00    -0.390 OA
ATOM     18  H3  UNL     1      -3.033  -0.278   9.547  1.00  0.00     0.210 HD
ENDBRANCH  14  17
ENDBRANCH   9  10
ENDBRANCH   8   9
ENDBRANCH   7   8
ENDBRANCH   4   7
BRANCH   6  19
HETATM   19  N1  UNL     1      -5.476   4.591  14.876  1.00  0.00    -0.320 N 
HETATM   20  C11 UNL     1      -6.518   4.817  15.732  1.00  0.00     0.185 A 
HETATM   21  N2  UNL     1      -6.746   3.702  16.447  1.00  0.00    -0.346 N 
HETATM   22  C12 UNL     1      -5.874   2.750  16.077  1.00  0.00     0.126 A 
ATOM     23  H2  UNL     1      -7.469   3.595  17.159  1.00  0.00     0.167 HD
HETATM   24  C14 UNL     1      -5.086   3.333  15.088  1.00  0.00     0.131 A 
BRANCH  22  25
HETATM   25  C13 UNL     1      -5.746   1.383  16.579  1.00  0.00     0.228 C 
HETATM   26  O5  UNL     1      -4.616   0.953  16.907  1.00  0.00    -0.643 OA
HETATM   27  O6  UNL     1      -6.862   0.569  16.691  1.00  0.00    -0.643 OA
ENDBRANCH  22  25
ENDBRANCH   6  19
TORSDOF 8
ENDMDL
MODEL 2
REMARK VINA RESULT: -7.223587823      1.299      1.536
REMARK  8 active torsions:
REMARK  status: ('A' for Active; 'I' for Inactive)
REMARK    1  A    between atoms: C3_4  and  C4_5 
REMARK    2  A    between atoms: C4_5  and  S1_6 
REMARK    3  A    between atoms: S1_6  and  C5_7 
REMARK    4  A    between atoms: C5_7  and  C6_8 
REMARK    5  A    between atoms: C8_11  and  O2_12 
REMARK    6  A    between atoms: C9_14  and  O3_15 
REMARK    7  A    between atoms: C10_18  and  N1_19 
REMARK    8  A    between atoms: C12_23  and  C13_24 
ROOT
HETATM    1  C1  UNL     1      -2.789   7.307  14.774  1.00  0.00     0.059 C 
HETATM    2  C2  UNL     1      -2.904   6.033  13.966  1.00  0.00     0.170 C 
HETATM    3  F1  UNL     1      -1.910   5.132  14.178  1.00  0.00    -0.236 F 
HETATM    4  C3  UNL     1      -3.034   6.288  12.466  1.00  0.00     0.177 C 
HETATM    5  O4  UNL     1      -3.869   5.165  12.426  1.00  0.00    -0.353 OA
HETATM    6  C10 UNL     1      -4.281   5.543  13.721  1.00  0.00     0.270 C 
ENDROOT
BRANCH   4   7
HETATM    7  C4  UNL     1      -1.699   6.076  11.784  1.00  0.00     0.109 C 
BRANCH   7   8
HETATM    8  S1  UNL     1      -1.167   4.355  11.801  1.00  0.00    -0.164 SA
BRANCH   8   9
HETATM    9  C5  UNL     1      -2.113   3.324  10.672  1.00  0.00     0.108 C 
BRANCH   9  10
HETATM   10  C6  UNL     1      -2.691   2.092  11.294  1.00  0.00     0.162 C 
HETATM   11  O1  UNL     1      -2.350   0.921  10.663  1.00  0.00    -0.380 OA
HETATM   12  C7  UNL     1      -3.362   0.008  10.882  1.00  0.00     0.202 C 
HETATM   13  C8  UNL     1      -4.652   0.790  10.977  1.00  0.00     0.173 C 
HETATM   14  C9  UNL     1      -4.187   2.183  11.240  1.00  0.00     0.178 C 
BRANCH  13  15
HETATM   15  O2  UNL     1      -5.360   0.682   9.786  1.00  0.00    -0.391 OA
ATOM     16  H2  UNL     1      -6.275   0.893   9.932  1.00  0.00     0.210 HD
ENDBRANCH  13  15
BRANCH  14  17
HETATM   17  O3  UNL     1      -4.608   3.106  10.289  1.00  0.00    -0.390 OA
ATOM     18  H3  UNL     1      -5.512   2.958  10.035  1.00  0.00     0.210 HD
ENDBRANCH  14  17
ENDBRANCH   9  10
ENDBRANCH   8   9
ENDBRANCH   7   8
ENDBRANCH   4   7
BRANCH   6  19
HETATM   19  N1  UNL     1      -4.841   4.523  14.518  1.00  0.00    -0.320 N 
HETATM   20  C11 UNL     1      -6.082   4.623  15.083  1.00  0.00     0.185 A 
HETATM   21  N2  UNL     1      -6.336   3.503  15.780  1.00  0.00    -0.346 N 
HETATM   22  C12 UNL     1      -5.286   2.671  15.684  1.00  0.00     0.126 A 
ATOM     23  H2  UNL     1      -7.193   3.314  16.301  1.00  0.00     0.167 HD
HETATM   24  C14 UNL     1      -4.358   3.335  14.886  1.00  0.00     0.131 A 
BRANCH  22  25
HETATM   25  C13 UNL     1      -5.114   1.345  16.275  1.00  0.00     0.228 C 
HETATM   26  O5  UNL     1      -3.959   0.930  16.528  1.00  0.00    -0.643 OA
HETATM   27  O6  UNL     1      -6.216   0.552  16.554  1.00  0.00    -0.643 OA
ENDBRANCH  22  25
ENDBRANCH   6  19
TORSDOF 8
ENDMDL
MODEL 3
REMARK VINA RESULT: -6.957159469      2.672      4.618
REMARK  8 active torsions:
REMARK  status: ('A' for Active; 'I' for Inactive)
REMARK    1  A    between atoms: C3_4  and  C4_5 
REMARK    2  A    between atoms: C4_5  and  S1_6 
REMARK    3  A    between atoms: S1_6  and  C5_7 
REMARK    4  A    between atoms: C5_7  and  C6_8 
REMARK    5  A    between atoms: C8_11  and  O2_12 
REMARK    6  A    between atoms: C9_14  and  O3_15 
REMARK    7  A    between atoms: C10_18  and  N1_19 
REMARK    8  A    between atoms: C12_23  and  C13_24 
ROOT
HETATM    1  C1  UNL     1      -2.650   6.941  14.297  1.00  0.00     0.059 C 
HETATM    2  C2  UNL     1      -3.241   5.834  13.450  1.00  0.00     0.170 C 
HETATM    3  F1  UNL     1      -2.395   4.805  13.185  1.00  0.00    -0.236 F 
HETATM    4  C3  UNL     1      -3.835   6.341  12.137  1.00  0.00     0.177 C 
HETATM    5  O4  UNL     1      -4.802   5.340  12.279  1.00  0.00    -0.353 OA
HETATM    6  C10 UNL     1      -4.679   5.548  13.668  1.00  0.00     0.270 C 
ENDROOT
BRANCH   4   7
HETATM    7  C4  UNL     1      -2.867   6.092  10.998  1.00  0.00     0.109 C 
BRANCH   7   8
HETATM    8  S1  UNL     1      -2.933   7.370   9.730  1.00  0.00    -0.164 SA
BRANCH   8   9
HETATM    9  C5  UNL     1      -4.437   7.298   8.748  1.00  0.00     0.108 C 
BRANCH   9  10
HETATM   10  C6  UNL     1      -5.518   8.227   9.204  1.00  0.00     0.162 C 
HETATM   11  O1  UNL     1      -5.167   9.041  10.253  1.00  0.00    -0.380 OA
HETATM   12  C7  UNL     1      -6.314   9.348  10.957  1.00  0.00     0.202 C 
HETATM   13  C8  UNL     1      -7.238   8.158  10.841  1.00  0.00     0.173 C 
HETATM   14  C9  UNL     1      -6.687   7.411   9.673  1.00  0.00     0.178 C 
BRANCH  13  15
HETATM   15  O2  UNL     1      -7.200   7.412  12.014  1.00  0.00    -0.391 OA
ATOM     16  H2  UNL     1      -6.500   6.772  11.968  1.00  0.00     0.210 HD
ENDBRANCH  13  15
BRANCH  14  17
HETATM   17  O3  UNL     1      -6.311   6.104   9.966  1.00  0.00    -0.390 OA
ATOM     18  H3  UNL     1      -6.600   5.500   9.292  1.00  0.00     0.210 HD
ENDBRANCH  14  17
ENDBRANCH   9  10
ENDBRANCH   8   9
ENDBRANCH   7   8
ENDBRANCH   4   7
BRANCH   6  19
HETATM   19  N1  UNL     1      -5.088   4.483  14.496  1.00  0.00    -0.320 N 
HETATM   20  C11 UNL     1      -6.309   4.451  15.110  1.00  0.00     0.185 A 
HETATM   21  N2  UNL     1      -6.409   3.319  15.827  1.00  0.00    -0.346 N 
HETATM   22  C12 UNL     1      -5.277   2.608  15.695  1.00  0.00     0.126 A 
ATOM     23  H2  UNL     1      -7.218   3.042  16.383  1.00  0.00     0.167 HD
HETATM   24  C14 UNL     1      -4.462   3.361  14.854  1.00  0.00     0.131 A 
BRANCH  22  25
HETATM   25  C13 UNL     1      -4.934   1.317  16.290  1.00  0.00     0.228 C 
HETATM   26  O5  UNL     1      -3.732   0.972  16.358  1.00  0.00    -0.643 OA
HETATM   27  O6  UNL     1      -5.928   0.481  16.774  1.00  0.00    -0.643 OA
ENDBRANCH  22  25
ENDBRANCH   6  19
TORSDOF 8
ENDMDL
MODEL 4
REMARK VINA RESULT: -6.905694704      2.544      3.607
REMARK  8 active torsions:
REMARK  status: ('A' for Active; 'I' for Inactive)
REMARK    1  A    between atoms: C3_4  and  C4_5 
REMARK    2  A    between atoms: C4_5  and  S1_6 
REMARK    3  A    between atoms: S1_6  and  C5_7 
REMARK    4  A    between atoms: C5_7  and  C6_8 
REMARK    5  A    between atoms: C8_11  and  O2_12 
REMARK    6  A    between atoms: C9_14  and  O3_15 
REMARK    7  A    between atoms: C10_18  and  N1_19 
REMARK    8  A    between atoms: C12_23  and  C13_24 
ROOT
HETATM    1  C1  UNL     1      -5.244   6.033  13.258  1.00  0.00     0.059 C 
HETATM    2  C2  UNL     1      -4.056   5.308  13.854  1.00  0.00     0.170 C 
HETATM    3  F1  UNL     1      -3.766   5.646  15.137  1.00  0.00    -0.236 F 
HETATM    4  C3  UNL     1      -2.791   5.439  13.007  1.00  0.00     0.177 C 
HETATM    5  O4  UNL     1      -2.477   4.137  13.414  1.00  0.00    -0.353 OA
HETATM    6  C10 UNL     1      -3.868   3.904  13.418  1.00  0.00     0.270 C 
ENDROOT
BRANCH   4   7
HETATM    7  C4  UNL     1      -1.879   6.496  13.594  1.00  0.00     0.109 C 
BRANCH   7   8
HETATM    8  S1  UNL     1      -0.748   7.199  12.381  1.00  0.00    -0.164 SA
BRANCH   8   9
HETATM    9  C5  UNL     1       0.459   6.009  11.784  1.00  0.00     0.108 C 
BRANCH   9  10
HETATM   10  C6  UNL     1       0.069   5.314  10.517  1.00  0.00     0.162 C 
HETATM   11  O1  UNL     1      -1.177   5.646  10.045  1.00  0.00    -0.380 OA
HETATM   12  C7  UNL     1      -1.661   4.571   9.326  1.00  0.00     0.202 C 
HETATM   13  C8  UNL     1      -1.100   3.322   9.963  1.00  0.00     0.173 C 
HETATM   14  C9  UNL     1       0.048   3.835  10.767  1.00  0.00     0.178 C 
BRANCH  13  15
HETATM   15  O2  UNL     1      -2.071   2.716  10.752  1.00  0.00    -0.391 OA
ATOM     16  H2  UNL     1      -2.055   3.085  11.627  1.00  0.00     0.210 HD
ENDBRANCH  13  15
BRANCH  14  17
HETATM   17  O3  UNL     1      -0.042   3.548  12.125  1.00  0.00    -0.390 OA
ATOM     18  H3  UNL     1       0.687   3.014  12.417  1.00  0.00     0.210 HD
ENDBRANCH  14  17
ENDBRANCH   9  10
ENDBRANCH   8   9
ENDBRANCH   7   8
ENDBRANCH   4   7
BRANCH   6  19
HETATM   19  N1  UNL     1      -4.317   2.831  14.215  1.00  0.00    -0.320 N 
HETATM   20  C11 UNL     1      -4.086   1.523  13.893  1.00  0.00     0.185 A 
HETATM   21  N2  UNL     1      -4.631   0.737  14.838  1.00  0.00    -0.346 N 
HETATM   22  C12 UNL     1      -5.215   1.505  15.772  1.00  0.00     0.126 A 
ATOM     23  H2  UNL     1      -4.604  -0.283  14.844  1.00  0.00     0.167 HD
HETATM   24  C14 UNL     1      -5.005   2.817  15.358  1.00  0.00     0.131 A 
BRANCH  22  25
HETATM   25  C13 UNL     1      -5.930   1.091  16.978  1.00  0.00     0.228 C 
HETATM   26  O5  UNL     1      -5.288   0.897  18.036  1.00  0.00    -0.643 OA
HETATM   27  O6  UNL     1      -7.305   0.913  16.954  1.00  0.00    -0.643 OA
ENDBRANCH  22  25
ENDBRANCH   6  19
TORSDOF 8
ENDMDL
MODEL 5
REMARK VINA RESULT: -6.813410199      3.159      5.387
REMARK  8 active torsions:
REMARK  status: ('A' for Active; 'I' for Inactive)
REMARK    1  A    between atoms: C3_4  and  C4_5 
REMARK    2  A    between atoms: C4_5  and  S1_6 
REMARK    3  A    between atoms: S1_6  and  C5_7 
REMARK    4  A    between atoms: C5_7  and  C6_8 
REMARK    5  A    between atoms: C8_11  and  O2_12 
REMARK    6  A    between atoms: C9_14  and  O3_15 
REMARK    7  A    between atoms: C10_18  and  N1_19 
REMARK    8  A    between atoms: C12_23  and  C13_24 
ROOT
HETATM    1  C1  UNL     1      -1.725   5.729  11.336  1.00  0.00     0.059 C 
HETATM    2  C2  UNL     1      -2.880   4.925  10.777  1.00  0.00     0.170 C 
HETATM    3  F1  UNL     1      -2.522   3.933   9.920  1.00  0.00    -0.236 F 
HETATM    4  C3  UNL     1      -3.947   5.795  10.116  1.00  0.00     0.177 C 
HETATM    5  O4  UNL     1      -4.884   4.870  10.592  1.00  0.00    -0.353 OA
HETATM    6  C10 UNL     1      -4.022   4.707  11.696  1.00  0.00     0.270 C 
ENDROOT
BRANCH   4   7
HETATM    7  C4  UNL     1      -3.780   5.769   8.611  1.00  0.00     0.109 C 
BRANCH   7   8
HETATM    8  S1  UNL     1      -4.019   7.384   7.850  1.00  0.00    -0.164 SA
BRANCH   8   9
HETATM    9  C5  UNL     1      -5.754   7.826   7.689  1.00  0.00     0.108 C 
BRANCH   9  10
HETATM   10  C6  UNL     1      -6.289   8.654   8.815  1.00  0.00     0.162 C 
HETATM   11  O1  UNL     1      -5.343   9.058   9.726  1.00  0.00    -0.380 OA
HETATM   12  C7  UNL     1      -5.969   9.226  10.945  1.00  0.00     0.202 C 
HETATM   13  C8  UNL     1      -7.095   8.221  11.007  1.00  0.00     0.173 C 
HETATM   14  C9  UNL     1      -7.290   7.838   9.579  1.00  0.00     0.178 C 
BRANCH  13  15
HETATM   15  O2  UNL     1      -6.723   7.141  11.801  1.00  0.00    -0.391 OA
ATOM     16  H2  UNL     1      -5.794   7.185  11.992  1.00  0.00     0.210 HD
ENDBRANCH  13  15
BRANCH  14  17
HETATM   17  O3  UNL     1      -7.132   6.478   9.334  1.00  0.00    -0.390 OA
ATOM     18  H3  UNL     1      -7.321   6.263   8.428  1.00  0.00     0.210 HD
ENDBRANCH  14  17
ENDBRANCH   9  10
ENDBRANCH   8   9
ENDBRANCH   7   8
ENDBRANCH   4   7
BRANCH   6  19
HETATM   19  N1  UNL     1      -4.154   3.502  12.416  1.00  0.00    -0.320 N 
HETATM   20  C11 UNL     1      -4.499   2.320  11.822  1.00  0.00     0.185 A 
HETATM   21  N2  UNL     1      -4.545   1.357  12.758  1.00  0.00    -0.346 N 
HETATM   22  C12 UNL     1      -4.238   1.885  13.954  1.00  0.00     0.126 A 
ATOM     23  H2  UNL     1      -4.777   0.379  12.587  1.00  0.00     0.167 HD
HETATM   24  C14 UNL     1      -3.997   3.235  13.714  1.00  0.00     0.131 A 
BRANCH  22  25
HETATM   25  C13 UNL     1      -4.162   1.220  15.254  1.00  0.00     0.228 C 
HETATM   26  O5  UNL     1      -3.396   1.676  16.134  1.00  0.00    -0.643 OA
HETATM   27  O6  UNL     1      -4.929   0.094  15.513  1.00  0.00    -0.643 OA
ENDBRANCH  22  25
ENDBRANCH   6  19
TORSDOF 8
ENDMDL
