MODEL 1
REMARK VINA RESULT: -7.751051388      0.000      0.000
REMARK  10 active torsions:
REMARK  status: ('A' for Active; 'I' for Inactive)
REMARK    1  A    between atoms: C2_2  and  C3_3 
REMARK    2  A    between atoms: C3_3  and  C4_4 
REMARK    3  A    between atoms: C4_4  and  C5_5 
REMARK    4  A    between atoms: C5_5  and  C6_6 
REMARK    5  A    between atoms: C6_6  and  O1_7 
REMARK    6  A    between atoms: C6_6  and  O2_9 
REMARK    7  A    between atoms: O2_9  and  C7_10 
REMARK    8  A    between atoms: C8_11  and  O3_12 
REMARK    9  A    between atoms: C14_22  and  O7_23 
REMARK   10  A    between atoms: C15_25  and  O8_26 
ROOT
HETATM    1  C7  UNL     1      -4.269   2.632  14.830  1.00  0.00     0.100 C 
HETATM    2  C8  UNL     1      -4.903   2.133  15.867  1.00  0.00     0.174 C 
HETATM    3  C10 UNL     1      -5.150   0.699  15.940  1.00  0.00     0.321 C 
HETATM    4  O4  UNL     1      -5.755   0.196  16.927  1.00  0.00    -0.257 OA
HETATM    5  O5  UNL     1      -4.681  -0.078  14.863  1.00  0.00    -0.283 OA
HETATM    6  C11 UNL     1      -4.675   0.579  13.582  1.00  0.00     0.286 C 
HETATM    7  O6  UNL     1      -4.199  -0.314  12.627  1.00  0.00    -0.317 OA
HETATM    8  C12 UNL     1      -3.830   0.270  11.452  1.00  0.00     0.231 C 
HETATM    9  C13 UNL     1      -4.995   0.785  10.629  1.00  0.00     0.087 C 
HETATM   10  F1  UNL     1      -3.207  -0.702  10.674  1.00  0.00    -0.209 F 
HETATM   11  C14 UNL     1      -2.815   1.390  11.611  1.00  0.00     0.214 C 
HETATM   12  C15 UNL     1      -3.531   2.470  12.441  1.00  0.00     0.167 C 
HETATM   13  C16 UNL     1      -3.799   1.771  13.756  1.00  0.00     0.133 C 
ENDROOT
BRANCH   1  14
HETATM   14  O2  UNL     1      -4.074   4.027  14.827  1.00  0.00    -0.321 OA
BRANCH  14  15
HETATM   15  C6  UNL     1      -5.072   4.954  14.524  1.00  0.00     0.263 C 
BRANCH  15  16
HETATM   16  C5  UNL     1      -4.385   6.129  13.834  1.00  0.00     0.061 C 
BRANCH  16  17
HETATM   17  C4  UNL     1      -3.207   6.527  14.644  1.00  0.00     0.005 C 
BRANCH  17  18
HETATM   18  C3  UNL     1      -2.003   7.040  13.976  1.00  0.00    -0.000 C 
BRANCH  18  19
HETATM   19  C2  UNL     1      -1.623   8.460  14.141  1.00  0.00    -0.005 C 
HETATM   20  C1  UNL     1      -1.653   9.043  15.508  1.00  0.00     0.005 C 
ENDBRANCH  18  19
ENDBRANCH  17  18
ENDBRANCH  16  17
ENDBRANCH  15  16
BRANCH  15  21
HETATM   21  O1  UNL     1      -6.108   4.464  13.742  1.00  0.00    -0.371 OA
ATOM     22  H1  UNL     1      -6.635   3.846  14.233  1.00  0.00     0.212 HD
ENDBRANCH  15  21
ENDBRANCH  14  15
ENDBRANCH   1  14
BRANCH   2  23
HETATM   23  O3  UNL     1      -5.339   2.992  16.891  1.00  0.00    -0.348 OA
HETATM   24  C9  UNL     1      -6.757   3.171  17.001  1.00  0.00     0.210 C 
ENDBRANCH   2  23
BRANCH  12  25
HETATM   25  O8  UNL     1      -2.742   3.572  12.661  1.00  0.00    -0.392 OA
ATOM     26  H8  UNL     1      -3.132   4.371  12.326  1.00  0.00     0.210 HD
ENDBRANCH  12  25
BRANCH  11  27
HETATM   27  O7  UNL     1      -2.412   1.850  10.391  1.00  0.00    -0.387 OA
ATOM     28  H7  UNL     1      -1.500   2.118  10.420  1.00  0.00     0.210 HD
ENDBRANCH  11  27
TORSDOF 10
ENDMDL
MODEL 2
REMARK VINA RESULT: -7.717052995      2.842      5.722
REMARK  10 active torsions:
REMARK  status: ('A' for Active; 'I' for Inactive)
REMARK    1  A    between atoms: C2_2  and  C3_3 
REMARK    2  A    between atoms: C3_3  and  C4_4 
REMARK    3  A    between atoms: C4_4  and  C5_5 
REMARK    4  A    between atoms: C5_5  and  C6_6 
REMARK    5  A    between atoms: C6_6  and  O1_7 
REMARK    6  A    between atoms: C6_6  and  O2_9 
REMARK    7  A    between atoms: O2_9  and  C7_10 
REMARK    8  A    between atoms: C8_11  and  O3_12 
REMARK    9  A    between atoms: C14_22  and  O7_23 
REMARK   10  A    between atoms: C15_25  and  O8_26 
ROOT
HETATM    1  C7  UNL     1      -4.446   3.206  13.650  1.00  0.00     0.100 C 
HETATM    2  C8  UNL     1      -4.713   4.267  12.924  1.00  0.00     0.174 C 
HETATM    3  C10 UNL     1      -5.468   5.369  13.505  1.00  0.00     0.321 C 
HETATM    4  O4  UNL     1      -5.735   6.400  12.827  1.00  0.00    -0.257 OA
HETATM    5  O5  UNL     1      -5.874   5.219  14.844  1.00  0.00    -0.283 OA
HETATM    6  C11 UNL     1      -6.152   3.868  15.259  1.00  0.00     0.286 C 
HETATM    7  O6  UNL     1      -6.548   3.886  16.593  1.00  0.00    -0.317 OA
HETATM    8  C12 UNL     1      -6.519   2.665  17.200  1.00  0.00     0.231 C 
HETATM    9  C13 UNL     1      -7.598   1.715  16.721  1.00  0.00     0.087 C 
HETATM   10  F1  UNL     1      -6.751   2.862  18.558  1.00  0.00    -0.209 F 
HETATM   11  C14 UNL     1      -5.174   1.961  17.106  1.00  0.00     0.214 C 
HETATM   12  C15 UNL     1      -4.949   1.718  15.603  1.00  0.00     0.167 C 
HETATM   13  C16 UNL     1      -4.884   3.120  15.035  1.00  0.00     0.133 C 
ENDROOT
BRANCH   1  14
HETATM   14  O2  UNL     1      -3.718   2.180  13.018  1.00  0.00    -0.321 OA
BRANCH  14  15
HETATM   15  C6  UNL     1      -4.289   1.223  12.177  1.00  0.00     0.263 C 
BRANCH  15  16
HETATM   16  C5  UNL     1      -3.379   1.110  10.958  1.00  0.00     0.061 C 
BRANCH  16  17
HETATM   17  C4  UNL     1      -1.998   1.471  11.367  1.00  0.00     0.005 C 
BRANCH  17  18
HETATM   18  C3  UNL     1      -1.231   2.438  10.570  1.00  0.00    -0.000 C 
BRANCH  18  19
HETATM   19  C2  UNL     1      -0.290   3.359  11.245  1.00  0.00    -0.005 C 
HETATM   20  C1  UNL     1       0.523   4.277  10.406  1.00  0.00     0.005 C 
ENDBRANCH  18  19
ENDBRANCH  17  18
ENDBRANCH  16  17
ENDBRANCH  15  16
BRANCH  15  21
HETATM   21  O1  UNL     1      -4.486  -0.023  12.757  1.00  0.00    -0.371 OA
ATOM     22  H1  UNL     1      -3.662  -0.485  12.846  1.00  0.00     0.212 HD
ENDBRANCH  15  21
ENDBRANCH  14  15
ENDBRANCH   1  14
BRANCH   2  23
HETATM   23  O3  UNL     1      -4.269   4.322  11.590  1.00  0.00    -0.348 OA
HETATM   24  C9  UNL     1      -3.314   5.347  11.287  1.00  0.00     0.210 C 
ENDBRANCH   2  23
BRANCH  12  25
HETATM   25  O8  UNL     1      -3.769   1.066  15.347  1.00  0.00    -0.392 OA
ATOM     26  H8  UNL     1      -3.637   0.901  14.421  1.00  0.00     0.210 HD
ENDBRANCH  12  25
BRANCH  11  27
HETATM   27  O7  UNL     1      -5.188   0.802  17.826  1.00  0.00    -0.387 OA
ATOM     28  H7  UNL     1      -4.401   0.295  17.658  1.00  0.00     0.210 HD
ENDBRANCH  11  27
TORSDOF 10
ENDMDL
MODEL 3
REMARK VINA RESULT: -7.672362052      1.273      1.963
REMARK  10 active torsions:
REMARK  status: ('A' for Active; 'I' for Inactive)
REMARK    1  A    between atoms: C2_2  and  C3_3 
REMARK    2  A    between atoms: C3_3  and  C4_4 
REMARK    3  A    between atoms: C4_4  and  C5_5 
REMARK    4  A    between atoms: C5_5  and  C6_6 
REMARK    5  A    between atoms: C6_6  and  O1_7 
REMARK    6  A    between atoms: C6_6  and  O2_9 
REMARK    7  A    between atoms: O2_9  and  C7_10 
REMARK    8  A    between atoms: C8_11  and  O3_12 
REMARK    9  A    between atoms: C14_22  and  O7_23 
REMARK   10  A    between atoms: C15_25  and  O8_26 
ROOT
HETATM    1  C7  UNL     1      -4.279   2.664  14.843  1.00  0.00     0.100 C 
HETATM    2  C8  UNL     1      -4.920   2.175  15.880  1.00  0.00     0.174 C 
HETATM    3  C10 UNL     1      -5.173   0.743  15.964  1.00  0.00     0.321 C 
HETATM    4  O4  UNL     1      -5.784   0.250  16.952  1.00  0.00    -0.257 OA
HETATM    5  O5  UNL     1      -4.703  -0.044  14.895  1.00  0.00    -0.283 OA
HETATM    6  C11 UNL     1      -4.689   0.603  13.609  1.00  0.00     0.286 C 
HETATM    7  O6  UNL     1      -4.213  -0.300  12.663  1.00  0.00    -0.317 OA
HETATM    8  C12 UNL     1      -3.836   0.274  11.484  1.00  0.00     0.231 C 
HETATM    9  C13 UNL     1      -4.995   0.787  10.653  1.00  0.00     0.087 C 
HETATM   10  F1  UNL     1      -3.214  -0.706  10.717  1.00  0.00    -0.209 F 
HETATM   11  C14 UNL     1      -2.817   1.390  11.639  1.00  0.00     0.214 C 
HETATM   12  C15 UNL     1      -3.531   2.480  12.458  1.00  0.00     0.167 C 
HETATM   13  C16 UNL     1      -3.808   1.792  13.777  1.00  0.00     0.133 C 
ENDROOT
BRANCH   1  14
HETATM   14  O2  UNL     1      -4.078   4.058  14.829  1.00  0.00    -0.321 OA
BRANCH  14  15
HETATM   15  C6  UNL     1      -5.074   4.988  14.528  1.00  0.00     0.263 C 
BRANCH  15  16
HETATM   16  C5  UNL     1      -4.389   6.152  13.820  1.00  0.00     0.061 C 
BRANCH  16  17
HETATM   17  C4  UNL     1      -4.948   6.262  12.449  1.00  0.00     0.005 C 
BRANCH  17  18
HETATM   18  C3  UNL     1      -4.738   7.493  11.673  1.00  0.00    -0.000 C 
BRANCH  18  19
HETATM   19  C2  UNL     1      -5.879   8.114  10.965  1.00  0.00    -0.005 C 
HETATM   20  C1  UNL     1      -7.217   8.071  11.610  1.00  0.00     0.005 C 
ENDBRANCH  18  19
ENDBRANCH  17  18
ENDBRANCH  16  17
ENDBRANCH  15  16
BRANCH  15  21
HETATM   21  O1  UNL     1      -6.121   4.496  13.762  1.00  0.00    -0.371 OA
ATOM     22  H1  UNL     1      -6.183   4.965  12.939  1.00  0.00     0.212 HD
ENDBRANCH  15  21
ENDBRANCH  14  15
ENDBRANCH   1  14
BRANCH   2  23
HETATM   23  O3  UNL     1      -5.356   3.044  16.896  1.00  0.00    -0.348 OA
HETATM   24  C9  UNL     1      -6.775   3.210  17.015  1.00  0.00     0.210 C 
ENDBRANCH   2  23
BRANCH  12  25
HETATM   25  O8  UNL     1      -2.739   3.580  12.673  1.00  0.00    -0.392 OA
ATOM     26  H8  UNL     1      -1.822   3.354  12.774  1.00  0.00     0.210 HD
ENDBRANCH  12  25
BRANCH  11  27
HETATM   27  O7  UNL     1      -2.406   1.840  10.418  1.00  0.00    -0.387 OA
ATOM     28  H7  UNL     1      -1.471   1.712  10.312  1.00  0.00     0.210 HD
ENDBRANCH  11  27
TORSDOF 10
ENDMDL
MODEL 4
REMARK VINA RESULT: -7.402497326      2.592      4.947
REMARK  10 active torsions:
REMARK  status: ('A' for Active; 'I' for Inactive)
REMARK    1  A    between atoms: C2_2  and  C3_3 
REMARK    2  A    between atoms: C3_3  and  C4_4 
REMARK    3  A    between atoms: C4_4  and  C5_5 
REMARK    4  A    between atoms: C5_5  and  C6_6 
REMARK    5  A    between atoms: C6_6  and  O1_7 
REMARK    6  A    between atoms: C6_6  and  O2_9 
REMARK    7  A    between atoms: O2_9  and  C7_10 
REMARK    8  A    between atoms: C8_11  and  O3_12 
REMARK    9  A    between atoms: C14_22  and  O7_23 
REMARK   10  A    between atoms: C15_25  and  O8_26 
ROOT
HETATM    1  C7  UNL     1      -3.919   2.894  12.181  1.00  0.00     0.100 C 
HETATM    2  C8  UNL     1      -3.346   1.969  11.445  1.00  0.00     0.174 C 
HETATM    3  C10 UNL     1      -3.577   0.563  11.743  1.00  0.00     0.321 C 
HETATM    4  O4  UNL     1      -3.040  -0.344  11.049  1.00  0.00    -0.257 OA
HETATM    5  O5  UNL     1      -4.422   0.280  12.834  1.00  0.00    -0.283 OA
HETATM    6  C11 UNL     1      -4.392   1.240  13.907  1.00  0.00     0.286 C 
HETATM    7  O6  UNL     1      -5.264   0.819  14.906  1.00  0.00    -0.317 OA
HETATM    8  C12 UNL     1      -5.581   1.785  15.813  1.00  0.00     0.231 C 
HETATM    9  C13 UNL     1      -4.440   2.157  16.738  1.00  0.00     0.087 C 
HETATM   10  F1  UNL     1      -6.592   1.284  16.628  1.00  0.00    -0.209 F 
HETATM   11  C14 UNL     1      -6.138   3.056  15.193  1.00  0.00     0.214 C 
HETATM   12  C15 UNL     1      -4.998   3.616  14.325  1.00  0.00     0.167 C 
HETATM   13  C16 UNL     1      -4.793   2.534  13.287  1.00  0.00     0.133 C 
ENDROOT
BRANCH   1  14
HETATM   14  O2  UNL     1      -3.643   4.231  11.835  1.00  0.00    -0.321 OA
BRANCH  14  15
HETATM   15  C6  UNL     1      -4.335   4.942  10.853  1.00  0.00     0.263 C 
BRANCH  15  16
HETATM   16  C5  UNL     1      -3.750   6.351  10.836  1.00  0.00     0.061 C 
BRANCH  16  17
HETATM   17  C4  UNL     1      -4.715   7.268  11.493  1.00  0.00     0.005 C 
BRANCH  17  18
HETATM   18  C3  UNL     1      -5.091   8.525  10.831  1.00  0.00    -0.000 C 
BRANCH  18  19
HETATM   19  C2  UNL     1      -6.466   9.050  10.985  1.00  0.00    -0.005 C 
HETATM   20  C1  UNL     1      -7.482   8.184  11.638  1.00  0.00     0.005 C 
ENDBRANCH  18  19
ENDBRANCH  17  18
ENDBRANCH  16  17
ENDBRANCH  15  16
BRANCH  15  21
HETATM   21  O1  UNL     1      -4.293   4.380   9.585  1.00  0.00    -0.371 OA
ATOM     22  H1  UNL     1      -4.633   3.494   9.600  1.00  0.00     0.212 HD
ENDBRANCH  15  21
ENDBRANCH  14  15
ENDBRANCH   1  14
BRANCH   2  23
HETATM   23  O3  UNL     1      -2.513   2.352  10.379  1.00  0.00    -0.348 OA
HETATM   24  C9  UNL     1      -1.130   2.547  10.700  1.00  0.00     0.210 C 
ENDBRANCH   2  23
BRANCH  12  25
HETATM   25  O8  UNL     1      -5.340   4.789  13.700  1.00  0.00    -0.392 OA
ATOM     26  H8  UNL     1      -5.104   5.555  14.210  1.00  0.00     0.210 HD
ENDBRANCH  12  25
BRANCH  11  27
HETATM   27  O7  UNL     1      -6.534   3.930  16.162  1.00  0.00    -0.387 OA
ATOM     28  H7  UNL     1      -6.884   3.462  16.912  1.00  0.00     0.210 HD
ENDBRANCH  11  27
TORSDOF 10
ENDMDL
MODEL 5
REMARK VINA RESULT: -7.328656262      0.790      1.193
REMARK  10 active torsions:
REMARK  status: ('A' for Active; 'I' for Inactive)
REMARK    1  A    between atoms: C2_2  and  C3_3 
REMARK    2  A    between atoms: C3_3  and  C4_4 
REMARK    3  A    between atoms: C4_4  and  C5_5 
REMARK    4  A    between atoms: C5_5  and  C6_6 
REMARK    5  A    between atoms: C6_6  and  O1_7 
REMARK    6  A    between atoms: C6_6  and  O2_9 
REMARK    7  A    between atoms: O2_9  and  C7_10 
REMARK    8  A    between atoms: C8_11  and  O3_12 
REMARK    9  A    between atoms: C14_22  and  O7_23 
REMARK   10  A    between atoms: C15_25  and  O8_26 
ROOT
HETATM    1  C7  UNL     1      -4.289   2.783  14.313  1.00  0.00     0.100 C 
HETATM    2  C8  UNL     1      -4.875   2.371  15.414  1.00  0.00     0.174 C 
HETATM    3  C10 UNL     1      -5.025   0.944  15.663  1.00  0.00     0.321 C 
HETATM    4  O4  UNL     1      -5.583   0.524  16.715  1.00  0.00    -0.257 OA
HETATM    5  O5  UNL     1      -4.518   0.075  14.677  1.00  0.00    -0.283 OA
HETATM    6  C11 UNL     1      -4.571   0.572  13.327  1.00  0.00     0.286 C 
HETATM    7  O6  UNL     1      -4.049  -0.397  12.476  1.00  0.00    -0.317 OA
HETATM    8  C12 UNL     1      -3.733   0.064  11.232  1.00  0.00     0.231 C 
HETATM    9  C13 UNL     1      -4.940   0.400  10.378  1.00  0.00     0.087 C 
HETATM   10  F1  UNL     1      -3.056  -0.951  10.564  1.00  0.00    -0.209 F 
HETATM   11  C14 UNL     1      -2.793   1.259  11.237  1.00  0.00     0.214 C 
HETATM   12  C15 UNL     1      -3.570   2.383  11.946  1.00  0.00     0.167 C 
HETATM   13  C16 UNL     1      -3.775   1.830  13.340  1.00  0.00     0.133 C 
ENDROOT
BRANCH   1  14
HETATM   14  O2  UNL     1      -4.187   4.176  14.140  1.00  0.00    -0.321 OA
BRANCH  14  15
HETATM   15  C6  UNL     1      -2.995   4.893  14.262  1.00  0.00     0.263 C 
BRANCH  15  16
HETATM   16  C5  UNL     1      -3.370   6.288  14.753  1.00  0.00     0.061 C 
BRANCH  16  17
HETATM   17  C4  UNL     1      -2.758   7.287  13.841  1.00  0.00     0.005 C 
BRANCH  17  18
HETATM   18  C3  UNL     1      -1.542   8.001  14.253  1.00  0.00    -0.000 C 
BRANCH  18  19
HETATM   19  C2  UNL     1      -1.621   9.025  15.319  1.00  0.00    -0.005 C 
HETATM   20  C1  UNL     1      -0.549  10.051  15.392  1.00  0.00     0.005 C 
ENDBRANCH  18  19
ENDBRANCH  17  18
ENDBRANCH  16  17
ENDBRANCH  15  16
BRANCH  15  21
HETATM   21  O1  UNL     1      -2.049   4.317  15.099  1.00  0.00    -0.371 OA
ATOM     22  H1  UNL     1      -2.301   4.419  16.009  1.00  0.00     0.212 HD
ENDBRANCH  15  21
ENDBRANCH  14  15
ENDBRANCH   1  14
BRANCH   2  23
HETATM   23  O3  UNL     1      -5.355   3.317  16.337  1.00  0.00    -0.348 OA
HETATM   24  C9  UNL     1      -6.761   3.591  16.284  1.00  0.00     0.210 C 
ENDBRANCH   2  23
BRANCH  12  25
HETATM   25  O8  UNL     1      -2.854   3.552  12.018  1.00  0.00    -0.392 OA
ATOM     26  H8  UNL     1      -3.080   4.070  12.782  1.00  0.00     0.210 HD
ENDBRANCH  12  25
BRANCH  11  27
HETATM   27  O7  UNL     1      -2.436   1.594   9.963  1.00  0.00    -0.387 OA
ATOM     28  H7  UNL     1      -1.611   1.185   9.729  1.00  0.00     0.210 HD
ENDBRANCH  11  27
TORSDOF 10
ENDMDL
