MODEL 1
REMARK VINA RESULT: -7.195790039      0.000      0.000
REMARK  9 active torsions:
REMARK  status: ('A' for Active; 'I' for Inactive)
REMARK    1  A    between atoms: S1_2  and  C2_3 
REMARK    2  A    between atoms: N2_6  and  C3_7 
REMARK    3  A    between atoms: N3_9  and  C5_10 
REMARK    4  A    between atoms: C5_10  and  O1_11 
REMARK    5  A    between atoms: C5_10  and  C6_13 
REMARK    6  A    between atoms: C6_13  and  C7_14 
REMARK    7  A    between atoms: N4_16  and  O2_18 
REMARK    8  A    between atoms: C9_21  and  C10_22 
REMARK    9  A    between atoms: C10_22  and  O3_23 
ROOT
HETATM    1  C2  UNL     1      -0.750   4.424   8.828  1.00  0.00     0.106 A 
HETATM    2  N1  UNL     1      -2.082   4.376   8.990  1.00  0.00    -0.288 N 
ATOM      3  H1  UNL     1      -2.754   4.379   8.223  1.00  0.00     0.188 HD
HETATM    4  N2  UNL     1      -2.411   4.324  10.262  1.00  0.00    -0.270 N 
HETATM    5  C11 UNL     1      -1.263   4.338  10.956  1.00  0.00     0.139 A 
HETATM    6  C12 UNL     1      -0.199   4.400  10.102  1.00  0.00     0.096 A 
HETATM    7  C13 UNL     1       1.179   4.431  10.492  1.00  0.00     0.103 C 
HETATM    8  N5  UNL     1       2.286   4.435  10.809  1.00  0.00    -0.191 NA
ENDROOT
BRANCH   1   9
HETATM    9  S1  UNL     1       0.233   4.503   7.339  1.00  0.00    -0.114 SA
HETATM   10  C1  UNL     1      -0.566   5.467   6.054  1.00  0.00     0.097 C 
ENDBRANCH   1   9
BRANCH   4  11
HETATM   11  C3  UNL     1      -3.721   4.261  10.873  1.00  0.00     0.272 C 
HETATM   12  C4  UNL     1      -3.644   4.338  12.374  1.00  0.00     0.331 C 
HETATM   13  N3  UNL     1      -4.864   3.855  12.904  1.00  0.00     0.129 N 
HETATM   14  C8  UNL     1      -4.922   2.441  12.596  1.00  0.00     0.310 C 
HETATM   15  C9  UNL     1      -5.036   2.331  11.102  1.00  0.00     0.176 C 
HETATM   16  O4  UNL     1      -4.435   3.257  10.353  1.00  0.00    -0.354 OA
BRANCH  13  17
HETATM   17  C5  UNL     1      -5.139   4.048  14.276  1.00  0.00     0.406 C 
BRANCH  17  18
HETATM   18  O1  UNL     1      -6.489   4.397  14.493  1.00  0.00    -0.363 OA
ATOM     19  H1  UNL     1      -6.649   5.313  14.299  1.00  0.00     0.212 HD
ENDBRANCH  17  18
BRANCH  17  20
HETATM   20  C6  UNL     1      -4.694   2.996  15.192  1.00  0.00     0.082 C 
HETATM   21  N4  UNL     1      -3.466   2.806  15.534  1.00  0.00    -0.272 N 
ATOM     22  H4  UNL     1      -2.760   3.427  15.142  1.00  0.00     0.193 HD
BRANCH  20  23
HETATM   23  C7  UNL     1      -5.687   2.063  15.804  1.00  0.00     0.173 C 
HETATM   24 CL1  UNL     1      -6.201   2.728  17.372  1.00  0.00    -0.124 Cl
ENDBRANCH  20  23
BRANCH  21  25
HETATM   25  O2  UNL     1      -3.051   1.822  16.390  1.00  0.00    -0.290 OA
ATOM     26  H2  UNL     1      -3.546   1.031  16.573  1.00  0.00     0.244 HD
ENDBRANCH  21  25
ENDBRANCH  17  20
ENDBRANCH  13  17
BRANCH  15  27
HETATM   27  C10 UNL     1      -4.608   0.904  10.730  1.00  0.00     0.197 C 
BRANCH  27  28
HETATM   28  O3  UNL     1      -5.080   0.681   9.429  1.00  0.00    -0.398 OA
ATOM     29  H3  UNL     1      -4.796   1.426   8.912  1.00  0.00     0.209 HD
ENDBRANCH  27  28
ENDBRANCH  15  27
ENDBRANCH   4  11
TORSDOF 9
ENDMDL
MODEL 2
REMARK VINA RESULT: -7.135208532      1.887      2.769
REMARK  9 active torsions:
REMARK  status: ('A' for Active; 'I' for Inactive)
REMARK    1  A    between atoms: S1_2  and  C2_3 
REMARK    2  A    between atoms: N2_6  and  C3_7 
REMARK    3  A    between atoms: N3_9  and  C5_10 
REMARK    4  A    between atoms: C5_10  and  O1_11 
REMARK    5  A    between atoms: C5_10  and  C6_13 
REMARK    6  A    between atoms: C6_13  and  C7_14 
REMARK    7  A    between atoms: N4_16  and  O2_18 
REMARK    8  A    between atoms: C9_21  and  C10_22 
REMARK    9  A    between atoms: C10_22  and  O3_23 
ROOT
HETATM    1  C2  UNL     1      -0.238   4.211  10.938  1.00  0.00     0.106 A 
HETATM    2  N1  UNL     1      -1.114   3.863  11.894  1.00  0.00    -0.288 N 
ATOM      3  H1  UNL     1      -0.892   3.824  12.888  1.00  0.00     0.188 HD
HETATM    4  N2  UNL     1      -2.292   3.578  11.387  1.00  0.00    -0.270 N 
HETATM    5  C11 UNL     1      -2.189   3.745  10.060  1.00  0.00     0.139 A 
HETATM    6  C12 UNL     1      -0.924   4.139   9.733  1.00  0.00     0.096 A 
HETATM    7  C13 UNL     1      -0.454   4.410   8.407  1.00  0.00     0.103 C 
HETATM    8  N5  UNL     1      -0.086   4.647   7.342  1.00  0.00    -0.191 NA
ENDROOT
BRANCH   1   9
HETATM    9  S1  UNL     1       1.478   4.689  11.058  1.00  0.00    -0.114 SA
HETATM   10  C1  UNL     1       1.680   6.286  11.849  1.00  0.00     0.097 C 
ENDBRANCH   1   9
BRANCH   4  11
HETATM   11  C3  UNL     1      -3.507   3.165  12.055  1.00  0.00     0.272 C 
HETATM   12  C4  UNL     1      -3.267   2.841  13.506  1.00  0.00     0.331 C 
HETATM   13  N3  UNL     1      -4.354   2.063  13.971  1.00  0.00     0.129 N 
HETATM   14  C8  UNL     1      -4.284   0.793  13.278  1.00  0.00     0.310 C 
HETATM   15  C9  UNL     1      -4.556   1.078  11.829  1.00  0.00     0.176 C 
HETATM   16  O4  UNL     1      -4.156   2.249  11.330  1.00  0.00    -0.354 OA
BRANCH  13  17
HETATM   17  C5  UNL     1      -4.488   1.835  15.359  1.00  0.00     0.406 C 
BRANCH  17  18
HETATM   18  O1  UNL     1      -3.237   1.838  16.010  1.00  0.00    -0.363 OA
ATOM     19  H1  UNL     1      -2.803   0.995  15.939  1.00  0.00     0.212 HD
ENDBRANCH  17  18
BRANCH  17  20
HETATM   20  C6  UNL     1      -5.474   2.653  16.069  1.00  0.00     0.082 C 
HETATM   21  N4  UNL     1      -5.936   3.772  15.628  1.00  0.00    -0.272 N 
ATOM     22  H4  UNL     1      -5.594   4.110  14.728  1.00  0.00     0.193 HD
BRANCH  20  23
HETATM   23  C7  UNL     1      -6.016   2.203  17.384  1.00  0.00     0.173 C 
HETATM   24 CL1  UNL     1      -7.534   1.318  17.101  1.00  0.00    -0.124 Cl
ENDBRANCH  20  23
BRANCH  21  25
HETATM   25  O2  UNL     1      -6.858   4.537  16.291  1.00  0.00    -0.290 OA
ATOM     26  H2  UNL     1      -7.559   5.016  15.865  1.00  0.00     0.244 HD
ENDBRANCH  21  25
ENDBRANCH  17  20
ENDBRANCH  13  17
BRANCH  15  27
HETATM   27  C10 UNL     1      -4.013  -0.118  11.034  1.00  0.00     0.197 C 
BRANCH  27  28
HETATM   28  O3  UNL     1      -3.582   0.395   9.802  1.00  0.00    -0.398 OA
ATOM     29  H3  UNL     1      -3.666  -0.315   9.175  1.00  0.00     0.209 HD
ENDBRANCH  27  28
ENDBRANCH  15  27
ENDBRANCH   4  11
TORSDOF 9
ENDMDL
MODEL 3
REMARK VINA RESULT: -7.123886808      1.706      1.882
REMARK  9 active torsions:
REMARK  status: ('A' for Active; 'I' for Inactive)
REMARK    1  A    between atoms: S1_2  and  C2_3 
REMARK    2  A    between atoms: N2_6  and  C3_7 
REMARK    3  A    between atoms: N3_9  and  C5_10 
REMARK    4  A    between atoms: C5_10  and  O1_11 
REMARK    5  A    between atoms: C5_10  and  C6_13 
REMARK    6  A    between atoms: C6_13  and  C7_14 
REMARK    7  A    between atoms: N4_16  and  O2_18 
REMARK    8  A    between atoms: C9_21  and  C10_22 
REMARK    9  A    between atoms: C10_22  and  O3_23 
ROOT
HETATM    1  C2  UNL     1      -2.299   5.345   8.710  1.00  0.00     0.106 A 
HETATM    2  N1  UNL     1      -3.411   5.159   9.440  1.00  0.00    -0.288 N 
ATOM      3  H1  UNL     1      -4.311   5.590   9.234  1.00  0.00     0.188 HD
HETATM    4  N2  UNL     1      -3.192   4.350  10.452  1.00  0.00    -0.270 N 
HETATM    5  C11 UNL     1      -1.901   3.993  10.387  1.00  0.00     0.139 A 
HETATM    6  C12 UNL     1      -1.303   4.591   9.315  1.00  0.00     0.096 A 
HETATM    7  C13 UNL     1       0.070   4.438   8.937  1.00  0.00     0.103 C 
HETATM    8  N5  UNL     1       1.170   4.296   8.624  1.00  0.00    -0.191 NA
ENDROOT
BRANCH   1   9
HETATM    9  S1  UNL     1      -2.027   6.330   7.246  1.00  0.00    -0.114 SA
HETATM   10  C1  UNL     1      -3.567   6.847   6.485  1.00  0.00     0.097 C 
ENDBRANCH   1   9
BRANCH   4  11
HETATM   11  C3  UNL     1      -4.105   3.886  11.474  1.00  0.00     0.272 C 
HETATM   12  C4  UNL     1      -3.383   3.483  12.732  1.00  0.00     0.331 C 
HETATM   13  N3  UNL     1      -4.250   2.668  13.498  1.00  0.00     0.129 N 
HETATM   14  C8  UNL     1      -4.434   1.440  12.752  1.00  0.00     0.310 C 
HETATM   15  C9  UNL     1      -5.188   1.803  11.505  1.00  0.00     0.176 C 
HETATM   16  O4  UNL     1      -4.973   3.005  10.965  1.00  0.00    -0.354 OA
BRANCH  13  17
HETATM   17  C5  UNL     1      -3.900   2.360  14.831  1.00  0.00     0.406 C 
BRANCH  17  18
HETATM   18  O1  UNL     1      -3.281   3.454  15.473  1.00  0.00    -0.363 OA
ATOM     19  H1  UNL     1      -2.344   3.469  15.314  1.00  0.00     0.212 HD
ENDBRANCH  17  18
BRANCH  17  20
HETATM   20  C6  UNL     1      -4.943   1.759  15.665  1.00  0.00     0.082 C 
HETATM   21  N4  UNL     1      -4.839   0.609  16.236  1.00  0.00    -0.272 N 
ATOM     22  H4  UNL     1      -3.976   0.083  16.098  1.00  0.00     0.193 HD
BRANCH  20  23
HETATM   23  C7  UNL     1      -6.223   2.488  15.908  1.00  0.00     0.173 C 
HETATM   24 CL1  UNL     1      -6.308   2.930  17.629  1.00  0.00    -0.124 Cl
ENDBRANCH  20  23
BRANCH  21  25
HETATM   25  O2  UNL     1      -5.814   0.047  17.014  1.00  0.00    -0.290 OA
ATOM     26  H2  UNL     1      -6.029  -0.879  17.014  1.00  0.00     0.244 HD
ENDBRANCH  21  25
ENDBRANCH  17  20
ENDBRANCH  13  17
BRANCH  15  27
HETATM   27  C10 UNL     1      -4.962   0.661  10.504  1.00  0.00     0.197 C 
BRANCH  27  28
HETATM   28  O3  UNL     1      -3.637   0.782  10.063  1.00  0.00    -0.398 OA
ATOM     29  H3  UNL     1      -3.242  -0.076  10.168  1.00  0.00     0.209 HD
ENDBRANCH  27  28
ENDBRANCH  15  27
ENDBRANCH   4  11
TORSDOF 9
ENDMDL
MODEL 4
REMARK VINA RESULT: -7.077364972      1.368      1.927
REMARK  9 active torsions:
REMARK  status: ('A' for Active; 'I' for Inactive)
REMARK    1  A    between atoms: S1_2  and  C2_3 
REMARK    2  A    between atoms: N2_6  and  C3_7 
REMARK    3  A    between atoms: N3_9  and  C5_10 
REMARK    4  A    between atoms: C5_10  and  O1_11 
REMARK    5  A    between atoms: C5_10  and  C6_13 
REMARK    6  A    between atoms: C6_13  and  C7_14 
REMARK    7  A    between atoms: N4_16  and  O2_18 
REMARK    8  A    between atoms: C9_21  and  C10_22 
REMARK    9  A    between atoms: C10_22  and  O3_23 
ROOT
HETATM    1  C2  UNL     1      -1.314   4.705   9.593  1.00  0.00     0.106 A 
HETATM    2  N1  UNL     1      -2.573   4.403   9.946  1.00  0.00    -0.288 N 
ATOM      3  H1  UNL     1      -3.394   4.604   9.374  1.00  0.00     0.188 HD
HETATM    4  N2  UNL     1      -2.617   3.815  11.121  1.00  0.00    -0.270 N 
HETATM    5  C11 UNL     1      -1.350   3.728  11.552  1.00  0.00     0.139 A 
HETATM    6  C12 UNL     1      -0.501   4.271  10.631  1.00  0.00     0.096 A 
HETATM    7  C13 UNL     1       0.923   4.350  10.758  1.00  0.00     0.103 C 
HETATM    8  N5  UNL     1       2.070   4.394  10.855  1.00  0.00    -0.191 NA
ENDROOT
BRANCH   1   9
HETATM    9  S1  UNL     1      -0.683   5.499   8.123  1.00  0.00    -0.114 SA
HETATM   10  C1  UNL     1       0.187   4.349   7.056  1.00  0.00     0.097 C 
ENDBRANCH   1   9
BRANCH   4  11
HETATM   11  C3  UNL     1      -3.757   3.328  11.865  1.00  0.00     0.272 C 
HETATM   12  C4  UNL     1      -3.408   3.037  13.301  1.00  0.00     0.331 C 
HETATM   13  N3  UNL     1      -4.409   2.193  13.837  1.00  0.00     0.129 N 
HETATM   14  C8  UNL     1      -4.295   0.923  13.150  1.00  0.00     0.310 C 
HETATM   15  C9  UNL     1      -4.674   1.173  11.719  1.00  0.00     0.176 C 
HETATM   16  O4  UNL     1      -4.386   2.363  11.187  1.00  0.00    -0.354 OA
BRANCH  13  17
HETATM   17  C5  UNL     1      -4.443   1.972  15.232  1.00  0.00     0.406 C 
BRANCH  17  18
HETATM   18  O1  UNL     1      -3.159   2.078  15.807  1.00  0.00    -0.363 OA
ATOM     19  H1  UNL     1      -3.185   1.947  16.748  1.00  0.00     0.212 HD
ENDBRANCH  17  18
BRANCH  17  20
HETATM   20  C6  UNL     1      -5.445   2.720  15.994  1.00  0.00     0.082 C 
HETATM   21  N4  UNL     1      -5.965   3.833  15.606  1.00  0.00    -0.272 N 
ATOM     22  H4  UNL     1      -5.658   4.219  14.713  1.00  0.00     0.193 HD
BRANCH  20  23
HETATM   23  C7  UNL     1      -5.937   2.198  17.303  1.00  0.00     0.173 C 
HETATM   24 CL1  UNL     1      -7.483   1.356  17.035  1.00  0.00    -0.124 Cl
ENDBRANCH  20  23
BRANCH  21  25
HETATM   25  O2  UNL     1      -6.902   4.532  16.319  1.00  0.00    -0.290 OA
ATOM     26  H2  UNL     1      -6.754   5.395  16.689  1.00  0.00     0.244 HD
ENDBRANCH  21  25
ENDBRANCH  17  20
ENDBRANCH  13  17
BRANCH  15  27
HETATM   27  C10 UNL     1      -4.100   0.008  10.899  1.00  0.00     0.197 C 
BRANCH  27  28
HETATM   28  O3  UNL     1      -3.408   0.588   9.826  1.00  0.00    -0.398 OA
ATOM     29  H3  UNL     1      -3.149  -0.130   9.259  1.00  0.00     0.209 HD
ENDBRANCH  27  28
ENDBRANCH  15  27
ENDBRANCH   4  11
TORSDOF 9
ENDMDL
MODEL 5
REMARK VINA RESULT: -7.064230797      3.502      4.188
REMARK  9 active torsions:
REMARK  status: ('A' for Active; 'I' for Inactive)
REMARK    1  A    between atoms: S1_2  and  C2_3 
REMARK    2  A    between atoms: N2_6  and  C3_7 
REMARK    3  A    between atoms: N3_9  and  C5_10 
REMARK    4  A    between atoms: C5_10  and  O1_11 
REMARK    5  A    between atoms: C5_10  and  C6_13 
REMARK    6  A    between atoms: C6_13  and  C7_14 
REMARK    7  A    between atoms: N4_16  and  O2_18 
REMARK    8  A    between atoms: C9_21  and  C10_22 
REMARK    9  A    between atoms: C10_22  and  O3_23 
ROOT
HETATM    1  C2  UNL     1      -2.242   8.117  12.532  1.00  0.00     0.106 A 
HETATM    2  N1  UNL     1      -3.083   7.085  12.357  1.00  0.00    -0.288 N 
ATOM      3  H1  UNL     1      -3.451   6.792  11.452  1.00  0.00     0.188 HD
HETATM    4  N2  UNL     1      -3.373   6.501  13.497  1.00  0.00    -0.270 N 
HETATM    5  C11 UNL     1      -2.703   7.166  14.450  1.00  0.00     0.139 A 
HETATM    6  C12 UNL     1      -1.984   8.185  13.894  1.00  0.00     0.096 A 
HETATM    7  C13 UNL     1      -1.150   9.102  14.611  1.00  0.00     0.103 C 
HETATM    8  N5  UNL     1      -0.465   9.826  15.190  1.00  0.00    -0.191 NA
ENDROOT
BRANCH   1   9
HETATM    9  S1  UNL     1      -1.531   9.245  11.344  1.00  0.00    -0.114 SA
HETATM   10  C1  UNL     1      -2.251  10.884  11.455  1.00  0.00     0.097 C 
ENDBRANCH   1   9
BRANCH   4  11
HETATM   11  C3  UNL     1      -4.228   5.364  13.759  1.00  0.00     0.272 C 
HETATM   12  C4  UNL     1      -3.556   4.347  14.643  1.00  0.00     0.331 C 
HETATM   13  N3  UNL     1      -4.247   3.120  14.510  1.00  0.00     0.129 N 
HETATM   14  C8  UNL     1      -4.021   2.659  13.156  1.00  0.00     0.310 C 
HETATM   15  C9  UNL     1      -4.713   3.635  12.248  1.00  0.00     0.176 C 
HETATM   16  O4  UNL     1      -4.773   4.914  12.624  1.00  0.00    -0.354 OA
BRANCH  13  17
HETATM   17  C5  UNL     1      -3.966   2.073  15.416  1.00  0.00     0.406 C 
BRANCH  17  18
HETATM   18  O1  UNL     1      -2.861   2.380  16.238  1.00  0.00    -0.363 OA
ATOM     19  H1  UNL     1      -2.043   2.094  15.847  1.00  0.00     0.212 HD
ENDBRANCH  17  18
BRANCH  17  20
HETATM   20  C6  UNL     1      -5.093   1.551  16.191  1.00  0.00     0.082 C 
HETATM   21  N4  UNL     1      -5.156   0.350  16.656  1.00  0.00    -0.272 N 
ATOM     22  H4  UNL     1      -4.372  -0.275  16.472  1.00  0.00     0.193 HD
BRANCH  20  23
HETATM   23  C7  UNL     1      -6.263   2.425  16.498  1.00  0.00     0.173 C 
HETATM   24 CL1  UNL     1      -6.267   2.779  18.242  1.00  0.00    -0.124 Cl
ENDBRANCH  20  23
BRANCH  21  25
HETATM   25  O2  UNL     1      -6.210  -0.137  17.380  1.00  0.00    -0.290 OA
ATOM     26  H2  UNL     1      -6.760  -0.861  17.100  1.00  0.00     0.244 HD
ENDBRANCH  21  25
ENDBRANCH  17  20
ENDBRANCH  13  17
BRANCH  15  27
HETATM   27  C10 UNL     1      -4.091   3.460  10.855  1.00  0.00     0.197 C 
BRANCH  27  28
HETATM   28  O3  UNL     1      -4.865   2.492  10.199  1.00  0.00    -0.398 OA
ATOM     29  H3  UNL     1      -5.575   2.961   9.777  1.00  0.00     0.209 HD
ENDBRANCH  27  28
ENDBRANCH  15  27
ENDBRANCH   4  11
TORSDOF 9
ENDMDL
