MODEL 1
REMARK VINA RESULT: -7.183150890      0.000      0.000
REMARK  9 active torsions:
REMARK  status: ('A' for Active; 'I' for Inactive)
REMARK    1  A    between atoms: C2_3  and  C3_4 
REMARK    2  A    between atoms: C3_4  and  N2_5 
REMARK    3  A    between atoms: N2_5  and  C4_6 
REMARK    4  A    between atoms: N2_5  and  C10_24 
REMARK    5  A    between atoms: C4_6  and  C5_7 
REMARK    6  A    between atoms: C5_7  and  O1_8 
REMARK    7  A    between atoms: C5_7  and  C6_11 
REMARK    8  A    between atoms: C6_11  and  N3_12 
REMARK    9  A    between atoms: C9_20  and  N7_21 
ROOT
HETATM    1  N1  UNL     1      -3.926   1.133  16.305  1.00  0.00    -0.197 NA
HETATM    2  C1  UNL     1      -3.708   2.206  15.935  1.00  0.00     0.061 C 
HETATM    3  C2  UNL     1      -3.406   3.560  15.477  1.00  0.00     0.155 C 
ENDROOT
BRANCH   3   4
HETATM    4  C3  UNL     1      -4.378   3.975  14.359  1.00  0.00     0.046 A 
HETATM    5  C13 UNL     1      -4.888   5.378  14.747  1.00  0.00     0.032 A 
HETATM    6  C14 UNL     1      -6.270   4.860  14.965  1.00  0.00     0.005 A 
HETATM    7  C15 UNL     1      -5.777   3.506  14.503  1.00  0.00     0.032 A 
BRANCH   4   8
HETATM    8  N2  UNL     1      -3.759   3.929  13.071  1.00  0.00    -0.346 N 
BRANCH   8   9
HETATM    9  C4  UNL     1      -3.097   5.040  12.486  1.00  0.00     0.201 C 
BRANCH   9  10
HETATM   10  C5  UNL     1      -1.758   4.829  11.890  1.00  0.00     0.237 C 
HETATM   11  F1  UNL     1      -1.828   4.377  10.570  1.00  0.00    -0.208 F 
BRANCH  10  12
HETATM   12  O1  UNL     1      -0.898   3.997  12.540  1.00  0.00    -0.359 OA
ATOM     13  H1  UNL     1      -0.723   3.148  12.150  1.00  0.00     0.213 HD
ENDBRANCH  10  12
BRANCH  10  14
HETATM   14  C6  UNL     1      -1.095   6.215  11.818  1.00  0.00     0.243 C 
BRANCH  14  15
HETATM   15  N3  UNL     1       0.288   6.120  11.426  1.00  0.00    -0.116 N 
HETATM   16  N4  UNL     1       1.244   5.809  12.274  1.00  0.00    -0.259 N 
HETATM   17  C7  UNL     1       2.393   5.828  11.585  1.00  0.00     0.218 A 
ATOM     18  H4  UNL     1       1.132   5.595  13.265  1.00  0.00     0.190 HD
HETATM   19  C8  UNL     1       3.697   5.540  12.154  1.00  0.00     0.139 C 
HETATM   20  N6  UNL     1       2.122   6.150  10.325  1.00  0.00    -0.164 N 
HETATM   21  N5  UNL     1       4.739   5.322  12.626  1.00  0.00    -0.188 NA
HETATM   22  C9  UNL     1       0.790   6.337  10.211  1.00  0.00     0.695 A 
ATOM     23  H6  UNL     1       2.804   6.242   9.573  1.00  0.00     0.186 HD
BRANCH  22  24
HETATM   24  N7  UNL     1       0.191   6.646   9.127  1.00  0.00    -0.233 N 
ATOM     25  H72 UNL     1      -0.788   6.439   8.926  1.00  0.00     0.174 HD
ATOM     26  H71 UNL     1       0.544   7.137   8.306  1.00  0.00     0.174 HD
ENDBRANCH  22  24
ENDBRANCH  14  15
ENDBRANCH  10  14
ENDBRANCH   9  10
ENDBRANCH   8   9
BRANCH   8  27
HETATM   27  C10 UNL     1      -3.818   2.693  12.352  1.00  0.00     0.143 C 
HETATM   28  N8  UNL     1      -3.122   1.661  12.432  1.00  0.00    -0.350 N 
HETATM   29  C11 UNL     1      -3.343   0.546  11.630  1.00  0.00     0.073 C 
ATOM     30  H8  UNL     1      -2.362   1.633  13.112  1.00  0.00     0.167 HD
HETATM   31  C12 UNL     1      -4.749   0.521  11.069  1.00  0.00     0.127 C 
HETATM   32  S1  UNL     1      -5.039   2.338  11.058  1.00  0.00    -0.089 SA
ENDBRANCH   8  27
ENDBRANCH   4   8
ENDBRANCH   3   4
TORSDOF 9
ENDMDL
MODEL 2
REMARK VINA RESULT: -7.157249113      2.446      6.233
REMARK  9 active torsions:
REMARK  status: ('A' for Active; 'I' for Inactive)
REMARK    1  A    between atoms: C2_3  and  C3_4 
REMARK    2  A    between atoms: C3_4  and  N2_5 
REMARK    3  A    between atoms: N2_5  and  C4_6 
REMARK    4  A    between atoms: N2_5  and  C10_24 
REMARK    5  A    between atoms: C4_6  and  C5_7 
REMARK    6  A    between atoms: C5_7  and  O1_8 
REMARK    7  A    between atoms: C5_7  and  C6_11 
REMARK    8  A    between atoms: C6_11  and  N3_12 
REMARK    9  A    between atoms: C9_20  and  N7_21 
ROOT
HETATM    1  N1  UNL     1      -5.787   2.276  11.578  1.00  0.00    -0.197 NA
HETATM    2  C1  UNL     1      -4.924   2.890  11.112  1.00  0.00     0.061 C 
HETATM    3  C2  UNL     1      -3.855   3.685  10.514  1.00  0.00     0.155 C 
ENDROOT
BRANCH   3   4
HETATM    4  C3  UNL     1      -2.517   3.392  11.214  1.00  0.00     0.046 A 
HETATM    5  C13 UNL     1      -1.662   2.629  10.183  1.00  0.00     0.032 A 
HETATM    6  C14 UNL     1      -1.704   1.386  11.007  1.00  0.00     0.005 A 
HETATM    7  C15 UNL     1      -2.471   2.168  12.050  1.00  0.00     0.032 A 
BRANCH   4   8
HETATM    8  N2  UNL     1      -1.896   4.587  11.697  1.00  0.00    -0.346 N 
BRANCH   8   9
HETATM    9  C4  UNL     1      -2.555   5.522  12.535  1.00  0.00     0.201 C 
BRANCH   9  10
HETATM   10  C5  UNL     1      -2.049   5.710  13.916  1.00  0.00     0.237 C 
HETATM   11  F1  UNL     1      -1.288   6.874  14.049  1.00  0.00    -0.208 F 
BRANCH  10  12
HETATM   12  O1  UNL     1      -1.318   4.702  14.466  1.00  0.00    -0.359 OA
ATOM     13  H1  UNL     1      -0.668   4.933  15.120  1.00  0.00     0.213 HD
ENDBRANCH  10  12
BRANCH  10  14
HETATM   14  C6  UNL     1      -3.288   5.922  14.803  1.00  0.00     0.243 C 
BRANCH  14  15
HETATM   15  N3  UNL     1      -4.157   4.773  14.781  1.00  0.00    -0.116 N 
HETATM   16  N4  UNL     1      -3.745   3.568  15.111  1.00  0.00    -0.259 N 
HETATM   17  C7  UNL     1      -4.793   2.747  14.962  1.00  0.00     0.218 A 
ATOM     18  H4  UNL     1      -2.808   3.309  15.421  1.00  0.00     0.190 HD
HETATM   19  C8  UNL     1      -4.764   1.320  15.224  1.00  0.00     0.139 C 
HETATM   20  N6  UNL     1      -5.831   3.463  14.543  1.00  0.00    -0.164 N 
HETATM   21  N5  UNL     1      -4.722   0.173  15.423  1.00  0.00    -0.188 NA
HETATM   22  C9  UNL     1      -5.440   4.750  14.425  1.00  0.00     0.695 A 
ATOM     23  H6  UNL     1      -6.764   3.102  14.344  1.00  0.00     0.186 HD
BRANCH  22  24
HETATM   24  N7  UNL     1      -6.199   5.708  14.054  1.00  0.00    -0.233 N 
ATOM     25  H72 UNL     1      -5.937   6.427  13.379  1.00  0.00     0.174 HD
ATOM     26  H71 UNL     1      -7.156   5.923  14.332  1.00  0.00     0.174 HD
ENDBRANCH  22  24
ENDBRANCH  14  15
ENDBRANCH  10  14
ENDBRANCH   9  10
ENDBRANCH   8   9
BRANCH   8  27
HETATM   27  C10 UNL     1      -0.541   4.833  11.304  1.00  0.00     0.143 C 
HETATM   28  N8  UNL     1       0.539   4.427  11.778  1.00  0.00    -0.350 N 
HETATM   29  C11 UNL     1       1.772   4.787  11.243  1.00  0.00     0.073 C 
ATOM     30  H8  UNL     1       0.517   3.808  12.588  1.00  0.00     0.167 HD
HETATM   31  C12 UNL     1       1.654   5.253   9.809  1.00  0.00     0.127 C 
HETATM   32  S1  UNL     1      -0.074   5.880   9.898  1.00  0.00    -0.089 SA
ENDBRANCH   8  27
ENDBRANCH   4   8
ENDBRANCH   3   4
TORSDOF 9
ENDMDL
MODEL 3
REMARK VINA RESULT: -7.154659515      0.951      1.129
REMARK  9 active torsions:
REMARK  status: ('A' for Active; 'I' for Inactive)
REMARK    1  A    between atoms: C2_3  and  C3_4 
REMARK    2  A    between atoms: C3_4  and  N2_5 
REMARK    3  A    between atoms: N2_5  and  C4_6 
REMARK    4  A    between atoms: N2_5  and  C10_24 
REMARK    5  A    between atoms: C4_6  and  C5_7 
REMARK    6  A    between atoms: C5_7  and  O1_8 
REMARK    7  A    between atoms: C5_7  and  C6_11 
REMARK    8  A    between atoms: C6_11  and  N3_12 
REMARK    9  A    between atoms: C9_20  and  N7_21 
ROOT
HETATM    1  N1  UNL     1      -3.953   1.025  16.265  1.00  0.00    -0.197 NA
HETATM    2  C1  UNL     1      -3.725   2.102  15.912  1.00  0.00     0.061 C 
HETATM    3  C2  UNL     1      -3.410   3.459  15.476  1.00  0.00     0.155 C 
ENDROOT
BRANCH   3   4
HETATM    4  C3  UNL     1      -4.368   3.897  14.355  1.00  0.00     0.046 A 
HETATM    5  C13 UNL     1      -4.833   5.317  14.732  1.00  0.00     0.032 A 
HETATM    6  C14 UNL     1      -6.231   4.845  14.953  1.00  0.00     0.005 A 
HETATM    7  C15 UNL     1      -5.781   3.473  14.501  1.00  0.00     0.032 A 
BRANCH   4   8
HETATM    8  N2  UNL     1      -3.749   3.823  13.067  1.00  0.00    -0.346 N 
BRANCH   8   9
HETATM    9  C4  UNL     1      -3.051   4.907  12.477  1.00  0.00     0.201 C 
BRANCH   9  10
HETATM   10  C5  UNL     1      -1.570   4.864  12.455  1.00  0.00     0.237 C 
HETATM   11  F1  UNL     1      -1.081   3.726  11.806  1.00  0.00    -0.208 F 
BRANCH  10  12
HETATM   12  O1  UNL     1      -0.915   4.943  13.645  1.00  0.00    -0.359 OA
ATOM     13  H1  UNL     1      -0.104   5.439  13.673  1.00  0.00     0.213 HD
ENDBRANCH  10  12
BRANCH  10  14
HETATM   14  C6  UNL     1      -1.116   6.056  11.595  1.00  0.00     0.243 C 
BRANCH  14  15
HETATM   15  N3  UNL     1       0.238   6.441  11.899  1.00  0.00    -0.116 N 
HETATM   16  N4  UNL     1       1.231   5.579  11.916  1.00  0.00    -0.259 N 
HETATM   17  C7  UNL     1       2.334   6.265  12.248  1.00  0.00     0.218 A 
ATOM     18  H4  UNL     1       1.174   4.581  11.714  1.00  0.00     0.190 HD
HETATM   19  C8  UNL     1       3.656   5.684  12.379  1.00  0.00     0.139 C 
HETATM   20  N6  UNL     1       1.997   7.538  12.430  1.00  0.00    -0.164 N 
HETATM   21  N5  UNL     1       4.710   5.201  12.496  1.00  0.00    -0.188 NA
HETATM   22  C9  UNL     1       0.670   7.662  12.210  1.00  0.00     0.695 A 
ATOM     23  H6  UNL     1       2.631   8.292  12.691  1.00  0.00     0.186 HD
BRANCH  22  24
HETATM   24  N7  UNL     1       0.021   8.759  12.288  1.00  0.00    -0.233 N 
ATOM     25  H72 UNL     1      -0.964   8.833  12.540  1.00  0.00     0.174 HD
ATOM     26  H71 UNL     1       0.341   9.715  12.134  1.00  0.00     0.174 HD
ENDBRANCH  22  24
ENDBRANCH  14  15
ENDBRANCH  10  14
ENDBRANCH   9  10
ENDBRANCH   8   9
BRANCH   8  27
HETATM   27  C10 UNL     1      -3.850   2.585  12.355  1.00  0.00     0.143 C 
HETATM   28  N8  UNL     1      -3.236   1.508  12.488  1.00  0.00    -0.350 N 
HETATM   29  C11 UNL     1      -3.484   0.401  11.682  1.00  0.00     0.073 C 
ATOM     30  H8  UNL     1      -2.525   1.435  13.216  1.00  0.00     0.167 HD
HETATM   31  C12 UNL     1      -4.848   0.468  11.031  1.00  0.00     0.127 C 
HETATM   32  S1  UNL     1      -5.007   2.301  10.987  1.00  0.00    -0.089 SA
ENDBRANCH   8  27
ENDBRANCH   4   8
ENDBRANCH   3   4
TORSDOF 9
ENDMDL
MODEL 4
REMARK VINA RESULT: -7.115115540      1.086      1.160
REMARK  9 active torsions:
REMARK  status: ('A' for Active; 'I' for Inactive)
REMARK    1  A    between atoms: C2_3  and  C3_4 
REMARK    2  A    between atoms: C3_4  and  N2_5 
REMARK    3  A    between atoms: N2_5  and  C4_6 
REMARK    4  A    between atoms: N2_5  and  C10_24 
REMARK    5  A    between atoms: C4_6  and  C5_7 
REMARK    6  A    between atoms: C5_7  and  O1_8 
REMARK    7  A    between atoms: C5_7  and  C6_11 
REMARK    8  A    between atoms: C6_11  and  N3_12 
REMARK    9  A    between atoms: C9_20  and  N7_21 
ROOT
HETATM    1  N1  UNL     1      -3.899   1.321  16.413  1.00  0.00    -0.197 NA
HETATM    2  C1  UNL     1      -3.706   2.360  15.943  1.00  0.00     0.061 C 
HETATM    3  C2  UNL     1      -3.434   3.669  15.355  1.00  0.00     0.155 C 
ENDROOT
BRANCH   3   4
HETATM    4  C3  UNL     1      -4.495   4.009  14.295  1.00  0.00     0.046 A 
HETATM    5  C13 UNL     1      -4.957   5.446  14.611  1.00  0.00     0.032 A 
HETATM    6  C14 UNL     1      -6.320   4.970  14.987  1.00  0.00     0.005 A 
HETATM    7  C15 UNL     1      -5.881   3.576  14.595  1.00  0.00     0.032 A 
BRANCH   4   8
HETATM    8  N2  UNL     1      -3.990   3.852  12.966  1.00  0.00    -0.346 N 
BRANCH   8   9
HETATM    9  C4  UNL     1      -3.131   4.794  12.345  1.00  0.00     0.201 C 
BRANCH   9  10
HETATM   10  C5  UNL     1      -1.689   4.470  12.238  1.00  0.00     0.237 C 
HETATM   11  F1  UNL     1      -1.464   3.249  11.597  1.00  0.00    -0.208 F 
BRANCH  10  12
HETATM   12  O1  UNL     1      -0.957   4.446  13.386  1.00  0.00    -0.359 OA
ATOM     13  H1  UNL     1      -0.063   4.127  13.335  1.00  0.00     0.213 HD
ENDBRANCH  10  12
BRANCH  10  14
HETATM   14  C6  UNL     1      -1.074   5.539  11.318  1.00  0.00     0.243 C 
BRANCH  14  15
HETATM   15  N3  UNL     1       0.364   5.446  11.289  1.00  0.00    -0.116 N 
HETATM   16  N4  UNL     1       1.124   5.939  12.242  1.00  0.00    -0.259 N 
HETATM   17  C7  UNL     1       2.394   5.696  11.890  1.00  0.00     0.218 A 
ATOM     18  H4  UNL     1       0.808   6.415  13.088  1.00  0.00     0.190 HD
HETATM   19  C8  UNL     1       3.553   6.080  12.673  1.00  0.00     0.139 C 
HETATM   20  N6  UNL     1       2.390   5.057  10.724  1.00  0.00    -0.164 N 
HETATM   21  N5  UNL     1       4.475   6.408  13.305  1.00  0.00    -0.188 NA
HETATM   22  C9  UNL     1       1.108   4.893  10.334  1.00  0.00     0.695 A 
ATOM     23  H6  UNL     1       3.215   4.746  10.213  1.00  0.00     0.186 HD
BRANCH  22  24
HETATM   24  N7  UNL     1       0.747   4.303   9.260  1.00  0.00    -0.233 N 
ATOM     25  H72 UNL     1       0.629   4.764   8.357  1.00  0.00     0.174 HD
ATOM     26  H71 UNL     1       0.532   3.320   9.099  1.00  0.00     0.174 HD
ENDBRANCH  22  24
ENDBRANCH  14  15
ENDBRANCH  10  14
ENDBRANCH   9  10
ENDBRANCH   8   9
BRANCH   8  27
HETATM   27  C10 UNL     1      -4.381   2.680  12.244  1.00  0.00     0.143 C 
HETATM   28  N8  UNL     1      -5.067   2.540  11.212  1.00  0.00    -0.350 N 
HETATM   29  C11 UNL     1      -5.339   1.293  10.658  1.00  0.00     0.073 C 
ATOM     30  H8  UNL     1      -5.443   3.371  10.756  1.00  0.00     0.167 HD
HETATM   31  C12 UNL     1      -4.341   0.246  11.102  1.00  0.00     0.127 C 
HETATM   32  S1  UNL     1      -3.907   0.996  12.726  1.00  0.00    -0.089 SA
ENDBRANCH   8  27
ENDBRANCH   4   8
ENDBRANCH   3   4
TORSDOF 9
ENDMDL
MODEL 5
REMARK VINA RESULT: -6.995029777      1.053      1.382
REMARK  9 active torsions:
REMARK  status: ('A' for Active; 'I' for Inactive)
REMARK    1  A    between atoms: C2_3  and  C3_4 
REMARK    2  A    between atoms: C3_4  and  N2_5 
REMARK    3  A    between atoms: N2_5  and  C4_6 
REMARK    4  A    between atoms: N2_5  and  C10_24 
REMARK    5  A    between atoms: C4_6  and  C5_7 
REMARK    6  A    between atoms: C5_7  and  O1_8 
REMARK    7  A    between atoms: C5_7  and  C6_11 
REMARK    8  A    between atoms: C6_11  and  N3_12 
REMARK    9  A    between atoms: C9_20  and  N7_21 
ROOT
HETATM    1  N1  UNL     1      -3.903   1.152  16.288  1.00  0.00    -0.197 NA
HETATM    2  C1  UNL     1      -3.664   2.221  15.919  1.00  0.00     0.061 C 
HETATM    3  C2  UNL     1      -3.333   3.568  15.461  1.00  0.00     0.155 C 
ENDROOT
BRANCH   3   4
HETATM    4  C3  UNL     1      -4.292   4.001  14.339  1.00  0.00     0.046 A 
HETATM    5  C13 UNL     1      -4.762   5.421  14.715  1.00  0.00     0.032 A 
HETATM    6  C14 UNL     1      -6.159   4.945  14.937  1.00  0.00     0.005 A 
HETATM    7  C15 UNL     1      -5.704   3.574  14.486  1.00  0.00     0.032 A 
BRANCH   4   8
HETATM    8  N2  UNL     1      -3.674   3.928  13.051  1.00  0.00    -0.346 N 
BRANCH   8   9
HETATM    9  C4  UNL     1      -2.977   5.013  12.461  1.00  0.00     0.201 C 
BRANCH   9  10
HETATM   10  C5  UNL     1      -1.688   4.739  11.783  1.00  0.00     0.237 C 
HETATM   11  F1  UNL     1      -1.862   4.124  10.540  1.00  0.00    -0.208 F 
BRANCH  10  12
HETATM   12  O1  UNL     1      -0.762   4.001  12.455  1.00  0.00    -0.359 OA
ATOM     13  H1  UNL     1      -0.693   3.077  12.244  1.00  0.00     0.213 HD
ENDBRANCH  10  12
BRANCH  10  14
HETATM   14  C6  UNL     1      -1.059   6.109  11.481  1.00  0.00     0.243 C 
BRANCH  14  15
HETATM   15  N3  UNL     1       0.341   5.989  11.162  1.00  0.00    -0.116 N 
HETATM   16  N4  UNL     1       0.805   5.064  10.351  1.00  0.00    -0.259 N 
HETATM   17  C7  UNL     1       2.133   5.230  10.295  1.00  0.00     0.218 A 
ATOM     18  H4  UNL     1       0.258   4.357   9.859  1.00  0.00     0.190 HD
HETATM   19  C8  UNL     1       3.032   4.409   9.505  1.00  0.00     0.139 C 
HETATM   20  N6  UNL     1       2.462   6.256  11.073  1.00  0.00    -0.164 N 
HETATM   21  N5  UNL     1       3.744   3.732   8.879  1.00  0.00    -0.188 NA
HETATM   22  C9  UNL     1       1.332   6.746  11.629  1.00  0.00     0.695 A 
ATOM     23  H6  UNL     1       3.405   6.611  11.226  1.00  0.00     0.186 HD
BRANCH  22  24
HETATM   24  N7  UNL     1       1.290   7.745  12.423  1.00  0.00    -0.233 N 
ATOM     25  H72 UNL     1       0.986   8.683  12.159  1.00  0.00     0.174 HD
ATOM     26  H71 UNL     1       1.524   7.799  13.414  1.00  0.00     0.174 HD
ENDBRANCH  22  24
ENDBRANCH  14  15
ENDBRANCH  10  14
ENDBRANCH   9  10
ENDBRANCH   8   9
BRANCH   8  27
HETATM   27  C10 UNL     1      -3.772   2.690  12.340  1.00  0.00     0.143 C 
HETATM   28  N8  UNL     1      -3.095   1.645  12.411  1.00  0.00    -0.350 N 
HETATM   29  C11 UNL     1      -3.355   0.530  11.619  1.00  0.00     0.073 C 
ATOM     30  H8  UNL     1      -2.322   1.605  13.075  1.00  0.00     0.167 HD
HETATM   31  C12 UNL     1      -4.771   0.531  11.088  1.00  0.00     0.127 C 
HETATM   32  S1  UNL     1      -5.026   2.353  11.073  1.00  0.00    -0.089 SA
ENDBRANCH   8  27
ENDBRANCH   4   8
ENDBRANCH   3   4
TORSDOF 9
ENDMDL
