MODEL 1
REMARK VINA RESULT: -7.095517229      0.000      0.000
REMARK  10 active torsions:
REMARK  status: ('A' for Active; 'I' for Inactive)
REMARK    1  A    between atoms: N1_1  and  N2_4 
REMARK    2  A    between atoms: N2_4  and  N3_5 
REMARK    3  A    between atoms: N3_5  and  C1_7 
REMARK    4  A    between atoms: C1_7  and  C2_8 
REMARK    5  A    between atoms: C2_8  and  O1_9 
REMARK    6  A    between atoms: O1_9  and  C3_10 
REMARK    7  A    between atoms: C3_10  and  C4_11 
REMARK    8  A    between atoms: C5_13  and  N4_14 
REMARK    9  A    between atoms: C9_23  and  N7_24 
REMARK   10  A    between atoms: C11_30  and  O3_31 
ROOT
HETATM    1  C4  UNL     1      -4.967   2.492  14.531  1.00  0.00     0.184 C 
HETATM    2  O2  UNL     1      -3.930   3.423  14.650  1.00  0.00    -0.353 OA
HETATM    3  C5  UNL     1      -4.523   4.684  14.615  1.00  0.00     0.262 C 
HETATM    4  C11 UNL     1      -5.971   4.519  14.923  1.00  0.00     0.204 C 
HETATM    5  C12 UNL     1      -5.987   3.086  15.482  1.00  0.00     0.234 C 
HETATM    6  F1  UNL     1      -5.542   3.091  16.787  1.00  0.00    -0.244 F 
ENDROOT
BRANCH   3   7
HETATM    7  N4  UNL     1      -4.246   5.258  13.329  1.00  0.00    -0.297 N 
HETATM    8  C6  UNL     1      -5.027   6.094  12.618  1.00  0.00     0.188 A 
HETATM    9  N5  UNL     1      -4.377   6.389  11.462  1.00  0.00    -0.347 N 
HETATM   10  C7  UNL     1      -3.200   5.741  11.453  1.00  0.00     0.117 A 
ATOM     11  H5  UNL     1      -4.725   7.000  10.724  1.00  0.00     0.167 HD
HETATM   12  C8  UNL     1      -2.177   5.699  10.527  1.00  0.00     0.147 A 
HETATM   13  C10 UNL     1      -3.122   5.029  12.633  1.00  0.00     0.156 A 
HETATM   14  S1  UNL     1      -2.302   6.543   9.158  1.00  0.00    -0.057 SA
HETATM   15  N6  UNL     1      -1.089   4.959  10.766  1.00  0.00    -0.179 N 
HETATM   16  C9  UNL     1      -1.007   4.266  11.909  1.00  0.00     0.678 A 
ATOM     17  H6  UNL     1      -0.330   4.923  10.086  1.00  0.00     0.185 HD
HETATM   18  N8  UNL     1      -2.014   4.299  12.836  1.00  0.00    -0.174 N 
ATOM     19  H8  UNL     1      -1.920   3.759  13.697  1.00  0.00     0.186 HD
BRANCH  16  20
HETATM   20  N7  UNL     1       0.047   3.559  12.123  1.00  0.00    -0.234 N 
ATOM     21  H72 UNL     1       0.162   2.656  11.663  1.00  0.00     0.174 HD
ATOM     22  H71 UNL     1       0.756   3.925  12.759  1.00  0.00     0.174 HD
ENDBRANCH  16  20
ENDBRANCH   3   7
BRANCH   4  23
HETATM   23  O3  UNL     1      -6.446   5.417  15.869  1.00  0.00    -0.388 OA
ATOM     24  H3  UNL     1      -7.325   5.732  15.690  1.00  0.00     0.210 HD
ENDBRANCH   4  23
BRANCH   1  25
HETATM   25  C3  UNL     1      -4.509   1.128  14.936  1.00  0.00     0.202 C 
BRANCH  25  26
HETATM   26  O1  UNL     1      -4.663   0.171  13.978  1.00  0.00    -0.387 OA
BRANCH  26  27
HETATM   27  C2  UNL     1      -4.274   0.560  12.731  1.00  0.00     0.189 C 
BRANCH  27  28
HETATM   28  C1  UNL     1      -4.319  -0.552  11.713  1.00  0.00     0.181 C 
BRANCH  28  29
HETATM   29  N3  UNL     1      -2.940  -0.931  11.448  1.00  0.00    -0.251 N 
ATOM     30  H3  UNL     1      -2.215  -0.234  11.274  1.00  0.00     0.197 HD
BRANCH  29  31
HETATM   31  N2  UNL     1      -2.693  -2.142  11.445  1.00  0.00    -0.248 NA
BRANCH  31  32
HETATM   32  N1  UNL     1      -2.782  -3.377  11.432  1.00  0.00    -0.261 N 
ATOM     33  H12 UNL     1      -2.769  -3.455  12.449  1.00  0.00     0.193 HD
ATOM     34  H11 UNL     1      -2.859  -4.353  11.146  1.00  0.00     0.193 HD
ENDBRANCH  31  32
ENDBRANCH  29  31
ENDBRANCH  28  29
ENDBRANCH  27  28
ENDBRANCH  26  27
ENDBRANCH  25  26
ENDBRANCH   1  25
TORSDOF 10
ENDMDL
MODEL 2
REMARK VINA RESULT: -6.801741540      2.082      2.488
REMARK  10 active torsions:
REMARK  status: ('A' for Active; 'I' for Inactive)
REMARK    1  A    between atoms: N1_1  and  N2_4 
REMARK    2  A    between atoms: N2_4  and  N3_5 
REMARK    3  A    between atoms: N3_5  and  C1_7 
REMARK    4  A    between atoms: C1_7  and  C2_8 
REMARK    5  A    between atoms: C2_8  and  O1_9 
REMARK    6  A    between atoms: O1_9  and  C3_10 
REMARK    7  A    between atoms: C3_10  and  C4_11 
REMARK    8  A    between atoms: C5_13  and  N4_14 
REMARK    9  A    between atoms: C9_23  and  N7_24 
REMARK   10  A    between atoms: C11_30  and  O3_31 
ROOT
HETATM    1  C4  UNL     1      -4.514   2.458  14.492  1.00  0.00     0.184 C 
HETATM    2  O2  UNL     1      -3.469   3.169  15.090  1.00  0.00    -0.353 OA
HETATM    3  C5  UNL     1      -3.715   4.518  14.841  1.00  0.00     0.262 C 
HETATM    4  C11 UNL     1      -5.150   4.663  14.471  1.00  0.00     0.204 C 
HETATM    5  C12 UNL     1      -5.703   3.297  14.913  1.00  0.00     0.234 C 
HETATM    6  F1  UNL     1      -5.887   3.290  16.280  1.00  0.00    -0.244 F 
ENDROOT
BRANCH   3   7
HETATM    7  N4  UNL     1      -2.790   4.949  13.833  1.00  0.00    -0.297 N 
HETATM    8  C6  UNL     1      -2.364   4.256  12.759  1.00  0.00     0.188 A 
HETATM    9  N5  UNL     1      -1.496   5.043  12.073  1.00  0.00    -0.347 N 
HETATM   10  C7  UNL     1      -1.381   6.219  12.713  1.00  0.00     0.117 A 
ATOM     11  H5  UNL     1      -1.011   4.785  11.213  1.00  0.00     0.167 HD
HETATM   12  C8  UNL     1      -0.640   7.351  12.440  1.00  0.00     0.147 A 
HETATM   13  C10 UNL     1      -2.200   6.155  13.823  1.00  0.00     0.156 A 
HETATM   14  S1  UNL     1       0.307   7.390  11.135  1.00  0.00    -0.057 SA
HETATM   15  N6  UNL     1      -0.707   8.407  13.258  1.00  0.00    -0.179 N 
HETATM   16  C9  UNL     1      -1.499   8.351  14.335  1.00  0.00     0.678 A 
ATOM     17  H6  UNL     1      -0.162   9.246  13.062  1.00  0.00     0.185 HD
HETATM   18  N8  UNL     1      -2.240   7.235  14.618  1.00  0.00    -0.174 N 
ATOM     19  H8  UNL     1      -2.834   7.225  15.448  1.00  0.00     0.186 HD
BRANCH  16  20
HETATM   20  N7  UNL     1      -1.552   9.377  15.111  1.00  0.00    -0.234 N 
ATOM     21  H72 UNL     1      -2.129  10.180  14.861  1.00  0.00     0.174 HD
ATOM     22  H71 UNL     1      -1.008   9.363  15.973  1.00  0.00     0.174 HD
ENDBRANCH  16  20
ENDBRANCH   3   7
BRANCH   4  23
HETATM   23  O3  UNL     1      -5.799   5.692  15.141  1.00  0.00    -0.388 OA
ATOM     24  H3  UNL     1      -5.618   5.714  16.074  1.00  0.00     0.210 HD
ENDBRANCH   4  23
BRANCH   1  25
HETATM   25  C3  UNL     1      -4.570   1.056  15.008  1.00  0.00     0.202 C 
BRANCH  25  26
HETATM   26  O1  UNL     1      -4.631   0.098  14.041  1.00  0.00    -0.387 OA
BRANCH  26  27
HETATM   27  C2  UNL     1      -4.268   0.531  12.800  1.00  0.00     0.189 C 
BRANCH  27  28
HETATM   28  C1  UNL     1      -4.328  -0.547  11.746  1.00  0.00     0.181 C 
BRANCH  28  29
HETATM   29  N3  UNL     1      -2.953  -0.919  11.450  1.00  0.00    -0.251 N 
ATOM     30  H3  UNL     1      -2.241  -0.220  11.238  1.00  0.00     0.197 HD
BRANCH  29  31
HETATM   31  N2  UNL     1      -2.694  -2.127  11.470  1.00  0.00    -0.248 NA
BRANCH  31  32
HETATM   32  N1  UNL     1      -2.766  -3.363  11.433  1.00  0.00    -0.261 N 
ATOM     33  H12 UNL     1      -3.014  -3.444  12.419  1.00  0.00     0.193 HD
ATOM     34  H11 UNL     1      -2.757  -4.339  11.137  1.00  0.00     0.193 HD
ENDBRANCH  31  32
ENDBRANCH  29  31
ENDBRANCH  28  29
ENDBRANCH  27  28
ENDBRANCH  26  27
ENDBRANCH  25  26
ENDBRANCH   1  25
TORSDOF 10
ENDMDL
MODEL 3
REMARK VINA RESULT: -6.770684039      1.474      1.634
REMARK  10 active torsions:
REMARK  status: ('A' for Active; 'I' for Inactive)
REMARK    1  A    between atoms: N1_1  and  N2_4 
REMARK    2  A    between atoms: N2_4  and  N3_5 
REMARK    3  A    between atoms: N3_5  and  C1_7 
REMARK    4  A    between atoms: C1_7  and  C2_8 
REMARK    5  A    between atoms: C2_8  and  O1_9 
REMARK    6  A    between atoms: O1_9  and  C3_10 
REMARK    7  A    between atoms: C3_10  and  C4_11 
REMARK    8  A    between atoms: C5_13  and  N4_14 
REMARK    9  A    between atoms: C9_23  and  N7_24 
REMARK   10  A    between atoms: C11_30  and  O3_31 
ROOT
HETATM    1  C4  UNL     1      -4.366   2.812  14.275  1.00  0.00     0.184 C 
HETATM    2  O2  UNL     1      -3.740   3.706  15.149  1.00  0.00    -0.353 OA
HETATM    3  C5  UNL     1      -4.140   4.984  14.763  1.00  0.00     0.262 C 
HETATM    4  C11 UNL     1      -5.366   4.849  13.928  1.00  0.00     0.204 C 
HETATM    5  C12 UNL     1      -5.765   3.395  14.231  1.00  0.00     0.234 C 
HETATM    6  F1  UNL     1      -6.393   3.331  15.457  1.00  0.00    -0.244 F 
ENDROOT
BRANCH   3   7
HETATM    7  N4  UNL     1      -3.028   5.604  14.099  1.00  0.00    -0.297 N 
HETATM    8  C6  UNL     1      -2.601   6.875  14.226  1.00  0.00     0.188 A 
HETATM    9  N5  UNL     1      -1.521   7.034  13.418  1.00  0.00    -0.347 N 
HETATM   10  C7  UNL     1      -1.277   5.871  12.791  1.00  0.00     0.117 A 
ATOM     11  H5  UNL     1      -0.985   7.894  13.306  1.00  0.00     0.167 HD
HETATM   12  C8  UNL     1      -0.311   5.500  11.878  1.00  0.00     0.147 A 
HETATM   13  C10 UNL     1      -2.231   4.972  13.224  1.00  0.00     0.156 A 
HETATM   14  S1  UNL     1       0.787   6.577  11.394  1.00  0.00    -0.057 SA
HETATM   15  N6  UNL     1      -0.289   4.252  11.398  1.00  0.00    -0.179 N 
HETATM   16  C9  UNL     1      -1.211   3.375  11.814  1.00  0.00     0.678 A 
ATOM     17  H6  UNL     1       0.421   3.971  10.723  1.00  0.00     0.185 HD
HETATM   18  N8  UNL     1      -2.175   3.730  12.720  1.00  0.00    -0.174 N 
ATOM     19  H8  UNL     1      -2.863   3.037  13.016  1.00  0.00     0.186 HD
BRANCH  16  20
HETATM   20  N7  UNL     1      -1.176   2.178  11.342  1.00  0.00    -0.234 N 
ATOM     21  H72 UNL     1      -1.342   1.379  11.955  1.00  0.00     0.174 HD
ATOM     22  H71 UNL     1      -0.980   2.053  10.349  1.00  0.00     0.174 HD
ENDBRANCH  16  20
ENDBRANCH   3   7
BRANCH   4  23
HETATM   23  O3  UNL     1      -6.385   5.720  14.288  1.00  0.00    -0.388 OA
ATOM     24  H3  UNL     1      -6.627   6.330  13.601  1.00  0.00     0.210 HD
ENDBRANCH   4  23
BRANCH   1  25
HETATM   25  C3  UNL     1      -4.326   1.420  14.816  1.00  0.00     0.202 C 
BRANCH  25  26
HETATM   26  O1  UNL     1      -4.621   0.449  13.906  1.00  0.00    -0.387 OA
BRANCH  26  27
HETATM   27  C2  UNL     1      -4.128   0.684  12.657  1.00  0.00     0.189 C 
BRANCH  27  28
HETATM   28  C1  UNL     1      -4.233  -0.506  11.735  1.00  0.00     0.181 C 
BRANCH  28  29
HETATM   29  N3  UNL     1      -2.872  -0.940  11.460  1.00  0.00    -0.251 N 
ATOM     30  H3  UNL     1      -2.122  -0.274  11.274  1.00  0.00     0.197 HD
BRANCH  29  31
HETATM   31  N2  UNL     1      -2.673  -2.160  11.463  1.00  0.00    -0.248 NA
BRANCH  31  32
HETATM   32  N1  UNL     1      -2.810  -3.391  11.439  1.00  0.00    -0.261 N 
ATOM     33  H12 UNL     1      -3.244  -3.427  12.361  1.00  0.00     0.193 HD
ATOM     34  H11 UNL     1      -2.804  -4.375  11.170  1.00  0.00     0.193 HD
ENDBRANCH  31  32
ENDBRANCH  29  31
ENDBRANCH  28  29
ENDBRANCH  27  28
ENDBRANCH  26  27
ENDBRANCH  25  26
ENDBRANCH   1  25
TORSDOF 10
ENDMDL
MODEL 4
REMARK VINA RESULT: -6.634967672      3.568      5.188
REMARK  10 active torsions:
REMARK  status: ('A' for Active; 'I' for Inactive)
REMARK    1  A    between atoms: N1_1  and  N2_4 
REMARK    2  A    between atoms: N2_4  and  N3_5 
REMARK    3  A    between atoms: N3_5  and  C1_7 
REMARK    4  A    between atoms: C1_7  and  C2_8 
REMARK    5  A    between atoms: C2_8  and  O1_9 
REMARK    6  A    between atoms: O1_9  and  C3_10 
REMARK    7  A    between atoms: C3_10  and  C4_11 
REMARK    8  A    between atoms: C5_13  and  N4_14 
REMARK    9  A    between atoms: C9_23  and  N7_24 
REMARK   10  A    between atoms: C11_30  and  O3_31 
ROOT
HETATM    1  C4  UNL     1      -2.630   5.212  12.720  1.00  0.00     0.184 C 
HETATM    2  O2  UNL     1      -3.509   4.128  12.642  1.00  0.00    -0.353 OA
HETATM    3  C5  UNL     1      -4.797   4.659  12.669  1.00  0.00     0.262 C 
HETATM    4  C11 UNL     1      -4.706   6.103  12.313  1.00  0.00     0.204 C 
HETATM    5  C12 UNL     1      -3.279   6.171  11.742  1.00  0.00     0.234 C 
HETATM    6  F1  UNL     1      -3.271   5.684  10.452  1.00  0.00    -0.244 F 
ENDROOT
BRANCH   3   7
HETATM    7  N4  UNL     1      -5.349   4.396  13.968  1.00  0.00    -0.297 N 
HETATM    8  C6  UNL     1      -6.085   5.228  14.730  1.00  0.00     0.188 A 
HETATM    9  N5  UNL     1      -6.397   4.572  15.879  1.00  0.00    -0.347 N 
HETATM   10  C7  UNL     1      -5.859   3.342  15.832  1.00  0.00     0.117 A 
ATOM     11  H5  UNL     1      -6.947   4.951  16.649  1.00  0.00     0.167 HD
HETATM   12  C8  UNL     1      -5.876   2.292  16.728  1.00  0.00     0.147 A 
HETATM   13  C10 UNL     1      -5.198   3.235  14.624  1.00  0.00     0.156 A 
HETATM   14  S1  UNL     1      -6.657   2.451  18.130  1.00  0.00    -0.057 SA
HETATM   15  N6  UNL     1      -5.247   1.150  16.431  1.00  0.00    -0.179 N 
HETATM   16  C9  UNL     1      -4.605   1.040  15.262  1.00  0.00     0.678 A 
ATOM     17  H6  UNL     1      -5.256   0.370  17.089  1.00  0.00     0.185 HD
HETATM   18  N8  UNL     1      -4.580   2.073  14.364  1.00  0.00    -0.174 N 
ATOM     19  H8  UNL     1      -4.082   1.957  13.481  1.00  0.00     0.186 HD
BRANCH  16  20
HETATM   20  N7  UNL     1      -4.005  -0.066  14.993  1.00  0.00    -0.234 N 
ATOM     21  H72 UNL     1      -4.051  -0.847  15.647  1.00  0.00     0.174 HD
ATOM     22  H71 UNL     1      -3.490  -0.138  14.116  1.00  0.00     0.174 HD
ENDBRANCH  16  20
ENDBRANCH   3   7
BRANCH   4  23
HETATM   23  O3  UNL     1      -5.633   6.503  11.360  1.00  0.00    -0.388 OA
ATOM     24  H3  UNL     1      -6.529   6.279  11.581  1.00  0.00     0.210 HD
ENDBRANCH   4  23
BRANCH   1  25
HETATM   25  C3  UNL     1      -1.248   4.809  12.318  1.00  0.00     0.202 C 
BRANCH  25  26
HETATM   26  O1  UNL     1      -1.060   3.464  12.207  1.00  0.00    -0.387 OA
BRANCH  26  27
HETATM   27  C2  UNL     1      -0.908   3.024  10.925  1.00  0.00     0.189 C 
BRANCH  27  28
HETATM   28  C1  UNL     1      -1.807   1.863  10.578  1.00  0.00     0.181 C 
BRANCH  28  29
HETATM   29  N3  UNL     1      -2.370   1.382  11.830  1.00  0.00    -0.251 N 
ATOM     30  H3  UNL     1      -1.894   1.520  12.722  1.00  0.00     0.197 HD
BRANCH  29  31
HETATM   31  N2  UNL     1      -3.456   0.798  11.756  1.00  0.00    -0.248 NA
BRANCH  31  32
HETATM   32  N1  UNL     1      -4.476   0.223  11.351  1.00  0.00    -0.261 N 
ATOM     33  H12 UNL     1      -3.954  -0.460  10.802  1.00  0.00     0.193 HD
ATOM     34  H11 UNL     1      -5.441  -0.056  11.173  1.00  0.00     0.193 HD
ENDBRANCH  31  32
ENDBRANCH  29  31
ENDBRANCH  28  29
ENDBRANCH  27  28
ENDBRANCH  26  27
ENDBRANCH  25  26
ENDBRANCH   1  25
TORSDOF 10
ENDMDL
MODEL 5
REMARK VINA RESULT: -6.634377600      1.326      1.720
REMARK  10 active torsions:
REMARK  status: ('A' for Active; 'I' for Inactive)
REMARK    1  A    between atoms: N1_1  and  N2_4 
REMARK    2  A    between atoms: N2_4  and  N3_5 
REMARK    3  A    between atoms: N3_5  and  C1_7 
REMARK    4  A    between atoms: C1_7  and  C2_8 
REMARK    5  A    between atoms: C2_8  and  O1_9 
REMARK    6  A    between atoms: O1_9  and  C3_10 
REMARK    7  A    between atoms: C3_10  and  C4_11 
REMARK    8  A    between atoms: C5_13  and  N4_14 
REMARK    9  A    between atoms: C9_23  and  N7_24 
REMARK   10  A    between atoms: C11_30  and  O3_31 
ROOT
HETATM    1  C4  UNL     1      -5.059   2.409  14.573  1.00  0.00     0.184 C 
HETATM    2  O2  UNL     1      -3.975   3.292  14.578  1.00  0.00    -0.353 OA
HETATM    3  C5  UNL     1      -4.508   4.576  14.470  1.00  0.00     0.262 C 
HETATM    4  C11 UNL     1      -5.948   4.508  14.846  1.00  0.00     0.204 C 
HETATM    5  C12 UNL     1      -6.008   3.123  15.514  1.00  0.00     0.234 C 
HETATM    6  F1  UNL     1      -5.507   3.203  16.796  1.00  0.00    -0.244 F 
ENDROOT
BRANCH   3   7
HETATM    7  N4  UNL     1      -4.260   5.037  13.134  1.00  0.00    -0.297 N 
HETATM    8  C6  UNL     1      -4.821   6.093  12.513  1.00  0.00     0.188 A 
HETATM    9  N5  UNL     1      -4.297   6.166  11.262  1.00  0.00    -0.347 N 
HETATM   10  C7  UNL     1      -3.417   5.163  11.104  1.00  0.00     0.117 A 
ATOM     11  H5  UNL     1      -4.533   6.866  10.558  1.00  0.00     0.167 HD
HETATM   12  C8  UNL     1      -2.622   4.791  10.038  1.00  0.00     0.147 A 
HETATM   13  C10 UNL     1      -3.397   4.453  12.288  1.00  0.00     0.156 A 
HETATM   14  S1  UNL     1      -2.672   5.642   8.669  1.00  0.00    -0.057 SA
HETATM   15  N6  UNL     1      -1.818   3.728  10.143  1.00  0.00    -0.179 N 
HETATM   16  C9  UNL     1      -1.793   3.036  11.289  1.00  0.00     0.678 A 
ATOM     17  H6  UNL     1      -1.228   3.448   9.360  1.00  0.00     0.185 HD
HETATM   18  N8  UNL     1      -2.576   3.394  12.354  1.00  0.00    -0.174 N 
ATOM     19  H8  UNL     1      -2.533   2.846  13.213  1.00  0.00     0.186 HD
BRANCH  16  20
HETATM   20  N7  UNL     1      -1.013   2.016  11.373  1.00  0.00    -0.234 N 
ATOM     21  H72 UNL     1      -1.171   1.199  10.784  1.00  0.00     0.174 HD
ATOM     22  H71 UNL     1      -0.240   2.050  12.037  1.00  0.00     0.174 HD
ENDBRANCH  16  20
ENDBRANCH   3   7
BRANCH   4  23
HETATM   23  O3  UNL     1      -6.339   5.497  15.739  1.00  0.00    -0.388 OA
ATOM     24  H3  UNL     1      -6.698   6.270  15.319  1.00  0.00     0.210 HD
ENDBRANCH   4  23
BRANCH   1  25
HETATM   25  C3  UNL     1      -4.650   1.058  15.063  1.00  0.00     0.202 C 
BRANCH  25  26
HETATM   26  O1  UNL     1      -4.699   0.075  14.121  1.00  0.00    -0.387 OA
BRANCH  26  27
HETATM   27  C2  UNL     1      -3.900   0.294  13.039  1.00  0.00     0.189 C 
BRANCH  27  28
HETATM   28  C1  UNL     1      -4.235  -0.580  11.856  1.00  0.00     0.181 C 
BRANCH  28  29
HETATM   29  N3  UNL     1      -4.102   0.252  10.671  1.00  0.00    -0.251 N 
ATOM     30  H3  UNL     1      -3.527  -0.031   9.877  1.00  0.00     0.197 HD
BRANCH  29  31
HETATM   31  N2  UNL     1      -4.722   1.321  10.677  1.00  0.00    -0.248 NA
BRANCH  31  32
HETATM   32  N1  UNL     1      -5.570   2.206  10.850  1.00  0.00    -0.261 N 
ATOM     33  H12 UNL     1      -5.222   2.453  11.777  1.00  0.00     0.193 HD
ATOM     34  H11 UNL     1      -6.350   2.855  10.739  1.00  0.00     0.193 HD
ENDBRANCH  31  32
ENDBRANCH  29  31
ENDBRANCH  28  29
ENDBRANCH  27  28
ENDBRANCH  26  27
ENDBRANCH  25  26
ENDBRANCH   1  25
TORSDOF 10
ENDMDL
