MODEL 1
REMARK VINA RESULT: -4.327063091      0.000      0.000
REMARK  1 active torsions:
REMARK  status: ('A' for Active; 'I' for Inactive)
REMARK    1  A    between atoms: N1_1  and  C1_5 
ROOT
HETATM    1  C1  UNL     1       5.288  -2.683  42.558  1.00  0.00     0.283 C 
HETATM    2  C2  UNL     1       4.014  -2.645  43.353  1.00  0.00     0.073 C 
HETATM    3  C3  UNL     1       2.951  -2.023  42.442  1.00  0.00     0.124 C 
HETATM    4  N2  UNL     1       3.381  -0.656  42.214  1.00  0.00    -0.386 N 
ATOM      5  H2  UNL     1       2.741   0.128  42.342  1.00  0.00     0.160 HD
HETATM    6  C4  UNL     1       4.724  -0.450  41.809  1.00  0.00     0.172 C 
HETATM    7  N3  UNL     1       5.567  -1.395  41.980  1.00  0.00    -0.359 N 
ATOM      8  H3  UNL     1       6.526  -1.221  41.679  1.00  0.00     0.162 HD
ENDROOT
BRANCH   1   9
HETATM    9  N1  UNL     1       6.439  -3.009  43.416  1.00  0.00    -0.058 N 
ATOM     10  H13 UNL     1       6.193  -2.972  44.405  1.00  0.00     0.276 HD
ATOM     11  H12 UNL     1       6.686  -3.996  43.353  1.00  0.00     0.276 HD
ATOM     12  H11 UNL     1       7.235  -2.409  43.205  1.00  0.00     0.276 HD
ENDBRANCH   1   9
TORSDOF 1
ENDMDL
MODEL 2
REMARK VINA RESULT: -4.102531617      1.373      2.009
REMARK  1 active torsions:
REMARK  status: ('A' for Active; 'I' for Inactive)
REMARK    1  A    between atoms: N1_1  and  C1_5 
ROOT
HETATM    1  C1  UNL     1       5.066  -2.274  43.211  1.00  0.00     0.283 C 
HETATM    2  C2  UNL     1       5.201  -1.481  41.942  1.00  0.00     0.073 C 
HETATM    3  C3  UNL     1       3.821  -0.882  41.655  1.00  0.00     0.124 C 
HETATM    4  N2  UNL     1       2.951  -2.014  41.389  1.00  0.00    -0.386 N 
ATOM      5  H2  UNL     1       2.351  -2.037  40.564  1.00  0.00     0.160 HD
HETATM    6  C4  UNL     1       2.966  -3.085  42.316  1.00  0.00     0.172 C 
HETATM    7  N3  UNL     1       3.946  -3.174  43.134  1.00  0.00    -0.359 N 
ATOM      8  H3  UNL     1       3.931  -3.954  43.791  1.00  0.00     0.162 HD
ENDROOT
BRANCH   1   9
HETATM    9  N1  UNL     1       6.253  -3.113  43.441  1.00  0.00    -0.058 N 
ATOM     10  H13 UNL     1       6.181  -4.008  42.957  1.00  0.00     0.276 HD
ATOM     11  H12 UNL     1       7.073  -2.742  42.961  1.00  0.00     0.276 HD
ATOM     12  H11 UNL     1       6.427  -3.239  44.437  1.00  0.00     0.276 HD
ENDBRANCH   1   9
TORSDOF 1
ENDMDL
MODEL 3
REMARK VINA RESULT: -3.917381619      1.622      2.310
REMARK  1 active torsions:
REMARK  status: ('A' for Active; 'I' for Inactive)
REMARK    1  A    between atoms: N1_1  and  C1_5 
ROOT
HETATM    1  C1  UNL     1       3.738  -2.621  43.303  1.00  0.00     0.283 C 
HETATM    2  C2  UNL     1       5.066  -2.895  42.656  1.00  0.00     0.073 C 
HETATM    3  C3  UNL     1       5.667  -1.531  42.301  1.00  0.00     0.124 C 
HETATM    4  N2  UNL     1       4.786  -0.965  41.297  1.00  0.00    -0.386 N 
ATOM      5  H2  UNL     1       5.153  -0.583  40.425  1.00  0.00     0.160 HD
HETATM    6  C4  UNL     1       3.395  -0.962  41.571  1.00  0.00     0.172 C 
HETATM    7  N3  UNL     1       2.951  -1.729  42.492  1.00  0.00    -0.359 N 
ATOM      8  H3  UNL     1       1.947  -1.707  42.670  1.00  0.00     0.162 HD
ENDROOT
BRANCH   1   9
HETATM    9  N1  UNL     1       2.951  -3.856  43.442  1.00  0.00    -0.058 N 
ATOM     10  H13 UNL     1       2.767  -4.076  44.420  1.00  0.00     0.276 HD
ATOM     11  H12 UNL     1       1.989  -3.725  43.128  1.00  0.00     0.276 HD
ATOM     12  H11 UNL     1       3.400  -4.634  42.960  1.00  0.00     0.276 HD
ENDBRANCH   1   9
TORSDOF 1
ENDMDL
MODEL 4
REMARK VINA RESULT: -3.798457614      1.056      2.708
REMARK  1 active torsions:
REMARK  status: ('A' for Active; 'I' for Inactive)
REMARK    1  A    between atoms: N1_1  and  C1_5 
ROOT
HETATM    1  C1  UNL     1       3.612  -0.653  42.073  1.00  0.00     0.283 C 
HETATM    2  C2  UNL     1       2.951  -1.953  42.432  1.00  0.00     0.073 C 
HETATM    3  C3  UNL     1       3.876  -2.648  43.436  1.00  0.00     0.124 C 
HETATM    4  N2  UNL     1       5.093  -2.949  42.703  1.00  0.00    -0.386 N 
ATOM      5  H2  UNL     1       5.506  -3.881  42.724  1.00  0.00     0.160 HD
HETATM    6  C4  UNL     1       5.685  -1.899  41.958  1.00  0.00     0.172 C 
HETATM    7  N3  UNL     1       4.982  -0.866  41.688  1.00  0.00    -0.359 N 
ATOM      8  H3  UNL     1       5.433  -0.125  41.151  1.00  0.00     0.162 HD
ENDROOT
BRANCH   1   9
HETATM    9  N1  UNL     1       2.952  -0.024  40.917  1.00  0.00    -0.058 N 
ATOM     10  H13 UNL     1       2.712   0.949  41.105  1.00  0.00     0.276 HD
ATOM     11  H12 UNL     1       3.604   0.122  40.147  1.00  0.00     0.276 HD
ATOM     12  H11 UNL     1       2.137  -0.561  40.622  1.00  0.00     0.276 HD
ENDBRANCH   1   9
TORSDOF 1
ENDMDL
MODEL 5
REMARK VINA RESULT: -3.451323716      1.615      3.040
REMARK  1 active torsions:
REMARK  status: ('A' for Active; 'I' for Inactive)
REMARK    1  A    between atoms: N1_1  and  C1_5 
ROOT
HETATM    1  C1  UNL     1       3.899  -0.895  41.946  1.00  0.00     0.283 C 
HETATM    2  C2  UNL     1       4.656  -1.162  43.215  1.00  0.00     0.073 C 
HETATM    3  C3  UNL     1       5.215  -2.584  43.098  1.00  0.00     0.124 C 
HETATM    4  N2  UNL     1       4.057  -3.458  43.073  1.00  0.00    -0.386 N 
ATOM      5  H2  UNL     1       3.996  -4.272  43.684  1.00  0.00     0.160 HD
HETATM    6  C4  UNL     1       3.015  -3.140  42.167  1.00  0.00     0.172 C 
HETATM    7  N3  UNL     1       2.972  -1.962  41.671  1.00  0.00    -0.359 N 
ATOM      8  H3  UNL     1       2.212  -1.760  41.022  1.00  0.00     0.162 HD
ENDROOT
BRANCH   1   9
HETATM    9  N1  UNL     1       3.095   0.332  42.056  1.00  0.00    -0.058 N 
ATOM     10  H13 UNL     1       2.222   0.165  42.556  1.00  0.00     0.276 HD
ATOM     11  H12 UNL     1       3.517   1.001  42.699  1.00  0.00     0.276 HD
ATOM     12  H11 UNL     1       2.929   0.746  41.139  1.00  0.00     0.276 HD
ENDBRANCH   1   9
TORSDOF 1
ENDMDL
