MODEL 1
REMARK VINA RESULT: -3.900085218      0.000      0.000
REMARK  0 active torsions:
REMARK  status: ('A' for Active; 'I' for Inactive)
ROOT
HETATM    1  C1  UNL     1       5.328  -2.259  42.670  1.00  0.00     0.082 C 
HETATM    2  N1  UNL     1       5.314  -1.405  41.733  1.00  0.00    -0.399 N 
ATOM      3  H1  UNL     1       6.176  -1.224  41.219  1.00  0.00     0.158 HD
HETATM    4  C2  UNL     1       4.131  -0.686  41.372  1.00  0.00     0.146 C 
HETATM    5  C3  UNL     1       2.953  -1.601  41.660  1.00  0.00     0.252 C 
HETATM    6  N2  UNL     1       2.982  -1.798  43.113  1.00  0.00    -0.069 N 
ATOM      7  H21 UNL     1       2.111  -2.200  43.463  1.00  0.00     0.277 HD
ATOM      8  H22 UNL     1       2.952  -0.914  43.621  1.00  0.00     0.277 HD
HETATM    9  C4  UNL     1       4.140  -2.600  43.479  1.00  0.00     0.276 C 
ENDROOT
TORSDOF 0
ENDMDL
MODEL 2
REMARK VINA RESULT: -3.855701471      0.419      2.027
REMARK  0 active torsions:
REMARK  status: ('A' for Active; 'I' for Inactive)
ROOT
HETATM    1  C1  UNL     1       3.956  -2.574  43.287  1.00  0.00     0.082 C 
HETATM    2  N1  UNL     1       2.951  -1.912  42.888  1.00  0.00    -0.399 N 
ATOM      3  H1  UNL     1       2.052  -2.058  43.346  1.00  0.00     0.158 HD
HETATM    4  C2  UNL     1       3.034  -0.968  41.815  1.00  0.00     0.146 C 
HETATM    5  C3  UNL     1       4.435  -0.383  41.849  1.00  0.00     0.252 C 
HETATM    6  N2  UNL     1       5.320  -1.520  41.571  1.00  0.00    -0.069 N 
ATOM      7  H21 UNL     1       6.266  -1.220  41.334  1.00  0.00     0.277 HD
ATOM      8  H22 UNL     1       5.087  -1.981  40.692  1.00  0.00     0.277 HD
HETATM    9  C4  UNL     1       5.304  -2.444  42.695  1.00  0.00     0.276 C 
ENDROOT
TORSDOF 0
ENDMDL
MODEL 3
REMARK VINA RESULT: -3.628896112      0.305      2.736
REMARK  0 active torsions:
REMARK  status: ('A' for Active; 'I' for Inactive)
ROOT
HETATM    1  C1  UNL     1       2.951  -1.249  41.855  1.00  0.00     0.082 C 
HETATM    2  N1  UNL     1       2.951  -1.971  42.897  1.00  0.00    -0.399 N 
ATOM      3  H1  UNL     1       2.058  -2.257  43.298  1.00  0.00     0.158 HD
HETATM    4  C2  UNL     1       4.161  -2.397  43.532  1.00  0.00     0.146 C 
HETATM    5  C3  UNL     1       5.206  -2.542  42.439  1.00  0.00     0.252 C 
HETATM    6  N2  UNL     1       5.382  -1.185  41.910  1.00  0.00    -0.069 N 
ATOM      7  H21 UNL     1       6.221  -1.103  41.335  1.00  0.00     0.277 HD
ATOM      8  H22 UNL     1       5.637  -0.520  42.640  1.00  0.00     0.277 HD
HETATM    9  C4  UNL     1       4.185  -0.776  41.192  1.00  0.00     0.276 C 
ENDROOT
TORSDOF 0
ENDMDL
MODEL 4
REMARK VINA RESULT: -3.585651773      0.517      2.002
REMARK  0 active torsions:
REMARK  status: ('A' for Active; 'I' for Inactive)
ROOT
HETATM    1  C1  UNL     1       4.316  -0.858  41.496  1.00  0.00     0.082 C 
HETATM    2  N1  UNL     1       5.356  -1.423  41.949  1.00  0.00    -0.399 N 
ATOM      3  H1  UNL     1       6.265  -0.993  41.776  1.00  0.00     0.158 HD
HETATM    4  C2  UNL     1       5.300  -2.642  42.697  1.00  0.00     0.146 C 
HETATM    5  C3  UNL     1       3.979  -2.639  43.447  1.00  0.00     0.252 C 
HETATM    6  N2  UNL     1       2.955  -2.660  42.397  1.00  0.00    -0.069 N 
ATOM      7  H21 UNL     1       2.033  -2.896  42.766  1.00  0.00     0.277 HD
ATOM      8  H22 UNL     1       3.069  -3.453  41.766  1.00  0.00     0.277 HD
HETATM    9  C4  UNL     1       2.951  -1.390  41.686  1.00  0.00     0.276 C 
ENDROOT
TORSDOF 0
ENDMDL
MODEL 5
REMARK VINA RESULT: -3.504949963      1.254      2.416
REMARK  0 active torsions:
REMARK  status: ('A' for Active; 'I' for Inactive)
ROOT
HETATM    1  C1  UNL     1       2.985  -2.773  42.241  1.00  0.00     0.082 C 
HETATM    2  N1  UNL     1       3.992  -3.350  42.752  1.00  0.00    -0.399 N 
ATOM      3  H1  UNL     1       3.939  -4.350  42.948  1.00  0.00     0.158 HD
HETATM    4  C2  UNL     1       5.199  -2.648  43.064  1.00  0.00     0.146 C 
HETATM    5  C3  UNL     1       5.331  -1.524  42.052  1.00  0.00     0.252 C 
HETATM    6  N2  UNL     1       4.177  -0.654  42.310  1.00  0.00    -0.069 N 
ATOM      7  H21 UNL     1       4.275   0.256  41.858  1.00  0.00     0.277 HD
ATOM      8  H22 UNL     1       4.147  -0.336  43.278  1.00  0.00     0.277 HD
HETATM    9  C4  UNL     1       2.951  -1.331  41.917  1.00  0.00     0.276 C 
ENDROOT
TORSDOF 0
ENDMDL
