MODEL 1
REMARK VINA RESULT: -3.952708740      0.000      0.000
REMARK  0 active torsions:
REMARK  status: ('A' for Active; 'I' for Inactive)
ROOT
HETATM    1  N1  UNL     1       6.121  -0.088  51.298  1.00  0.00    -0.106 NA
HETATM    2  C1  UNL     1       5.979   1.264  51.686  1.00  0.00     0.047 C 
HETATM    3  C2  UNL     1       5.455   1.762  52.796  1.00  0.00     0.024 C 
HETATM    4  C3  UNL     1       5.562   3.239  52.683  1.00  0.00     0.261 C 
HETATM    5  N2  UNL     1       6.767   3.363  51.883  1.00  0.00    -0.067 N 
ATOM      6  H21 UNL     1       7.647   3.213  52.374  1.00  0.00     0.277 HD
ATOM      7  H22 UNL     1       7.006   4.306  51.578  1.00  0.00     0.277 HD
HETATM    8  C4  UNL     1       6.450   2.397  50.813  1.00  0.00     0.286 C 
ENDROOT
TORSDOF 0
ENDMDL
MODEL 2
REMARK VINA RESULT: -3.872529952     10.280     10.618
REMARK  0 active torsions:
REMARK  status: ('A' for Active; 'I' for Inactive)
ROOT
HETATM    1  N1  UNL     1       3.400   0.421  41.912  1.00  0.00    -0.106 NA
HETATM    2  C1  UNL     1       3.970  -0.851  42.147  1.00  0.00     0.047 C 
HETATM    3  C2  UNL     1       5.245  -1.207  42.139  1.00  0.00     0.024 C 
HETATM    4  C3  UNL     1       5.276  -2.660  42.448  1.00  0.00     0.261 C 
HETATM    5  N2  UNL     1       4.106  -2.780  43.297  1.00  0.00    -0.067 N 
ATOM      6  H21 UNL     1       4.212  -2.448  44.255  1.00  0.00     0.277 HD
ATOM      7  H22 UNL     1       3.847  -3.728  43.571  1.00  0.00     0.277 HD
HETATM    8  C4  UNL     1       3.125  -2.056  42.466  1.00  0.00     0.286 C 
ENDROOT
TORSDOF 0
ENDMDL
MODEL 3
REMARK VINA RESULT: -3.866479474      0.890      1.600
REMARK  0 active torsions:
REMARK  status: ('A' for Active; 'I' for Inactive)
ROOT
HETATM    1  N1  UNL     1       6.038  -0.244  51.211  1.00  0.00    -0.106 NA
HETATM    2  C1  UNL     1       6.163   1.124  51.544  1.00  0.00     0.047 C 
HETATM    3  C2  UNL     1       6.709   2.106  50.845  1.00  0.00     0.024 C 
HETATM    4  C3  UNL     1       6.568   3.335  51.667  1.00  0.00     0.261 C 
HETATM    5  N2  UNL     1       5.337   3.044  52.379  1.00  0.00    -0.067 N 
ATOM      6  H21 UNL     1       4.475   3.153  51.845  1.00  0.00     0.277 HD
ATOM      7  H22 UNL     1       5.068   3.714  53.100  1.00  0.00     0.277 HD
HETATM    8  C4  UNL     1       5.642   1.678  52.845  1.00  0.00     0.286 C 
ENDROOT
TORSDOF 0
ENDMDL
MODEL 4
REMARK VINA RESULT: -3.755247721      7.645      8.542
REMARK  0 active torsions:
REMARK  status: ('A' for Active; 'I' for Inactive)
ROOT
HETATM    1  N1  UNL     1       8.523   3.352  44.195  1.00  0.00    -0.106 NA
HETATM    2  C1  UNL     1       9.801   3.711  44.681  1.00  0.00     0.047 C 
HETATM    3  C2  UNL     1      10.734   4.454  44.106  1.00  0.00     0.024 C 
HETATM    4  C3  UNL     1      11.874   4.505  45.057  1.00  0.00     0.261 C 
HETATM    5  N2  UNL     1      11.173   4.404  46.324  1.00  0.00    -0.067 N 
ATOM      6  H21 UNL     1      10.706   5.252  46.646  1.00  0.00     0.277 HD
ATOM      7  H22 UNL     1      11.760   4.318  47.154  1.00  0.00     0.277 HD
HETATM    8  C4  UNL     1      10.297   3.255  46.029  1.00  0.00     0.286 C 
ENDROOT
TORSDOF 0
ENDMDL
MODEL 5
REMARK VINA RESULT: -3.716227549      9.901     10.804
REMARK  0 active torsions:
REMARK  status: ('A' for Active; 'I' for Inactive)
ROOT
HETATM    1  N1  UNL     1       4.826   0.043  41.946  1.00  0.00    -0.106 NA
HETATM    2  C1  UNL     1       4.212  -1.201  42.219  1.00  0.00     0.047 C 
HETATM    3  C2  UNL     1       3.166  -1.761  41.633  1.00  0.00     0.024 C 
HETATM    4  C3  UNL     1       2.951  -3.063  42.315  1.00  0.00     0.261 C 
HETATM    5  N2  UNL     1       4.312  -3.399  42.691  1.00  0.00    -0.067 N 
ATOM      6  H21 UNL     1       4.910  -3.749  41.943  1.00  0.00     0.277 HD
ATOM      7  H22 UNL     1       4.423  -4.228  43.275  1.00  0.00     0.277 HD
HETATM    8  C4  UNL     1       4.720  -2.119  43.300  1.00  0.00     0.286 C 
ENDROOT
TORSDOF 0
ENDMDL
