MODEL 1
REMARK VINA RESULT: -6.028254968      0.000      0.000
REMARK  1 active torsions:
REMARK  status: ('A' for Active; 'I' for Inactive)
REMARK    1  A    between atoms: C2_4  and  C3_5 
ROOT
HETATM    1  C3  UNL     1      -1.843  60.503  31.311  1.00  0.00     0.283 C 
HETATM    2  N2  UNL     1      -0.626  60.573  30.518  1.00  0.00    -0.058 N 
ATOM      3  H21 UNL     1      -0.071  61.408  30.709  1.00  0.00     0.278 HD
ATOM      4  H22 UNL     1      -0.801  60.757  29.531  1.00  0.00     0.278 HD
HETATM    5  C4  UNL     1       0.093  59.356  30.745  1.00  0.00     0.235 C 
HETATM    6  C5  UNL     1      -0.411  58.193  29.944  1.00  0.00     0.038 C 
HETATM    7  C6  UNL     1      -1.832  57.846  30.166  1.00  0.00     0.078 C 
HETATM    8  S1  UNL     1      -2.896  59.304  30.425  1.00  0.00    -0.131 SA
ENDROOT
BRANCH   1   9
HETATM    9  C2  UNL     1      -2.500  61.808  31.464  1.00  0.00     0.019 A 
HETATM   10  C1  UNL     1      -2.014  63.007  31.934  1.00  0.00     0.160 A 
HETATM   11  N1  UNL     1      -2.998  63.922  31.882  1.00  0.00    -0.130 N 
HETATM   12  F1  UNL     1      -2.934  65.217  32.250  1.00  0.00    -0.077 F 
HETATM   13  N3  UNL     1      -4.068  63.342  31.401  1.00  0.00    -0.282 N 
HETATM   14  C7  UNL     1      -3.817  62.042  31.127  1.00  0.00     0.121 A 
ATOM     15  H3  UNL     1      -4.964  63.805  31.253  1.00  0.00     0.188 HD
ENDBRANCH   1   9
TORSDOF 1
ENDMDL
MODEL 2
REMARK VINA RESULT: -5.857674514      0.737      1.272
REMARK  1 active torsions:
REMARK  status: ('A' for Active; 'I' for Inactive)
REMARK    1  A    between atoms: C2_4  and  C3_5 
ROOT
HETATM    1  C3  UNL     1      -1.951  60.611  31.323  1.00  0.00     0.283 C 
HETATM    2  N2  UNL     1      -0.726  60.674  30.541  1.00  0.00    -0.058 N 
ATOM      3  H21 UNL     1      -0.165  61.503  30.741  1.00  0.00     0.278 HD
ATOM      4  H22 UNL     1      -0.891  60.865  29.553  1.00  0.00     0.278 HD
HETATM    5  C4  UNL     1      -0.020  59.450  30.768  1.00  0.00     0.235 C 
HETATM    6  C5  UNL     1      -0.527  58.296  29.956  1.00  0.00     0.038 C 
HETATM    7  C6  UNL     1      -1.953  57.960  30.164  1.00  0.00     0.078 C 
HETATM    8  S1  UNL     1      -3.006  59.426  30.422  1.00  0.00    -0.131 SA
ENDROOT
BRANCH   1   9
HETATM    9  C2  UNL     1      -2.597  61.921  31.477  1.00  0.00     0.019 A 
HETATM   10  C1  UNL     1      -3.846  62.355  31.095  1.00  0.00     0.160 A 
HETATM   11  N1  UNL     1      -3.985  63.643  31.455  1.00  0.00    -0.130 N 
HETATM   12  F1  UNL     1      -5.056  64.438  31.264  1.00  0.00    -0.077 F 
HETATM   13  N3  UNL     1      -2.878  64.023  32.040  1.00  0.00    -0.282 N 
HETATM   14  C7  UNL     1      -1.991  63.003  32.080  1.00  0.00     0.121 A 
ATOM     15  H3  UNL     1      -2.707  64.957  32.414  1.00  0.00     0.188 HD
ENDBRANCH   1   9
TORSDOF 1
ENDMDL
MODEL 3
REMARK VINA RESULT: -5.578982270      3.560      4.053
REMARK  1 active torsions:
REMARK  status: ('A' for Active; 'I' for Inactive)
REMARK    1  A    between atoms: C2_4  and  C3_5 
ROOT
HETATM    1  C3  UNL     1      -2.766  59.229  31.009  1.00  0.00     0.283 C 
HETATM    2  N2  UNL     1      -2.119  60.476  30.636  1.00  0.00    -0.058 N 
ATOM      3  H21 UNL     1      -2.669  61.301  30.876  1.00  0.00     0.278 HD
ATOM      4  H22 UNL     1      -2.092  60.628  29.627  1.00  0.00     0.278 HD
HETATM    5  C4  UNL     1      -0.821  60.471  31.238  1.00  0.00     0.235 C 
HETATM    6  C5  UNL     1       0.197  59.669  30.484  1.00  0.00     0.038 C 
HETATM    7  C6  UNL     1      -0.143  58.242  30.294  1.00  0.00     0.078 C 
HETATM    8  S1  UNL     1      -1.920  57.959  30.007  1.00  0.00    -0.131 SA
ENDROOT
BRANCH   1   9
HETATM    9  C2  UNL     1      -4.216  59.246  30.770  1.00  0.00     0.019 A 
HETATM   10  C1  UNL     1      -5.125  58.214  30.696  1.00  0.00     0.160 A 
HETATM   11  N1  UNL     1      -6.344  58.729  30.460  1.00  0.00    -0.130 N 
HETATM   12  F1  UNL     1      -7.504  58.059  30.318  1.00  0.00    -0.077 F 
HETATM   13  N3  UNL     1      -6.228  60.031  30.385  1.00  0.00    -0.282 N 
HETATM   14  C7  UNL     1      -4.941  60.401  30.569  1.00  0.00     0.121 A 
ATOM     15  H3  UNL     1      -7.000  60.675  30.213  1.00  0.00     0.188 HD
ENDBRANCH   1   9
TORSDOF 1
ENDMDL
MODEL 4
REMARK VINA RESULT: -5.455311879      3.747      5.060
REMARK  1 active torsions:
REMARK  status: ('A' for Active; 'I' for Inactive)
REMARK    1  A    between atoms: C2_4  and  C3_5 
ROOT
HETATM    1  C3  UNL     1      -2.972  59.336  31.018  1.00  0.00     0.283 C 
HETATM    2  N2  UNL     1      -3.749  58.374  30.252  1.00  0.00    -0.058 N 
ATOM      3  H21 UNL     1      -3.290  57.466  30.167  1.00  0.00     0.278 HD
ATOM      4  H22 UNL     1      -3.789  58.593  29.257  1.00  0.00     0.278 HD
HETATM    5  C4  UNL     1      -5.040  58.296  30.864  1.00  0.00     0.235 C 
HETATM    6  C5  UNL     1      -5.965  59.411  30.477  1.00  0.00     0.038 C 
HETATM    7  C6  UNL     1      -5.474  60.771  30.790  1.00  0.00     0.078 C 
HETATM    8  S1  UNL     1      -3.676  60.957  30.559  1.00  0.00    -0.131 SA
ENDROOT
BRANCH   1   9
HETATM    9  C2  UNL     1      -1.532  59.259  30.737  1.00  0.00     0.019 A 
HETATM   10  C1  UNL     1      -0.832  58.474  29.849  1.00  0.00     0.160 A 
HETATM   11  N1  UNL     1       0.477  58.764  29.955  1.00  0.00    -0.130 N 
HETATM   12  F1  UNL     1       1.496  58.218  29.263  1.00  0.00    -0.077 F 
HETATM   13  N3  UNL     1       0.615  59.691  30.868  1.00  0.00    -0.282 N 
HETATM   14  C7  UNL     1      -0.588  60.032  31.381  1.00  0.00     0.121 A 
ATOM     15  H3  UNL     1       1.506  60.099  31.153  1.00  0.00     0.188 HD
ENDBRANCH   1   9
TORSDOF 1
ENDMDL
MODEL 5
REMARK VINA RESULT: -5.389722646      1.302      1.674
REMARK  1 active torsions:
REMARK  status: ('A' for Active; 'I' for Inactive)
REMARK    1  A    between atoms: C2_4  and  C3_5 
ROOT
HETATM    1  C3  UNL     1      -2.467  60.295  30.441  1.00  0.00     0.283 C 
HETATM    2  N2  UNL     1      -3.107  59.203  31.158  1.00  0.00    -0.058 N 
ATOM      3  H21 UNL     1      -4.042  59.438  31.492  1.00  0.00     0.278 HD
ATOM      4  H22 UNL     1      -2.685  59.021  32.069  1.00  0.00     0.278 HD
HETATM    5  C4  UNL     1      -3.089  58.064  30.292  1.00  0.00     0.235 C 
HETATM    6  C5  UNL     1      -1.778  57.336  30.271  1.00  0.00     0.038 C 
HETATM    7  C6  UNL     1      -0.614  58.151  29.858  1.00  0.00     0.078 C 
HETATM    8  S1  UNL     1      -0.691  59.871  30.457  1.00  0.00    -0.131 SA
ENDROOT
BRANCH   1   9
HETATM    9  C2  UNL     1      -2.727  61.607  31.048  1.00  0.00     0.019 A 
HETATM   10  C1  UNL     1      -1.894  62.457  31.740  1.00  0.00     0.160 A 
HETATM   11  N1  UNL     1      -2.592  63.547  32.101  1.00  0.00    -0.130 N 
HETATM   12  F1  UNL     1      -2.146  64.615  32.791  1.00  0.00    -0.077 F 
HETATM   13  N3  UNL     1      -3.818  63.408  31.665  1.00  0.00    -0.282 N 
HETATM   14  C7  UNL     1      -3.956  62.233  31.011  1.00  0.00     0.121 A 
ATOM     15  H3  UNL     1      -4.564  64.090  31.799  1.00  0.00     0.188 HD
ENDBRANCH   1   9
TORSDOF 1
ENDMDL
