MODEL 1
REMARK VINA RESULT: -6.015712198      0.000      0.000
REMARK  2 active torsions:
REMARK  status: ('A' for Active; 'I' for Inactive)
REMARK    1  A    between atoms: C5_6  and  S1_7 
REMARK    2  A    between atoms: S1_7  and  C6_8 
ROOT
HETATM    1  C6  UNL     1      -2.653  63.153  31.912  1.00  0.00     0.136 C 
HETATM    2  N1  UNL     1      -3.784  63.377  31.378  1.00  0.00    -0.369 N 
ATOM      3  H1  UNL     1      -4.407  62.648  31.031  1.00  0.00     0.161 HD
HETATM    4  C7  UNL     1      -4.082  64.792  31.322  1.00  0.00     0.141 C 
HETATM    5  C8  UNL     1      -2.754  65.427  31.572  1.00  0.00     0.141 C 
HETATM    6  N2  UNL     1      -2.030  64.374  32.291  1.00  0.00    -0.369 N 
ATOM      7  H2  UNL     1      -1.243  64.492  32.930  1.00  0.00     0.161 HD
ENDROOT
BRANCH   1   8
HETATM    8  S1  UNL     1      -1.846  61.560  32.202  1.00  0.00    -0.087 SA
BRANCH   8   9
HETATM    9  C5  UNL     1      -1.900  60.638  30.633  1.00  0.00     0.089 C 
HETATM   10  C1  UNL     1      -2.770  59.436  30.699  1.00  0.00     0.184 C 
HETATM   11  F1  UNL     1      -3.805  59.614  29.775  1.00  0.00    -0.248 F 
HETATM   12  C2  UNL     1      -1.956  58.264  30.218  1.00  0.00     0.038 C 
HETATM   13  C3  UNL     1      -0.656  58.799  29.702  1.00  0.00     0.004 C 
HETATM   14  C4  UNL     1      -0.477  60.137  30.389  1.00  0.00     0.018 C 
ENDBRANCH   8   9
ENDBRANCH   1   8
TORSDOF 2
ENDMDL
MODEL 2
REMARK VINA RESULT: -5.804298138      0.163      1.102
REMARK  2 active torsions:
REMARK  status: ('A' for Active; 'I' for Inactive)
REMARK    1  A    between atoms: C5_6  and  S1_7 
REMARK    2  A    between atoms: S1_7  and  C6_8 
ROOT
HETATM    1  C6  UNL     1      -2.534  63.080  31.883  1.00  0.00     0.136 C 
HETATM    2  N1  UNL     1      -1.977  64.195  32.128  1.00  0.00    -0.369 N 
ATOM      3  H1  UNL     1      -1.060  64.293  32.565  1.00  0.00     0.161 HD
HETATM    4  C7  UNL     1      -2.799  65.311  31.713  1.00  0.00     0.141 C 
HETATM    5  C8  UNL     1      -4.140  64.687  31.515  1.00  0.00     0.141 C 
HETATM    6  N2  UNL     1      -3.802  63.280  31.272  1.00  0.00    -0.369 N 
ATOM      7  H2  UNL     1      -4.360  62.590  30.769  1.00  0.00     0.161 HD
ENDROOT
BRANCH   1   8
HETATM    8  S1  UNL     1      -1.907  61.416  32.216  1.00  0.00    -0.087 SA
BRANCH   8   9
HETATM    9  C5  UNL     1      -1.920  60.512  30.636  1.00  0.00     0.089 C 
HETATM   10  C1  UNL     1      -2.753  59.283  30.681  1.00  0.00     0.184 C 
HETATM   11  F1  UNL     1      -3.786  59.441  29.750  1.00  0.00    -0.248 F 
HETATM   12  C2  UNL     1      -1.900  58.142  30.193  1.00  0.00     0.038 C 
HETATM   13  C3  UNL     1      -0.613  58.722  29.694  1.00  0.00     0.004 C 
HETATM   14  C4  UNL     1      -0.481  60.058  30.398  1.00  0.00     0.018 C 
ENDBRANCH   8   9
ENDBRANCH   1   8
TORSDOF 2
ENDMDL
MODEL 3
REMARK VINA RESULT: -5.772455116      3.666      4.712
REMARK  2 active torsions:
REMARK  status: ('A' for Active; 'I' for Inactive)
REMARK    1  A    between atoms: C5_6  and  S1_7 
REMARK    2  A    between atoms: S1_7  and  C6_8 
ROOT
HETATM    1  C6  UNL     1      -5.115  59.293  30.494  1.00  0.00     0.136 C 
HETATM    2  N1  UNL     1      -5.167  58.074  30.850  1.00  0.00    -0.369 N 
ATOM      3  H1  UNL     1      -4.347  57.490  31.012  1.00  0.00     0.161 HD
HETATM    4  C7  UNL     1      -6.531  57.614  30.997  1.00  0.00     0.141 C 
HETATM    5  C8  UNL     1      -7.321  58.668  30.291  1.00  0.00     0.141 C 
HETATM    6  N2  UNL     1      -6.425  59.827  30.351  1.00  0.00    -0.369 N 
ATOM      7  H2  UNL     1      -6.687  60.812  30.301  1.00  0.00     0.161 HD
ENDROOT
BRANCH   1   8
HETATM    8  S1  UNL     1      -3.650  60.308  30.184  1.00  0.00    -0.087 SA
BRANCH   8   9
HETATM    9  C5  UNL     1      -2.238  59.464  30.964  1.00  0.00     0.089 C 
HETATM   10  C1  UNL     1      -1.073  60.362  31.173  1.00  0.00     0.184 C 
HETATM   11  F1  UNL     1      -0.840  60.434  32.551  1.00  0.00    -0.248 F 
HETATM   12  C2  UNL     1       0.129  59.688  30.565  1.00  0.00     0.038 C 
HETATM   13  C3  UNL     1      -0.287  58.312  30.147  1.00  0.00     0.004 C 
HETATM   14  C4  UNL     1      -1.791  58.388  29.976  1.00  0.00     0.018 C 
ENDBRANCH   8   9
ENDBRANCH   1   8
TORSDOF 2
ENDMDL
MODEL 4
REMARK VINA RESULT: -5.554523796      3.667      4.705
REMARK  2 active torsions:
REMARK  status: ('A' for Active; 'I' for Inactive)
REMARK    1  A    between atoms: C5_6  and  S1_7 
REMARK    2  A    between atoms: S1_7  and  C6_8 
ROOT
HETATM    1  C6  UNL     1      -5.198  59.376  30.439  1.00  0.00     0.136 C 
HETATM    2  N1  UNL     1      -6.416  59.651  30.203  1.00  0.00    -0.369 N 
ATOM      3  H1  UNL     1      -6.750  60.571  29.918  1.00  0.00     0.161 HD
HETATM    4  C7  UNL     1      -7.273  58.500  30.388  1.00  0.00     0.141 C 
HETATM    5  C8  UNL     1      -6.409  57.555  31.157  1.00  0.00     0.141 C 
HETATM    6  N2  UNL     1      -5.058  58.011  30.814  1.00  0.00    -0.369 N 
ATOM      7  H2  UNL     1      -4.198  57.464  30.838  1.00  0.00     0.161 HD
ENDROOT
BRANCH   1   8
HETATM    8  S1  UNL     1      -3.763  60.474  30.346  1.00  0.00    -0.087 SA
BRANCH   8   9
HETATM    9  C5  UNL     1      -2.346  59.563  31.037  1.00  0.00     0.089 C 
HETATM   10  C1  UNL     1      -1.156  60.425  31.251  1.00  0.00     0.184 C 
HETATM   11  F1  UNL     1      -0.876  60.423  32.622  1.00  0.00    -0.248 F 
HETATM   12  C2  UNL     1       0.011  59.759  30.571  1.00  0.00     0.038 C 
HETATM   13  C3  UNL     1      -0.449  58.414  30.099  1.00  0.00     0.004 C 
HETATM   14  C4  UNL     1      -1.955  58.529  29.981  1.00  0.00     0.018 C 
ENDBRANCH   8   9
ENDBRANCH   1   8
TORSDOF 2
ENDMDL
MODEL 5
REMARK VINA RESULT: -5.514449303      1.620      2.027
REMARK  2 active torsions:
REMARK  status: ('A' for Active; 'I' for Inactive)
REMARK    1  A    between atoms: C5_6  and  S1_7 
REMARK    2  A    between atoms: S1_7  and  C6_8 
ROOT
HETATM    1  C6  UNL     1      -3.499  62.541  31.300  1.00  0.00     0.136 C 
HETATM    2  N1  UNL     1      -4.040  63.678  31.132  1.00  0.00    -0.369 N 
ATOM      3  H1  UNL     1      -4.863  63.840  30.551  1.00  0.00     0.161 HD
HETATM    4  C7  UNL     1      -3.349  64.717  31.865  1.00  0.00     0.141 C 
HETATM    5  C8  UNL     1      -2.046  64.074  32.212  1.00  0.00     0.141 C 
HETATM    6  N2  UNL     1      -2.374  62.646  32.163  1.00  0.00    -0.369 N 
ATOM      7  H2  UNL     1      -1.896  61.886  32.647  1.00  0.00     0.161 HD
ENDROOT
BRANCH   1   8
HETATM    8  S1  UNL     1      -3.996  60.949  30.597  1.00  0.00    -0.087 SA
BRANCH   8   9
HETATM    9  C5  UNL     1      -2.727  59.733  31.076  1.00  0.00     0.089 C 
HETATM   10  C1  UNL     1      -1.415  59.984  30.427  1.00  0.00     0.184 C 
HETATM   11  F1  UNL     1      -0.487  60.246  31.442  1.00  0.00    -0.248 F 
HETATM   12  C2  UNL     1      -0.985  58.700  29.768  1.00  0.00     0.038 C 
HETATM   13  C3  UNL     1      -1.960  57.637  30.172  1.00  0.00     0.004 C 
HETATM   14  C4  UNL     1      -3.221  58.383  30.558  1.00  0.00     0.018 C 
ENDBRANCH   8   9
ENDBRANCH   1   8
TORSDOF 2
ENDMDL
