MODEL 1
REMARK VINA RESULT: -6.590649137      0.000      0.000
REMARK  6 active torsions:
REMARK  status: ('A' for Active; 'I' for Inactive)
REMARK       I    between atoms: N1_5  and  C5_6 
REMARK    1  A    between atoms: C5_6  and  C6_8 
REMARK    2  A    between atoms: C6_8  and  C7_9 
REMARK    3  A    between atoms: C7_9  and  C8_10 
REMARK    4  A    between atoms: C8_10  and  C9_11 
REMARK    5  A    between atoms: C9_11  and  C10_12 
REMARK    6  A    between atoms: C10_12  and  C11_13 
REMARK       I    between atoms: C11_13  and  N2_15 
ROOT
HETATM    1  C7  UNL     1      -7.216  -2.878 -31.417  1.00  0.00     0.009 C 
ENDROOT
BRANCH   1   2
HETATM    2  C6  UNL     1      -5.866  -2.843 -30.734  1.00  0.00     0.103 C 
BRANCH   2   3
HETATM    3  C5  UNL     1      -5.222  -4.169 -30.610  1.00  0.00     0.219 C 
HETATM    4  N1  UNL     1      -3.819  -4.242 -30.444  1.00  0.00    -0.352 N 
HETATM    5  C4  UNL     1      -3.178  -5.513 -30.323  1.00  0.00     0.126 C 
HETATM    6  C13 UNL     1      -3.011  -3.046 -30.397  1.00  0.00     0.126 C 
HETATM    7  C3  UNL     1      -1.879  -5.597 -31.094  1.00  0.00     0.024 C 
HETATM    8  C2  UNL     1      -1.022  -4.375 -30.880  1.00  0.00    -0.015 C 
HETATM    9  C1  UNL     1       0.319  -4.786 -30.311  1.00  0.00     0.010 C 
HETATM   10  C14 UNL     1      -1.652  -3.419 -29.889  1.00  0.00     0.024 C 
HETATM   11  O1  UNL     1      -5.896  -5.220 -30.653  1.00  0.00    -0.273 OA
ENDBRANCH   2   3
ENDBRANCH   1   2
BRANCH   1  12
HETATM   12  C8  UNL     1      -7.881  -1.585 -31.583  1.00  0.00     0.001 C 
BRANCH  12  13
HETATM   13  C9  UNL     1      -9.124  -1.249 -30.878  1.00  0.00     0.009 C 
BRANCH  13  14
HETATM   14  C10 UNL     1     -10.084  -2.373 -30.726  1.00  0.00     0.103 C 
BRANCH  14  15
HETATM   15  C11 UNL     1     -10.468  -2.752 -29.396  1.00  0.00     0.223 C 
HETATM   16  O2  UNL     1     -10.602  -2.017 -28.376  1.00  0.00    -0.273 OA
HETATM   17  N2  UNL     1     -10.745  -4.157 -29.118  1.00  0.00    -0.304 N 
HETATM   18  C12 UNL     1      -9.763  -4.873 -28.744  1.00  0.00     0.203 C 
ATOM     19  H2  UNL     1     -11.683  -4.548 -29.219  1.00  0.00     0.171 HD
HETATM   20  N3  UNL     1      -8.474  -4.318 -28.611  1.00  0.00    -0.066 NA
HETATM   21  N4  UNL     1      -9.967  -6.243 -28.461  1.00  0.00    -0.066 NA
ENDBRANCH  14  15
ENDBRANCH  13  14
ENDBRANCH  12  13
ENDBRANCH   1  12
TORSDOF 6
ENDMDL
MODEL 2
REMARK VINA RESULT: -6.567327344      3.816      4.441
REMARK  6 active torsions:
REMARK  status: ('A' for Active; 'I' for Inactive)
REMARK       I    between atoms: N1_5  and  C5_6 
REMARK    1  A    between atoms: C5_6  and  C6_8 
REMARK    2  A    between atoms: C6_8  and  C7_9 
REMARK    3  A    between atoms: C7_9  and  C8_10 
REMARK    4  A    between atoms: C8_10  and  C9_11 
REMARK    5  A    between atoms: C9_11  and  C10_12 
REMARK    6  A    between atoms: C10_12  and  C11_13 
REMARK       I    between atoms: C11_13  and  N2_15 
ROOT
HETATM    1  C7  UNL     1      -7.407  -3.040 -30.930  1.00  0.00     0.009 C 
ENDROOT
BRANCH   1   2
HETATM    2  C6  UNL     1      -5.909  -2.948 -30.736  1.00  0.00     0.103 C 
BRANCH   2   3
HETATM    3  C5  UNL     1      -5.240  -4.261 -30.604  1.00  0.00     0.219 C 
HETATM    4  N1  UNL     1      -3.835  -4.307 -30.440  1.00  0.00    -0.352 N 
HETATM    5  C4  UNL     1      -3.170  -5.564 -30.312  1.00  0.00     0.126 C 
HETATM    6  C13 UNL     1      -3.050  -3.095 -30.403  1.00  0.00     0.126 C 
HETATM    7  C3  UNL     1      -1.871  -5.629 -31.085  1.00  0.00     0.024 C 
HETATM    8  C2  UNL     1      -1.037  -4.390 -30.881  1.00  0.00    -0.015 C 
HETATM    9  C1  UNL     1       0.313  -4.772 -30.313  1.00  0.00     0.010 C 
HETATM   10  C14 UNL     1      -1.683  -3.439 -29.895  1.00  0.00     0.024 C 
HETATM   11  O1  UNL     1      -5.894  -5.324 -30.638  1.00  0.00    -0.273 OA
ENDBRANCH   2   3
ENDBRANCH   1   2
BRANCH   1  12
HETATM   12  C8  UNL     1      -8.055  -1.842 -31.464  1.00  0.00     0.001 C 
BRANCH  12  13
HETATM   13  C9  UNL     1      -8.115  -1.561 -32.904  1.00  0.00     0.009 C 
BRANCH  13  14
HETATM   14  C10 UNL     1      -9.167  -2.304 -33.645  1.00  0.00     0.103 C 
BRANCH  14  15
HETATM   15  C11 UNL     1      -9.757  -1.669 -34.790  1.00  0.00     0.223 C 
HETATM   16  O2  UNL     1     -10.927  -1.206 -34.916  1.00  0.00    -0.273 OA
HETATM   17  N2  UNL     1      -8.957  -1.518 -36.000  1.00  0.00    -0.304 N 
HETATM   18  C12 UNL     1      -9.005  -2.468 -36.844  1.00  0.00     0.203 C 
ATOM     19  H2  UNL     1      -8.385  -0.689 -36.162  1.00  0.00     0.171 HD
HETATM   20  N3  UNL     1      -9.800  -3.607 -36.602  1.00  0.00    -0.066 NA
HETATM   21  N4  UNL     1      -8.251  -2.382 -38.036  1.00  0.00    -0.066 NA
ENDBRANCH  14  15
ENDBRANCH  13  14
ENDBRANCH  12  13
ENDBRANCH   1  12
TORSDOF 6
ENDMDL
MODEL 3
REMARK VINA RESULT: -6.395444417      1.777      2.334
REMARK  6 active torsions:
REMARK  status: ('A' for Active; 'I' for Inactive)
REMARK       I    between atoms: N1_5  and  C5_6 
REMARK    1  A    between atoms: C5_6  and  C6_8 
REMARK    2  A    between atoms: C6_8  and  C7_9 
REMARK    3  A    between atoms: C7_9  and  C8_10 
REMARK    4  A    between atoms: C8_10  and  C9_11 
REMARK    5  A    between atoms: C9_11  and  C10_12 
REMARK    6  A    between atoms: C10_12  and  C11_13 
REMARK       I    between atoms: C11_13  and  N2_15 
ROOT
HETATM    1  C7  UNL     1      -7.405  -2.930 -30.962  1.00  0.00     0.009 C 
ENDROOT
BRANCH   1   2
HETATM    2  C6  UNL     1      -5.904  -2.871 -30.781  1.00  0.00     0.103 C 
BRANCH   2   3
HETATM    3  C5  UNL     1      -5.266  -4.197 -30.626  1.00  0.00     0.219 C 
HETATM    4  N1  UNL     1      -3.865  -4.273 -30.447  1.00  0.00    -0.352 N 
HETATM    5  C4  UNL     1      -3.231  -5.544 -30.297  1.00  0.00     0.126 C 
HETATM    6  C13 UNL     1      -3.052  -3.079 -30.418  1.00  0.00     0.126 C 
HETATM    7  C3  UNL     1      -1.926  -5.649 -31.055  1.00  0.00     0.024 C 
HETATM    8  C2  UNL     1      -1.065  -4.426 -30.860  1.00  0.00    -0.015 C 
HETATM    9  C1  UNL     1       0.270  -4.832 -30.272  1.00  0.00     0.010 C 
HETATM   10  C14 UNL     1      -1.699  -3.448 -29.891  1.00  0.00     0.024 C 
HETATM   11  O1  UNL     1      -5.945  -5.246 -30.653  1.00  0.00    -0.273 OA
ENDBRANCH   2   3
ENDBRANCH   1   2
BRANCH   1  12
HETATM   12  C8  UNL     1      -8.045  -1.686 -31.393  1.00  0.00     0.001 C 
BRANCH  12  13
HETATM   13  C9  UNL     1      -9.286  -1.193 -30.784  1.00  0.00     0.009 C 
BRANCH  13  14
HETATM   14  C10 UNL     1     -10.172  -2.246 -30.225  1.00  0.00     0.103 C 
BRANCH  14  15
HETATM   15  C11 UNL     1     -10.348  -2.289 -28.800  1.00  0.00     0.223 C 
HETATM   16  O2  UNL     1     -10.121  -3.249 -28.009  1.00  0.00    -0.273 OA
HETATM   17  N2  UNL     1     -10.861  -1.106 -28.119  1.00  0.00    -0.304 N 
HETATM   18  C12 UNL     1     -12.124  -1.015 -27.997  1.00  0.00     0.203 C 
ATOM     19  H2  UNL     1     -10.237  -0.384 -27.758  1.00  0.00     0.171 HD
HETATM   20  N3  UNL     1     -12.971  -2.021 -28.504  1.00  0.00    -0.066 NA
HETATM   21  N4  UNL     1     -12.683   0.109 -27.348  1.00  0.00    -0.066 NA
ENDBRANCH  14  15
ENDBRANCH  13  14
ENDBRANCH  12  13
ENDBRANCH   1  12
TORSDOF 6
ENDMDL
MODEL 4
REMARK VINA RESULT: -6.374183575      3.867      7.356
REMARK  6 active torsions:
REMARK  status: ('A' for Active; 'I' for Inactive)
REMARK       I    between atoms: N1_5  and  C5_6 
REMARK    1  A    between atoms: C5_6  and  C6_8 
REMARK    2  A    between atoms: C6_8  and  C7_9 
REMARK    3  A    between atoms: C7_9  and  C8_10 
REMARK    4  A    between atoms: C8_10  and  C9_11 
REMARK    5  A    between atoms: C9_11  and  C10_12 
REMARK    6  A    between atoms: C10_12  and  C11_13 
REMARK       I    between atoms: C11_13  and  N2_15 
ROOT
HETATM    1  C7  UNL     1      -2.305  -5.781 -31.089  1.00  0.00     0.009 C 
ENDROOT
BRANCH   1   2
HETATM    2  C6  UNL     1      -3.558  -5.453 -30.308  1.00  0.00     0.103 C 
BRANCH   2   3
HETATM    3  C5  UNL     1      -4.033  -4.064 -30.491  1.00  0.00     0.219 C 
HETATM    4  N1  UNL     1      -5.423  -3.814 -30.579  1.00  0.00    -0.352 N 
HETATM    5  C4  UNL     1      -5.901  -2.481 -30.756  1.00  0.00     0.126 C 
HETATM    6  C13 UNL     1      -6.379  -4.894 -30.496  1.00  0.00     0.126 C 
HETATM    7  C3  UNL     1      -7.046  -2.387 -31.741  1.00  0.00     0.024 C 
HETATM    8  C2  UNL     1      -8.079  -3.459 -31.501  1.00  0.00    -0.015 C 
HETATM    9  C1  UNL     1      -9.424  -2.818 -31.235  1.00  0.00     0.010 C 
HETATM   10  C14 UNL     1      -7.738  -4.298 -30.287  1.00  0.00     0.024 C 
HETATM   11  O1  UNL     1      -3.227  -3.112 -30.571  1.00  0.00    -0.273 OA
ENDBRANCH   2   3
ENDBRANCH   1   2
BRANCH   1  12
HETATM   12  C8  UNL     1      -1.994  -7.204 -31.228  1.00  0.00     0.001 C 
BRANCH  12  13
HETATM   13  C9  UNL     1      -2.823  -8.112 -32.030  1.00  0.00     0.009 C 
BRANCH  13  14
HETATM   14  C10 UNL     1      -3.826  -8.892 -31.258  1.00  0.00     0.103 C 
BRANCH  14  15
HETATM   15  C11 UNL     1      -3.597 -10.299 -31.090  1.00  0.00     0.223 C 
HETATM   16  O2  UNL     1      -3.047 -11.108 -31.892  1.00  0.00    -0.273 OA
HETATM   17  N2  UNL     1      -4.044 -10.942 -29.859  1.00  0.00    -0.304 N 
HETATM   18  C12 UNL     1      -5.226 -11.410 -29.851  1.00  0.00     0.203 C 
ATOM     19  H2  UNL     1      -3.436 -11.011 -29.042  1.00  0.00     0.171 HD
HETATM   20  N3  UNL     1      -6.051 -11.304 -30.989  1.00  0.00    -0.066 NA
HETATM   21  N4  UNL     1      -5.717 -12.044 -28.687  1.00  0.00    -0.066 NA
ENDBRANCH  14  15
ENDBRANCH  13  14
ENDBRANCH  12  13
ENDBRANCH   1  12
TORSDOF 6
ENDMDL
MODEL 5
REMARK VINA RESULT: -6.348535192      3.347      4.048
REMARK  6 active torsions:
REMARK  status: ('A' for Active; 'I' for Inactive)
REMARK       I    between atoms: N1_5  and  C5_6 
REMARK    1  A    between atoms: C5_6  and  C6_8 
REMARK    2  A    between atoms: C6_8  and  C7_9 
REMARK    3  A    between atoms: C7_9  and  C8_10 
REMARK    4  A    between atoms: C8_10  and  C9_11 
REMARK    5  A    between atoms: C9_11  and  C10_12 
REMARK    6  A    between atoms: C10_12  and  C11_13 
REMARK       I    between atoms: C11_13  and  N2_15 
ROOT
HETATM    1  C7  UNL     1      -7.267  -3.874 -30.238  1.00  0.00     0.009 C 
ENDROOT
BRANCH   1   2
HETATM    2  C6  UNL     1      -5.806  -3.594 -30.514  1.00  0.00     0.103 C 
BRANCH   2   3
HETATM    3  C5  UNL     1      -4.966  -4.809 -30.585  1.00  0.00     0.219 C 
HETATM    4  N1  UNL     1      -3.562  -4.686 -30.455  1.00  0.00    -0.352 N 
HETATM    5  C4  UNL     1      -2.733  -5.847 -30.521  1.00  0.00     0.126 C 
HETATM    6  C13 UNL     1      -2.942  -3.396 -30.259  1.00  0.00     0.126 C 
HETATM    7  C3  UNL     1      -1.466  -5.626 -31.319  1.00  0.00     0.024 C 
HETATM    8  C2  UNL     1      -0.796  -4.326 -30.956  1.00  0.00    -0.015 C 
HETATM    9  C1  UNL     1       0.613  -4.597 -30.473  1.00  0.00     0.010 C 
HETATM   10  C14 UNL     1      -1.524  -3.619 -29.831  1.00  0.00     0.024 C 
HETATM   11  O1  UNL     1      -5.475  -5.936 -30.758  1.00  0.00    -0.273 OA
ENDBRANCH   2   3
ENDBRANCH   1   2
BRANCH   1  12
HETATM   12  C8  UNL     1      -8.222  -2.963 -30.869  1.00  0.00     0.001 C 
BRANCH  12  13
HETATM   13  C9  UNL     1      -7.803  -1.706 -31.503  1.00  0.00     0.009 C 
BRANCH  13  14
HETATM   14  C10 UNL     1      -7.762  -1.736 -32.988  1.00  0.00     0.103 C 
BRANCH  14  15
HETATM   15  C11 UNL     1      -8.721  -0.942 -33.703  1.00  0.00     0.223 C 
HETATM   16  O2  UNL     1      -9.663  -0.239 -33.237  1.00  0.00    -0.273 OA
HETATM   17  N2  UNL     1      -8.659  -0.909 -35.160  1.00  0.00    -0.304 N 
HETATM   18  C12 UNL     1      -9.332  -1.790 -35.784  1.00  0.00     0.203 C 
ATOM     19  H2  UNL     1      -8.103  -0.212 -35.656  1.00  0.00     0.171 HD
HETATM   20  N3  UNL     1     -10.094  -2.746 -35.083  1.00  0.00    -0.066 NA
HETATM   21  N4  UNL     1      -9.312  -1.811 -37.197  1.00  0.00    -0.066 NA
ENDBRANCH  14  15
ENDBRANCH  13  14
ENDBRANCH  12  13
ENDBRANCH   1  12
TORSDOF 6
ENDMDL
