MODEL 1
REMARK VINA RESULT: -6.531353609      0.000      0.000
REMARK  6 active torsions:
REMARK  status: ('A' for Active; 'I' for Inactive)
REMARK    1  A    between atoms: N1_2  and  C2_3 
REMARK    2  A    between atoms: C2_3  and  C3_4 
REMARK    3  A    between atoms: C3_4  and  C4_5 
REMARK    4  A    between atoms: C4_5  and  C5_6 
REMARK    5  A    between atoms: C5_6  and  C6_7 
REMARK    6  A    between atoms: C6_7  and  N2_8 
ROOT
HETATM    1  C5  UNL     1      -5.196  -3.377 -30.618  1.00  0.00     0.020 C 
ENDROOT
BRANCH   1   2
HETATM    2  C4  UNL     1      -6.679  -3.161 -30.747  1.00  0.00     0.003 C 
BRANCH   2   3
HETATM    3  C3  UNL     1      -7.032  -1.953 -31.584  1.00  0.00     0.028 C 
BRANCH   3   4
HETATM    4  C2  UNL     1      -8.511  -1.664 -31.503  1.00  0.00     0.237 C 
BRANCH   4   5
HETATM    5  N1  UNL     1      -9.148  -1.733 -32.809  1.00  0.00    -0.071 N 
HETATM    6  C1  UNL     1      -9.541  -3.136 -32.982  1.00  0.00     0.272 C 
HETATM    7  C11 UNL     1     -10.272  -0.885 -32.892  1.00  0.00     0.237 C 
HETATM    8  C12 UNL     1     -10.140   0.397 -33.616  1.00  0.00     0.028 C 
HETATM    9  C13 UNL     1      -9.140   0.447 -34.713  1.00  0.00     0.003 C 
HETATM   10  C14 UNL     1      -8.751  -0.985 -35.074  1.00  0.00     0.028 C 
HETATM   11  C15 UNL     1      -8.108  -1.494 -33.777  1.00  0.00     0.237 C 
ENDBRANCH   4   5
ENDBRANCH   3   4
ENDBRANCH   2   3
ENDBRANCH   1   2
BRANCH   1  12
HETATM   12  C6  UNL     1      -4.818  -4.847 -30.545  1.00  0.00     0.127 C 
BRANCH  12  13
HETATM   13  N2  UNL     1      -3.349  -4.875 -30.521  1.00  0.00    -0.333 N 
HETATM   14  C7  UNL     1      -2.681  -3.617 -30.282  1.00  0.00     0.136 C 
HETATM   15  C8  UNL     1      -1.283  -3.851 -29.708  1.00  0.00     0.123 C 
HETATM   16  C9  UNL     1      -0.586  -4.896 -30.503  1.00  0.00     0.227 C 
HETATM   17  O1  UNL     1       0.585  -4.696 -30.973  1.00  0.00    -0.273 OA
HETATM   18  N3  UNL     1      -1.270  -6.123 -30.720  1.00  0.00    -0.279 N 
HETATM   19  C10 UNL     1      -2.689  -6.113 -30.729  1.00  0.00     0.325 C 
ATOM     20  H3  UNL     1      -0.752  -6.990 -30.866  1.00  0.00     0.173 HD
HETATM   21  O2  UNL     1      -3.293  -7.199 -30.921  1.00  0.00    -0.247 OA
ENDBRANCH  12  13
ENDBRANCH   1  12
TORSDOF 6
ENDMDL
MODEL 2
REMARK VINA RESULT: -6.330247645      1.073      2.283
REMARK  6 active torsions:
REMARK  status: ('A' for Active; 'I' for Inactive)
REMARK    1  A    between atoms: N1_2  and  C2_3 
REMARK    2  A    between atoms: C2_3  and  C3_4 
REMARK    3  A    between atoms: C3_4  and  C4_5 
REMARK    4  A    between atoms: C4_5  and  C5_6 
REMARK    5  A    between atoms: C5_6  and  C6_7 
REMARK    6  A    between atoms: C6_7  and  N2_8 
ROOT
HETATM    1  C5  UNL     1      -5.216  -3.509 -30.575  1.00  0.00     0.020 C 
ENDROOT
BRANCH   1   2
HETATM    2  C4  UNL     1      -6.669  -3.332 -30.919  1.00  0.00     0.003 C 
BRANCH   2   3
HETATM    3  C3  UNL     1      -7.011  -1.923 -31.346  1.00  0.00     0.028 C 
BRANCH   3   4
HETATM    4  C2  UNL     1      -7.863  -1.937 -32.592  1.00  0.00     0.237 C 
BRANCH   4   5
HETATM    5  N1  UNL     1      -9.265  -1.695 -32.291  1.00  0.00    -0.071 N 
HETATM    6  C1  UNL     1      -9.718  -0.716 -33.286  1.00  0.00     0.272 C 
HETATM    7  C11 UNL     1     -10.032  -2.877 -32.368  1.00  0.00     0.237 C 
HETATM    8  C12 UNL     1     -10.429  -3.546 -31.111  1.00  0.00     0.028 C 
HETATM    9  C13 UNL     1     -10.589  -2.681 -29.914  1.00  0.00     0.003 C 
HETATM   10  C14 UNL     1     -10.667  -1.228 -30.377  1.00  0.00     0.028 C 
HETATM   11  C15 UNL     1      -9.293  -1.009 -31.024  1.00  0.00     0.237 C 
ENDBRANCH   4   5
ENDBRANCH   3   4
ENDBRANCH   2   3
ENDBRANCH   1   2
BRANCH   1  12
HETATM   12  C6  UNL     1      -4.794  -4.969 -30.526  1.00  0.00     0.127 C 
BRANCH  12  13
HETATM   13  N2  UNL     1      -3.325  -4.954 -30.528  1.00  0.00    -0.333 N 
HETATM   14  C7  UNL     1      -2.689  -3.686 -30.257  1.00  0.00     0.136 C 
HETATM   15  C8  UNL     1      -1.275  -3.898 -29.715  1.00  0.00     0.123 C 
HETATM   16  C9  UNL     1      -0.563  -4.895 -30.557  1.00  0.00     0.227 C 
HETATM   17  O1  UNL     1       0.594  -4.645 -31.040  1.00  0.00    -0.273 OA
HETATM   18  N3  UNL     1      -1.215  -6.133 -30.805  1.00  0.00    -0.279 N 
HETATM   19  C10 UNL     1      -2.634  -6.165 -30.789  1.00  0.00     0.325 C 
ATOM     20  H3  UNL     1      -0.675  -6.979 -30.989  1.00  0.00     0.173 HD
HETATM   21  O2  UNL     1      -3.210  -7.261 -31.008  1.00  0.00    -0.247 OA
ENDBRANCH  12  13
ENDBRANCH   1  12
TORSDOF 6
ENDMDL
MODEL 3
REMARK VINA RESULT: -6.282285952      1.687      3.129
REMARK  6 active torsions:
REMARK  status: ('A' for Active; 'I' for Inactive)
REMARK    1  A    between atoms: N1_2  and  C2_3 
REMARK    2  A    between atoms: C2_3  and  C3_4 
REMARK    3  A    between atoms: C3_4  and  C4_5 
REMARK    4  A    between atoms: C4_5  and  C5_6 
REMARK    5  A    between atoms: C5_6  and  C6_7 
REMARK    6  A    between atoms: C6_7  and  N2_8 
ROOT
HETATM    1  C5  UNL     1      -5.575  -3.077 -30.554  1.00  0.00     0.020 C 
ENDROOT
BRANCH   1   2
HETATM    2  C4  UNL     1      -6.432  -2.633 -31.708  1.00  0.00     0.003 C 
BRANCH   2   3
HETATM    3  C3  UNL     1      -7.645  -1.842 -31.276  1.00  0.00     0.028 C 
BRANCH   3   4
HETATM    4  C2  UNL     1      -8.861  -2.263 -32.065  1.00  0.00     0.237 C 
BRANCH   4   5
HETATM    5  N1  UNL     1      -9.803  -3.010 -31.248  1.00  0.00    -0.071 N 
HETATM    6  C1  UNL     1     -11.134  -2.645 -31.746  1.00  0.00     0.272 C 
HETATM    7  C11 UNL     1      -9.598  -4.403 -31.347  1.00  0.00     0.237 C 
HETATM    8  C12 UNL     1      -8.907  -5.096 -30.239  1.00  0.00     0.028 C 
HETATM    9  C13 UNL     1      -9.047  -4.501 -28.885  1.00  0.00     0.003 C 
HETATM   10  C14 UNL     1     -10.204  -3.505 -28.915  1.00  0.00     0.028 C 
HETATM   11  C15 UNL     1      -9.715  -2.455 -29.921  1.00  0.00     0.237 C 
ENDBRANCH   4   5
ENDBRANCH   3   4
ENDBRANCH   2   3
ENDBRANCH   1   2
BRANCH   1  12
HETATM   12  C6  UNL     1      -5.302  -4.573 -30.562  1.00  0.00     0.127 C 
BRANCH  12  13
HETATM   13  N2  UNL     1      -3.839  -4.705 -30.542  1.00  0.00    -0.333 N 
HETATM   14  C7  UNL     1      -3.079  -3.485 -30.391  1.00  0.00     0.136 C 
HETATM   15  C8  UNL     1      -1.697  -3.782 -29.810  1.00  0.00     0.123 C 
HETATM   16  C9  UNL     1      -1.084  -4.926 -30.535  1.00  0.00     0.227 C 
HETATM   17  O1  UNL     1       0.094  -4.844 -31.023  1.00  0.00    -0.273 OA
HETATM   18  N3  UNL     1      -1.857  -6.112 -30.666  1.00  0.00    -0.279 N 
HETATM   19  C10 UNL     1      -3.272  -5.999 -30.669  1.00  0.00     0.325 C 
ATOM     20  H3  UNL     1      -1.405  -7.022 -30.755  1.00  0.00     0.173 HD
HETATM   21  O2  UNL     1      -3.955  -7.049 -30.784  1.00  0.00    -0.247 OA
ENDBRANCH  12  13
ENDBRANCH   1  12
TORSDOF 6
ENDMDL
MODEL 4
REMARK VINA RESULT: -6.222909448      2.285      2.933
REMARK  6 active torsions:
REMARK  status: ('A' for Active; 'I' for Inactive)
REMARK    1  A    between atoms: N1_2  and  C2_3 
REMARK    2  A    between atoms: C2_3  and  C3_4 
REMARK    3  A    between atoms: C3_4  and  C4_5 
REMARK    4  A    between atoms: C4_5  and  C5_6 
REMARK    5  A    between atoms: C5_6  and  C6_7 
REMARK    6  A    between atoms: C6_7  and  N2_8 
ROOT
HETATM    1  C5  UNL     1      -5.244  -3.363 -30.625  1.00  0.00     0.020 C 
ENDROOT
BRANCH   1   2
HETATM    2  C4  UNL     1      -6.722  -3.143 -30.803  1.00  0.00     0.003 C 
BRANCH   2   3
HETATM    3  C3  UNL     1      -7.541  -4.389 -30.561  1.00  0.00     0.028 C 
BRANCH   3   4
HETATM    4  C2  UNL     1      -8.256  -4.307 -29.234  1.00  0.00     0.237 C 
BRANCH   4   5
HETATM    5  N1  UNL     1      -9.690  -4.140 -29.401  1.00  0.00    -0.071 N 
HETATM    6  C1  UNL     1     -10.308  -5.154 -28.539  1.00  0.00     0.272 C 
HETATM    7  C11 UNL     1     -10.116  -2.845 -29.035  1.00  0.00     0.237 C 
HETATM    8  C12 UNL     1     -10.417  -1.870 -30.105  1.00  0.00     0.028 C 
HETATM    9  C13 UNL     1     -10.882  -2.422 -31.403  1.00  0.00     0.003 C 
HETATM   10  C14 UNL     1     -11.301  -3.874 -31.185  1.00  0.00     0.028 C 
HETATM   11  C15 UNL     1      -9.988  -4.540 -30.754  1.00  0.00     0.237 C 
ENDBRANCH   4   5
ENDBRANCH   3   4
ENDBRANCH   2   3
ENDBRANCH   1   2
BRANCH   1  12
HETATM   12  C6  UNL     1      -4.867  -4.835 -30.585  1.00  0.00     0.127 C 
BRANCH  12  13
HETATM   13  N2  UNL     1      -3.399  -4.864 -30.550  1.00  0.00    -0.333 N 
HETATM   14  C7  UNL     1      -2.732  -3.607 -30.302  1.00  0.00     0.136 C 
HETATM   15  C8  UNL     1      -1.338  -3.845 -29.718  1.00  0.00     0.123 C 
HETATM   16  C9  UNL     1      -0.636  -4.889 -30.510  1.00  0.00     0.227 C 
HETATM   17  O1  UNL     1       0.539  -4.688 -30.971  1.00  0.00    -0.273 OA
HETATM   18  N3  UNL     1      -1.319  -6.114 -30.736  1.00  0.00    -0.279 N 
HETATM   19  C10 UNL     1      -2.739  -6.103 -30.756  1.00  0.00     0.325 C 
ATOM     20  H3  UNL     1      -0.802  -6.981 -30.881  1.00  0.00     0.173 HD
HETATM   21  O2  UNL     1      -3.342  -7.187 -30.956  1.00  0.00    -0.247 OA
ENDBRANCH  12  13
ENDBRANCH   1  12
TORSDOF 6
ENDMDL
MODEL 5
REMARK VINA RESULT: -6.213264053      1.791      2.627
REMARK  6 active torsions:
REMARK  status: ('A' for Active; 'I' for Inactive)
REMARK    1  A    between atoms: N1_2  and  C2_3 
REMARK    2  A    between atoms: C2_3  and  C3_4 
REMARK    3  A    between atoms: C3_4  and  C4_5 
REMARK    4  A    between atoms: C4_5  and  C5_6 
REMARK    5  A    between atoms: C5_6  and  C6_7 
REMARK    6  A    between atoms: C6_7  and  N2_8 
ROOT
HETATM    1  C5  UNL     1      -6.091  -4.745 -30.604  1.00  0.00     0.020 C 
ENDROOT
BRANCH   1   2
HETATM    2  C4  UNL     1      -7.357  -4.564 -29.812  1.00  0.00     0.003 C 
BRANCH   2   3
HETATM    3  C3  UNL     1      -8.596  -4.981 -30.569  1.00  0.00     0.028 C 
BRANCH   3   4
HETATM    4  C2  UNL     1      -9.754  -4.072 -30.236  1.00  0.00     0.237 C 
BRANCH   4   5
HETATM    5  N1  UNL     1      -9.958  -3.059 -31.258  1.00  0.00    -0.071 N 
HETATM    6  C1  UNL     1     -11.410  -2.992 -31.462  1.00  0.00     0.272 C 
HETATM    7  C11 UNL     1      -9.451  -1.803 -30.865  1.00  0.00     0.237 C 
HETATM    8  C12 UNL     1      -8.162  -1.352 -31.431  1.00  0.00     0.028 C 
HETATM    9  C13 UNL     1      -7.809  -1.860 -32.781  1.00  0.00     0.003 C 
HETATM   10  C14 UNL     1      -9.068  -2.442 -33.420  1.00  0.00     0.028 C 
HETATM   11  C15 UNL     1      -9.416  -3.602 -32.478  1.00  0.00     0.237 C 
ENDBRANCH   4   5
ENDBRANCH   3   4
ENDBRANCH   2   3
ENDBRANCH   1   2
BRANCH   1  12
HETATM   12  C6  UNL     1      -5.087  -3.627 -30.376  1.00  0.00     0.127 C 
BRANCH  12  13
HETATM   13  N2  UNL     1      -3.766  -4.265 -30.445  1.00  0.00    -0.333 N 
HETATM   14  C7  UNL     1      -3.747  -5.697 -30.637  1.00  0.00     0.136 C 
HETATM   15  C8  UNL     1      -2.422  -6.138 -31.263  1.00  0.00     0.123 C 
HETATM   16  C9  UNL     1      -1.292  -5.493 -30.544  1.00  0.00     0.227 C 
HETATM   17  O1  UNL     1      -0.314  -6.184 -30.098  1.00  0.00    -0.273 OA
HETATM   18  N3  UNL     1      -1.340  -4.083 -30.372  1.00  0.00    -0.279 N 
HETATM   19  C10 UNL     1      -2.610  -3.451 -30.321  1.00  0.00     0.325 C 
ATOM     20  H3  UNL     1      -0.482  -3.538 -30.286  1.00  0.00     0.173 HD
HETATM   21  O2  UNL     1      -2.652  -2.204 -30.169  1.00  0.00    -0.247 OA
ENDBRANCH  12  13
ENDBRANCH   1  12
TORSDOF 6
ENDMDL
