MODEL 1
REMARK VINA RESULT: -4.262142465      0.000      0.000
REMARK  8 active torsions:
REMARK  status: ('A' for Active; 'I' for Inactive)
REMARK    1  A    between atoms: C2_2  and  C3_3 
REMARK    2  A    between atoms: C3_3  and  N1_4 
REMARK    3  A    between atoms: N2_7  and  C5_8 
REMARK    4  A    between atoms: C5_8  and  C6_9 
REMARK    5  A    between atoms: C6_9  and  C7_10 
REMARK    6  A    between atoms: C10_13  and  C11_14 
REMARK    7  A    between atoms: C11_14  and  C12_15 
REMARK    8  A    between atoms: C12_15  and  O1_16 
ROOT
HETATM    1  C7  UNL     1      -6.575  -2.577 -31.272  1.00  0.00    -0.105 C 
HETATM    2  C8  UNL     1      -5.694  -3.311 -30.900  1.00  0.00    -0.111 C 
HETATM    3  C9  UNL     1      -4.628  -4.217 -30.470  1.00  0.00     0.112 C 
ENDROOT
BRANCH   1   4
HETATM    4  C6  UNL     1      -7.676  -1.683 -31.752  1.00  0.00     0.113 C 
BRANCH   4   5
HETATM    5  C5  UNL     1      -8.718  -2.621 -32.303  1.00  0.00     0.138 C 
BRANCH   5   6
HETATM    6  N2  UNL     1      -9.563  -3.255 -31.343  1.00  0.00    -0.350 N 
HETATM    7  C4  UNL     1     -10.472  -2.544 -30.485  1.00  0.00     0.173 C 
HETATM    8  N1  UNL     1     -10.791  -3.398 -29.363  1.00  0.00    -0.344 N 
HETATM    9  S1  UNL     1     -11.122  -1.059 -30.606  1.00  0.00    -0.041 SA
HETATM   10  C13 UNL     1      -9.909  -4.535 -29.461  1.00  0.00     0.048 C 
HETATM   11  C10 UNL     1      -9.744  -4.626 -30.986  1.00  0.00     0.116 C 
HETATM   12  C14 UNL     1     -10.508  -5.770 -28.879  1.00  0.00     0.040 C 
HETATM   13  C15 UNL     1      -8.607  -4.179 -28.813  1.00  0.00     0.040 C 
BRANCH   8  14
HETATM   14  C3  UNL     1     -11.779  -3.182 -28.348  1.00  0.00     0.152 C 
BRANCH  14  15
HETATM   15  C2  UNL     1     -11.126  -2.717 -27.101  1.00  0.00    -0.017 C 
HETATM   16  C1  UNL     1     -10.865  -1.445 -26.886  1.00  0.00     0.008 C 
ENDBRANCH  14  15
ENDBRANCH   8  14
BRANCH  11  17
HETATM   17  C11 UNL     1      -8.701  -5.619 -31.246  1.00  0.00     0.054 C 
BRANCH  17  18
HETATM   18  C12 UNL     1      -8.994  -6.713 -32.223  1.00  0.00     0.166 C 
BRANCH  18  19
HETATM   19  O1  UNL     1      -9.510  -6.168 -33.427  1.00  0.00    -0.401 OA
ATOM     20  H1  UNL     1     -10.445  -6.025 -33.346  1.00  0.00     0.209 HD
ENDBRANCH  18  19
ENDBRANCH  17  18
ENDBRANCH  11  17
ENDBRANCH   5   6
ENDBRANCH   4   5
ENDBRANCH   1   4
TORSDOF 8
ENDMDL
MODEL 2
REMARK VINA RESULT: -4.066207379      2.288      3.339
REMARK  8 active torsions:
REMARK  status: ('A' for Active; 'I' for Inactive)
REMARK    1  A    between atoms: C2_2  and  C3_3 
REMARK    2  A    between atoms: C3_3  and  N1_4 
REMARK    3  A    between atoms: N2_7  and  C5_8 
REMARK    4  A    between atoms: C5_8  and  C6_9 
REMARK    5  A    between atoms: C6_9  and  C7_10 
REMARK    6  A    between atoms: C10_13  and  C11_14 
REMARK    7  A    between atoms: C11_14  and  C12_15 
REMARK    8  A    between atoms: C12_15  and  O1_16 
ROOT
HETATM    1  C7  UNL     1      -4.881  -4.433 -30.485  1.00  0.00    -0.105 C 
HETATM    2  C8  UNL     1      -3.748  -4.037 -30.377  1.00  0.00    -0.111 C 
HETATM    3  C9  UNL     1      -2.372  -3.562 -30.220  1.00  0.00     0.112 C 
ENDROOT
BRANCH   1   4
HETATM    4  C6  UNL     1      -6.290  -4.929 -30.593  1.00  0.00     0.113 C 
BRANCH   4   5
HETATM    5  C5  UNL     1      -7.105  -3.937 -29.803  1.00  0.00     0.138 C 
BRANCH   5   6
HETATM    6  N2  UNL     1      -8.437  -3.711 -30.263  1.00  0.00    -0.350 N 
HETATM    7  C4  UNL     1      -8.797  -2.670 -31.188  1.00  0.00     0.173 C 
HETATM    8  N1  UNL     1     -10.217  -2.429 -31.061  1.00  0.00    -0.344 N 
HETATM    9  S1  UNL     1      -7.905  -1.821 -32.249  1.00  0.00    -0.041 SA
HETATM   10  C13 UNL     1     -10.653  -3.190 -29.917  1.00  0.00     0.048 C 
HETATM   11  C10 UNL     1      -9.672  -4.371 -29.980  1.00  0.00     0.116 C 
HETATM   12  C14 UNL     1     -12.074  -3.625 -30.031  1.00  0.00     0.040 C 
HETATM   13  C15 UNL     1     -10.411  -2.372 -28.686  1.00  0.00     0.040 C 
BRANCH   8  14
HETATM   14  C3  UNL     1     -11.045  -1.607 -31.893  1.00  0.00     0.152 C 
BRANCH  14  15
HETATM   15  C2  UNL     1     -11.106  -0.233 -31.341  1.00  0.00    -0.017 C 
HETATM   16  C1  UNL     1     -10.914   0.828 -32.097  1.00  0.00     0.008 C 
ENDBRANCH  14  15
ENDBRANCH   8  14
BRANCH  11  17
HETATM   17  C11 UNL     1      -9.852  -5.144 -28.751  1.00  0.00     0.054 C 
BRANCH  17  18
HETATM   18  C12 UNL     1     -10.178  -6.599 -28.872  1.00  0.00     0.166 C 
BRANCH  18  19
HETATM   19  O1  UNL     1     -10.162  -7.211 -27.592  1.00  0.00    -0.401 OA
ATOM     20  H1  UNL     1     -11.050  -7.355 -27.287  1.00  0.00     0.209 HD
ENDBRANCH  18  19
ENDBRANCH  17  18
ENDBRANCH  11  17
ENDBRANCH   5   6
ENDBRANCH   4   5
ENDBRANCH   1   4
TORSDOF 8
ENDMDL
MODEL 3
REMARK VINA RESULT: -3.968537224      3.675      6.164
REMARK  8 active torsions:
REMARK  status: ('A' for Active; 'I' for Inactive)
REMARK    1  A    between atoms: C2_2  and  C3_3 
REMARK    2  A    between atoms: C3_3  and  N1_4 
REMARK    3  A    between atoms: N2_7  and  C5_8 
REMARK    4  A    between atoms: C5_8  and  C6_9 
REMARK    5  A    between atoms: C6_9  and  C7_10 
REMARK    6  A    between atoms: C10_13  and  C11_14 
REMARK    7  A    between atoms: C11_14  and  C12_15 
REMARK    8  A    between atoms: C12_15  and  O1_16 
ROOT
HETATM    1  C7  UNL     1      -6.787  -2.567 -31.082  1.00  0.00    -0.105 C 
HETATM    2  C8  UNL     1      -5.916  -3.368 -30.857  1.00  0.00    -0.111 C 
HETATM    3  C9  UNL     1      -4.843  -4.322 -30.574  1.00  0.00     0.112 C 
ENDROOT
BRANCH   1   4
HETATM    4  C6  UNL     1      -7.855  -1.552 -31.354  1.00  0.00     0.113 C 
BRANCH   4   5
HETATM    5  C5  UNL     1      -9.105  -2.364 -31.578  1.00  0.00     0.138 C 
BRANCH   5   6
HETATM    6  N2  UNL     1      -9.768  -2.165 -32.826  1.00  0.00    -0.350 N 
HETATM    7  C4  UNL     1      -9.907  -3.186 -33.829  1.00  0.00     0.173 C 
HETATM    8  N1  UNL     1     -10.181  -2.539 -35.093  1.00  0.00    -0.344 N 
HETATM    9  S1  UNL     1      -9.809  -4.805 -33.733  1.00  0.00    -0.041 SA
HETATM   10  C13 UNL     1     -10.003  -1.126 -34.867  1.00  0.00     0.048 C 
HETATM   11  C10 UNL     1     -10.420  -1.027 -33.392  1.00  0.00     0.116 C 
HETATM   12  C14 UNL     1     -10.862  -0.295 -35.757  1.00  0.00     0.040 C 
HETATM   13  C15 UNL     1      -8.549  -0.803 -35.024  1.00  0.00     0.040 C 
BRANCH   8  14
HETATM   14  C3  UNL     1     -10.558  -3.155 -36.330  1.00  0.00     0.152 C 
BRANCH  14  15
HETATM   15  C2  UNL     1      -9.347  -3.468 -37.125  1.00  0.00    -0.017 C 
HETATM   16  C1  UNL     1      -8.960  -2.710 -38.129  1.00  0.00     0.008 C 
ENDBRANCH  14  15
ENDBRANCH   8  14
BRANCH  11  17
HETATM   17  C11 UNL     1     -10.097   0.329 -32.945  1.00  0.00     0.054 C 
BRANCH  17  18
HETATM   18  C12 UNL     1     -11.090   1.046 -32.086  1.00  0.00     0.166 C 
BRANCH  18  19
HETATM   19  O1  UNL     1     -11.219   0.388 -30.835  1.00  0.00    -0.401 OA
ATOM     20  H1  UNL     1     -10.417   0.478 -30.334  1.00  0.00     0.209 HD
ENDBRANCH  18  19
ENDBRANCH  17  18
ENDBRANCH  11  17
ENDBRANCH   5   6
ENDBRANCH   4   5
ENDBRANCH   1   4
TORSDOF 8
ENDMDL
MODEL 4
REMARK VINA RESULT: -3.869405387      2.055      2.683
REMARK  8 active torsions:
REMARK  status: ('A' for Active; 'I' for Inactive)
REMARK    1  A    between atoms: C2_2  and  C3_3 
REMARK    2  A    between atoms: C3_3  and  N1_4 
REMARK    3  A    between atoms: N2_7  and  C5_8 
REMARK    4  A    between atoms: C5_8  and  C6_9 
REMARK    5  A    between atoms: C6_9  and  C7_10 
REMARK    6  A    between atoms: C10_13  and  C11_14 
REMARK    7  A    between atoms: C11_14  and  C12_15 
REMARK    8  A    between atoms: C12_15  and  O1_16 
ROOT
HETATM    1  C7  UNL     1      -7.095  -2.529 -31.368  1.00  0.00    -0.105 C 
HETATM    2  C8  UNL     1      -6.101  -3.094 -30.983  1.00  0.00    -0.111 C 
HETATM    3  C9  UNL     1      -4.894  -3.791 -30.539  1.00  0.00     0.112 C 
ENDROOT
BRANCH   1   4
HETATM    4  C6  UNL     1      -8.329  -1.843 -31.867  1.00  0.00     0.113 C 
BRANCH   4   5
HETATM    5  C5  UNL     1      -8.913  -1.176 -30.648  1.00  0.00     0.138 C 
BRANCH   5   6
HETATM    6  N2  UNL     1     -10.128  -1.734 -30.148  1.00  0.00    -0.350 N 
HETATM    7  C4  UNL     1     -11.407  -1.084 -30.249  1.00  0.00     0.173 C 
HETATM    8  N1  UNL     1     -12.286  -1.668 -29.260  1.00  0.00    -0.344 N 
HETATM    9  S1  UNL     1     -11.937   0.096 -31.232  1.00  0.00    -0.041 SA
HETATM   10  C13 UNL     1     -11.459  -2.523 -28.443  1.00  0.00     0.048 C 
HETATM   11  C10 UNL     1     -10.410  -2.963 -29.476  1.00  0.00     0.116 C 
HETATM   12  C14 UNL     1     -12.217  -3.674 -27.877  1.00  0.00     0.040 C 
HETATM   13  C15 UNL     1     -10.825  -1.685 -27.376  1.00  0.00     0.040 C 
BRANCH   8  14
HETATM   14  C3  UNL     1     -13.695  -1.459 -29.105  1.00  0.00     0.152 C 
BRANCH  14  15
HETATM   15  C2  UNL     1     -13.936  -0.341 -28.162  1.00  0.00    -0.017 C 
HETATM   16  C1  UNL     1     -14.403  -0.545 -26.949  1.00  0.00     0.008 C 
ENDBRANCH  14  15
ENDBRANCH   8  14
BRANCH  11  17
HETATM   17  C11 UNL     1      -9.366  -3.683 -28.747  1.00  0.00     0.054 C 
BRANCH  17  18
HETATM   18  C12 UNL     1      -8.954  -5.030 -29.249  1.00  0.00     0.166 C 
BRANCH  18  19
HETATM   19  O1  UNL     1      -9.622  -6.049 -28.520  1.00  0.00    -0.401 OA
ATOM     20  H1  UNL     1     -10.339  -6.400 -29.034  1.00  0.00     0.209 HD
ENDBRANCH  18  19
ENDBRANCH  17  18
ENDBRANCH  11  17
ENDBRANCH   5   6
ENDBRANCH   4   5
ENDBRANCH   1   4
TORSDOF 8
ENDMDL
MODEL 5
REMARK VINA RESULT: -3.838603057      3.311      5.437
REMARK  8 active torsions:
REMARK  status: ('A' for Active; 'I' for Inactive)
REMARK    1  A    between atoms: C2_2  and  C3_3 
REMARK    2  A    between atoms: C3_3  and  N1_4 
REMARK    3  A    between atoms: N2_7  and  C5_8 
REMARK    4  A    between atoms: C5_8  and  C6_9 
REMARK    5  A    between atoms: C6_9  and  C7_10 
REMARK    6  A    between atoms: C10_13  and  C11_14 
REMARK    7  A    between atoms: C11_14  and  C12_15 
REMARK    8  A    between atoms: C12_15  and  O1_16 
ROOT
HETATM    1  C7  UNL     1      -6.056  -2.963 -31.004  1.00  0.00    -0.105 C 
HETATM    2  C8  UNL     1      -5.230  -3.792 -30.712  1.00  0.00    -0.111 C 
HETATM    3  C9  UNL     1      -4.209  -4.781 -30.368  1.00  0.00     0.112 C 
ENDROOT
BRANCH   1   4
HETATM    4  C6  UNL     1      -7.064  -1.922 -31.380  1.00  0.00     0.113 C 
BRANCH   4   5
HETATM    5  C5  UNL     1      -8.386  -2.491 -30.932  1.00  0.00     0.138 C 
BRANCH   5   6
HETATM    6  N2  UNL     1      -9.375  -2.656 -31.948  1.00  0.00    -0.350 N 
HETATM    7  C4  UNL     1      -9.660  -3.912 -32.589  1.00  0.00     0.173 C 
HETATM    8  N1  UNL     1     -10.330  -3.635 -33.840  1.00  0.00    -0.344 N 
HETATM    9  S1  UNL     1      -9.359  -5.443 -32.133  1.00  0.00    -0.041 SA
HETATM   10  C13 UNL     1     -10.258  -2.207 -34.026  1.00  0.00     0.048 C 
HETATM   11  C10 UNL     1     -10.277  -1.736 -32.564  1.00  0.00     0.116 C 
HETATM   12  C14 UNL     1     -11.411  -1.677 -34.809  1.00  0.00     0.040 C 
HETATM   13  C15 UNL     1      -8.944  -1.881 -34.666  1.00  0.00     0.040 C 
BRANCH   8  14
HETATM   14  C3  UNL     1     -10.951  -4.572 -34.729  1.00  0.00     0.152 C 
BRANCH  14  15
HETATM   15  C2  UNL     1      -9.949  -5.093 -35.690  1.00  0.00    -0.017 C 
HETATM   16  C1  UNL     1      -9.886  -4.658 -36.930  1.00  0.00     0.008 C 
ENDBRANCH  14  15
ENDBRANCH   8  14
BRANCH  11  17
HETATM   17  C11 UNL     1     -10.002  -0.299 -32.573  1.00  0.00     0.054 C 
BRANCH  17  18
HETATM   18  C12 UNL     1     -10.922   0.603 -31.813  1.00  0.00     0.166 C 
BRANCH  18  19
HETATM   19  O1  UNL     1     -11.236   0.031 -30.552  1.00  0.00    -0.401 OA
ATOM     20  H1  UNL     1     -11.622  -0.828 -30.671  1.00  0.00     0.209 HD
ENDBRANCH  18  19
ENDBRANCH  17  18
ENDBRANCH  11  17
ENDBRANCH   5   6
ENDBRANCH   4   5
ENDBRANCH   1   4
TORSDOF 8
ENDMDL
