MODEL 1
REMARK VINA RESULT: -6.397372407      0.000      0.000
REMARK  7 active torsions:
REMARK  status: ('A' for Active; 'I' for Inactive)
REMARK    1  A    between atoms: C2_2  and  C3_3 
REMARK    2  A    between atoms: C3_3  and  C4_4 
REMARK    3  A    between atoms: C4_4  and  N1_5 
REMARK    4  A    between atoms: C6_9  and  N3_10 
REMARK    5  A    between atoms: N3_10  and  C7_12 
REMARK    6  A    between atoms: N5_20  and  C13_22 
REMARK    7  A    between atoms: C13_22  and  C14_23 
ROOT
HETATM    1  N1  UNL     1      -2.889  -6.056 -30.727  1.00  0.00    -0.178 N 
HETATM    2  C5  UNL     1      -3.340  -4.866 -30.252  1.00  0.00     0.218 A 
HETATM    3  N2  UNL     1      -4.630  -4.523 -30.182  1.00  0.00    -0.187 N 
ATOM      4  H2  UNL     1      -4.911  -3.613 -29.817  1.00  0.00     0.185 HD
HETATM    5  C6  UNL     1      -5.547  -5.409 -30.607  1.00  0.00     0.693 A 
HETATM    6  N4  UNL     1      -5.156  -6.589 -31.081  1.00  0.00    -0.022 N 
ATOM      7  H4  UNL     1      -5.858  -7.255 -31.402  1.00  0.00     0.203 HD
HETATM    8  C12 UNL     1      -3.815  -6.934 -31.147  1.00  0.00     0.695 A 
HETATM    9  N5  UNL     1      -3.576  -8.061 -31.588  1.00  0.00    -0.225 N 
ATOM     10  H5  UNL     1      -4.471  -8.488 -31.827  1.00  0.00     0.177 HD
ENDROOT
BRANCH   5  11
HETATM   11  N3  UNL     1      -6.829  -5.098 -30.551  1.00  0.00    -0.221 N 
ATOM     12  H3  UNL     1      -7.503  -5.731 -30.984  1.00  0.00     0.178 HD
BRANCH  11  13
HETATM   13  C7  UNL     1      -7.317  -3.910 -29.909  1.00  0.00     0.099 C 
HETATM   14  C8  UNL     1      -8.609  -4.321 -29.188  1.00  0.00     0.026 C 
HETATM   15  C9  UNL     1      -9.512  -4.622 -30.358  1.00  0.00     0.002 C 
HETATM   16  C10 UNL     1      -9.042  -3.738 -31.492  1.00  0.00     0.002 C 
HETATM   17  C11 UNL     1      -7.894  -2.910 -30.915  1.00  0.00     0.026 C 
ENDBRANCH  11  13
ENDBRANCH   5  11
BRANCH   1  18
HETATM   18  C4  UNL     1      -1.484  -6.250 -30.752  1.00  0.00     0.152 C 
BRANCH  18  19
HETATM   19  C3  UNL     1      -0.756  -5.200 -31.578  1.00  0.00     0.047 C 
BRANCH  19  20
HETATM   20  C2  UNL     1       0.290  -4.605 -30.701  1.00  0.00    -0.035 C 
HETATM   21  C1  UNL     1      -0.045  -3.857 -29.675  1.00  0.00     0.007 C 
ENDBRANCH  19  20
ENDBRANCH  18  19
ENDBRANCH   1  18
BRANCH   9  22
HETATM   22  C13 UNL     1      -2.599  -8.973 -31.887  1.00  0.00     0.142 C 
BRANCH  22  23
HETATM   23  C14 UNL     1      -3.085 -10.428 -31.931  1.00  0.00     0.004 A 
HETATM   24  C15 UNL     1      -4.493 -10.584 -31.408  1.00  0.00     0.007 A 
HETATM   25  C16 UNL     1      -3.291 -11.183 -30.684  1.00  0.00     0.007 A 
ENDBRANCH  22  23
ENDBRANCH   9  22
TORSDOF 7
ENDMDL
MODEL 2
REMARK VINA RESULT: -6.355815272      1.267      2.175
REMARK  7 active torsions:
REMARK  status: ('A' for Active; 'I' for Inactive)
REMARK    1  A    between atoms: C2_2  and  C3_3 
REMARK    2  A    between atoms: C3_3  and  C4_4 
REMARK    3  A    between atoms: C4_4  and  N1_5 
REMARK    4  A    between atoms: C6_9  and  N3_10 
REMARK    5  A    between atoms: N3_10  and  C7_12 
REMARK    6  A    between atoms: N5_20  and  C13_22 
REMARK    7  A    between atoms: C13_22  and  C14_23 
ROOT
HETATM    1  N1  UNL     1      -3.978  -4.292 -30.703  1.00  0.00    -0.178 N 
HETATM    2  C5  UNL     1      -4.493  -3.036 -30.721  1.00  0.00     0.218 A 
HETATM    3  N2  UNL     1      -5.798  -2.755 -30.639  1.00  0.00    -0.187 N 
ATOM      4  H2  UNL     1      -6.128  -1.791 -30.659  1.00  0.00     0.185 HD
HETATM    5  C6  UNL     1      -6.662  -3.778 -30.529  1.00  0.00     0.693 A 
HETATM    6  N4  UNL     1      -6.206  -5.029 -30.507  1.00  0.00    -0.022 N 
ATOM      7  H4  UNL     1      -6.870  -5.799 -30.424  1.00  0.00     0.203 HD
HETATM    8  C12 UNL     1      -4.851  -5.307 -30.592  1.00  0.00     0.695 A 
HETATM    9  N5  UNL     1      -4.549  -6.502 -30.542  1.00  0.00    -0.225 N 
ATOM     10  H5  UNL     1      -5.417  -7.030 -30.462  1.00  0.00     0.177 HD
ENDROOT
BRANCH   5  11
HETATM   11  N3  UNL     1      -7.956  -3.533 -30.447  1.00  0.00    -0.221 N 
ATOM     12  H3  UNL     1      -8.269  -2.562 -30.446  1.00  0.00     0.178 HD
BRANCH  11  13
HETATM   13  C7  UNL     1      -8.944  -4.573 -30.358  1.00  0.00     0.099 C 
HETATM   14  C8  UNL     1     -10.274  -3.928 -30.776  1.00  0.00     0.026 C 
HETATM   15  C9  UNL     1     -10.503  -2.970 -29.633  1.00  0.00     0.002 C 
HETATM   16  C10 UNL     1      -9.837  -3.589 -28.424  1.00  0.00     0.002 C 
HETATM   17  C11 UNL     1      -9.276  -4.926 -28.906  1.00  0.00     0.026 C 
ENDBRANCH  11  13
ENDBRANCH   5  11
BRANCH   1  18
HETATM   18  C4  UNL     1      -2.569  -4.414 -30.824  1.00  0.00     0.152 C 
BRANCH  18  19
HETATM   19  C3  UNL     1      -1.814  -3.354 -30.037  1.00  0.00     0.047 C 
BRANCH  19  20
HETATM   20  C2  UNL     1      -0.422  -3.853 -29.860  1.00  0.00    -0.035 C 
HETATM   21  C1  UNL     1       0.109  -4.675 -30.735  1.00  0.00     0.007 C 
ENDBRANCH  19  20
ENDBRANCH  18  19
ENDBRANCH   1  18
BRANCH   9  22
HETATM   22  C13 UNL     1      -3.522  -7.408 -30.551  1.00  0.00     0.142 C 
BRANCH  22  23
HETATM   23  C14 UNL     1      -3.546  -8.378 -31.739  1.00  0.00     0.004 A 
HETATM   24  C15 UNL     1      -3.587  -9.824 -31.305  1.00  0.00     0.007 A 
HETATM   25  C16 UNL     1      -2.381  -9.232 -32.026  1.00  0.00     0.007 A 
ENDBRANCH  22  23
ENDBRANCH   9  22
TORSDOF 7
ENDMDL
MODEL 3
REMARK VINA RESULT: -6.257656049      1.375      2.304
REMARK  7 active torsions:
REMARK  status: ('A' for Active; 'I' for Inactive)
REMARK    1  A    between atoms: C2_2  and  C3_3 
REMARK    2  A    between atoms: C3_3  and  C4_4 
REMARK    3  A    between atoms: C4_4  and  N1_5 
REMARK    4  A    between atoms: C6_9  and  N3_10 
REMARK    5  A    between atoms: N3_10  and  C7_12 
REMARK    6  A    between atoms: N5_20  and  C13_22 
REMARK    7  A    between atoms: C13_22  and  C14_23 
ROOT
HETATM    1  N1  UNL     1      -3.924  -4.268 -30.676  1.00  0.00    -0.178 N 
HETATM    2  C5  UNL     1      -4.408  -3.000 -30.695  1.00  0.00     0.218 A 
HETATM    3  N2  UNL     1      -5.707  -2.689 -30.635  1.00  0.00    -0.187 N 
ATOM      4  H2  UNL     1      -6.014  -1.717 -30.654  1.00  0.00     0.185 HD
HETATM    5  C6  UNL     1      -6.598  -3.692 -30.549  1.00  0.00     0.693 A 
HETATM    6  N4  UNL     1      -6.172  -4.953 -30.527  1.00  0.00    -0.022 N 
ATOM      7  H4  UNL     1      -6.854  -5.708 -30.462  1.00  0.00     0.203 HD
HETATM    8  C12 UNL     1      -4.822  -5.263 -30.589  1.00  0.00     0.695 A 
HETATM    9  N5  UNL     1      -4.549  -6.465 -30.542  1.00  0.00    -0.225 N 
ATOM     10  H5  UNL     1      -5.431  -6.973 -30.482  1.00  0.00     0.177 HD
ENDROOT
BRANCH   5  11
HETATM   11  N3  UNL     1      -7.887  -3.417 -30.489  1.00  0.00    -0.221 N 
ATOM     12  H3  UNL     1      -8.284  -3.136 -29.592  1.00  0.00     0.178 HD
BRANCH  11  13
HETATM   13  C7  UNL     1      -8.756  -3.497 -31.630  1.00  0.00     0.099 C 
HETATM   14  C8  UNL     1      -8.565  -2.180 -32.398  1.00  0.00     0.026 C 
HETATM   15  C9  UNL     1      -9.160  -1.189 -31.428  1.00  0.00     0.002 C 
HETATM   16  C10 UNL     1     -10.217  -1.942 -30.652  1.00  0.00     0.002 C 
HETATM   17  C11 UNL     1     -10.229  -3.353 -31.240  1.00  0.00     0.026 C 
ENDBRANCH  11  13
ENDBRANCH   5  11
BRANCH   1  18
HETATM   18  C4  UNL     1      -2.516  -4.422 -30.772  1.00  0.00     0.152 C 
BRANCH  18  19
HETATM   19  C3  UNL     1      -1.750  -3.359 -29.999  1.00  0.00     0.047 C 
BRANCH  19  20
HETATM   20  C2  UNL     1      -0.360  -3.864 -29.825  1.00  0.00    -0.035 C 
HETATM   21  C1  UNL     1       0.175  -4.665 -30.717  1.00  0.00     0.007 C 
ENDBRANCH  19  20
ENDBRANCH  18  19
ENDBRANCH   1  18
BRANCH   9  22
HETATM   22  C13 UNL     1      -3.544  -7.395 -30.538  1.00  0.00     0.142 C 
BRANCH  22  23
HETATM   23  C14 UNL     1      -3.563  -8.352 -31.737  1.00  0.00     0.004 A 
HETATM   24  C15 UNL     1      -3.578  -9.803 -31.319  1.00  0.00     0.007 A 
HETATM   25  C16 UNL     1      -2.388  -9.185 -32.044  1.00  0.00     0.007 A 
ENDBRANCH  22  23
ENDBRANCH   9  22
TORSDOF 7
ENDMDL
MODEL 4
REMARK VINA RESULT: -6.039844672      2.374      7.708
REMARK  7 active torsions:
REMARK  status: ('A' for Active; 'I' for Inactive)
REMARK    1  A    between atoms: C2_2  and  C3_3 
REMARK    2  A    between atoms: C3_3  and  C4_4 
REMARK    3  A    between atoms: C4_4  and  N1_5 
REMARK    4  A    between atoms: C6_9  and  N3_10 
REMARK    5  A    between atoms: N3_10  and  C7_12 
REMARK    6  A    between atoms: N5_20  and  C13_22 
REMARK    7  A    between atoms: C13_22  and  C14_23 
ROOT
HETATM    1  N1  UNL     1      -7.399  -4.006 -30.623  1.00  0.00    -0.178 N 
HETATM    2  C5  UNL     1      -6.675  -5.100 -30.270  1.00  0.00     0.218 A 
HETATM    3  N2  UNL     1      -5.339  -5.157 -30.291  1.00  0.00    -0.187 N 
ATOM      4  H2  UNL     1      -4.847  -6.007 -30.016  1.00  0.00     0.185 HD
HETATM    5  C6  UNL     1      -4.662  -4.064 -30.684  1.00  0.00     0.693 A 
HETATM    6  N4  UNL     1      -5.327  -2.967 -31.038  1.00  0.00    -0.022 N 
ATOM      7  H4  UNL     1      -4.805  -2.143 -31.336  1.00  0.00     0.203 HD
HETATM    8  C12 UNL     1      -6.712  -2.920 -31.012  1.00  0.00     0.695 A 
HETATM    9  N5  UNL     1      -7.214  -1.844 -31.346  1.00  0.00    -0.225 N 
ATOM     10  H5  UNL     1      -6.448  -1.216 -31.590  1.00  0.00     0.177 HD
ENDROOT
BRANCH   5  11
HETATM   11  N3  UNL     1      -3.343  -4.090 -30.715  1.00  0.00    -0.221 N 
ATOM     12  H3  UNL     1      -2.855  -3.409 -31.298  1.00  0.00     0.178 HD
BRANCH  11  13
HETATM   13  C7  UNL     1      -2.563  -5.035 -29.965  1.00  0.00     0.099 C 
HETATM   14  C8  UNL     1      -1.216  -4.348 -29.692  1.00  0.00     0.026 C 
HETATM   15  C9  UNL     1      -0.642  -4.272 -31.085  1.00  0.00     0.002 C 
HETATM   16  C10 UNL     1      -1.217  -5.448 -31.843  1.00  0.00     0.002 C 
HETATM   17  C11 UNL     1      -2.083  -6.201 -30.833  1.00  0.00     0.026 C 
ENDBRANCH  11  13
ENDBRANCH   5  11
BRANCH   1  18
HETATM   18  C4  UNL     1      -8.812  -4.123 -30.566  1.00  0.00     0.152 C 
BRANCH  18  19
HETATM   19  C3  UNL     1      -9.302  -4.755 -29.272  1.00  0.00     0.047 C 
BRANCH  19  20
HETATM   20  C2  UNL     1      -9.755  -3.644 -28.389  1.00  0.00    -0.035 C 
HETATM   21  C1  UNL     1     -10.434  -2.635 -28.881  1.00  0.00     0.007 C 
ENDBRANCH  19  20
ENDBRANCH  18  19
ENDBRANCH   1  18
BRANCH   9  22
HETATM   22  C13 UNL     1      -8.380  -1.148 -31.521  1.00  0.00     0.142 C 
BRANCH  22  23
HETATM   23  C14 UNL     1      -9.057  -1.382 -32.878  1.00  0.00     0.004 A 
HETATM   24  C15 UNL     1      -8.096  -1.249 -34.035  1.00  0.00     0.007 A 
HETATM   25  C16 UNL     1      -9.241  -0.266 -33.821  1.00  0.00     0.007 A 
ENDBRANCH  22  23
ENDBRANCH   9  22
TORSDOF 7
ENDMDL
MODEL 5
REMARK VINA RESULT: -5.934040107      2.424      7.885
REMARK  7 active torsions:
REMARK  status: ('A' for Active; 'I' for Inactive)
REMARK    1  A    between atoms: C2_2  and  C3_3 
REMARK    2  A    between atoms: C3_3  and  C4_4 
REMARK    3  A    between atoms: C4_4  and  N1_5 
REMARK    4  A    between atoms: C6_9  and  N3_10 
REMARK    5  A    between atoms: N3_10  and  C7_12 
REMARK    6  A    between atoms: N5_20  and  C13_22 
REMARK    7  A    between atoms: C13_22  and  C14_23 
ROOT
HETATM    1  N1  UNL     1      -8.132  -3.533 -30.545  1.00  0.00    -0.178 N 
HETATM    2  C5  UNL     1      -7.476  -4.562 -29.950  1.00  0.00     0.218 A 
HETATM    3  N2  UNL     1      -6.155  -4.754 -30.019  1.00  0.00    -0.187 N 
ATOM      4  H2  UNL     1      -5.716  -5.547 -29.551  1.00  0.00     0.185 HD
HETATM    5  C6  UNL     1      -5.420  -3.873 -30.720  1.00  0.00     0.693 A 
HETATM    6  N4  UNL     1      -6.017  -2.847 -31.321  1.00  0.00    -0.022 N 
ATOM      7  H4  UNL     1      -5.452  -2.184 -31.852  1.00  0.00     0.203 HD
HETATM    8  C12 UNL     1      -7.387  -2.658 -31.242  1.00  0.00     0.695 A 
HETATM    9  N5  UNL     1      -7.822  -1.662 -31.825  1.00  0.00    -0.225 N 
ATOM     10  H5  UNL     1      -7.028  -1.198 -32.264  1.00  0.00     0.177 HD
ENDROOT
BRANCH   5  11
HETATM   11  N3  UNL     1      -4.113  -4.036 -30.806  1.00  0.00    -0.221 N 
ATOM     12  H3  UNL     1      -3.598  -3.486 -31.494  1.00  0.00     0.178 HD
BRANCH  11  13
HETATM   13  C7  UNL     1      -3.385  -4.954 -29.975  1.00  0.00     0.099 C 
HETATM   14  C8  UNL     1      -1.980  -4.352 -29.814  1.00  0.00     0.026 C 
HETATM   15  C9  UNL     1      -1.449  -4.475 -31.220  1.00  0.00     0.002 C 
HETATM   16  C10 UNL     1      -2.138  -5.675 -31.829  1.00  0.00     0.002 C 
HETATM   17  C11 UNL     1      -3.026  -6.242 -30.720  1.00  0.00     0.026 C 
ENDBRANCH  11  13
ENDBRANCH   5  11
BRANCH   1  18
HETATM   18  C4  UNL     1      -9.542  -3.491 -30.391  1.00  0.00     0.152 C 
BRANCH  18  19
HETATM   19  C3  UNL     1     -10.244  -4.672 -31.043  1.00  0.00     0.047 C 
BRANCH  19  20
HETATM   20  C2  UNL     1     -10.594  -4.259 -32.430  1.00  0.00    -0.035 C 
HETATM   21  C1  UNL     1      -9.885  -4.682 -33.451  1.00  0.00     0.007 C 
ENDBRANCH  19  20
ENDBRANCH  18  19
ENDBRANCH   1  18
BRANCH   9  22
HETATM   22  C13 UNL     1      -8.938  -0.925 -32.124  1.00  0.00     0.142 C 
BRANCH  22  23
HETATM   23  C14 UNL     1      -9.353  -0.977 -33.599  1.00  0.00     0.004 A 
HETATM   24  C15 UNL     1      -8.169  -1.073 -34.531  1.00  0.00     0.007 A 
HETATM   25  C16 UNL     1      -9.068   0.158 -34.494  1.00  0.00     0.007 A 
ENDBRANCH  22  23
ENDBRANCH   9  22
TORSDOF 7
ENDMDL
