MODEL 1
REMARK VINA RESULT: -6.184298331      0.000      0.000
REMARK  6 active torsions:
REMARK  status: ('A' for Active; 'I' for Inactive)
REMARK    1  A    between atoms: C3_6  and  C4_7 
REMARK    2  A    between atoms: C4_7  and  C5_8 
REMARK    3  A    between atoms: C5_8  and  C6_9 
REMARK    4  A    between atoms: C6_9  and  C7_10 
REMARK    5  A    between atoms: C7_10  and  N2_11 
REMARK    6  A    between atoms: N3_14  and  C10_15 
ROOT
HETATM    1  C6  UNL     1      -7.436  -4.736 -30.239  1.00  0.00     0.020 C 
ENDROOT
BRANCH   1   2
HETATM    2  C5  UNL     1      -8.225  -4.145 -29.066  1.00  0.00     0.004 C 
BRANCH   2   3
HETATM    3  C4  UNL     1      -9.618  -4.723 -29.016  1.00  0.00     0.027 C 
BRANCH   3   4
HETATM    4  C3  UNL     1     -10.600  -3.597 -28.867  1.00  0.00     0.104 C 
HETATM    5  C2  UNL     1     -10.301  -2.455 -29.819  1.00  0.00     0.149 C 
HETATM    6  N1  UNL     1     -10.550  -1.295 -29.019  1.00  0.00    -0.341 N 
HETATM    7  C1  UNL     1     -10.781  -1.662 -27.671  1.00  0.00     0.316 C 
ATOM      8  H1  UNL     1     -10.559  -0.337 -29.370  1.00  0.00     0.164 HD
HETATM    9  O1  UNL     1     -11.188  -0.893 -26.760  1.00  0.00    -0.247 OA
HETATM   10  N4  UNL     1     -10.473  -3.040 -27.551  1.00  0.00    -0.337 N 
ATOM     11  H4  UNL     1     -10.212  -3.536 -26.700  1.00  0.00     0.164 HD
ENDBRANCH   3   4
ENDBRANCH   2   3
ENDBRANCH   1   2
BRANCH   1  12
HETATM   12  C7  UNL     1      -6.245  -3.831 -30.444  1.00  0.00     0.127 C 
BRANCH  12  13
HETATM   13  N2  UNL     1      -5.033  -4.618 -30.573  1.00  0.00    -0.333 N 
HETATM   14  C8  UNL     1      -4.849  -5.995 -30.926  1.00  0.00     0.147 C 
HETATM   15  C9  UNL     1      -3.568  -6.348 -30.183  1.00  0.00     0.148 C 
HETATM   16  N3  UNL     1      -2.806  -5.110 -30.116  1.00  0.00    -0.328 N 
HETATM   17  C14 UNL     1      -3.737  -4.080 -30.344  1.00  0.00     0.321 C 
HETATM   18  O2  UNL     1      -3.432  -2.855 -30.340  1.00  0.00    -0.247 OA
BRANCH  16  19
HETATM   19  C10 UNL     1      -1.406  -5.071 -29.865  1.00  0.00     0.089 C 
HETATM   20  C11 UNL     1      -0.734  -3.749 -29.751  1.00  0.00     0.025 C 
HETATM   21  C12 UNL     1       0.337  -4.257 -30.722  1.00  0.00     0.004 C 
HETATM   22  C13 UNL     1      -0.645  -5.290 -31.179  1.00  0.00     0.025 C 
ENDBRANCH  16  19
ENDBRANCH  12  13
ENDBRANCH   1  12
TORSDOF 6
ENDMDL
MODEL 2
REMARK VINA RESULT: -6.161477115      3.329      7.957
REMARK  6 active torsions:
REMARK  status: ('A' for Active; 'I' for Inactive)
REMARK    1  A    between atoms: C3_6  and  C4_7 
REMARK    2  A    between atoms: C4_7  and  C5_8 
REMARK    3  A    between atoms: C5_8  and  C6_9 
REMARK    4  A    between atoms: C6_9  and  C7_10 
REMARK    5  A    between atoms: C7_10  and  N2_11 
REMARK    6  A    between atoms: N3_14  and  C10_15 
ROOT
HETATM    1  C6  UNL     1      -6.409  -5.054 -30.591  1.00  0.00     0.020 C 
ENDROOT
BRANCH   1   2
HETATM    2  C5  UNL     1      -5.004  -4.448 -30.506  1.00  0.00     0.004 C 
BRANCH   2   3
HETATM    3  C4  UNL     1      -3.953  -5.522 -30.639  1.00  0.00     0.027 C 
BRANCH   3   4
HETATM    4  C3  UNL     1      -2.689  -5.040 -29.988  1.00  0.00     0.104 C 
HETATM    5  C2  UNL     1      -2.507  -3.542 -30.143  1.00  0.00     0.149 C 
HETATM    6  N1  UNL     1      -1.104  -3.412 -30.397  1.00  0.00    -0.341 N 
HETATM    7  C1  UNL     1      -0.513  -4.686 -30.579  1.00  0.00     0.316 C 
ATOM      8  H1  UNL     1      -0.601  -2.526 -30.441  1.00  0.00     0.164 HD
HETATM    9  O1  UNL     1       0.722  -4.917 -30.655  1.00  0.00    -0.247 OA
HETATM   10  N4  UNL     1      -1.566  -5.632 -30.656  1.00  0.00    -0.337 N 
ATOM     11  H4  UNL     1      -1.532  -6.549 -31.099  1.00  0.00     0.164 HD
ENDBRANCH   3   4
ENDBRANCH   2   3
ENDBRANCH   1   2
BRANCH   1  12
HETATM   12  C7  UNL     1      -7.345  -4.035 -29.983  1.00  0.00     0.127 C 
BRANCH  12  13
HETATM   13  N2  UNL     1      -8.149  -3.413 -31.018  1.00  0.00    -0.333 N 
HETATM   14  C8  UNL     1      -9.420  -3.792 -31.565  1.00  0.00     0.147 C 
HETATM   15  C9  UNL     1      -9.330  -3.250 -32.985  1.00  0.00     0.148 C 
HETATM   16  N3  UNL     1      -8.463  -2.085 -32.900  1.00  0.00    -0.328 N 
HETATM   17  C14 UNL     1      -7.750  -2.229 -31.696  1.00  0.00     0.321 C 
HETATM   18  O2  UNL     1      -6.882  -1.404 -31.299  1.00  0.00    -0.247 OA
BRANCH  16  19
HETATM   19  C10 UNL     1      -8.428  -1.067 -33.895  1.00  0.00     0.089 C 
HETATM   20  C11 UNL     1      -9.511  -0.049 -33.919  1.00  0.00     0.025 C 
HETATM   21  C12 UNL     1      -9.656  -0.300 -35.423  1.00  0.00     0.004 C 
HETATM   22  C13 UNL     1      -8.985  -1.621 -35.213  1.00  0.00     0.025 C 
ENDBRANCH  16  19
ENDBRANCH  12  13
ENDBRANCH   1  12
TORSDOF 6
ENDMDL
MODEL 3
REMARK VINA RESULT: -6.153704293      2.147      2.639
REMARK  6 active torsions:
REMARK  status: ('A' for Active; 'I' for Inactive)
REMARK    1  A    between atoms: C3_6  and  C4_7 
REMARK    2  A    between atoms: C4_7  and  C5_8 
REMARK    3  A    between atoms: C5_8  and  C6_9 
REMARK    4  A    between atoms: C6_9  and  C7_10 
REMARK    5  A    between atoms: C7_10  and  N2_11 
REMARK    6  A    between atoms: N3_14  and  C10_15 
ROOT
HETATM    1  C6  UNL     1      -7.409  -4.549 -30.173  1.00  0.00     0.020 C 
ENDROOT
BRANCH   1   2
HETATM    2  C5  UNL     1      -8.502  -3.587 -30.651  1.00  0.00     0.004 C 
BRANCH   2   3
HETATM    3  C4  UNL     1      -7.959  -2.641 -31.693  1.00  0.00     0.027 C 
BRANCH   3   4
HETATM    4  C3  UNL     1      -8.512  -1.270 -31.431  1.00  0.00     0.104 C 
HETATM    5  C2  UNL     1      -9.623  -1.295 -30.399  1.00  0.00     0.149 C 
HETATM    6  N1  UNL     1     -10.571  -0.359 -30.923  1.00  0.00    -0.341 N 
HETATM    7  C1  UNL     1     -10.195   0.052 -32.225  1.00  0.00     0.316 C 
ATOM      8  H1  UNL     1     -11.401  -0.034 -30.427  1.00  0.00     0.164 HD
HETATM    9  O1  UNL     1     -10.729   0.983 -32.883  1.00  0.00    -0.247 OA
HETATM   10  N4  UNL     1      -9.120  -0.776 -32.634  1.00  0.00    -0.337 N 
ATOM     11  H4  UNL     1      -8.836  -0.980 -33.591  1.00  0.00     0.164 HD
ENDBRANCH   3   4
ENDBRANCH   2   3
ENDBRANCH   1   2
BRANCH   1  12
HETATM   12  C7  UNL     1      -6.119  -3.764 -30.192  1.00  0.00     0.127 C 
BRANCH  12  13
HETATM   13  N2  UNL     1      -5.001  -4.643 -30.479  1.00  0.00    -0.333 N 
HETATM   14  C8  UNL     1      -4.976  -6.005 -30.925  1.00  0.00     0.147 C 
HETATM   15  C9  UNL     1      -3.672  -6.514 -30.327  1.00  0.00     0.148 C 
HETATM   16  N3  UNL     1      -2.797  -5.354 -30.262  1.00  0.00    -0.328 N 
HETATM   17  C14 UNL     1      -3.646  -4.234 -30.344  1.00  0.00     0.321 C 
HETATM   18  O2  UNL     1      -3.231  -3.043 -30.299  1.00  0.00    -0.247 OA
BRANCH  16  19
HETATM   19  C10 UNL     1      -1.382  -5.451 -30.142  1.00  0.00     0.089 C 
HETATM   20  C11 UNL     1      -0.621  -4.276 -29.642  1.00  0.00     0.025 C 
HETATM   21  C12 UNL     1       0.340  -4.449 -30.823  1.00  0.00     0.004 C 
HETATM   22  C13 UNL     1      -0.736  -5.224 -31.515  1.00  0.00     0.025 C 
ENDBRANCH  16  19
ENDBRANCH  12  13
ENDBRANCH   1  12
TORSDOF 6
ENDMDL
MODEL 4
REMARK VINA RESULT: -6.127494685      1.869      2.280
REMARK  6 active torsions:
REMARK  status: ('A' for Active; 'I' for Inactive)
REMARK    1  A    between atoms: C3_6  and  C4_7 
REMARK    2  A    between atoms: C4_7  and  C5_8 
REMARK    3  A    between atoms: C5_8  and  C6_9 
REMARK    4  A    between atoms: C6_9  and  C7_10 
REMARK    5  A    between atoms: C7_10  and  N2_11 
REMARK    6  A    between atoms: N3_14  and  C10_15 
ROOT
HETATM    1  C6  UNL     1      -6.410  -2.709 -31.334  1.00  0.00     0.020 C 
ENDROOT
BRANCH   1   2
HETATM    2  C5  UNL     1      -7.894  -2.343 -31.221  1.00  0.00     0.004 C 
BRANCH   2   3
HETATM    3  C4  UNL     1      -8.753  -3.405 -31.862  1.00  0.00     0.027 C 
BRANCH   3   4
HETATM    4  C3  UNL     1      -9.709  -3.934 -30.832  1.00  0.00     0.104 C 
HETATM    5  C2  UNL     1      -9.778  -3.039 -29.609  1.00  0.00     0.149 C 
HETATM    6  N1  UNL     1      -9.842  -3.975 -28.528  1.00  0.00    -0.341 N 
HETATM    7  C1  UNL     1      -9.635  -5.294 -29.000  1.00  0.00     0.316 C 
ATOM      8  H1  UNL     1     -10.013  -3.726 -27.553  1.00  0.00     0.164 HD
HETATM    9  O1  UNL     1      -9.792  -6.347 -28.328  1.00  0.00    -0.247 OA
HETATM   10  N4  UNL     1      -9.224  -5.197 -30.353  1.00  0.00    -0.337 N 
ATOM     11  H4  UNL     1      -8.690  -5.887 -30.880  1.00  0.00     0.164 HD
ENDBRANCH   3   4
ENDBRANCH   2   3
ENDBRANCH   1   2
BRANCH   1  12
HETATM   12  C7  UNL     1      -6.097  -3.576 -30.138  1.00  0.00     0.127 C 
BRANCH  12  13
HETATM   13  N2  UNL     1      -5.007  -4.483 -30.446  1.00  0.00    -0.333 N 
HETATM   14  C8  UNL     1      -5.026  -5.838 -30.916  1.00  0.00     0.147 C 
HETATM   15  C9  UNL     1      -3.734  -6.395 -30.335  1.00  0.00     0.148 C 
HETATM   16  N3  UNL     1      -2.825  -5.263 -30.257  1.00  0.00    -0.328 N 
HETATM   17  C14 UNL     1      -3.640  -4.117 -30.313  1.00  0.00     0.321 C 
HETATM   18  O2  UNL     1      -3.189  -2.940 -30.251  1.00  0.00    -0.247 OA
BRANCH  16  19
HETATM   19  C10 UNL     1      -1.412  -5.404 -30.148  1.00  0.00     0.089 C 
HETATM   20  C11 UNL     1      -0.604  -4.233 -29.717  1.00  0.00     0.025 C 
HETATM   21  C12 UNL     1       0.335  -4.500 -30.898  1.00  0.00     0.004 C 
HETATM   22  C13 UNL     1      -0.777  -5.270 -31.538  1.00  0.00     0.025 C 
ENDBRANCH  16  19
ENDBRANCH  12  13
ENDBRANCH   1  12
TORSDOF 6
ENDMDL
MODEL 5
REMARK VINA RESULT: -6.113590284      3.263      7.881
REMARK  6 active torsions:
REMARK  status: ('A' for Active; 'I' for Inactive)
REMARK    1  A    between atoms: C3_6  and  C4_7 
REMARK    2  A    between atoms: C4_7  and  C5_8 
REMARK    3  A    between atoms: C5_8  and  C6_9 
REMARK    4  A    between atoms: C6_9  and  C7_10 
REMARK    5  A    between atoms: C7_10  and  N2_11 
REMARK    6  A    between atoms: N3_14  and  C10_15 
ROOT
HETATM    1  C6  UNL     1      -6.627  -5.153 -30.565  1.00  0.00     0.020 C 
ENDROOT
BRANCH   1   2
HETATM    2  C5  UNL     1      -5.194  -4.611 -30.521  1.00  0.00     0.004 C 
BRANCH   2   3
HETATM    3  C4  UNL     1      -4.196  -5.739 -30.606  1.00  0.00     0.027 C 
BRANCH   3   4
HETATM    4  C3  UNL     1      -2.854  -5.166 -30.962  1.00  0.00     0.104 C 
HETATM    5  C2  UNL     1      -1.798  -6.245 -31.109  1.00  0.00     0.149 C 
HETATM    6  N1  UNL     1      -0.645  -5.653 -30.502  1.00  0.00    -0.341 N 
HETATM    7  C1  UNL     1      -0.988  -4.433 -29.870  1.00  0.00     0.316 C 
ATOM      8  H1  UNL     1       0.292  -6.055 -30.521  1.00  0.00     0.164 HD
HETATM    9  O1  UNL     1      -0.174  -3.600 -29.393  1.00  0.00    -0.247 OA
HETATM   10  N4  UNL     1      -2.402  -4.336 -29.882  1.00  0.00    -0.337 N 
ATOM     11  H4  UNL     1      -2.982  -3.785 -29.249  1.00  0.00     0.164 HD
ENDBRANCH   3   4
ENDBRANCH   2   3
ENDBRANCH   1   2
BRANCH   1  12
HETATM   12  C7  UNL     1      -7.505  -4.071 -29.983  1.00  0.00     0.127 C 
BRANCH  12  13
HETATM   13  N2  UNL     1      -8.272  -3.428 -31.034  1.00  0.00    -0.333 N 
HETATM   14  C8  UNL     1      -9.551  -3.759 -31.591  1.00  0.00     0.147 C 
HETATM   15  C9  UNL     1      -9.423  -3.238 -33.016  1.00  0.00     0.148 C 
HETATM   16  N3  UNL     1      -8.509  -2.110 -32.935  1.00  0.00    -0.328 N 
HETATM   17  C14 UNL     1      -7.816  -2.270 -31.721  1.00  0.00     0.321 C 
HETATM   18  O2  UNL     1      -6.918  -1.477 -31.324  1.00  0.00    -0.247 OA
BRANCH  16  19
HETATM   19  C10 UNL     1      -8.420  -1.107 -33.941  1.00  0.00     0.089 C 
HETATM   20  C11 UNL     1      -9.443  -0.028 -33.971  1.00  0.00     0.025 C 
HETATM   21  C12 UNL     1      -9.610  -0.287 -35.472  1.00  0.00     0.004 C 
HETATM   22  C13 UNL     1      -9.015  -1.642 -35.250  1.00  0.00     0.025 C 
ENDBRANCH  16  19
ENDBRANCH  12  13
ENDBRANCH   1  12
TORSDOF 6
ENDMDL
