MODEL 1
REMARK VINA RESULT: -5.481268115      0.000      0.000
REMARK  6 active torsions:
REMARK  status: ('A' for Active; 'I' for Inactive)
REMARK    1  A    between atoms: N3_4  and  C2_6 
REMARK    2  A    between atoms: C2_6  and  C3_7 
REMARK    3  A    between atoms: C3_7  and  C4_8 
REMARK    4  A    between atoms: C4_8  and  N4_9 
REMARK    5  A    between atoms: N4_9  and  C5_10 
REMARK       I    between atoms: N4_9  and  C6_12 
REMARK    6  A    between atoms: C6_12  and  C7_14 
ROOT
HETATM    1  N4  UNL     1      -7.235  -3.529 -30.468  1.00  0.00    -0.295 N 
HETATM    2  C6  UNL     1      -8.339  -3.854 -29.665  1.00  0.00     0.230 C 
HETATM    3  O2  UNL     1      -8.323  -5.026 -29.118  1.00  0.00    -0.273 OA
ENDROOT
BRANCH   1   4
HETATM    4  C4  UNL     1      -6.156  -4.480 -30.606  1.00  0.00     0.136 C 
BRANCH   4   5
HETATM    5  C3  UNL     1      -4.798  -3.777 -30.593  1.00  0.00     0.040 C 
BRANCH   5   6
HETATM    6  C2  UNL     1      -3.726  -4.791 -30.266  1.00  0.00     0.123 C 
BRANCH   6   7
HETATM    7  N3  UNL     1      -2.485  -4.108 -29.971  1.00  0.00    -0.367 N 
HETATM    8  C1  UNL     1      -1.341  -4.672 -30.148  1.00  0.00     0.196 C 
HETATM    9  N1  UNL     1      -1.320  -5.997 -30.647  1.00  0.00    -0.067 NA
HETATM   10  N2  UNL     1      -0.176  -3.927 -29.832  1.00  0.00    -0.067 NA
ATOM     11  H3  UNL     1      -2.517  -3.153 -29.613  1.00  0.00     0.161 HD
ENDBRANCH   6   7
ENDBRANCH   5   6
ENDBRANCH   4   5
ENDBRANCH   1   4
BRANCH   1  12
HETATM   12  C5  UNL     1      -7.159  -2.309 -31.155  1.00  0.00     0.357 C 
HETATM   13  O1  UNL     1      -7.576  -2.273 -32.376  1.00  0.00    -0.283 OA
ENDBRANCH   1  12
BRANCH   2  14
HETATM   14  C7  UNL     1      -9.521  -3.014 -29.368  1.00  0.00     0.083 C 
HETATM   15  C8  UNL     1     -10.489  -3.165 -30.509  1.00  0.00     0.014 C 
HETATM   16  C9  UNL     1     -11.309  -4.392 -30.521  1.00  0.00     0.001 C 
HETATM   17  C10 UNL     1     -11.308  -5.228 -29.291  1.00  0.00     0.005 C 
HETATM   18  C11 UNL     1     -11.279  -4.314 -28.089  1.00  0.00    -0.010 C 
HETATM   19  C12 UNL     1     -12.478  -3.439 -27.993  1.00  0.00     0.005 C 
HETATM   20  C15 UNL     1     -10.103  -3.424 -28.049  1.00  0.00     0.003 C 
HETATM   21  C13 UNL     1     -12.015  -2.405 -26.959  1.00  0.00     0.001 C 
HETATM   22  C14 UNL     1     -10.577  -2.191 -27.313  1.00  0.00     0.006 C 
ENDBRANCH   2  14
TORSDOF 6
ENDMDL
MODEL 2
REMARK VINA RESULT: -5.471490944      2.611      4.408
REMARK  6 active torsions:
REMARK  status: ('A' for Active; 'I' for Inactive)
REMARK    1  A    between atoms: N3_4  and  C2_6 
REMARK    2  A    between atoms: C2_6  and  C3_7 
REMARK    3  A    between atoms: C3_7  and  C4_8 
REMARK    4  A    between atoms: C4_8  and  N4_9 
REMARK    5  A    between atoms: N4_9  and  C5_10 
REMARK       I    between atoms: N4_9  and  C6_12 
REMARK    6  A    between atoms: C6_12  and  C7_14 
ROOT
HETATM    1  N4  UNL     1      -7.839  -4.053 -31.054  1.00  0.00    -0.295 N 
HETATM    2  C6  UNL     1      -7.976  -2.864 -31.787  1.00  0.00     0.230 C 
HETATM    3  O2  UNL     1      -7.216  -1.881 -31.428  1.00  0.00    -0.273 OA
ENDROOT
BRANCH   1   4
HETATM    4  C4  UNL     1      -6.861  -4.122 -29.993  1.00  0.00     0.136 C 
BRANCH   4   5
HETATM    5  C3  UNL     1      -5.589  -4.828 -30.463  1.00  0.00     0.040 C 
BRANCH   5   6
HETATM    6  C2  UNL     1      -4.456  -3.828 -30.490  1.00  0.00     0.123 C 
BRANCH   6   7
HETATM    7  N3  UNL     1      -3.210  -4.497 -30.185  1.00  0.00    -0.367 N 
HETATM    8  C1  UNL     1      -2.114  -3.843 -30.006  1.00  0.00     0.196 C 
HETATM    9  N1  UNL     1      -2.154  -2.432 -30.115  1.00  0.00    -0.067 NA
HETATM   10  N2  UNL     1      -0.940  -4.581 -29.711  1.00  0.00    -0.067 NA
ATOM     11  H3  UNL     1      -3.198  -5.514 -30.109  1.00  0.00     0.161 HD
ENDBRANCH   6   7
ENDBRANCH   5   6
ENDBRANCH   4   5
ENDBRANCH   1   4
BRANCH   1  12
HETATM   12  C5  UNL     1      -8.641  -5.173 -31.314  1.00  0.00     0.357 C 
HETATM   13  O1  UNL     1      -9.376  -5.629 -30.356  1.00  0.00    -0.283 OA
ENDBRANCH   1  12
BRANCH   2  14
HETATM   14  C7  UNL     1      -8.885  -2.601 -32.924  1.00  0.00     0.083 C 
HETATM   15  C8  UNL     1     -10.297  -2.766 -32.430  1.00  0.00     0.014 C 
HETATM   16  C9  UNL     1     -10.862  -1.640 -31.661  1.00  0.00     0.001 C 
HETATM   17  C10 UNL     1     -10.107  -0.358 -31.670  1.00  0.00     0.005 C 
HETATM   18  C11 UNL     1      -9.524  -0.153 -33.048  1.00  0.00    -0.010 C 
HETATM   19  C12 UNL     1     -10.562  -0.031 -34.107  1.00  0.00     0.005 C 
HETATM   20  C15 UNL     1      -8.613  -1.232 -33.472  1.00  0.00     0.003 C 
HETATM   21  C13 UNL     1      -9.720  -0.216 -35.376  1.00  0.00     0.001 C 
HETATM   22  C14 UNL     1      -8.735  -1.270 -34.980  1.00  0.00     0.006 C 
ENDBRANCH   2  14
TORSDOF 6
ENDMDL
MODEL 3
REMARK VINA RESULT: -5.424646449      1.155      1.617
REMARK  6 active torsions:
REMARK  status: ('A' for Active; 'I' for Inactive)
REMARK    1  A    between atoms: N3_4  and  C2_6 
REMARK    2  A    between atoms: C2_6  and  C3_7 
REMARK    3  A    between atoms: C3_7  and  C4_8 
REMARK    4  A    between atoms: C4_8  and  N4_9 
REMARK    5  A    between atoms: N4_9  and  C5_10 
REMARK       I    between atoms: N4_9  and  C6_12 
REMARK    6  A    between atoms: C6_12  and  C7_14 
ROOT
HETATM    1  N4  UNL     1      -7.258  -3.539 -30.451  1.00  0.00    -0.295 N 
HETATM    2  C6  UNL     1      -8.360  -3.876 -29.649  1.00  0.00     0.230 C 
HETATM    3  O2  UNL     1      -8.328  -5.044 -29.096  1.00  0.00    -0.273 OA
ENDROOT
BRANCH   1   4
HETATM    4  C4  UNL     1      -6.166  -4.476 -30.582  1.00  0.00     0.136 C 
BRANCH   4   5
HETATM    5  C3  UNL     1      -4.818  -3.754 -30.577  1.00  0.00     0.040 C 
BRANCH   5   6
HETATM    6  C2  UNL     1      -3.734  -4.742 -30.213  1.00  0.00     0.123 C 
BRANCH   6   7
HETATM    7  N3  UNL     1      -4.214  -6.090 -30.430  1.00  0.00    -0.367 N 
HETATM    8  C1  UNL     1      -3.468  -6.999 -30.955  1.00  0.00     0.196 C 
HETATM    9  N1  UNL     1      -2.146  -6.648 -31.322  1.00  0.00    -0.067 NA
HETATM   10  N2  UNL     1      -4.021  -8.293 -31.131  1.00  0.00    -0.067 NA
ATOM     11  H3  UNL     1      -5.168  -6.327 -30.160  1.00  0.00     0.161 HD
ENDBRANCH   6   7
ENDBRANCH   5   6
ENDBRANCH   4   5
ENDBRANCH   1   4
BRANCH   1  12
HETATM   12  C5  UNL     1      -7.198  -2.323 -31.146  1.00  0.00     0.357 C 
HETATM   13  O1  UNL     1      -7.653  -2.289 -32.353  1.00  0.00    -0.283 OA
ENDBRANCH   1  12
BRANCH   2  14
HETATM   14  C7  UNL     1      -9.554  -3.050 -29.359  1.00  0.00     0.083 C 
HETATM   15  C8  UNL     1     -10.525  -3.237 -30.492  1.00  0.00     0.014 C 
HETATM   16  C9  UNL     1     -11.325  -4.477 -30.479  1.00  0.00     0.001 C 
HETATM   17  C10 UNL     1     -11.302  -5.292 -29.235  1.00  0.00     0.005 C 
HETATM   18  C11 UNL     1     -11.282  -4.358 -28.048  1.00  0.00    -0.010 C 
HETATM   19  C12 UNL     1     -12.496  -3.502 -27.960  1.00  0.00     0.005 C 
HETATM   20  C15 UNL     1     -10.122  -3.448 -28.030  1.00  0.00     0.003 C 
HETATM   21  C13 UNL     1     -12.044  -2.443 -26.947  1.00  0.00     0.001 C 
HETATM   22  C14 UNL     1     -10.613  -2.210 -27.312  1.00  0.00     0.006 C 
ENDBRANCH   2  14
TORSDOF 6
ENDMDL
MODEL 4
REMARK VINA RESULT: -5.341223339      2.222      4.037
REMARK  6 active torsions:
REMARK  status: ('A' for Active; 'I' for Inactive)
REMARK    1  A    between atoms: N3_4  and  C2_6 
REMARK    2  A    between atoms: C2_6  and  C3_7 
REMARK    3  A    between atoms: C3_7  and  C4_8 
REMARK    4  A    between atoms: C4_8  and  N4_9 
REMARK    5  A    between atoms: N4_9  and  C5_10 
REMARK       I    between atoms: N4_9  and  C6_12 
REMARK    6  A    between atoms: C6_12  and  C7_14 
ROOT
HETATM    1  N4  UNL     1      -7.125  -3.508 -30.864  1.00  0.00    -0.295 N 
HETATM    2  C6  UNL     1      -7.894  -2.823 -31.818  1.00  0.00     0.230 C 
HETATM    3  O2  UNL     1      -7.318  -1.826 -32.407  1.00  0.00    -0.273 OA
ENDROOT
BRANCH   1   4
HETATM    4  C4  UNL     1      -5.761  -3.095 -30.625  1.00  0.00     0.136 C 
BRANCH   4   5
HETATM    5  C3  UNL     1      -4.807  -4.288 -30.684  1.00  0.00     0.040 C 
BRANCH   5   6
HETATM    6  C2  UNL     1      -3.428  -3.833 -30.265  1.00  0.00     0.123 C 
BRANCH   6   7
HETATM    7  N3  UNL     1      -2.495  -4.932 -30.388  1.00  0.00    -0.367 N 
HETATM    8  C1  UNL     1      -1.242  -4.792 -30.126  1.00  0.00     0.196 C 
HETATM    9  N1  UNL     1      -0.787  -3.518 -29.707  1.00  0.00    -0.067 NA
HETATM   10  N2  UNL     1      -0.401  -5.924 -30.274  1.00  0.00    -0.067 NA
ATOM     11  H3  UNL     1      -2.840  -5.843 -30.690  1.00  0.00     0.161 HD
ENDBRANCH   6   7
ENDBRANCH   5   6
ENDBRANCH   4   5
ENDBRANCH   1   4
BRANCH   1  12
HETATM   12  C5  UNL     1      -7.653  -4.574 -30.122  1.00  0.00     0.357 C 
HETATM   13  O1  UNL     1      -7.966  -4.359 -28.888  1.00  0.00    -0.283 OA
ENDBRANCH   1  12
BRANCH   2  14
HETATM   14  C7  UNL     1      -9.286  -3.108 -32.233  1.00  0.00     0.083 C 
HETATM   15  C8  UNL     1     -10.196  -2.650 -31.126  1.00  0.00     0.014 C 
HETATM   16  C9  UNL     1     -10.467  -1.202 -31.050  1.00  0.00     0.001 C 
HETATM   17  C10 UNL     1     -10.050  -0.366 -32.208  1.00  0.00     0.005 C 
HETATM   18  C11 UNL     1     -10.296  -1.147 -33.478  1.00  0.00    -0.010 C 
HETATM   19  C12 UNL     1     -11.733  -1.468 -33.695  1.00  0.00     0.005 C 
HETATM   20  C15 UNL     1      -9.565  -2.426 -33.538  1.00  0.00     0.003 C 
HETATM   21  C13 UNL     1     -11.640  -2.539 -34.788  1.00  0.00     0.001 C 
HETATM   22  C14 UNL     1     -10.431  -3.326 -34.391  1.00  0.00     0.006 C 
ENDBRANCH   2  14
TORSDOF 6
ENDMDL
MODEL 5
REMARK VINA RESULT: -5.334606383      2.268      3.624
REMARK  6 active torsions:
REMARK  status: ('A' for Active; 'I' for Inactive)
REMARK    1  A    between atoms: N3_4  and  C2_6 
REMARK    2  A    between atoms: C2_6  and  C3_7 
REMARK    3  A    between atoms: C3_7  and  C4_8 
REMARK    4  A    between atoms: C4_8  and  N4_9 
REMARK    5  A    between atoms: N4_9  and  C5_10 
REMARK       I    between atoms: N4_9  and  C6_12 
REMARK    6  A    between atoms: C6_12  and  C7_14 
ROOT
HETATM    1  N4  UNL     1      -7.004  -3.838 -30.621  1.00  0.00    -0.295 N 
HETATM    2  C6  UNL     1      -7.613  -2.648 -31.050  1.00  0.00     0.230 C 
HETATM    3  O2  UNL     1      -6.816  -1.674 -31.347  1.00  0.00    -0.273 OA
ENDROOT
BRANCH   1   4
HETATM    4  C4  UNL     1      -5.561  -3.916 -30.571  1.00  0.00     0.136 C 
BRANCH   4   5
HETATM    5  C3  UNL     1      -5.088  -5.369 -30.629  1.00  0.00     0.040 C 
BRANCH   5   6
HETATM    6  C2  UNL     1      -3.616  -5.418 -30.288  1.00  0.00     0.123 C 
BRANCH   6   7
HETATM    7  N3  UNL     1      -3.090  -4.072 -30.216  1.00  0.00    -0.367 N 
HETATM    8  C1  UNL     1      -1.827  -3.842 -30.102  1.00  0.00     0.196 C 
HETATM    9  N1  UNL     1      -0.949  -4.951 -30.047  1.00  0.00    -0.067 NA
HETATM   10  N2  UNL     1      -1.401  -2.491 -30.038  1.00  0.00    -0.067 NA
ATOM     11  H3  UNL     1      -3.735  -3.284 -30.257  1.00  0.00     0.161 HD
ENDBRANCH   6   7
ENDBRANCH   5   6
ENDBRANCH   4   5
ENDBRANCH   1   4
BRANCH   1  12
HETATM   12  C5  UNL     1      -7.760  -4.949 -30.221  1.00  0.00     0.357 C 
HETATM   13  O1  UNL     1      -8.322  -4.915 -29.060  1.00  0.00    -0.283 OA
ENDBRANCH   1  12
BRANCH   2  14
HETATM   14  C7  UNL     1      -9.059  -2.376 -31.203  1.00  0.00     0.083 C 
HETATM   15  C8  UNL     1      -9.209  -0.969 -31.714  1.00  0.00     0.014 C 
HETATM   16  C9  UNL     1      -8.972  -0.760 -33.155  1.00  0.00     0.001 C 
HETATM   17  C10 UNL     1      -8.873  -1.971 -34.014  1.00  0.00     0.005 C 
HETATM   18  C11 UNL     1      -9.871  -2.992 -33.522  1.00  0.00    -0.010 C 
HETATM   19  C12 UNL     1     -11.280  -2.526 -33.624  1.00  0.00     0.005 C 
HETATM   20  C15 UNL     1      -9.662  -3.398 -32.120  1.00  0.00     0.003 C 
HETATM   21  C13 UNL     1     -12.001  -3.550 -32.740  1.00  0.00     0.001 C 
HETATM   22  C14 UNL     1     -11.039  -3.765 -31.614  1.00  0.00     0.006 C 
ENDBRANCH   2  14
TORSDOF 6
ENDMDL
