MODEL 1
REMARK VINA RESULT: -5.237865882      0.000      0.000
REMARK  6 active torsions:
REMARK  status: ('A' for Active; 'I' for Inactive)
REMARK    1  A    between atoms: C2_2  and  C3_3 
REMARK    2  A    between atoms: C3_3  and  N1_4 
REMARK    3  A    between atoms: N1_4  and  C4_5 
REMARK       I    between atoms: N1_4  and  C12_14 
REMARK    4  A    between atoms: C4_5  and  C5_6 
REMARK    5  A    between atoms: C5_6  and  N2_7 
REMARK       I    between atoms: C12_14  and  N4_18 
REMARK    6  A    between atoms: N4_18  and  C13_20 
ROOT
HETATM    1  N1  UNL     1      -6.576  -4.047 -30.597  1.00  0.00    -0.217 N 
HETATM    2  C12 UNL     1      -7.931  -4.504 -30.364  1.00  0.00     0.670 C 
HETATM    3  N3  UNL     1      -8.430  -5.285 -31.236  1.00  0.00    -0.235 N 
ATOM      4  H31 UNL     1      -9.383  -5.606 -31.071  1.00  0.00     0.174 HD
ATOM      5  H32 UNL     1      -7.963  -5.617 -32.080  1.00  0.00     0.174 HD
HETATM    6  N4  UNL     1      -8.577  -4.046 -29.197  1.00  0.00    -0.218 N 
ATOM      7  H4  UNL     1      -8.141  -3.320 -28.629  1.00  0.00     0.178 HD
ENDROOT
BRANCH   1   8
HETATM    8  C3  UNL     1      -6.384  -2.662 -30.906  1.00  0.00     0.141 C 
BRANCH   8   9
HETATM    9  C2  UNL     1      -7.319  -2.310 -32.067  1.00  0.00     0.016 C 
HETATM   10  C1  UNL     1      -8.355  -1.286 -31.601  1.00  0.00     0.006 C 
ENDBRANCH   8   9
ENDBRANCH   1   8
BRANCH   1  11
HETATM   11  C4  UNL     1      -5.457  -4.987 -30.514  1.00  0.00     0.169 C 
BRANCH  11  12
HETATM   12  C5  UNL     1      -4.228  -4.231 -30.897  1.00  0.00     0.257 C 
BRANCH  12  13
HETATM   13  N2  UNL     1      -2.972  -4.892 -30.614  1.00  0.00    -0.069 N 
HETATM   14  C6  UNL     1      -3.351  -6.194 -30.034  1.00  0.00     0.272 C 
HETATM   15  C7  UNL     1      -2.144  -4.255 -29.655  1.00  0.00     0.237 C 
HETATM   16  C8  UNL     1      -0.840  -3.710 -30.241  1.00  0.00     0.028 C 
HETATM   17  C9  UNL     1      -0.130  -4.971 -30.734  1.00  0.00     0.003 C 
HETATM   18  C10 UNL     1      -0.909  -5.380 -31.946  1.00  0.00     0.028 C 
HETATM   19  C11 UNL     1      -2.365  -5.199 -31.876  1.00  0.00     0.237 C 
ENDBRANCH  12  13
ENDBRANCH  11  12
ENDBRANCH   1  11
BRANCH   6  20
HETATM   20  C13 UNL     1      -9.839  -4.592 -28.806  1.00  0.00     0.147 C 
HETATM   21  C14 UNL     1     -10.634  -3.844 -27.787  1.00  0.00     0.195 C 
HETATM   22  O1  UNL     1     -11.788  -4.101 -28.511  1.00  0.00    -0.387 OA
HETATM   23  C15 UNL     1     -11.011  -4.181 -29.660  1.00  0.00     0.195 C 
ENDBRANCH   6  20
TORSDOF 6
ENDMDL
MODEL 2
REMARK VINA RESULT: -4.958138070      2.300      3.607
REMARK  6 active torsions:
REMARK  status: ('A' for Active; 'I' for Inactive)
REMARK    1  A    between atoms: C2_2  and  C3_3 
REMARK    2  A    between atoms: C3_3  and  N1_4 
REMARK    3  A    between atoms: N1_4  and  C4_5 
REMARK       I    between atoms: N1_4  and  C12_14 
REMARK    4  A    between atoms: C4_5  and  C5_6 
REMARK    5  A    between atoms: C5_6  and  N2_7 
REMARK       I    between atoms: C12_14  and  N4_18 
REMARK    6  A    between atoms: N4_18  and  C13_20 
ROOT
HETATM    1  N1  UNL     1      -6.538  -3.413 -30.759  1.00  0.00    -0.217 N 
HETATM    2  C12 UNL     1      -7.404  -2.412 -31.348  1.00  0.00     0.670 C 
HETATM    3  N3  UNL     1      -7.579  -1.343 -30.681  1.00  0.00    -0.235 N 
ATOM      4  H31 UNL     1      -8.189  -0.638 -31.095  1.00  0.00     0.174 HD
ATOM      5  H32 UNL     1      -7.164  -1.128 -29.773  1.00  0.00     0.174 HD
HETATM    6  N4  UNL     1      -7.978  -2.709 -32.602  1.00  0.00    -0.218 N 
ATOM      7  H4  UNL     1      -7.882  -3.645 -32.994  1.00  0.00     0.178 HD
ENDROOT
BRANCH   1   8
HETATM    8  C3  UNL     1      -7.138  -4.635 -30.316  1.00  0.00     0.141 C 
BRANCH   8   9
HETATM    9  C2  UNL     1      -8.082  -4.298 -29.159  1.00  0.00     0.016 C 
HETATM   10  C1  UNL     1      -9.325  -5.187 -29.232  1.00  0.00     0.006 C 
ENDBRANCH   8   9
ENDBRANCH   1   8
BRANCH   1  11
HETATM   11  C4  UNL     1      -5.102  -3.162 -30.633  1.00  0.00     0.169 C 
BRANCH  11  12
HETATM   12  C5  UNL     1      -4.405  -4.258 -31.369  1.00  0.00     0.257 C 
BRANCH  12  13
HETATM   13  N2  UNL     1      -3.202  -4.765 -30.746  1.00  0.00    -0.069 N 
HETATM   14  C6  UNL     1      -3.624  -5.995 -30.049  1.00  0.00     0.272 C 
HETATM   15  C7  UNL     1      -2.620  -3.929 -29.760  1.00  0.00     0.237 C 
HETATM   16  C8  UNL     1      -1.254  -3.370 -30.161  1.00  0.00     0.028 C 
HETATM   17  C9  UNL     1      -0.395  -4.628 -30.299  1.00  0.00     0.003 C 
HETATM   18  C10 UNL     1      -0.888  -5.273 -31.557  1.00  0.00     0.028 C 
HETATM   19  C11 UNL     1      -2.334  -5.204 -31.800  1.00  0.00     0.237 C 
ENDBRANCH  12  13
ENDBRANCH  11  12
ENDBRANCH   1  11
BRANCH   6  20
HETATM   20  C13 UNL     1      -8.693  -1.704 -33.326  1.00  0.00     0.147 C 
HETATM   21  C14 UNL     1      -8.000  -1.054 -34.478  1.00  0.00     0.195 C 
HETATM   22  O1  UNL     1      -9.178  -1.110 -35.207  1.00  0.00    -0.387 OA
HETATM   23  C15 UNL     1      -9.554  -2.215 -34.453  1.00  0.00     0.195 C 
ENDBRANCH   6  20
TORSDOF 6
ENDMDL
MODEL 3
REMARK VINA RESULT: -4.861803887      3.417      5.534
REMARK  6 active torsions:
REMARK  status: ('A' for Active; 'I' for Inactive)
REMARK    1  A    between atoms: C2_2  and  C3_3 
REMARK    2  A    between atoms: C3_3  and  N1_4 
REMARK    3  A    between atoms: N1_4  and  C4_5 
REMARK       I    between atoms: N1_4  and  C12_14 
REMARK    4  A    between atoms: C4_5  and  C5_6 
REMARK    5  A    between atoms: C5_6  and  N2_7 
REMARK       I    between atoms: C12_14  and  N4_18 
REMARK    6  A    between atoms: N4_18  and  C13_20 
ROOT
HETATM    1  N1  UNL     1     -11.011  -0.120 -31.392  1.00  0.00    -0.217 N 
HETATM    2  C12 UNL     1     -11.642  -0.979 -30.411  1.00  0.00     0.670 C 
HETATM    3  N3  UNL     1     -12.200  -2.035 -30.850  1.00  0.00    -0.235 N 
ATOM      4  H31 UNL     1     -12.644  -2.640 -30.159  1.00  0.00     0.174 HD
ATOM      5  H32 UNL     1     -12.241  -2.330 -31.826  1.00  0.00     0.174 HD
HETATM    6  N4  UNL     1     -11.586  -0.572 -29.062  1.00  0.00    -0.218 N 
ATOM      7  H4  UNL     1     -11.231   0.354 -28.827  1.00  0.00     0.178 HD
ENDROOT
BRANCH   1   8
HETATM    8  C3  UNL     1     -11.608   1.158 -31.640  1.00  0.00     0.141 C 
BRANCH   8   9
HETATM    9  C2  UNL     1     -10.918   1.764 -32.865  1.00  0.00     0.016 C 
HETATM   10  C1  UNL     1     -11.007   3.290 -32.804  1.00  0.00     0.006 C 
ENDBRANCH   8   9
ENDBRANCH   1   8
BRANCH   1  11
HETATM   11  C4  UNL     1      -9.805  -0.563 -32.092  1.00  0.00     0.169 C 
BRANCH  11  12
HETATM   12  C5  UNL     1      -8.852  -1.043 -31.047  1.00  0.00     0.257 C 
BRANCH  12  13
HETATM   13  N2  UNL     1      -8.256  -2.340 -31.290  1.00  0.00    -0.069 N 
HETATM   14  C6  UNL     1      -8.531  -2.623 -32.711  1.00  0.00     0.272 C 
HETATM   15  C7  UNL     1      -8.810  -3.418 -30.554  1.00  0.00     0.237 C 
HETATM   16  C8  UNL     1      -7.843  -4.022 -29.535  1.00  0.00     0.028 C 
HETATM   17  C9  UNL     1      -6.711  -4.562 -30.411  1.00  0.00     0.003 C 
HETATM   18  C10 UNL     1      -5.995  -3.334 -30.883  1.00  0.00     0.028 C 
HETATM   19  C11 UNL     1      -6.835  -2.173 -31.203  1.00  0.00     0.237 C 
ENDBRANCH  12  13
ENDBRANCH  11  12
ENDBRANCH   1  11
BRANCH   6  20
HETATM   20  C13 UNL     1     -12.023  -1.451 -28.022  1.00  0.00     0.147 C 
HETATM   21  C14 UNL     1     -11.008  -2.355 -27.405  1.00  0.00     0.195 C 
HETATM   22  O1  UNL     1     -11.553  -2.101 -26.156  1.00  0.00    -0.387 OA
HETATM   23  C15 UNL     1     -11.987  -0.870 -26.632  1.00  0.00     0.195 C 
ENDBRANCH   6  20
TORSDOF 6
ENDMDL
MODEL 4
REMARK VINA RESULT: -4.773193294      2.651      6.972
REMARK  6 active torsions:
REMARK  status: ('A' for Active; 'I' for Inactive)
REMARK    1  A    between atoms: C2_2  and  C3_3 
REMARK    2  A    between atoms: C3_3  and  N1_4 
REMARK    3  A    between atoms: N1_4  and  C4_5 
REMARK       I    between atoms: N1_4  and  C12_14 
REMARK    4  A    between atoms: C4_5  and  C5_6 
REMARK    5  A    between atoms: C5_6  and  N2_7 
REMARK       I    between atoms: C12_14  and  N4_18 
REMARK    6  A    between atoms: N4_18  and  C13_20 
ROOT
HETATM    1  N1  UNL     1      -8.000  -3.289 -31.207  1.00  0.00    -0.217 N 
HETATM    2  C12 UNL     1      -6.933  -3.792 -30.366  1.00  0.00     0.670 C 
HETATM    3  N3  UNL     1      -7.258  -4.172 -29.196  1.00  0.00    -0.235 N 
ATOM      4  H31 UNL     1      -6.507  -4.526 -28.604  1.00  0.00     0.174 HD
ATOM      5  H32 UNL     1      -8.198  -4.156 -28.800  1.00  0.00     0.174 HD
HETATM    6  N4  UNL     1      -5.633  -3.814 -30.912  1.00  0.00    -0.218 N 
ATOM      7  H4  UNL     1      -5.453  -3.367 -31.810  1.00  0.00     0.178 HD
ENDROOT
BRANCH   1   8
HETATM    8  C3  UNL     1      -7.994  -1.894 -31.527  1.00  0.00     0.141 C 
BRANCH   8   9
HETATM    9  C2  UNL     1      -7.597  -1.756 -33.000  1.00  0.00     0.016 C 
HETATM   10  C1  UNL     1      -8.663  -0.952 -33.747  1.00  0.00     0.006 C 
ENDBRANCH   8   9
ENDBRANCH   1   8
BRANCH   1  11
HETATM   11  C4  UNL     1      -9.036  -4.196 -31.703  1.00  0.00     0.169 C 
BRANCH  11  12
HETATM   12  C5  UNL     1     -10.335  -3.469 -31.593  1.00  0.00     0.257 C 
BRANCH  12  13
HETATM   13  N2  UNL     1     -11.105  -3.737 -30.397  1.00  0.00    -0.069 N 
HETATM   14  C6  UNL     1     -12.491  -3.917 -30.870  1.00  0.00     0.272 C 
HETATM   15  C7  UNL     1     -11.143  -2.690 -29.442  1.00  0.00     0.237 C 
HETATM   16  C8  UNL     1     -10.432  -3.034 -28.132  1.00  0.00     0.028 C 
HETATM   17  C9  UNL     1     -11.248  -4.211 -27.595  1.00  0.00     0.003 C 
HETATM   18  C10 UNL     1     -10.883  -5.351 -28.495  1.00  0.00     0.028 C 
HETATM   19  C11 UNL     1     -10.698  -5.025 -29.915  1.00  0.00     0.237 C 
ENDBRANCH  12  13
ENDBRANCH  11  12
ENDBRANCH   1  11
BRANCH   6  20
HETATM   20  C13 UNL     1      -4.565  -4.461 -30.215  1.00  0.00     0.147 C 
HETATM   21  C14 UNL     1      -4.242  -5.869 -30.592  1.00  0.00     0.195 C 
HETATM   22  O1  UNL     1      -2.890  -5.573 -30.503  1.00  0.00    -0.387 OA
HETATM   23  C15 UNL     1      -3.193  -4.250 -30.801  1.00  0.00     0.195 C 
ENDBRANCH   6  20
TORSDOF 6
ENDMDL
MODEL 5
REMARK VINA RESULT: -4.740556365      3.665      6.221
REMARK  6 active torsions:
REMARK  status: ('A' for Active; 'I' for Inactive)
REMARK    1  A    between atoms: C2_2  and  C3_3 
REMARK    2  A    between atoms: C3_3  and  N1_4 
REMARK    3  A    between atoms: N1_4  and  C4_5 
REMARK       I    between atoms: N1_4  and  C12_14 
REMARK    4  A    between atoms: C4_5  and  C5_6 
REMARK    5  A    between atoms: C5_6  and  N2_7 
REMARK       I    between atoms: C12_14  and  N4_18 
REMARK    6  A    between atoms: N4_18  and  C13_20 
ROOT
HETATM    1  N1  UNL     1     -11.107  -1.963 -28.796  1.00  0.00    -0.217 N 
HETATM    2  C12 UNL     1     -11.497  -1.091 -27.707  1.00  0.00     0.670 C 
HETATM    3  N3  UNL     1     -10.590  -0.783 -26.869  1.00  0.00    -0.235 N 
ATOM      4  H31 UNL     1     -10.865  -0.168 -26.102  1.00  0.00     0.174 HD
ATOM      5  H32 UNL     1      -9.618  -1.092 -26.896  1.00  0.00     0.174 HD
HETATM    6  N4  UNL     1     -12.840  -0.663 -27.668  1.00  0.00    -0.218 N 
ATOM      7  H4  UNL     1     -13.519  -1.070 -28.310  1.00  0.00     0.178 HD
ENDROOT
BRANCH   1   8
HETATM    8  C3  UNL     1     -11.643  -3.291 -28.810  1.00  0.00     0.141 C 
BRANCH   8   9
HETATM    9  C2  UNL     1     -10.823  -4.134 -27.830  1.00  0.00     0.016 C 
HETATM   10  C1  UNL     1     -10.793  -5.589 -28.302  1.00  0.00     0.006 C 
ENDBRANCH   8   9
ENDBRANCH   1   8
BRANCH   1  11
HETATM   11  C4  UNL     1     -10.197  -1.481 -29.835  1.00  0.00     0.169 C 
BRANCH  11  12
HETATM   12  C5  UNL     1     -10.228  -2.488 -30.938  1.00  0.00     0.257 C 
BRANCH  12  13
HETATM   13  N2  UNL     1      -8.939  -2.972 -31.382  1.00  0.00    -0.069 N 
HETATM   14  C6  UNL     1      -9.099  -3.205 -32.830  1.00  0.00     0.272 C 
HETATM   15  C7  UNL     1      -8.520  -4.206 -30.823  1.00  0.00     0.237 C 
HETATM   16  C8  UNL     1      -7.298  -4.081 -29.913  1.00  0.00     0.028 C 
HETATM   17  C9  UNL     1      -6.209  -3.584 -30.864  1.00  0.00     0.003 C 
HETATM   18  C10 UNL     1      -6.583  -2.160 -31.138  1.00  0.00     0.028 C 
HETATM   19  C11 UNL     1      -8.018  -1.879 -31.272  1.00  0.00     0.237 C 
ENDBRANCH  12  13
ENDBRANCH  11  12
ENDBRANCH   1  11
BRANCH   6  20
HETATM   20  C13 UNL     1     -13.255   0.338 -26.735  1.00  0.00     0.147 C 
HETATM   21  C14 UNL     1     -14.632   0.894 -26.881  1.00  0.00     0.195 C 
HETATM   22  O1  UNL     1     -14.783   0.860 -25.503  1.00  0.00    -0.387 OA
HETATM   23  C15 UNL     1     -13.868  -0.185 -25.462  1.00  0.00     0.195 C 
ENDBRANCH   6  20
TORSDOF 6
ENDMDL
