MODEL 1
REMARK VINA RESULT: -6.021402443      0.000      0.000
REMARK  8 active torsions:
REMARK  status: ('A' for Active; 'I' for Inactive)
REMARK       I    between atoms: C1_2  and  N1_3 
REMARK       I    between atoms: C1_2  and  N3_15 
REMARK    1  A    between atoms: N1_3  and  C2_5 
REMARK    2  A    between atoms: C2_5  and  C3_6 
REMARK    3  A    between atoms: C3_6  and  C4_7 
REMARK    4  A    between atoms: C5_8  and  C6_9 
REMARK    5  A    between atoms: C6_9  and  N2_10 
REMARK    6  A    between atoms: N3_15  and  C11_17 
REMARK    7  A    between atoms: C11_17  and  C12_18 
REMARK    8  A    between atoms: C12_18  and  N4_19 
ROOT
HETATM    1  O1  UNL     1      -5.936  -3.002 -30.711  1.00  0.00    -0.247 OA
HETATM    2  C1  UNL     1      -5.885  -4.189 -30.341  1.00  0.00     0.316 C 
HETATM    3  N1  UNL     1      -4.625  -4.878 -30.257  1.00  0.00    -0.342 N 
ATOM      4  H1  UNL     1      -4.597  -5.852 -29.954  1.00  0.00     0.164 HD
HETATM    5  N3  UNL     1      -7.059  -4.889 -29.993  1.00  0.00    -0.341 N 
ATOM      6  H3  UNL     1      -6.992  -5.859 -29.683  1.00  0.00     0.164 HD
ENDROOT
BRANCH   3   7
HETATM    7  C2  UNL     1      -3.403  -4.201 -30.598  1.00  0.00     0.136 C 
BRANCH   7   8
HETATM    8  C3  UNL     1      -2.151  -4.944 -30.279  1.00  0.00     0.113 C 
BRANCH   8   9
HETATM    9  C4  UNL     1      -2.193  -6.224 -31.009  1.00  0.00    -0.103 C 
HETATM   10  C5  UNL     1      -2.211  -7.282 -31.589  1.00  0.00    -0.076 C 
BRANCH  10  11
HETATM   11  C6  UNL     1      -2.208  -8.590 -32.283  1.00  0.00     0.365 C 
BRANCH  11  12
HETATM   12  N2  UNL     1      -2.818  -9.596 -31.483  1.00  0.00     0.099 N 
HETATM   13  C7  UNL     1      -2.857 -10.910 -32.037  1.00  0.00     0.273 C 
HETATM   14  C8  UNL     1      -3.620 -11.707 -31.007  1.00  0.00     0.032 C 
HETATM   15  C9  UNL     1      -4.421 -10.659 -30.274  1.00  0.00     0.032 C 
HETATM   16  C10 UNL     1      -4.144  -9.353 -31.036  1.00  0.00     0.273 C 
ENDBRANCH  11  12
ENDBRANCH  10  11
ENDBRANCH   8   9
ENDBRANCH   7   8
ENDBRANCH   3   7
BRANCH   5  17
HETATM   17  C11 UNL     1      -8.346  -4.259 -30.068  1.00  0.00     0.154 C 
BRANCH  17  18
HETATM   18  C12 UNL     1      -8.990  -4.480 -31.384  1.00  0.00     0.292 C 
BRANCH  18  19
HETATM   19  N4  UNL     1      -9.680  -3.288 -31.873  1.00  0.00     0.090 N 
HETATM   20  C13 UNL     1      -8.942  -2.747 -32.967  1.00  0.00     0.272 C 
HETATM   21  C14 UNL     1      -8.453  -1.392 -32.612  1.00  0.00     0.032 C 
HETATM   22  C15 UNL     1      -8.908  -1.149 -31.206  1.00  0.00     0.032 C 
HETATM   23  C16 UNL     1      -9.843  -2.266 -30.898  1.00  0.00     0.272 C 
ENDBRANCH  18  19
ENDBRANCH  17  18
ENDBRANCH   5  17
TORSDOF 8
ENDMDL
MODEL 2
REMARK VINA RESULT: -5.860794162      1.682      2.579
REMARK  8 active torsions:
REMARK  status: ('A' for Active; 'I' for Inactive)
REMARK       I    between atoms: C1_2  and  N1_3 
REMARK       I    between atoms: C1_2  and  N3_15 
REMARK    1  A    between atoms: N1_3  and  C2_5 
REMARK    2  A    between atoms: C2_5  and  C3_6 
REMARK    3  A    between atoms: C3_6  and  C4_7 
REMARK    4  A    between atoms: C5_8  and  C6_9 
REMARK    5  A    between atoms: C6_9  and  N2_10 
REMARK    6  A    between atoms: N3_15  and  C11_17 
REMARK    7  A    between atoms: C11_17  and  C12_18 
REMARK    8  A    between atoms: C12_18  and  N4_19 
ROOT
HETATM    1  O1  UNL     1      -5.157  -3.120 -30.808  1.00  0.00    -0.247 OA
HETATM    2  C1  UNL     1      -5.109  -4.302 -30.419  1.00  0.00     0.316 C 
HETATM    3  N1  UNL     1      -3.854  -4.909 -30.069  1.00  0.00    -0.342 N 
ATOM      4  H1  UNL     1      -3.829  -5.879 -29.754  1.00  0.00     0.164 HD
HETATM    5  N3  UNL     1      -6.284  -5.075 -30.311  1.00  0.00    -0.341 N 
ATOM      6  H3  UNL     1      -6.222  -6.038 -29.982  1.00  0.00     0.164 HD
ENDROOT
BRANCH   3   7
HETATM    7  C2  UNL     1      -2.632  -4.156 -30.160  1.00  0.00     0.136 C 
BRANCH   7   8
HETATM    8  C3  UNL     1      -1.388  -4.968 -30.282  1.00  0.00     0.113 C 
BRANCH   8   9
HETATM    9  C4  UNL     1      -1.734  -6.206 -31.005  1.00  0.00    -0.103 C 
HETATM   10  C5  UNL     1      -1.993  -7.218 -31.608  1.00  0.00    -0.076 C 
BRANCH  10  11
HETATM   11  C6  UNL     1      -2.286  -8.456 -32.368  1.00  0.00     0.365 C 
BRANCH  11  12
HETATM   12  N2  UNL     1      -2.816  -9.465 -31.517  1.00  0.00     0.099 N 
HETATM   13  C7  UNL     1      -2.774 -10.801 -32.015  1.00  0.00     0.273 C 
HETATM   14  C8  UNL     1      -3.467 -11.603 -30.940  1.00  0.00     0.032 C 
HETATM   15  C9  UNL     1      -4.327 -10.581 -30.238  1.00  0.00     0.032 C 
HETATM   16  C10 UNL     1      -4.149  -9.292 -31.058  1.00  0.00     0.273 C 
ENDBRANCH  11  12
ENDBRANCH  10  11
ENDBRANCH   8   9
ENDBRANCH   7   8
ENDBRANCH   3   7
BRANCH   5  17
HETATM   17  C11 UNL     1      -7.565  -4.528 -30.658  1.00  0.00     0.154 C 
BRANCH  17  18
HETATM   18  C12 UNL     1      -8.362  -4.190 -29.457  1.00  0.00     0.292 C 
BRANCH  18  19
HETATM   19  N4  UNL     1      -9.776  -4.525 -29.615  1.00  0.00     0.090 N 
HETATM   20  C13 UNL     1     -10.325  -4.817 -28.331  1.00  0.00     0.272 C 
HETATM   21  C14 UNL     1     -10.775  -6.231 -28.295  1.00  0.00     0.032 C 
HETATM   22  C15 UNL     1     -10.430  -6.803 -29.636  1.00  0.00     0.032 C 
HETATM   23  C16 UNL     1     -10.022  -5.638 -30.467  1.00  0.00     0.272 C 
ENDBRANCH  18  19
ENDBRANCH  17  18
ENDBRANCH   5  17
TORSDOF 8
ENDMDL
MODEL 3
REMARK VINA RESULT: -5.770129863      1.896      7.490
REMARK  8 active torsions:
REMARK  status: ('A' for Active; 'I' for Inactive)
REMARK       I    between atoms: C1_2  and  N1_3 
REMARK       I    between atoms: C1_2  and  N3_15 
REMARK    1  A    between atoms: N1_3  and  C2_5 
REMARK    2  A    between atoms: C2_5  and  C3_6 
REMARK    3  A    between atoms: C3_6  and  C4_7 
REMARK    4  A    between atoms: C5_8  and  C6_9 
REMARK    5  A    between atoms: C6_9  and  N2_10 
REMARK    6  A    between atoms: N3_15  and  C11_17 
REMARK    7  A    between atoms: C11_17  and  C12_18 
REMARK    8  A    between atoms: C12_18  and  N4_19 
ROOT
HETATM    1  O1  UNL     1      -1.990  -5.857 -32.419  1.00  0.00    -0.247 OA
HETATM    2  C1  UNL     1      -1.726  -6.265 -31.272  1.00  0.00     0.316 C 
HETATM    3  N1  UNL     1      -1.137  -5.385 -30.298  1.00  0.00    -0.342 N 
ATOM      4  H1  UNL     1      -0.924  -5.733 -29.363  1.00  0.00     0.164 HD
HETATM    5  N3  UNL     1      -1.997  -7.597 -30.899  1.00  0.00    -0.341 N 
ATOM      6  H3  UNL     1      -1.781  -7.907 -29.951  1.00  0.00     0.164 HD
ENDROOT
BRANCH   3   7
HETATM    7  C2  UNL     1      -0.848  -4.017 -30.635  1.00  0.00     0.136 C 
BRANCH   7   8
HETATM    8  C3  UNL     1      -1.765  -3.005 -30.040  1.00  0.00     0.113 C 
BRANCH   8   9
HETATM    9  C4  UNL     1      -3.145  -3.495 -30.216  1.00  0.00    -0.103 C 
HETATM   10  C5  UNL     1      -4.264  -3.921 -30.359  1.00  0.00    -0.076 C 
BRANCH  10  11
HETATM   11  C6  UNL     1      -5.628  -4.472 -30.536  1.00  0.00     0.365 C 
BRANCH  11  12
HETATM   12  N2  UNL     1      -6.602  -3.436 -30.545  1.00  0.00     0.099 N 
HETATM   13  C7  UNL     1      -7.965  -3.847 -30.637  1.00  0.00     0.273 C 
HETATM   14  C8  UNL     1      -8.725  -2.545 -30.706  1.00  0.00     0.032 C 
HETATM   15  C9  UNL     1      -7.701  -1.566 -31.225  1.00  0.00     0.032 C 
HETATM   16  C10 UNL     1      -6.463  -2.424 -31.534  1.00  0.00     0.273 C 
ENDBRANCH  11  12
ENDBRANCH  10  11
ENDBRANCH   8   9
ENDBRANCH   7   8
ENDBRANCH   3   7
BRANCH   5  17
HETATM   17  C11 UNL     1      -2.572  -8.525 -31.831  1.00  0.00     0.154 C 
BRANCH  17  18
HETATM   18  C12 UNL     1      -3.913  -8.980 -31.397  1.00  0.00     0.292 C 
BRANCH  18  19
HETATM   19  N4  UNL     1      -4.127 -10.403 -31.651  1.00  0.00     0.090 N 
HETATM   20  C13 UNL     1      -5.530 -10.650 -31.729  1.00  0.00     0.272 C 
HETATM   21  C14 UNL     1      -5.934 -11.562 -30.629  1.00  0.00     0.032 C 
HETATM   22  C15 UNL     1      -4.687 -11.830 -29.843  1.00  0.00     0.032 C 
HETATM   23  C16 UNL     1      -3.579 -11.263 -30.659  1.00  0.00     0.272 C 
ENDBRANCH  18  19
ENDBRANCH  17  18
ENDBRANCH   5  17
TORSDOF 8
ENDMDL
MODEL 4
REMARK VINA RESULT: -5.733384866      4.322      6.727
REMARK  8 active torsions:
REMARK  status: ('A' for Active; 'I' for Inactive)
REMARK       I    between atoms: C1_2  and  N1_3 
REMARK       I    between atoms: C1_2  and  N3_15 
REMARK    1  A    between atoms: N1_3  and  C2_5 
REMARK    2  A    between atoms: C2_5  and  C3_6 
REMARK    3  A    between atoms: C3_6  and  C4_7 
REMARK    4  A    between atoms: C5_8  and  C6_9 
REMARK    5  A    between atoms: C6_9  and  N2_10 
REMARK    6  A    between atoms: N3_15  and  C11_17 
REMARK    7  A    between atoms: C11_17  and  C12_18 
REMARK    8  A    between atoms: C12_18  and  N4_19 
ROOT
HETATM    1  O1  UNL     1      -3.943  -8.550 -31.305  1.00  0.00    -0.247 OA
HETATM    2  C1  UNL     1      -2.857  -8.767 -31.872  1.00  0.00     0.316 C 
HETATM    3  N1  UNL     1      -2.492 -10.100 -32.273  1.00  0.00    -0.342 N 
ATOM      4  H1  UNL     1      -1.597 -10.264 -32.735  1.00  0.00     0.164 HD
HETATM    5  N3  UNL     1      -1.957  -7.715 -32.137  1.00  0.00    -0.341 N 
ATOM      6  H3  UNL     1      -1.076  -7.914 -32.612  1.00  0.00     0.164 HD
ENDROOT
BRANCH   3   7
HETATM    7  C2  UNL     1      -3.382 -11.202 -32.026  1.00  0.00     0.136 C 
BRANCH   7   8
HETATM    8  C3  UNL     1      -3.412 -11.695 -30.620  1.00  0.00     0.113 C 
BRANCH   8   9
HETATM    9  C4  UNL     1      -4.826 -11.846 -30.229  1.00  0.00    -0.103 C 
HETATM   10  C5  UNL     1      -5.988 -11.947 -29.924  1.00  0.00    -0.076 C 
BRANCH  10  11
HETATM   11  C6  UNL     1      -7.422 -12.044 -29.563  1.00  0.00     0.365 C 
BRANCH  11  12
HETATM   12  N2  UNL     1      -8.235 -11.353 -30.503  1.00  0.00     0.099 N 
HETATM   13  C7  UNL     1      -9.566 -11.052 -30.090  1.00  0.00     0.273 C 
HETATM   14  C8  UNL     1     -10.180 -10.408 -31.309  1.00  0.00     0.032 C 
HETATM   15  C9  UNL     1      -9.336 -10.931 -32.446  1.00  0.00     0.032 C 
HETATM   16  C10 UNL     1      -8.380 -11.940 -31.789  1.00  0.00     0.273 C 
ENDBRANCH  11  12
ENDBRANCH  10  11
ENDBRANCH   8   9
ENDBRANCH   7   8
ENDBRANCH   3   7
BRANCH   5  17
HETATM   17  C11 UNL     1      -2.260  -6.366 -31.750  1.00  0.00     0.154 C 
BRANCH  17  18
HETATM   18  C12 UNL     1      -1.147  -5.749 -30.992  1.00  0.00     0.292 C 
BRANCH  18  19
HETATM   19  N4  UNL     1      -1.620  -4.932 -29.875  1.00  0.00     0.090 N 
HETATM   20  C13 UNL     1      -2.970  -4.548 -30.128  1.00  0.00     0.272 C 
HETATM   21  C14 UNL     1      -3.050  -3.071 -30.252  1.00  0.00     0.032 C 
HETATM   22  C15 UNL     1      -1.646  -2.572 -30.098  1.00  0.00     0.032 C 
HETATM   23  C16 UNL     1      -0.857  -3.753 -29.650  1.00  0.00     0.272 C 
ENDBRANCH  18  19
ENDBRANCH  17  18
ENDBRANCH   5  17
TORSDOF 8
ENDMDL
MODEL 5
REMARK VINA RESULT: -5.720437244      3.210      8.748
REMARK  8 active torsions:
REMARK  status: ('A' for Active; 'I' for Inactive)
REMARK       I    between atoms: C1_2  and  N1_3 
REMARK       I    between atoms: C1_2  and  N3_15 
REMARK    1  A    between atoms: N1_3  and  C2_5 
REMARK    2  A    between atoms: C2_5  and  C3_6 
REMARK    3  A    between atoms: C3_6  and  C4_7 
REMARK    4  A    between atoms: C5_8  and  C6_9 
REMARK    5  A    between atoms: C6_9  and  N2_10 
REMARK    6  A    between atoms: N3_15  and  C11_17 
REMARK    7  A    between atoms: C11_17  and  C12_18 
REMARK    8  A    between atoms: C12_18  and  N4_19 
ROOT
HETATM    1  O1  UNL     1      -7.510  -3.354 -31.064  1.00  0.00    -0.247 OA
HETATM    2  C1  UNL     1      -7.289  -4.178 -30.158  1.00  0.00     0.316 C 
HETATM    3  N1  UNL     1      -8.363  -4.676 -29.340  1.00  0.00    -0.342 N 
ATOM      4  H1  UNL     1      -8.168  -5.349 -28.599  1.00  0.00     0.164 HD
HETATM    5  N3  UNL     1      -5.982  -4.645 -29.909  1.00  0.00    -0.341 N 
ATOM      6  H3  UNL     1      -5.826  -5.328 -29.167  1.00  0.00     0.164 HD
ENDROOT
BRANCH   3   7
HETATM    7  C2  UNL     1      -9.712  -4.229 -29.562  1.00  0.00     0.136 C 
BRANCH   7   8
HETATM    8  C3  UNL     1     -10.114  -3.011 -28.803  1.00  0.00     0.113 C 
BRANCH   8   9
HETATM    9  C4  UNL     1     -10.353  -1.933 -29.781  1.00  0.00    -0.103 C 
HETATM   10  C5  UNL     1     -10.549  -1.070 -30.600  1.00  0.00    -0.076 C 
BRANCH  10  11
HETATM   11  C6  UNL     1     -10.784  -0.031 -31.629  1.00  0.00     0.365 C 
BRANCH  11  12
HETATM   12  N2  UNL     1      -9.837  -0.133 -32.685  1.00  0.00     0.099 N 
HETATM   13  C7  UNL     1     -10.087   0.665 -33.841  1.00  0.00     0.273 C 
HETATM   14  C8  UNL     1      -8.976   0.279 -34.787  1.00  0.00     0.032 C 
HETATM   15  C9  UNL     1      -8.566  -1.091 -34.307  1.00  0.00     0.032 C 
HETATM   16  C10 UNL     1      -9.571  -1.433 -33.195  1.00  0.00     0.273 C 
ENDBRANCH  11  12
ENDBRANCH  10  11
ENDBRANCH   8   9
ENDBRANCH   7   8
ENDBRANCH   3   7
BRANCH   5  17
HETATM   17  C11 UNL     1      -4.868  -4.176 -30.683  1.00  0.00     0.154 C 
BRANCH  17  18
HETATM   18  C12 UNL     1      -3.602  -4.828 -30.276  1.00  0.00     0.292 C 
BRANCH  18  19
HETATM   19  N4  UNL     1      -2.436  -4.236 -30.929  1.00  0.00     0.090 N 
HETATM   20  C13 UNL     1      -1.520  -5.277 -31.262  1.00  0.00     0.272 C 
HETATM   21  C14 UNL     1      -0.253  -5.079 -30.513  1.00  0.00     0.032 C 
HETATM   22  C15 UNL     1      -0.467  -3.863 -29.664  1.00  0.00     0.032 C 
HETATM   23  C16 UNL     1      -1.749  -3.274 -30.139  1.00  0.00     0.272 C 
ENDBRANCH  18  19
ENDBRANCH  17  18
ENDBRANCH   5  17
TORSDOF 8
ENDMDL
