MODEL 1
REMARK VINA RESULT: -8.119737197      0.000      0.000
REMARK  4 active torsions:
REMARK  status: ('A' for Active; 'I' for Inactive)
REMARK    1  A    between atoms: N1_1  and  N2_4 
REMARK       I    between atoms: N3_6  and  C1_8 
REMARK    2  A    between atoms: N5_10  and  N6_12 
REMARK    3  A    between atoms: C2_14  and  C3_15 
REMARK    4  A    between atoms: C7_20  and  N8_21 
ROOT
HETATM    1  N6  UNL     1      14.952  26.071  78.711  1.00  0.00    -0.309 N 
ATOM      2  H6  UNL     1      14.521  26.979  78.541  1.00  0.00     0.186 HD
HETATM    3  C2  UNL     1      15.876  25.697  77.894  1.00  0.00     0.118 C 
ENDROOT
BRANCH   1   4
HETATM    4  N5  UNL     1      14.496  25.352  79.793  1.00  0.00    -0.273 N 
HETATM    5  C1  UNL     1      14.927  25.561  80.990  1.00  0.00     0.223 C 
HETATM    6  N3  UNL     1      14.348  24.724  82.010  1.00  0.00    -0.258 N 
HETATM    7  N4  UNL     1      15.899  26.535  81.321  1.00  0.00    -0.061 NA
HETATM    8  N2  UNL     1      13.529  25.231  82.818  1.00  0.00    -0.247 N 
ATOM      9  H3  UNL     1      14.598  23.738  82.075  1.00  0.00     0.191 HD
ATOM     10  H2  UNL     1      13.269  26.216  82.767  1.00  0.00     0.207 HD
ATOM     11  H5  UNL     1      13.794  24.629  79.642  1.00  0.00     0.189 HD
BRANCH   8  12
HETATM   12  N1  UNL     1      12.990  24.380  83.793  1.00  0.00    -0.331 N 
ATOM     13  H12 UNL     1      13.576  24.014  84.543  1.00  0.00     0.178 HD
ATOM     14  H11 UNL     1      11.999  24.154  83.711  1.00  0.00     0.178 HD
ENDBRANCH   8  12
ENDBRANCH   1   4
BRANCH   3  15
HETATM   15  C3  UNL     1      16.218  26.597  76.809  1.00  0.00    -0.017 A 
HETATM   16  C4  UNL     1      17.513  26.954  76.521  1.00  0.00     0.015 A 
HETATM   17  C5  UNL     1      17.771  27.812  75.479  1.00  0.00     0.030 A 
HETATM   18  C6  UNL     1      16.740  28.317  74.722  1.00  0.00     0.079 A 
HETATM   19  N7  UNL     1      17.039  29.197  73.660  1.00  0.00    -0.100 NA
HETATM   20  C7  UNL     1      15.436  27.974  74.994  1.00  0.00     0.127 A 
HETATM   21  C8  UNL     1      15.206  27.114  76.039  1.00  0.00     0.051 A 
BRANCH  20  22
HETATM   22  N8  UNL     1      14.413  28.526  74.179  1.00  0.00    -0.114 N 
HETATM   23  O1  UNL     1      13.683  29.398  74.687  1.00  0.00    -0.532 OA
HETATM   24  O2  UNL     1      14.221  28.130  72.883  1.00  0.00    -0.532 OA
ENDBRANCH  20  22
ENDBRANCH   3  15
TORSDOF 4
ENDMDL
MODEL 2
REMARK VINA RESULT: -7.452277221      2.460      2.913
REMARK  4 active torsions:
REMARK  status: ('A' for Active; 'I' for Inactive)
REMARK    1  A    between atoms: N1_1  and  N2_4 
REMARK       I    between atoms: N3_6  and  C1_8 
REMARK    2  A    between atoms: N5_10  and  N6_12 
REMARK    3  A    between atoms: C2_14  and  C3_15 
REMARK    4  A    between atoms: C7_20  and  N8_21 
ROOT
HETATM    1  N6  UNL     1      15.492  26.311  78.392  1.00  0.00    -0.309 N 
ATOM      2  H6  UNL     1      16.303  26.878  78.640  1.00  0.00     0.186 HD
HETATM    3  C2  UNL     1      15.133  26.310  77.155  1.00  0.00     0.118 C 
ENDROOT
BRANCH   1   4
HETATM    4  N5  UNL     1      14.878  25.614  79.408  1.00  0.00    -0.273 N 
HETATM    5  C1  UNL     1      15.241  25.730  80.640  1.00  0.00     0.223 C 
HETATM    6  N3  UNL     1      14.496  24.933  81.581  1.00  0.00    -0.258 N 
HETATM    7  N4  UNL     1      16.292  26.570  81.079  1.00  0.00    -0.061 NA
HETATM    8  N2  UNL     1      13.684  25.505  82.351  1.00  0.00    -0.247 N 
ATOM      9  H3  UNL     1      14.625  23.922  81.621  1.00  0.00     0.191 HD
ATOM     10  H2  UNL     1      13.544  26.515  82.324  1.00  0.00     0.207 HD
ATOM     11  H5  UNL     1      14.110  24.985  79.179  1.00  0.00     0.189 HD
BRANCH   8  12
HETATM   12  N1  UNL     1      12.981  24.691  83.250  1.00  0.00    -0.331 N 
ATOM     13  H12 UNL     1      12.950  23.680  83.121  1.00  0.00     0.178 HD
ATOM     14  H11 UNL     1      12.510  25.159  84.025  1.00  0.00     0.178 HD
ENDBRANCH   8  12
ENDBRANCH   1   4
BRANCH   3  15
HETATM   15  C3  UNL     1      15.909  27.112  76.229  1.00  0.00    -0.017 A 
HETATM   16  C4  UNL     1      15.370  27.667  75.094  1.00  0.00     0.015 A 
HETATM   17  C5  UNL     1      16.159  28.418  74.257  1.00  0.00     0.030 A 
HETATM   18  C6  UNL     1      17.489  28.617  74.547  1.00  0.00     0.079 A 
HETATM   19  N7  UNL     1      18.272  29.393  73.666  1.00  0.00    -0.100 NA
HETATM   20  C7  UNL     1      18.050  28.070  75.677  1.00  0.00     0.127 A 
HETATM   21  C8  UNL     1      17.238  27.325  76.497  1.00  0.00     0.051 A 
BRANCH  20  22
HETATM   22  N8  UNL     1      19.427  28.310  75.926  1.00  0.00    -0.114 N 
HETATM   23  O1  UNL     1      20.237  27.442  75.547  1.00  0.00    -0.532 OA
HETATM   24  O2  UNL     1      19.867  29.443  76.554  1.00  0.00    -0.532 OA
ENDBRANCH  20  22
ENDBRANCH   3  15
TORSDOF 4
ENDMDL
MODEL 3
REMARK VINA RESULT: -7.409862546      2.900      3.489
REMARK  4 active torsions:
REMARK  status: ('A' for Active; 'I' for Inactive)
REMARK    1  A    between atoms: N1_1  and  N2_4 
REMARK       I    between atoms: N3_6  and  C1_8 
REMARK    2  A    between atoms: N5_10  and  N6_12 
REMARK    3  A    between atoms: C2_14  and  C3_15 
REMARK    4  A    between atoms: C7_20  and  N8_21 
ROOT
HETATM    1  N6  UNL     1      16.014  26.138  76.994  1.00  0.00    -0.309 N 
ATOM      2  H6  UNL     1      15.107  25.794  76.679  1.00  0.00     0.186 HD
HETATM    3  C2  UNL     1      16.504  27.154  76.373  1.00  0.00     0.118 C 
ENDROOT
BRANCH   1   4
HETATM    4  N5  UNL     1      16.607  25.475  78.045  1.00  0.00    -0.273 N 
HETATM    5  C1  UNL     1      16.256  24.285  78.395  1.00  0.00     0.223 C 
HETATM    6  N3  UNL     1      16.975  23.733  79.514  1.00  0.00    -0.258 N 
HETATM    7  N4  UNL     1      15.240  23.539  77.751  1.00  0.00    -0.061 NA
HETATM    8  N2  UNL     1      17.812  22.818  79.305  1.00  0.00    -0.247 N 
ATOM      9  H3  UNL     1      16.809  24.077  80.459  1.00  0.00     0.191 HD
ATOM     10  H2  UNL     1      17.990  22.462  78.366  1.00  0.00     0.207 HD
ATOM     11  H5  UNL     1      17.350  25.942  78.564  1.00  0.00     0.189 HD
BRANCH   8  12
HETATM   12  N1  UNL     1      18.490  22.310  80.423  1.00  0.00    -0.331 N 
ATOM     13  H12 UNL     1      18.840  22.937  81.147  1.00  0.00     0.178 HD
ATOM     14  H11 UNL     1      18.609  21.298  80.469  1.00  0.00     0.178 HD
ENDBRANCH   8  12
ENDBRANCH   1   4
BRANCH   3  15
HETATM   15  C3  UNL     1      15.726  27.717  75.285  1.00  0.00    -0.017 A 
HETATM   16  C4  UNL     1      16.303  28.316  74.191  1.00  0.00     0.015 A 
HETATM   17  C5  UNL     1      15.510  28.830  73.194  1.00  0.00     0.030 A 
HETATM   18  C6  UNL     1      14.140  28.749  73.284  1.00  0.00     0.079 A 
HETATM   19  N7  UNL     1      13.354  29.287  72.242  1.00  0.00    -0.100 NA
HETATM   20  C7  UNL     1      13.541  28.154  74.370  1.00  0.00     0.127 A 
HETATM   21  C8  UNL     1      14.357  27.648  75.351  1.00  0.00     0.051 A 
BRANCH  20  22
HETATM   22  N8  UNL     1      12.123  28.099  74.408  1.00  0.00    -0.114 N 
HETATM   23  O1  UNL     1      11.543  28.841  75.223  1.00  0.00    -0.532 OA
HETATM   24  O2  UNL     1      11.404  27.272  73.589  1.00  0.00    -0.532 OA
ENDBRANCH  20  22
ENDBRANCH   3  15
TORSDOF 4
ENDMDL
MODEL 4
REMARK VINA RESULT: -7.366451685      3.083      3.702
REMARK  4 active torsions:
REMARK  status: ('A' for Active; 'I' for Inactive)
REMARK    1  A    between atoms: N1_1  and  N2_4 
REMARK       I    between atoms: N3_6  and  C1_8 
REMARK    2  A    between atoms: N5_10  and  N6_12 
REMARK    3  A    between atoms: C2_14  and  C3_15 
REMARK    4  A    between atoms: C7_20  and  N8_21 
ROOT
HETATM    1  N6  UNL     1      16.505  25.949  77.288  1.00  0.00    -0.309 N 
ATOM      2  H6  UNL     1      16.977  25.870  76.387  1.00  0.00     0.186 HD
HETATM    3  C2  UNL     1      15.430  26.658  77.326  1.00  0.00     0.118 C 
ENDROOT
BRANCH   1   4
HETATM    4  N5  UNL     1      17.070  25.289  78.355  1.00  0.00    -0.273 N 
HETATM    5  C1  UNL     1      16.963  24.014  78.512  1.00  0.00     0.223 C 
HETATM    6  N3  UNL     1      17.614  23.479  79.681  1.00  0.00    -0.258 N 
HETATM    7  N4  UNL     1      16.265  23.164  77.622  1.00  0.00    -0.061 NA
HETATM    8  N2  UNL     1      18.666  22.807  79.534  1.00  0.00    -0.247 N 
ATOM      9  H3  UNL     1      17.228  23.642  80.610  1.00  0.00     0.191 HD
ATOM     10  H2  UNL     1      19.066  22.634  78.612  1.00  0.00     0.207 HD
ATOM     11  H5  UNL     1      17.593  25.828  79.045  1.00  0.00     0.189 HD
BRANCH   8  12
HETATM   12  N1  UNL     1      19.266  22.306  80.698  1.00  0.00    -0.331 N 
ATOM     13  H12 UNL     1      19.304  22.869  81.547  1.00  0.00     0.178 HD
ATOM     14  H11 UNL     1      19.655  21.363  80.648  1.00  0.00     0.178 HD
ENDBRANCH   8  12
ENDBRANCH   1   4
BRANCH   3  15
HETATM   15  C3  UNL     1      14.990  27.279  76.090  1.00  0.00    -0.017 A 
HETATM   16  C4  UNL     1      15.865  27.816  75.177  1.00  0.00     0.015 A 
HETATM   17  C5  UNL     1      15.385  28.390  74.025  1.00  0.00     0.030 A 
HETATM   18  C6  UNL     1      14.032  28.432  73.779  1.00  0.00     0.079 A 
HETATM   19  N7  UNL     1      13.572  29.030  72.587  1.00  0.00    -0.100 NA
HETATM   20  C7  UNL     1      13.139  27.901  74.680  1.00  0.00     0.127 A 
HETATM   21  C8  UNL     1      13.645  27.333  75.823  1.00  0.00     0.051 A 
BRANCH  20  22
HETATM   22  N8  UNL     1      11.754  27.973  74.374  1.00  0.00    -0.114 N 
HETATM   23  O1  UNL     1      11.298  27.125  73.584  1.00  0.00    -0.532 OA
HETATM   24  O2  UNL     1      10.937  28.928  74.915  1.00  0.00    -0.532 OA
ENDBRANCH  20  22
ENDBRANCH   3  15
TORSDOF 4
ENDMDL
MODEL 5
REMARK VINA RESULT: -7.193782585      3.307      7.717
REMARK  4 active torsions:
REMARK  status: ('A' for Active; 'I' for Inactive)
REMARK    1  A    between atoms: N1_1  and  N2_4 
REMARK       I    between atoms: N3_6  and  C1_8 
REMARK    2  A    between atoms: N5_10  and  N6_12 
REMARK    3  A    between atoms: C2_14  and  C3_15 
REMARK    4  A    between atoms: C7_20  and  N8_21 
ROOT
HETATM    1  N6  UNL     1      18.431  29.886  75.011  1.00  0.00    -0.309 N 
ATOM      2  H6  UNL     1      17.812  30.305  75.706  1.00  0.00     0.186 HD
HETATM    3  C2  UNL     1      18.158  28.686  74.629  1.00  0.00     0.118 C 
ENDROOT
BRANCH   1   4
HETATM    4  N5  UNL     1      19.483  30.652  74.564  1.00  0.00    -0.273 N 
HETATM    5  C1  UNL     1      19.328  31.602  73.706  1.00  0.00     0.223 C 
HETATM    6  N3  UNL     1      20.531  32.308  73.342  1.00  0.00    -0.258 N 
HETATM    7  N4  UNL     1      18.082  31.957  73.137  1.00  0.00    -0.061 NA
HETATM    8  N2  UNL     1      20.697  33.479  73.768  1.00  0.00    -0.247 N 
ATOM      9  H3  UNL     1      21.233  31.866  72.751  1.00  0.00     0.191 HD
ATOM     10  H2  UNL     1      20.004  33.936  74.360  1.00  0.00     0.207 HD
ATOM     11  H5  UNL     1      20.418  30.462  74.924  1.00  0.00     0.189 HD
BRANCH   8  12
HETATM   12  N1  UNL     1      21.881  34.129  73.391  1.00  0.00    -0.331 N 
ATOM     13  H12 UNL     1      21.850  35.022  72.900  1.00  0.00     0.178 HD
ATOM     14  H11 UNL     1      22.758  33.665  73.630  1.00  0.00     0.178 HD
ENDBRANCH   8  12
ENDBRANCH   1   4
BRANCH   3  15
HETATM   15  C3  UNL     1      17.000  28.040  75.220  1.00  0.00    -0.017 A 
HETATM   16  C4  UNL     1      17.097  27.156  76.266  1.00  0.00     0.015 A 
HETATM   17  C5  UNL     1      15.963  26.577  76.781  1.00  0.00     0.030 A 
HETATM   18  C6  UNL     1      14.728  26.877  76.253  1.00  0.00     0.079 A 
HETATM   19  N7  UNL     1      13.582  26.264  76.805  1.00  0.00    -0.100 NA
HETATM   20  C7  UNL     1      14.608  27.758  75.205  1.00  0.00     0.127 A 
HETATM   21  C8  UNL     1      15.758  28.323  74.710  1.00  0.00     0.051 A 
BRANCH  20  22
HETATM   22  N8  UNL     1      13.308  28.029  74.702  1.00  0.00    -0.114 N 
HETATM   23  O1  UNL     1      12.685  28.980  75.209  1.00  0.00    -0.532 OA
HETATM   24  O2  UNL     1      12.747  27.288  73.699  1.00  0.00    -0.532 OA
ENDBRANCH  20  22
ENDBRANCH   3  15
TORSDOF 4
ENDMDL
