MODEL 1
REMARK VINA RESULT: -6.511500939      0.000      0.000
REMARK  2 active torsions:
REMARK  status: ('A' for Active; 'I' for Inactive)
REMARK    1  A    between atoms: N2_4  and  N3_6 
REMARK    2  A    between atoms: C2_11  and  N6_12 
ROOT
HETATM    1  N3  UNL     1      -9.508 -30.267 -25.833  1.00  0.00    -0.147 N 
HETATM    2  N4  UNL     1      -8.611 -29.493 -26.450  1.00  0.00     0.004 NA
HETATM    3  N5  UNL     1      -9.218 -28.731 -27.363  1.00  0.00    -0.275 N 
ATOM      4  H5  UNL     1      -8.757 -28.054 -27.970  1.00  0.00     0.184 HD
HETATM    5  C1  UNL     1     -10.531 -28.999 -27.353  1.00  0.00     0.137 A 
HETATM    6  C2  UNL     1     -11.606 -28.516 -28.072  1.00  0.00     0.132 A 
HETATM    7  N7  UNL     1     -12.804 -29.034 -27.781  1.00  0.00    -0.337 N 
ATOM      8  H7  UNL     1     -13.622 -28.701 -28.292  1.00  0.00     0.168 HD
HETATM    9  C3  UNL     1     -12.967 -29.976 -26.841  1.00  0.00     0.183 A 
HETATM   10  N8  UNL     1     -11.925 -30.437 -26.151  1.00  0.00    -0.334 N 
ATOM     11  H8  UNL     1     -12.067 -31.154 -25.438  1.00  0.00     0.168 HD
HETATM   12  C4  UNL     1     -10.696 -29.968 -26.384  1.00  0.00     0.177 A 
ENDROOT
BRANCH   1  13
HETATM   13  N2  UNL     1      -9.226 -31.186 -24.823  1.00  0.00    -0.228 N 
HETATM   14  N1  UNL     1      -8.346 -32.076 -24.909  1.00  0.00    -0.329 N 
ATOM     15  H12 UNL     1      -7.813 -32.115 -25.778  1.00  0.00     0.178 HD
ATOM     16  H11 UNL     1      -8.140 -32.748 -24.171  1.00  0.00     0.178 HD
ATOM     17  H2  UNL     1      -9.769 -31.132 -23.961  1.00  0.00     0.209 HD
ENDBRANCH   1  13
BRANCH   6  18
HETATM   18  N6  UNL     1     -11.485 -27.612 -28.983  1.00  0.00    -0.383 N 
ATOM     19  H62 UNL     1     -10.563 -27.289 -29.276  1.00  0.00     0.157 HD
ATOM     20  H61 UNL     1     -12.288 -27.184 -29.445  1.00  0.00     0.157 HD
ENDBRANCH   6  18
TORSDOF 2
ENDMDL
MODEL 2
REMARK VINA RESULT: -6.333200284      1.456      4.617
REMARK  2 active torsions:
REMARK  status: ('A' for Active; 'I' for Inactive)
REMARK    1  A    between atoms: N2_4  and  N3_6 
REMARK    2  A    between atoms: C2_11  and  N6_12 
ROOT
HETATM    1  N3  UNL     1     -13.733 -29.097 -27.279  1.00  0.00    -0.147 N 
HETATM    2  N4  UNL     1     -13.797 -29.952 -26.255  1.00  0.00     0.004 NA
HETATM    3  N5  UNL     1     -12.565 -30.314 -25.886  1.00  0.00    -0.275 N 
ATOM      4  H5  UNL     1     -12.340 -30.959 -25.129  1.00  0.00     0.184 HD
HETATM    5  C1  UNL     1     -11.674 -29.693 -26.671  1.00  0.00     0.137 A 
HETATM    6  C2  UNL     1     -10.295 -29.699 -26.734  1.00  0.00     0.132 A 
HETATM    7  N7  UNL     1      -9.734 -28.934 -27.675  1.00  0.00    -0.337 N 
ATOM      8  H7  UNL     1      -8.716 -28.912 -27.750  1.00  0.00     0.168 HD
HETATM    9  C3  UNL     1     -10.462 -28.193 -28.522  1.00  0.00     0.183 A 
HETATM   10  N8  UNL     1     -11.792 -28.191 -28.457  1.00  0.00    -0.334 N 
ATOM     11  H8  UNL     1     -12.330 -27.622 -29.110  1.00  0.00     0.168 HD
HETATM   12  C4  UNL     1     -12.426 -28.931 -27.542  1.00  0.00     0.177 A 
ENDROOT
BRANCH   1  13
HETATM   13  N2  UNL     1     -14.827 -28.515 -27.918  1.00  0.00    -0.228 N 
HETATM   14  N1  UNL     1     -15.842 -28.083 -27.319  1.00  0.00    -0.329 N 
ATOM     15  H12 UNL     1     -15.850 -28.172 -26.303  1.00  0.00     0.178 HD
ATOM     16  H11 UNL     1     -16.642 -27.657 -27.786  1.00  0.00     0.178 HD
ATOM     17  H2  UNL     1     -14.801 -28.434 -28.934  1.00  0.00     0.209 HD
ENDBRANCH   1  13
BRANCH   6  18
HETATM   18  N6  UNL     1      -9.565 -30.399 -25.935  1.00  0.00    -0.383 N 
ATOM     19  H62 UNL     1      -9.890 -31.302 -25.590  1.00  0.00     0.157 HD
ATOM     20  H61 UNL     1      -8.646 -30.092 -25.615  1.00  0.00     0.157 HD
ENDBRANCH   6  18
TORSDOF 2
ENDMDL
MODEL 3
REMARK VINA RESULT: -6.176078772      2.184      3.398
REMARK  2 active torsions:
REMARK  status: ('A' for Active; 'I' for Inactive)
REMARK    1  A    between atoms: N2_4  and  N3_6 
REMARK    2  A    between atoms: C2_11  and  N6_12 
ROOT
HETATM    1  N3  UNL     1     -11.139 -28.987 -26.646  1.00  0.00    -0.147 N 
HETATM    2  N4  UNL     1     -11.533 -30.201 -27.039  1.00  0.00     0.004 NA
HETATM    3  N5  UNL     1     -12.866 -30.260 -27.071  1.00  0.00    -0.275 N 
ATOM      4  H5  UNL     1     -13.417 -31.076 -27.337  1.00  0.00     0.184 HD
HETATM    5  C1  UNL     1     -13.365 -29.074 -26.696  1.00  0.00     0.137 A 
HETATM    6  C2  UNL     1     -14.647 -28.584 -26.552  1.00  0.00     0.132 A 
HETATM    7  N7  UNL     1     -14.763 -27.315 -26.147  1.00  0.00    -0.337 N 
ATOM      8  H7  UNL     1     -15.696 -26.919 -26.030  1.00  0.00     0.168 HD
HETATM    9  C3  UNL     1     -13.696 -26.546 -25.890  1.00  0.00     0.183 A 
HETATM   10  N8  UNL     1     -12.461 -27.025 -26.031  1.00  0.00    -0.334 N 
ATOM     11  H8  UNL     1     -11.660 -26.426 -25.831  1.00  0.00     0.168 HD
HETATM   12  C4  UNL     1     -12.263 -28.284 -26.433  1.00  0.00     0.177 A 
ENDROOT
BRANCH   1  13
HETATM   13  N2  UNL     1      -9.816 -28.572 -26.501  1.00  0.00    -0.228 N 
HETATM   14  N1  UNL     1      -9.194 -28.577 -25.412  1.00  0.00    -0.329 N 
ATOM     15  H12 UNL     1      -9.702 -28.909 -24.592  1.00  0.00     0.178 HD
ATOM     16  H11 UNL     1      -8.226 -28.274 -25.306  1.00  0.00     0.178 HD
ATOM     17  H2  UNL     1      -9.323 -28.243 -27.332  1.00  0.00     0.209 HD
ENDBRANCH   1  13
BRANCH   6  18
HETATM   18  N6  UNL     1     -15.696 -29.295 -26.790  1.00  0.00    -0.383 N 
ATOM     19  H62 UNL     1     -15.672 -30.309 -26.678  1.00  0.00     0.157 HD
ATOM     20  H61 UNL     1     -16.580 -28.889 -27.095  1.00  0.00     0.157 HD
ENDBRANCH   6  18
TORSDOF 2
ENDMDL
MODEL 4
REMARK VINA RESULT: -6.085436547      3.169      4.442
REMARK  2 active torsions:
REMARK  status: ('A' for Active; 'I' for Inactive)
REMARK    1  A    between atoms: N2_4  and  N3_6 
REMARK    2  A    between atoms: C2_11  and  N6_12 
ROOT
HETATM    1  N3  UNL     1     -12.158 -27.641 -26.501  1.00  0.00    -0.147 N 
HETATM    2  N4  UNL     1     -12.427 -28.515 -27.474  1.00  0.00     0.004 NA
HETATM    3  N5  UNL     1     -13.747 -28.611 -27.649  1.00  0.00    -0.275 N 
ATOM      4  H5  UNL     1     -14.212 -29.211 -28.330  1.00  0.00     0.184 HD
HETATM    5  C1  UNL     1     -14.363 -27.792 -26.786  1.00  0.00     0.137 A 
HETATM    6  C2  UNL     1     -15.688 -27.497 -26.535  1.00  0.00     0.132 A 
HETATM    7  N7  UNL     1     -15.931 -26.604 -25.570  1.00  0.00    -0.337 N 
ATOM      8  H7  UNL     1     -16.899 -26.361 -25.357  1.00  0.00     0.168 HD
HETATM    9  C3  UNL     1     -14.948 -26.017 -24.874  1.00  0.00     0.183 A 
HETATM   10  N8  UNL     1     -13.671 -26.306 -25.121  1.00  0.00    -0.334 N 
ATOM     11  H8  UNL     1     -12.935 -25.850 -24.582  1.00  0.00     0.168 HD
HETATM   12  C4  UNL     1     -13.348 -27.189 -26.071  1.00  0.00     0.177 A 
ENDROOT
BRANCH   1  13
HETATM   13  N2  UNL     1     -10.885 -27.293 -26.053  1.00  0.00    -0.228 N 
HETATM   14  N1  UNL     1     -10.033 -28.120 -25.647  1.00  0.00    -0.329 N 
ATOM     15  H12 UNL     1     -10.306 -29.103 -25.652  1.00  0.00     0.178 HD
ATOM     16  H11 UNL     1      -9.101 -27.866 -25.320  1.00  0.00     0.178 HD
ATOM     17  H2  UNL     1     -10.629 -26.306 -26.055  1.00  0.00     0.209 HD
ENDBRANCH   1  13
BRANCH   6  18
HETATM   18  N6  UNL     1     -16.658 -28.042 -27.185  1.00  0.00    -0.383 N 
ATOM     19  H62 UNL     1     -16.611 -28.147 -28.198  1.00  0.00     0.157 HD
ATOM     20  H61 UNL     1     -17.502 -28.388 -26.728  1.00  0.00     0.157 HD
ENDBRANCH   6  18
TORSDOF 2
ENDMDL
MODEL 5
REMARK VINA RESULT: -6.013887279      2.719      3.368
REMARK  2 active torsions:
REMARK  status: ('A' for Active; 'I' for Inactive)
REMARK    1  A    between atoms: N2_4  and  N3_6 
REMARK    2  A    between atoms: C2_11  and  N6_12 
ROOT
HETATM    1  N3  UNL     1     -11.025 -29.061 -28.592  1.00  0.00    -0.147 N 
HETATM    2  N4  UNL     1     -10.561 -27.811 -28.521  1.00  0.00     0.004 NA
HETATM    3  N5  UNL     1     -11.246 -27.122 -27.604  1.00  0.00    -0.275 N 
ATOM      4  H5  UNL     1     -11.088 -26.145 -27.358  1.00  0.00     0.184 HD
HETATM    5  C1  UNL     1     -12.173 -27.922 -27.059  1.00  0.00     0.137 A 
HETATM    6  C2  UNL     1     -13.134 -27.737 -26.086  1.00  0.00     0.132 A 
HETATM    7  N7  UNL     1     -13.902 -28.792 -25.793  1.00  0.00    -0.337 N 
ATOM      8  H7  UNL     1     -14.623 -28.693 -25.078  1.00  0.00     0.168 HD
HETATM    9  C3  UNL     1     -13.756 -29.975 -26.407  1.00  0.00     0.183 A 
HETATM   10  N8  UNL     1     -12.827 -30.146 -27.345  1.00  0.00    -0.334 N 
ATOM     11  H8  UNL     1     -12.729 -31.053 -27.802  1.00  0.00     0.168 HD
HETATM   12  C4  UNL     1     -12.020 -29.139 -27.693  1.00  0.00     0.177 A 
ENDROOT
BRANCH   1  13
HETATM   13  N2  UNL     1     -10.545 -30.057 -29.442  1.00  0.00    -0.228 N 
HETATM   14  N1  UNL     1     -10.919 -30.206 -30.630  1.00  0.00    -0.329 N 
ATOM     15  H12 UNL     1     -11.617 -29.551 -30.979  1.00  0.00     0.178 HD
ATOM     16  H11 UNL     1     -10.567 -30.934 -31.251  1.00  0.00     0.178 HD
ATOM     17  H2  UNL     1      -9.846 -30.703 -29.075  1.00  0.00     0.209 HD
ENDBRANCH   1  13
BRANCH   6  18
HETATM   18  N6  UNL     1     -13.302 -26.614 -25.476  1.00  0.00    -0.383 N 
ATOM     19  H62 UNL     1     -13.009 -25.739 -25.910  1.00  0.00     0.157 HD
ATOM     20  H61 UNL     1     -13.725 -26.547 -24.551  1.00  0.00     0.157 HD
ENDBRANCH   6  18
TORSDOF 2
ENDMDL
