MODEL 1
REMARK VINA RESULT: -6.784496711      0.000      0.000
REMARK  2 active torsions:
REMARK  status: ('A' for Active; 'I' for Inactive)
REMARK       I    between atoms: C2_5  and  N3_6 
REMARK       I    between atoms: C2_5  and  N8_15 
REMARK    1  A    between atoms: N3_6  and  C3_8 
REMARK    2  A    between atoms: N8_15  and  N9_17 
ROOT
HETATM    1  N1  UNL     1     -17.036 -27.691 -26.925  1.00  0.00    -0.171 NA
HETATM    2  C1  UNL     1     -15.990 -28.185 -26.978  1.00  0.00     0.196 C 
HETATM    3  N2  UNL     1     -14.717 -28.760 -27.034  1.00  0.00    -0.124 N 
ATOM      4  H2  UNL     1     -14.542 -29.571 -27.628  1.00  0.00     0.197 HD
HETATM    5  C2  UNL     1     -13.761 -28.251 -26.323  1.00  0.00     0.720 C 
HETATM    6  N3  UNL     1     -12.452 -28.765 -26.317  1.00  0.00    -0.018 N 
ATOM      7  H3  UNL     1     -12.130 -29.211 -25.459  1.00  0.00     0.203 HD
HETATM    8  N8  UNL     1     -14.010 -27.112 -25.488  1.00  0.00    -0.137 N 
ATOM      9  H8  UNL     1     -13.668 -26.200 -25.794  1.00  0.00     0.205 HD
ENDROOT
BRANCH   6  10
HETATM   10  C3  UNL     1     -11.634 -28.720 -27.293  1.00  0.00     0.722 A 
HETATM   11  N4  UNL     1     -11.166 -29.785 -27.963  1.00  0.00    -0.116 N 
HETATM   12  N5  UNL     1     -10.332 -29.390 -28.923  1.00  0.00     0.006 NA
ATOM     13  H4  UNL     1     -11.413 -30.755 -27.766  1.00  0.00     0.202 HD
HETATM   14  N6  UNL     1     -10.275 -28.067 -28.857  1.00  0.00     0.006 NA
HETATM   15  N7  UNL     1     -11.064 -27.648 -27.867  1.00  0.00    -0.116 N 
ATOM     16  H7  UNL     1     -11.210 -26.677 -27.592  1.00  0.00     0.202 HD
ENDBRANCH   6  10
BRANCH   8  17
HETATM   17  N9  UNL     1     -14.694 -27.193 -24.284  1.00  0.00    -0.331 N 
ATOM     18  H92 UNL     1     -14.862 -28.123 -23.900  1.00  0.00     0.177 HD
ATOM     19  H91 UNL     1     -15.027 -26.373 -23.779  1.00  0.00     0.177 HD
ENDBRANCH   8  17
TORSDOF 2
ENDMDL
MODEL 2
REMARK VINA RESULT: -6.724031154      0.110      1.033
REMARK  2 active torsions:
REMARK  status: ('A' for Active; 'I' for Inactive)
REMARK       I    between atoms: C2_5  and  N3_6 
REMARK       I    between atoms: C2_5  and  N8_15 
REMARK    1  A    between atoms: N3_6  and  C3_8 
REMARK    2  A    between atoms: N8_15  and  N9_17 
ROOT
HETATM    1  N1  UNL     1     -16.985 -27.837 -26.850  1.00  0.00    -0.171 NA
HETATM    2  C1  UNL     1     -15.931 -28.314 -26.898  1.00  0.00     0.196 C 
HETATM    3  N2  UNL     1     -14.649 -28.870 -26.948  1.00  0.00    -0.124 N 
ATOM      4  H2  UNL     1     -14.471 -29.707 -27.503  1.00  0.00     0.197 HD
HETATM    5  C2  UNL     1     -13.690 -28.308 -26.283  1.00  0.00     0.720 C 
HETATM    6  N3  UNL     1     -12.372 -28.798 -26.276  1.00  0.00    -0.018 N 
ATOM      7  H3  UNL     1     -12.026 -29.193 -25.402  1.00  0.00     0.203 HD
HETATM    8  N8  UNL     1     -13.944 -27.132 -25.504  1.00  0.00    -0.137 N 
ATOM      9  H8  UNL     1     -13.625 -26.231 -25.862  1.00  0.00     0.205 HD
ENDROOT
BRANCH   6  10
HETATM   10  C3  UNL     1     -11.573 -28.789 -27.269  1.00  0.00     0.722 A 
HETATM   11  N4  UNL     1     -11.079 -27.689 -27.858  1.00  0.00    -0.116 N 
HETATM   12  N5  UNL     1     -10.277 -28.032 -28.864  1.00  0.00     0.006 NA
ATOM     13  H4  UNL     1     -11.287 -26.732 -27.576  1.00  0.00     0.202 HD
HETATM   14  N6  UNL     1     -10.267 -29.357 -28.909  1.00  0.00     0.006 NA
HETATM   15  N7  UNL     1     -11.054 -29.829 -27.942  1.00  0.00    -0.116 N 
ATOM     16  H7  UNL     1     -11.231 -30.814 -27.747  1.00  0.00     0.202 HD
ENDBRANCH   6  10
BRANCH   8  17
HETATM   17  N9  UNL     1     -14.604 -27.163 -24.284  1.00  0.00    -0.331 N 
ATOM     18  H92 UNL     1     -14.494 -27.999 -23.710  1.00  0.00     0.177 HD
ATOM     19  H91 UNL     1     -15.184 -26.395 -23.947  1.00  0.00     0.177 HD
ENDBRANCH   8  17
TORSDOF 2
ENDMDL
MODEL 3
REMARK VINA RESULT: -6.457115023      1.935      2.711
REMARK  2 active torsions:
REMARK  status: ('A' for Active; 'I' for Inactive)
REMARK       I    between atoms: C2_5  and  N3_6 
REMARK       I    between atoms: C2_5  and  N8_15 
REMARK    1  A    between atoms: N3_6  and  C3_8 
REMARK    2  A    between atoms: N8_15  and  N9_17 
ROOT
HETATM    1  N1  UNL     1     -14.914 -26.088 -24.984  1.00  0.00    -0.171 NA
HETATM    2  C1  UNL     1     -13.904 -26.393 -25.459  1.00  0.00     0.196 C 
HETATM    3  N2  UNL     1     -12.691 -26.784 -26.036  1.00  0.00    -0.124 N 
ATOM      4  H2  UNL     1     -11.850 -26.224 -25.900  1.00  0.00     0.197 HD
HETATM    5  C2  UNL     1     -12.649 -27.868 -26.745  1.00  0.00     0.720 C 
HETATM    6  N3  UNL     1     -11.475 -28.336 -27.361  1.00  0.00    -0.018 N 
ATOM      7  H3  UNL     1     -11.440 -28.306 -28.379  1.00  0.00     0.203 HD
HETATM    8  N8  UNL     1     -13.834 -28.653 -26.935  1.00  0.00    -0.137 N 
ATOM      9  H8  UNL     1     -13.929 -29.526 -26.415  1.00  0.00     0.205 HD
ENDROOT
BRANCH   6  10
HETATM   10  C3  UNL     1     -10.453 -28.794 -26.754  1.00  0.00     0.722 A 
HETATM   11  N4  UNL     1      -9.766 -29.891 -27.110  1.00  0.00    -0.116 N 
HETATM   12  N5  UNL     1      -8.756 -30.092 -26.266  1.00  0.00     0.006 NA
ATOM     13  H4  UNL     1      -9.986 -30.485 -27.910  1.00  0.00     0.202 HD
HETATM   14  N6  UNL     1      -8.807 -29.114 -25.372  1.00  0.00     0.006 NA
HETATM   15  N7  UNL     1      -9.837 -28.318 -25.660  1.00  0.00    -0.116 N 
ATOM     16  H7  UNL     1     -10.112 -27.487 -25.136  1.00  0.00     0.202 HD
ENDBRANCH   6  10
BRANCH   8  17
HETATM   17  N9  UNL     1     -14.857 -28.279 -27.794  1.00  0.00    -0.331 N 
ATOM     18  H92 UNL     1     -15.592 -28.962 -27.976  1.00  0.00     0.177 HD
ATOM     19  H91 UNL     1     -14.900 -27.364 -28.241  1.00  0.00     0.177 HD
ENDBRANCH   8  17
TORSDOF 2
ENDMDL
MODEL 4
REMARK VINA RESULT: -6.410130316      1.107      1.287
REMARK  2 active torsions:
REMARK  status: ('A' for Active; 'I' for Inactive)
REMARK       I    between atoms: C2_5  and  N3_6 
REMARK       I    between atoms: C2_5  and  N8_15 
REMARK    1  A    between atoms: N3_6  and  C3_8 
REMARK    2  A    between atoms: N8_15  and  N9_17 
ROOT
HETATM    1  N1  UNL     1     -17.059 -26.690 -25.939  1.00  0.00    -0.171 NA
HETATM    2  C1  UNL     1     -16.078 -27.254 -26.184  1.00  0.00     0.196 C 
HETATM    3  N2  UNL     1     -14.880 -27.915 -26.476  1.00  0.00    -0.124 N 
ATOM      4  H2  UNL     1     -14.884 -28.763 -27.041  1.00  0.00     0.197 HD
HETATM    5  C2  UNL     1     -13.767 -27.436 -26.019  1.00  0.00     0.720 C 
HETATM    6  N3  UNL     1     -12.518 -28.034 -26.262  1.00  0.00    -0.018 N 
ATOM      7  H3  UNL     1     -12.041 -28.458 -25.466  1.00  0.00     0.203 HD
HETATM    8  N8  UNL     1     -13.766 -26.243 -25.223  1.00  0.00    -0.137 N 
ATOM      9  H8  UNL     1     -13.450 -25.372 -25.651  1.00  0.00     0.205 HD
ENDROOT
BRANCH   6  10
HETATM   10  C3  UNL     1     -11.931 -28.091 -27.392  1.00  0.00     0.722 A 
HETATM   11  N4  UNL     1     -10.639 -27.803 -27.611  1.00  0.00    -0.116 N 
HETATM   12  N5  UNL     1     -10.347 -27.964 -28.900  1.00  0.00     0.006 NA
ATOM     13  H4  UNL     1      -9.977 -27.504 -26.895  1.00  0.00     0.202 HD
HETATM   14  N6  UNL     1     -11.464 -28.357 -29.497  1.00  0.00     0.006 NA
HETATM   15  N7  UNL     1     -12.436 -28.437 -28.587  1.00  0.00    -0.116 N 
ATOM     16  H7  UNL     1     -13.400 -28.714 -28.769  1.00  0.00     0.202 HD
ENDBRANCH   6  10
BRANCH   8  17
HETATM   17  N9  UNL     1     -14.175 -26.220 -23.898  1.00  0.00    -0.331 N 
ATOM     18  H92 UNL     1     -14.984 -26.787 -23.645  1.00  0.00     0.177 HD
ATOM     19  H91 UNL     1     -13.705 -25.667 -23.182  1.00  0.00     0.177 HD
ENDBRANCH   8  17
TORSDOF 2
ENDMDL
MODEL 5
REMARK VINA RESULT: -6.356512775      1.578      4.985
REMARK  2 active torsions:
REMARK  status: ('A' for Active; 'I' for Inactive)
REMARK       I    between atoms: C2_5  and  N3_6 
REMARK       I    between atoms: C2_5  and  N8_15 
REMARK    1  A    between atoms: N3_6  and  C3_8 
REMARK    2  A    between atoms: N8_15  and  N9_17 
ROOT
HETATM    1  N1  UNL     1     -10.554 -29.174 -29.387  1.00  0.00    -0.171 NA
HETATM    2  C1  UNL     1     -11.152 -28.391 -28.777  1.00  0.00     0.196 C 
HETATM    3  N2  UNL     1     -11.875 -27.462 -28.023  1.00  0.00    -0.124 N 
ATOM      4  H2  UNL     1     -12.342 -26.679 -28.480  1.00  0.00     0.197 HD
HETATM    5  C2  UNL     1     -11.945 -27.608 -26.738  1.00  0.00     0.720 C 
HETATM    6  N3  UNL     1     -12.649 -26.723 -25.903  1.00  0.00    -0.018 N 
ATOM      7  H3  UNL     1     -12.100 -26.143 -25.269  1.00  0.00     0.203 HD
HETATM    8  N8  UNL     1     -11.286 -28.710 -26.100  1.00  0.00    -0.137 N 
ATOM      9  H8  UNL     1     -11.852 -29.494 -25.774  1.00  0.00     0.205 HD
ENDROOT
BRANCH   6  10
HETATM   10  C3  UNL     1     -13.916 -26.584 -25.870  1.00  0.00     0.722 A 
HETATM   11  N4  UNL     1     -14.569 -25.550 -25.318  1.00  0.00    -0.116 N 
HETATM   12  N5  UNL     1     -15.883 -25.714 -25.456  1.00  0.00     0.006 NA
ATOM     13  H4  UNL     1     -14.124 -24.754 -24.860  1.00  0.00     0.202 HD
HETATM   14  N6  UNL     1     -16.058 -26.860 -26.099  1.00  0.00     0.006 NA
HETATM   15  N7  UNL     1     -14.866 -27.399 -26.356  1.00  0.00    -0.116 N 
ATOM     16  H7  UNL     1     -14.703 -28.282 -26.840  1.00  0.00     0.202 HD
ENDBRANCH   6  10
BRANCH   8  17
HETATM   17  N9  UNL     1      -9.914 -28.759 -25.905  1.00  0.00    -0.331 N 
ATOM     18  H92 UNL     1      -9.319 -28.428 -26.664  1.00  0.00     0.177 HD
ATOM     19  H91 UNL     1      -9.487 -29.106 -25.047  1.00  0.00     0.177 HD
ENDBRANCH   8  17
TORSDOF 2
ENDMDL
