MODEL 1
REMARK VINA RESULT: -7.135479221      0.000      0.000
REMARK  5 active torsions:
REMARK  status: ('A' for Active; 'I' for Inactive)
REMARK    1  A    between atoms: C2_2  and  O1_3 
REMARK    2  A    between atoms: C2_2  and  N1_5 
REMARK    3  A    between atoms: N1_5  and  C3_7 
REMARK    4  A    between atoms: C4_16  and  N6_17 
REMARK    5  A    between atoms: N6_17  and  C5_19 
ROOT
HETATM    1  N6  UNL     1      16.716  12.280  26.980  1.00  0.00    -0.321 N 
ATOM      2  H6  UNL     1      16.227  12.648  26.164  1.00  0.00     0.169 HD
ENDROOT
BRANCH   1   3
HETATM    3  C4  UNL     1      16.515  11.053  27.378  1.00  0.00     0.169 A 
HETATM    4  C3  UNL     1      15.352  10.417  27.029  1.00  0.00     0.165 A 
HETATM    5  N2  UNL     1      15.142   9.171  27.429  1.00  0.00    -0.267 N 
HETATM    6  N3  UNL     1      16.075   8.561  28.171  1.00  0.00    -0.227 N 
ATOM      7  H2  UNL     1      14.282   8.684  27.176  1.00  0.00     0.190 HD
HETATM    8  N4  UNL     1      17.199   9.159  28.516  1.00  0.00    -0.227 N 
ATOM      9  H3  UNL     1      15.911   7.602  28.478  1.00  0.00     0.210 HD
HETATM   10  N5  UNL     1      17.415  10.397  28.121  1.00  0.00    -0.267 N 
ATOM     11  H4  UNL     1      17.891   8.669  29.081  1.00  0.00     0.210 HD
ATOM     12  H5  UNL     1      18.283  10.863  28.386  1.00  0.00     0.190 HD
BRANCH   4  13
HETATM   13  N1  UNL     1      14.492  11.024  26.327  1.00  0.00    -0.346 N 
ATOM     14  H1  UNL     1      14.756  11.168  25.353  1.00  0.00     0.163 HD
BRANCH  13  15
HETATM   15  C2  UNL     1      13.216  11.536  26.683  1.00  0.00     0.215 C 
HETATM   16  C1  UNL     1      12.160  10.516  26.344  1.00  0.00     0.063 C 
BRANCH  15  17
HETATM   17  O1  UNL     1      12.899  12.741  26.052  1.00  0.00    -0.377 OA
ATOM     18  H1  UNL     1      12.361  13.261  26.638  1.00  0.00     0.212 HD
ENDBRANCH  15  17
ENDBRANCH  13  15
ENDBRANCH   4  13
ENDBRANCH   1   3
BRANCH   1  19
HETATM   19  C5  UNL     1      17.623  13.091  27.702  1.00  0.00     0.156 A 
HETATM   20  N7  UNL     1      17.428  13.599  28.945  1.00  0.00    -0.268 N 
HETATM   21  N8  UNL     1      18.506  14.278  29.218  1.00  0.00    -0.234 N 
ATOM     22  H7  UNL     1      16.609  13.476  29.541  1.00  0.00     0.190 HD
HETATM   23  N9  UNL     1      19.386  14.246  28.237  1.00  0.00    -0.244 N 
ATOM     24  H8  UNL     1      18.653  14.779  30.094  1.00  0.00     0.209 HD
HETATM   25  C6  UNL     1      20.604  14.776  28.060  1.00  0.00     0.135 A 
HETATM   26  C9  UNL     1      18.858  13.491  27.239  1.00  0.00     0.146 A 
HETATM   27  C7  UNL     1      21.294  14.556  26.893  1.00  0.00     0.109 A 
HETATM   28  N10 UNL     1      20.791  13.816  25.897  1.00  0.00    -0.349 N 
HETATM   29  C8  UNL     1      19.556  13.269  26.059  1.00  0.00     0.132 A 
ATOM     30  H10 UNL     1      21.321  13.665  25.038  1.00  0.00     0.167 HD
HETATM   31  N11 UNL     1      19.088  12.571  25.113  1.00  0.00    -0.383 N 
ATOM     32 2H11 UNL     1      19.601  12.407  24.246  1.00  0.00     0.157 HD
ATOM     33 1H11 UNL     1      18.162  12.161  25.234  1.00  0.00     0.157 HD
ENDBRANCH   1  19
TORSDOF 5
ENDMDL
MODEL 2
REMARK VINA RESULT: -7.130751735      0.915      2.078
REMARK  5 active torsions:
REMARK  status: ('A' for Active; 'I' for Inactive)
REMARK    1  A    between atoms: C2_2  and  O1_3 
REMARK    2  A    between atoms: C2_2  and  N1_5 
REMARK    3  A    between atoms: N1_5  and  C3_7 
REMARK    4  A    between atoms: C4_16  and  N6_17 
REMARK    5  A    between atoms: N6_17  and  C5_19 
ROOT
HETATM    1  N6  UNL     1      16.953  11.610  27.852  1.00  0.00    -0.321 N 
ATOM      2  H6  UNL     1      16.596  12.333  28.477  1.00  0.00     0.169 HD
ENDROOT
BRANCH   1   3
HETATM    3  C4  UNL     1      16.431  10.413  27.853  1.00  0.00     0.169 A 
HETATM    4  C3  UNL     1      15.247  10.198  27.196  1.00  0.00     0.165 A 
HETATM    5  N2  UNL     1      14.712   8.985  27.194  1.00  0.00    -0.267 N 
HETATM    6  N3  UNL     1      15.343   7.995  27.837  1.00  0.00    -0.227 N 
ATOM      7  H2  UNL     1      13.833   8.809  26.709  1.00  0.00     0.190 HD
HETATM    8  N4  UNL     1      16.483   8.186  28.473  1.00  0.00    -0.227 N 
ATOM      9  H3  UNL     1      14.930   7.063  27.834  1.00  0.00     0.210 HD
HETATM   10  N5  UNL     1      17.021   9.388  28.480  1.00  0.00    -0.267 N 
ATOM     11  H4  UNL     1      16.941   7.412  28.954  1.00  0.00     0.210 HD
ATOM     12  H5  UNL     1      17.902   9.540  28.972  1.00  0.00     0.190 HD
BRANCH   4  13
HETATM   13  N1  UNL     1      14.678  11.157  26.600  1.00  0.00    -0.346 N 
ATOM     14  H1  UNL     1      15.305  11.893  26.274  1.00  0.00     0.163 HD
BRANCH  13  15
HETATM   15  C2  UNL     1      13.304  11.371  26.313  1.00  0.00     0.215 C 
HETATM   16  C1  UNL     1      12.913  10.546  25.114  1.00  0.00     0.063 C 
BRANCH  15  17
HETATM   17  O1  UNL     1      12.983  12.707  26.065  1.00  0.00    -0.377 OA
ATOM     18  H1  UNL     1      13.677  13.258  26.408  1.00  0.00     0.212 HD
ENDBRANCH  15  17
ENDBRANCH  13  15
ENDBRANCH   4  13
ENDBRANCH   1   3
BRANCH   1  19
HETATM   19  C5  UNL     1      18.024  11.886  26.969  1.00  0.00     0.156 A 
HETATM   20  N7  UNL     1      18.326  11.199  25.837  1.00  0.00    -0.268 N 
HETATM   21  N8  UNL     1      19.375  11.789  25.340  1.00  0.00    -0.234 N 
ATOM     22  H7  UNL     1      17.834  10.391  25.456  1.00  0.00     0.190 HD
HETATM   23  N9  UNL     1      19.776  12.810  26.071  1.00  0.00    -0.244 N 
ATOM     24  H8  UNL     1      19.837  11.493  24.480  1.00  0.00     0.209 HD
HETATM   25  C6  UNL     1      20.777  13.694  25.969  1.00  0.00     0.135 A 
HETATM   26  C9  UNL     1      18.933  12.909  27.132  1.00  0.00     0.146 A 
HETATM   27  C7  UNL     1      20.940  14.673  26.918  1.00  0.00     0.109 A 
HETATM   28  N10 UNL     1      20.120  14.788  27.970  1.00  0.00    -0.349 N 
HETATM   29  C8  UNL     1      19.097  13.899  28.091  1.00  0.00     0.132 A 
ATOM     30  H10 UNL     1      20.259  15.523  28.664  1.00  0.00     0.167 HD
HETATM   31  N11 UNL     1      18.327  14.014  29.089  1.00  0.00    -0.383 N 
ATOM     32 2H11 UNL     1      18.448  14.742  29.794  1.00  0.00     0.157 HD
ATOM     33 1H11 UNL     1      17.560  13.348  29.180  1.00  0.00     0.157 HD
ENDBRANCH   1  19
TORSDOF 5
ENDMDL
MODEL 3
REMARK VINA RESULT: -6.775502960      3.052      6.666
REMARK  5 active torsions:
REMARK  status: ('A' for Active; 'I' for Inactive)
REMARK    1  A    between atoms: C2_2  and  O1_3 
REMARK    2  A    between atoms: C2_2  and  N1_5 
REMARK    3  A    between atoms: N1_5  and  C3_7 
REMARK    4  A    between atoms: C4_16  and  N6_17 
REMARK    5  A    between atoms: N6_17  and  C5_19 
ROOT
HETATM    1  N6  UNL     1      19.632  11.799  27.979  1.00  0.00    -0.321 N 
ATOM      2  H6  UNL     1      20.185  11.268  28.652  1.00  0.00     0.169 HD
ENDROOT
BRANCH   1   3
HETATM    3  C4  UNL     1      20.161  12.793  27.320  1.00  0.00     0.169 A 
HETATM    4  C3  UNL     1      20.772  13.807  28.012  1.00  0.00     0.165 A 
HETATM    5  N2  UNL     1      21.312  14.819  27.348  1.00  0.00    -0.267 N 
HETATM    6  N3  UNL     1      21.247  14.828  26.011  1.00  0.00    -0.227 N 
ATOM      7  H2  UNL     1      21.770  15.580  27.849  1.00  0.00     0.190 HD
HETATM    8  N4  UNL     1      20.662  13.861  25.331  1.00  0.00    -0.227 N 
ATOM      9  H3  UNL     1      21.662  15.608  25.503  1.00  0.00     0.210 HD
HETATM   10  N5  UNL     1      20.124  12.851  25.983  1.00  0.00    -0.267 N 
ATOM     11  H4  UNL     1      20.628  13.894  24.312  1.00  0.00     0.210 HD
ATOM     12  H5  UNL     1      19.671  12.101  25.460  1.00  0.00     0.190 HD
BRANCH   4  13
HETATM   13  N1  UNL     1      20.814  13.766  29.276  1.00  0.00    -0.346 N 
ATOM     14  H1  UNL     1      19.996  13.350  29.720  1.00  0.00     0.163 HD
BRANCH  13  15
HETATM   15  C2  UNL     1      21.822  14.208  30.172  1.00  0.00     0.215 C 
HETATM   16  C1  UNL     1      21.696  13.455  31.472  1.00  0.00     0.063 C 
BRANCH  15  17
HETATM   17  O1  UNL     1      21.775  15.578  30.439  1.00  0.00    -0.377 OA
ATOM     18  H1  UNL     1      22.158  16.046  29.707  1.00  0.00     0.212 HD
ENDBRANCH  15  17
ENDBRANCH  13  15
ENDBRANCH   4  13
ENDBRANCH   1   3
BRANCH   1  19
HETATM   19  C5  UNL     1      18.275  11.471  27.745  1.00  0.00     0.156 A 
HETATM   20  N7  UNL     1      17.719  11.177  26.542  1.00  0.00    -0.268 N 
HETATM   21  N8  UNL     1      16.462  10.940  26.787  1.00  0.00    -0.234 N 
ATOM     22  H7  UNL     1      18.187  11.148  25.636  1.00  0.00     0.190 HD
HETATM   23  N9  UNL     1      16.164  11.060  28.066  1.00  0.00    -0.244 N 
ATOM     24  H8  UNL     1      15.782  10.690  26.069  1.00  0.00     0.209 HD
HETATM   25  C6  UNL     1      15.038  10.920  28.778  1.00  0.00     0.135 A 
HETATM   26  C9  UNL     1      17.304  11.402  28.720  1.00  0.00     0.146 A 
HETATM   27  C7  UNL     1      15.046  11.117  30.137  1.00  0.00     0.109 A 
HETATM   28  N10 UNL     1      16.158  11.454  30.801  1.00  0.00    -0.349 N 
HETATM   29  C8  UNL     1      17.312  11.601  30.095  1.00  0.00     0.132 A 
ATOM     30  H10 UNL     1      16.142  11.596  31.811  1.00  0.00     0.167 HD
HETATM   31  N11 UNL     1      18.359  11.920  30.730  1.00  0.00    -0.383 N 
ATOM     32 2H11 UNL     1      18.365  12.066  31.740  1.00  0.00     0.157 HD
ATOM     33 1H11 UNL     1      19.224  12.031  30.201  1.00  0.00     0.157 HD
ENDBRANCH   1  19
TORSDOF 5
ENDMDL
MODEL 4
REMARK VINA RESULT: -6.737616430      2.220      3.570
REMARK  5 active torsions:
REMARK  status: ('A' for Active; 'I' for Inactive)
REMARK    1  A    between atoms: C2_2  and  O1_3 
REMARK    2  A    between atoms: C2_2  and  N1_5 
REMARK    3  A    between atoms: N1_5  and  C3_7 
REMARK    4  A    between atoms: C4_16  and  N6_17 
REMARK    5  A    between atoms: N6_17  and  C5_19 
ROOT
HETATM    1  N6  UNL     1      16.956  11.402  27.874  1.00  0.00    -0.321 N 
ATOM      2  H6  UNL     1      17.029  11.548  28.881  1.00  0.00     0.169 HD
ENDROOT
BRANCH   1   3
HETATM    3  C4  UNL     1      15.864  10.916  27.350  1.00  0.00     0.169 A 
HETATM    4  C3  UNL     1      15.495   9.629  27.644  1.00  0.00     0.165 A 
HETATM    5  N2  UNL     1      14.387   9.129  27.115  1.00  0.00    -0.267 N 
HETATM    6  N3  UNL     1      13.652   9.897  26.302  1.00  0.00    -0.227 N 
ATOM      7  H2  UNL     1      14.098   8.174  27.326  1.00  0.00     0.190 HD
HETATM    8  N4  UNL     1      13.993  11.137  26.009  1.00  0.00    -0.227 N 
ATOM      9  H3  UNL     1      12.800   9.510  25.896  1.00  0.00     0.210 HD
HETATM   10  N5  UNL     1      15.092  11.641  26.530  1.00  0.00    -0.267 N 
ATOM     11  H4  UNL     1      13.413  11.698  25.386  1.00  0.00     0.210 HD
ATOM     12  H5  UNL     1      15.360  12.599  26.306  1.00  0.00     0.190 HD
BRANCH   4  13
HETATM   13  N1  UNL     1      16.214   8.931  28.417  1.00  0.00    -0.346 N 
ATOM     14  H1  UNL     1      16.991   9.432  28.848  1.00  0.00     0.163 HD
BRANCH  13  15
HETATM   15  C2  UNL     1      16.110   7.563  28.778  1.00  0.00     0.215 C 
HETATM   16  C1  UNL     1      17.090   7.264  29.882  1.00  0.00     0.063 C 
BRANCH  15  17
HETATM   17  O1  UNL     1      16.343   6.683  27.718  1.00  0.00    -0.377 OA
ATOM     18  H1  UNL     1      15.692   6.837  27.043  1.00  0.00     0.212 HD
ENDBRANCH  15  17
ENDBRANCH  13  15
ENDBRANCH   4  13
ENDBRANCH   1   3
BRANCH   1  19
HETATM   19  C5  UNL     1      18.038  11.723  27.020  1.00  0.00     0.156 A 
HETATM   20  N7  UNL     1      18.408  11.040  25.906  1.00  0.00    -0.268 N 
HETATM   21  N8  UNL     1      19.441  11.677  25.434  1.00  0.00    -0.234 N 
ATOM     22  H7  UNL     1      17.968  10.205  25.520  1.00  0.00     0.190 HD
HETATM   23  N9  UNL     1      19.768  12.724  26.165  1.00  0.00    -0.244 N 
ATOM     24  H8  UNL     1      19.943  11.396  24.592  1.00  0.00     0.209 HD
HETATM   25  C6  UNL     1      20.728  13.655  26.083  1.00  0.00     0.135 A 
HETATM   26  C9  UNL     1      18.890  12.791  27.199  1.00  0.00     0.146 A 
HETATM   27  C7  UNL     1      20.813  14.651  27.025  1.00  0.00     0.109 A 
HETATM   28  N10 UNL     1      19.957  14.735  28.051  1.00  0.00    -0.349 N 
HETATM   29  C8  UNL     1      18.976  13.798  28.152  1.00  0.00     0.132 A 
ATOM     30  H10 UNL     1      20.038  15.483  28.740  1.00  0.00     0.167 HD
HETATM   31  N11 UNL     1      18.171  13.884  29.125  1.00  0.00    -0.383 N 
ATOM     32 2H11 UNL     1      18.234  14.624  29.824  1.00  0.00     0.157 HD
ATOM     33 1H11 UNL     1      17.435  13.182  29.200  1.00  0.00     0.157 HD
ENDBRANCH   1  19
TORSDOF 5
ENDMDL
MODEL 5
REMARK VINA RESULT: -6.566292550      2.130      3.592
REMARK  5 active torsions:
REMARK  status: ('A' for Active; 'I' for Inactive)
REMARK    1  A    between atoms: C2_2  and  O1_3 
REMARK    2  A    between atoms: C2_2  and  N1_5 
REMARK    3  A    between atoms: N1_5  and  C3_7 
REMARK    4  A    between atoms: C4_16  and  N6_17 
REMARK    5  A    between atoms: N6_17  and  C5_19 
ROOT
HETATM    1  N6  UNL     1      16.455  10.443  27.698  1.00  0.00    -0.321 N 
ATOM      2  H6  UNL     1      16.640   9.789  28.459  1.00  0.00     0.169 HD
ENDROOT
BRANCH   1   3
HETATM    3  C4  UNL     1      15.249  10.578  27.217  1.00  0.00     0.169 A 
HETATM    4  C3  UNL     1      14.453   9.470  27.081  1.00  0.00     0.165 A 
HETATM    5  N2  UNL     1      13.228   9.601  26.593  1.00  0.00    -0.267 N 
HETATM    6  N3  UNL     1      12.795  10.817  26.241  1.00  0.00    -0.227 N 
ATOM      7  H2  UNL     1      12.624   8.786  26.488  1.00  0.00     0.190 HD
HETATM    8  N4  UNL     1      13.548  11.893  26.364  1.00  0.00    -0.227 N 
ATOM      9  H3  UNL     1      11.852  10.915  25.865  1.00  0.00     0.210 HD
HETATM   10  N5  UNL     1      14.767  11.772  26.849  1.00  0.00    -0.267 N 
ATOM     11  H4  UNL     1      13.192  12.807  26.088  1.00  0.00     0.210 HD
ATOM     12  H5  UNL     1      15.353  12.601  26.946  1.00  0.00     0.190 HD
BRANCH   4  13
HETATM   13  N1  UNL     1      14.895   8.335  27.424  1.00  0.00    -0.346 N 
ATOM     14  H1  UNL     1      15.739   8.358  27.997  1.00  0.00     0.163 HD
BRANCH  13  15
HETATM   15  C2  UNL     1      14.402   7.036  27.136  1.00  0.00     0.215 C 
HETATM   16  C1  UNL     1      15.507   6.030  27.334  1.00  0.00     0.063 C 
BRANCH  15  17
HETATM   17  O1  UNL     1      13.897   6.900  25.840  1.00  0.00    -0.377 OA
ATOM     18  H1  UNL     1      13.015   7.252  25.817  1.00  0.00     0.212 HD
ENDBRANCH  15  17
ENDBRANCH  13  15
ENDBRANCH   4  13
ENDBRANCH   1   3
BRANCH   1  19
HETATM   19  C5  UNL     1      17.501  11.219  27.145  1.00  0.00     0.156 A 
HETATM   20  N7  UNL     1      18.148  10.973  25.976  1.00  0.00    -0.268 N 
HETATM   21  N8  UNL     1      19.026  11.927  25.857  1.00  0.00    -0.234 N 
ATOM     22  H7  UNL     1      17.980  10.204  25.328  1.00  0.00     0.190 HD
HETATM   23  N9  UNL     1      18.996  12.773  26.867  1.00  0.00    -0.244 N 
ATOM     24  H8  UNL     1      19.668  12.010  25.069  1.00  0.00     0.209 HD
HETATM   25  C6  UNL     1      19.687  13.877  27.180  1.00  0.00     0.135 A 
HETATM   26  C9  UNL     1      18.027  12.354  27.722  1.00  0.00     0.146 A 
HETATM   27  C7  UNL     1      19.415  14.563  28.338  1.00  0.00     0.109 A 
HETATM   28  N10 UNL     1      18.464  14.167  29.193  1.00  0.00    -0.349 N 
HETATM   29  C8  UNL     1      17.751  13.048  28.893  1.00  0.00     0.132 A 
ATOM     30  H10 UNL     1      18.278  14.691  30.048  1.00  0.00     0.167 HD
HETATM   31  N11 UNL     1      16.855  12.680  29.707  1.00  0.00    -0.383 N 
ATOM     32 2H11 UNL     1      16.652  13.190  30.567  1.00  0.00     0.157 HD
ATOM     33 1H11 UNL     1      16.320  11.841  29.482  1.00  0.00     0.157 HD
ENDBRANCH   1  19
TORSDOF 5
ENDMDL
