MODEL 1
REMARK VINA RESULT: -5.875647654      0.000      0.000
REMARK  6 active torsions:
REMARK  status: ('A' for Active; 'I' for Inactive)
REMARK    1  A    between atoms: C1_2  and  O2_7 
REMARK    2  A    between atoms: N2_3  and  O1_5 
REMARK    3  A    between atoms: O2_7  and  C2_8 
REMARK    4  A    between atoms: C2_8  and  C3_9 
REMARK    5  A    between atoms: C3_9  and  N3_10 
REMARK    6  A    between atoms: C3_9  and  C4_14 
ROOT
HETATM    1  C2  UNL     1      18.880  12.724  27.696  1.00  0.00     0.248 A 
HETATM    2  S1  UNL     1      19.763  14.142  28.177  1.00  0.00    -0.046 SA
HETATM    3  C5  UNL     1      20.518  12.817  29.055  1.00  0.00     0.098 A 
HETATM    4  C6  UNL     1      21.522  12.421  29.974  1.00  0.00     0.125 A 
HETATM    5  N4  UNL     1      21.668  11.135  30.314  1.00  0.00    -0.368 N 
ATOM      6  H4  UNL     1      22.396  10.870  30.977  1.00  0.00     0.164 HD
HETATM    7  C7  UNL     1      20.870  10.189  29.797  1.00  0.00     0.162 A 
HETATM    8  C8  UNL     1      19.909  10.595  28.915  1.00  0.00     0.267 A 
HETATM    9  O5  UNL     1      19.167   9.683  28.438  1.00  0.00    -0.266 OA
HETATM   10  N5  UNL     1      19.730  11.917  28.539  1.00  0.00    -0.260 N 
ENDROOT
BRANCH   1  11
HETATM   11  O2  UNL     1      18.969  12.364  26.308  1.00  0.00    -0.277 OA
BRANCH  11  12
HETATM   12  C1  UNL     1      19.656  13.153  25.435  1.00  0.00     0.254 C 
HETATM   13  N1  UNL     1      21.099  13.229  25.447  1.00  0.00    -0.054 NA
HETATM   14  N2  UNL     1      18.985  13.846  24.577  1.00  0.00    -0.235 N 
ATOM     15  H2  UNL     1      17.968  13.773  24.591  1.00  0.00     0.197 HD
BRANCH  14  16
HETATM   16  O1  UNL     1      19.553  14.665  23.658  1.00  0.00    -0.287 OA
ATOM     17  H1  UNL     1      19.661  14.438  22.742  1.00  0.00     0.244 HD
ENDBRANCH  14  16
ENDBRANCH  11  12
ENDBRANCH   1  11
BRANCH   1  18
HETATM   18  C3  UNL     1      17.412  12.633  28.109  1.00  0.00     0.351 C 
BRANCH  18  19
HETATM   19  N3  UNL     1      17.220  13.180  29.426  1.00  0.00    -0.059 N 
ATOM     20  H33 UNL     1      16.784  12.506  30.056  1.00  0.00     0.275 HD
ATOM     21  H32 UNL     1      18.104  13.300  29.918  1.00  0.00     0.275 HD
ATOM     22  H31 UNL     1      16.692  14.052  29.379  1.00  0.00     0.275 HD
ENDBRANCH  18  19
BRANCH  18  23
HETATM   23  C4  UNL     1      16.521  13.295  27.164  1.00  0.00     0.210 C 
HETATM   24  O3  UNL     1      16.719  14.434  26.665  1.00  0.00    -0.646 OA
HETATM   25  O4  UNL     1      15.363  12.646  26.768  1.00  0.00    -0.646 OA
ENDBRANCH  18  23
ENDBRANCH   1  18
TORSDOF 6
ENDMDL
MODEL 2
REMARK VINA RESULT: -5.789526466      2.037      2.463
REMARK  6 active torsions:
REMARK  status: ('A' for Active; 'I' for Inactive)
REMARK    1  A    between atoms: C1_2  and  O2_7 
REMARK    2  A    between atoms: N2_3  and  O1_5 
REMARK    3  A    between atoms: O2_7  and  C2_8 
REMARK    4  A    between atoms: C2_8  and  C3_9 
REMARK    5  A    between atoms: C3_9  and  N3_10 
REMARK    6  A    between atoms: C3_9  and  C4_14 
ROOT
HETATM    1  C2  UNL     1      18.284  11.849  28.062  1.00  0.00     0.248 A 
HETATM    2  S1  UNL     1      19.791  11.892  28.927  1.00  0.00    -0.046 SA
HETATM    3  C5  UNL     1      19.023  10.392  29.429  1.00  0.00     0.098 A 
HETATM    4  C6  UNL     1      19.107   9.223  30.227  1.00  0.00     0.125 A 
HETATM    5  N4  UNL     1      18.127   8.311  30.210  1.00  0.00    -0.368 N 
ATOM      6  H4  UNL     1      18.207   7.478  30.792  1.00  0.00     0.164 HD
HETATM    7  C7  UNL     1      17.043   8.478  29.440  1.00  0.00     0.162 A 
HETATM    8  C8  UNL     1      16.983   9.612  28.680  1.00  0.00     0.267 A 
HETATM    9  O5  UNL     1      15.948   9.749  27.959  1.00  0.00    -0.266 OA
HETATM   10  N5  UNL     1      17.979  10.577  28.673  1.00  0.00    -0.260 N 
ENDROOT
BRANCH   1  11
HETATM   11  O2  UNL     1      18.378  11.771  26.631  1.00  0.00    -0.277 OA
BRANCH  11  12
HETATM   12  C1  UNL     1      19.452  12.303  25.982  1.00  0.00     0.254 C 
HETATM   13  N1  UNL     1      20.641  11.527  25.710  1.00  0.00    -0.054 NA
HETATM   14  N2  UNL     1      19.391  13.535  25.603  1.00  0.00    -0.235 N 
ATOM     15  H2  UNL     1      18.540  14.059  25.808  1.00  0.00     0.197 HD
BRANCH  14  16
HETATM   16  O1  UNL     1      20.391  14.175  24.949  1.00  0.00    -0.287 OA
ATOM     17  H1  UNL     1      20.317  15.056  24.602  1.00  0.00     0.244 HD
ENDBRANCH  14  16
ENDBRANCH  11  12
ENDBRANCH   1  11
BRANCH   1  18
HETATM   18  C3  UNL     1      17.243  12.913  28.405  1.00  0.00     0.351 C 
BRANCH  18  19
HETATM   19  N3  UNL     1      17.873  14.080  28.962  1.00  0.00    -0.059 N 
ATOM     20  H33 UNL     1      18.768  13.855  29.399  1.00  0.00     0.275 HD
ATOM     21  H32 UNL     1      18.213  14.710  28.235  1.00  0.00     0.275 HD
ATOM     22  H31 UNL     1      17.245  14.555  29.609  1.00  0.00     0.275 HD
ENDBRANCH  18  19
BRANCH  18  23
HETATM   23  C4  UNL     1      16.430  13.293  27.255  1.00  0.00     0.210 C 
HETATM   24  O3  UNL     1      15.440  12.643  26.827  1.00  0.00    -0.646 OA
HETATM   25  O4  UNL     1      16.748  14.449  26.562  1.00  0.00    -0.646 OA
ENDBRANCH  18  23
ENDBRANCH   1  18
TORSDOF 6
ENDMDL
MODEL 3
REMARK VINA RESULT: -5.636899092      2.056      2.321
REMARK  6 active torsions:
REMARK  status: ('A' for Active; 'I' for Inactive)
REMARK    1  A    between atoms: C1_2  and  O2_7 
REMARK    2  A    between atoms: N2_3  and  O1_5 
REMARK    3  A    between atoms: O2_7  and  C2_8 
REMARK    4  A    between atoms: C2_8  and  C3_9 
REMARK    5  A    between atoms: C3_9  and  N3_10 
REMARK    6  A    between atoms: C3_9  and  C4_14 
ROOT
HETATM    1  C2  UNL     1      19.509  13.291  27.999  1.00  0.00     0.248 A 
HETATM    2  S1  UNL     1      20.553  14.221  26.967  1.00  0.00    -0.046 SA
HETATM    3  C5  UNL     1      21.403  14.125  28.504  1.00  0.00     0.098 A 
HETATM    4  C6  UNL     1      22.557  14.480  29.247  1.00  0.00     0.125 A 
HETATM    5  N4  UNL     1      22.700  14.083  30.518  1.00  0.00    -0.368 N 
ATOM      6  H4  UNL     1      23.537  14.349  31.036  1.00  0.00     0.164 HD
HETATM    7  C7  UNL     1      21.758  13.343  31.120  1.00  0.00     0.162 A 
HETATM    8  C8  UNL     1      20.655  13.014  30.384  1.00  0.00     0.267 A 
HETATM    9  O5  UNL     1      19.778  12.312  30.974  1.00  0.00    -0.266 OA
HETATM   10  N5  UNL     1      20.474  13.407  29.067  1.00  0.00    -0.260 N 
ENDROOT
BRANCH   1  11
HETATM   11  O2  UNL     1      19.278  11.929  27.603  1.00  0.00    -0.277 OA
BRANCH  11  12
HETATM   12  C1  UNL     1      19.558  11.525  26.332  1.00  0.00     0.254 C 
HETATM   13  N1  UNL     1      20.914  11.416  25.846  1.00  0.00    -0.054 NA
HETATM   14  N2  UNL     1      18.572  11.234  25.551  1.00  0.00    -0.235 N 
ATOM     15  H2  UNL     1      17.625  11.320  25.920  1.00  0.00     0.197 HD
BRANCH  14  16
HETATM   16  O1  UNL     1      18.721  10.820  24.268  1.00  0.00    -0.287 OA
ATOM     17  H1  UNL     1      18.161  10.176  23.852  1.00  0.00     0.244 HD
ENDBRANCH  14  16
ENDBRANCH  11  12
ENDBRANCH   1  11
BRANCH   1  18
HETATM   18  C3  UNL     1      18.161  13.902  28.377  1.00  0.00     0.351 C 
BRANCH  18  19
HETATM   19  N3  UNL     1      18.307  15.297  28.696  1.00  0.00    -0.059 N 
ATOM     20  H33 UNL     1      17.447  15.690  29.079  1.00  0.00     0.275 HD
ATOM     21  H32 UNL     1      18.913  15.438  29.503  1.00  0.00     0.275 HD
ATOM     22  H31 UNL     1      18.632  15.820  27.883  1.00  0.00     0.275 HD
ENDBRANCH  18  19
BRANCH  18  23
HETATM   23  C4  UNL     1      17.158  13.737  27.331  1.00  0.00     0.210 C 
HETATM   24  O3  UNL     1      16.945  14.559  26.401  1.00  0.00    -0.646 OA
HETATM   25  O4  UNL     1      16.364  12.602  27.338  1.00  0.00    -0.646 OA
ENDBRANCH  18  23
ENDBRANCH   1  18
TORSDOF 6
ENDMDL
MODEL 4
REMARK VINA RESULT: -5.491246032      0.941      1.183
REMARK  6 active torsions:
REMARK  status: ('A' for Active; 'I' for Inactive)
REMARK    1  A    between atoms: C1_2  and  O2_7 
REMARK    2  A    between atoms: N2_3  and  O1_5 
REMARK    3  A    between atoms: O2_7  and  C2_8 
REMARK    4  A    between atoms: C2_8  and  C3_9 
REMARK    5  A    between atoms: C3_9  and  N3_10 
REMARK    6  A    between atoms: C3_9  and  C4_14 
ROOT
HETATM    1  C2  UNL     1      18.562  12.067  28.097  1.00  0.00     0.248 A 
HETATM    2  S1  UNL     1      19.514  13.414  28.643  1.00  0.00    -0.046 SA
HETATM    3  C5  UNL     1      20.162  12.021  29.502  1.00  0.00     0.098 A 
HETATM    4  C6  UNL     1      21.114  11.539  30.435  1.00  0.00     0.125 A 
HETATM    5  N4  UNL     1      21.172  10.237  30.741  1.00  0.00    -0.368 N 
ATOM      6  H4  UNL     1      21.864   9.910  31.415  1.00  0.00     0.164 HD
HETATM    7  C7  UNL     1      20.335   9.357  30.174  1.00  0.00     0.162 A 
HETATM    8  C8  UNL     1      19.426   9.845  29.278  1.00  0.00     0.267 A 
HETATM    9  O5  UNL     1      18.644   8.994  28.753  1.00  0.00    -0.266 OA
HETATM   10  N5  UNL     1      19.337  11.186  28.938  1.00  0.00    -0.260 N 
ENDROOT
BRANCH   1  11
HETATM   11  O2  UNL     1      18.669  11.742  26.701  1.00  0.00    -0.277 OA
BRANCH  11  12
HETATM   12  C1  UNL     1      19.523  12.435  25.896  1.00  0.00     0.254 C 
HETATM   13  N1  UNL     1      20.891  12.017  25.693  1.00  0.00    -0.054 NA
HETATM   14  N2  UNL     1      19.081  13.494  25.304  1.00  0.00    -0.235 N 
ATOM     15  H2  UNL     1      18.111  13.765  25.465  1.00  0.00     0.197 HD
BRANCH  14  16
HETATM   16  O1  UNL     1      19.831  14.266  24.479  1.00  0.00    -0.287 OA
ATOM     17  H1  UNL     1      19.725  14.290  23.535  1.00  0.00     0.244 HD
ENDBRANCH  14  16
ENDBRANCH  11  12
ENDBRANCH   1  11
BRANCH   1  18
HETATM   18  C3  UNL     1      17.080  12.053  28.466  1.00  0.00     0.351 C 
BRANCH  18  19
HETATM   19  N3  UNL     1      16.819  12.956  29.555  1.00  0.00    -0.059 N 
ATOM     20  H33 UNL     1      17.255  12.639  30.422  1.00  0.00     0.275 HD
ATOM     21  H32 UNL     1      17.322  13.836  29.445  1.00  0.00     0.275 HD
ATOM     22  H31 UNL     1      15.817  13.105  29.668  1.00  0.00     0.275 HD
ENDBRANCH  18  19
BRANCH  18  23
HETATM   23  C4  UNL     1      16.217  12.380  27.337  1.00  0.00     0.210 C 
HETATM   24  O3  UNL     1      15.401  11.585  26.801  1.00  0.00    -0.646 OA
HETATM   25  O4  UNL     1      16.279  13.652  26.792  1.00  0.00    -0.646 OA
ENDBRANCH  18  23
ENDBRANCH   1  18
TORSDOF 6
ENDMDL
MODEL 5
REMARK VINA RESULT: -5.459817159      2.631      4.268
REMARK  6 active torsions:
REMARK  status: ('A' for Active; 'I' for Inactive)
REMARK    1  A    between atoms: C1_2  and  O2_7 
REMARK    2  A    between atoms: N2_3  and  O1_5 
REMARK    3  A    between atoms: O2_7  and  C2_8 
REMARK    4  A    between atoms: C2_8  and  C3_9 
REMARK    5  A    between atoms: C3_9  and  N3_10 
REMARK    6  A    between atoms: C3_9  and  C4_14 
ROOT
HETATM    1  C2  UNL     1      17.336  11.622  27.686  1.00  0.00     0.248 A 
HETATM    2  S1  UNL     1      17.926  10.236  28.555  1.00  0.00    -0.046 SA
HETATM    3  C5  UNL     1      16.242   9.868  28.203  1.00  0.00     0.098 A 
HETATM    4  C6  UNL     1      15.179   8.939  28.325  1.00  0.00     0.125 A 
HETATM    5  N4  UNL     1      13.977   9.202  27.798  1.00  0.00    -0.368 N 
ATOM      6  H4  UNL     1      13.225   8.521  27.898  1.00  0.00     0.164 HD
HETATM    7  C7  UNL     1      13.747  10.349  27.143  1.00  0.00     0.162 A 
HETATM    8  C8  UNL     1      14.786  11.229  27.038  1.00  0.00     0.267 A 
HETATM    9  O5  UNL     1      14.546  12.307  26.413  1.00  0.00    -0.266 OA
HETATM   10  N5  UNL     1      16.043  10.990  27.571  1.00  0.00    -0.260 N 
ENDROOT
BRANCH   1  11
HETATM   11  O2  UNL     1      17.948  11.876  26.412  1.00  0.00    -0.277 OA
BRANCH  11  12
HETATM   12  C1  UNL     1      19.264  12.224  26.337  1.00  0.00     0.254 C 
HETATM   13  N1  UNL     1      20.272  11.580  27.148  1.00  0.00    -0.054 NA
HETATM   14  N2  UNL     1      19.605  13.157  25.512  1.00  0.00    -0.235 N 
ATOM     15  H2  UNL     1      18.873  13.594  24.952  1.00  0.00     0.197 HD
BRANCH  14  16
HETATM   16  O1  UNL     1      20.879  13.589  25.346  1.00  0.00    -0.287 OA
ATOM     17  H1  UNL     1      21.110  14.489  25.146  1.00  0.00     0.244 HD
ENDBRANCH  14  16
ENDBRANCH  11  12
ENDBRANCH   1  11
BRANCH   1  18
HETATM   18  C3  UNL     1      17.259  12.948  28.440  1.00  0.00     0.351 C 
BRANCH  18  19
HETATM   19  N3  UNL     1      18.234  12.988  29.498  1.00  0.00    -0.059 N 
ATOM     20  H33 UNL     1      18.888  12.207  29.440  1.00  0.00     0.275 HD
ATOM     21  H32 UNL     1      18.898  13.752  29.372  1.00  0.00     0.275 HD
ATOM     22  H31 UNL     1      17.776  13.032  30.408  1.00  0.00     0.275 HD
ENDBRANCH  18  19
BRANCH  18  23
HETATM   23  C4  UNL     1      17.433  14.102  27.566  1.00  0.00     0.210 C 
HETATM   24  O3  UNL     1      16.671  14.400  26.608  1.00  0.00    -0.646 OA
HETATM   25  O4  UNL     1      18.507  14.949  27.779  1.00  0.00    -0.646 OA
ENDBRANCH  18  23
ENDBRANCH   1  18
TORSDOF 6
ENDMDL
