MODEL 1
REMARK VINA RESULT: -8.972250772      0.000      0.000
REMARK  14 active torsions:
REMARK  status: ('A' for Active; 'I' for Inactive)
REMARK    1  A    between atoms: C2_2  and  C3_3 
REMARK    2  A    between atoms: C3_3  and  C4_4 
REMARK    3  A    between atoms: C6_9  and  N2_10 
REMARK    4  A    between atoms: C9_13  and  C10_14 
REMARK    5  A    between atoms: C10_14  and  N3_15 
REMARK       I    between atoms: N3_15  and  C11_17 
REMARK    6  A    between atoms: C11_17  and  C12_19 
REMARK    7  A    between atoms: C12_19  and  C14_21 
REMARK    8  A    between atoms: C12_19  and  C24_38 
REMARK    9  A    between atoms: C14_21  and  N4_22 
REMARK       I    between atoms: N4_22  and  C15_24 
REMARK   10  A    between atoms: C15_24  and  C16_26 
REMARK   11  A    between atoms: C16_26  and  C17_27 
REMARK   12  A    between atoms: C16_26  and  N5_29 
REMARK       I    between atoms: N5_29  and  C19_31 
REMARK   13  A    between atoms: C19_31  and  O4_33 
REMARK   14  A    between atoms: O4_33  and  C20_34 
REMARK       I    between atoms: C24_38  and  N6_40 
ROOT
HETATM    1  C12 UNL     1      21.056  30.242  13.789  1.00  0.00     0.150 C 
HETATM    2  C13 UNL     1      21.709  30.223  12.347  1.00  0.00     0.042 C 
ENDROOT
BRANCH   1   3
HETATM    3  C11 UNL     1      21.822  31.066  14.635  1.00  0.00     0.240 C 
HETATM    4  N3  UNL     1      21.516  31.520  15.928  1.00  0.00    -0.359 N 
ATOM      5  H3  UNL     1      20.585  31.285  16.271  1.00  0.00     0.162 HD
HETATM    6  O1  UNL     1      22.976  31.461  14.200  1.00  0.00    -0.272 OA
BRANCH   4   7
HETATM    7  C10 UNL     1      22.334  32.262  16.819  1.00  0.00     0.127 C 
BRANCH   7   8
HETATM    8  C9  UNL     1      22.259  33.739  16.783  1.00  0.00     0.006 C 
HETATM    9  C8  UNL     1      21.348  34.384  15.825  1.00  0.00     0.026 C 
HETATM   10  C7  UNL     1      20.892  35.753  16.179  1.00  0.00     0.124 C 
HETATM   11  N2  UNL     1      21.005  36.183  17.537  1.00  0.00    -0.374 N 
HETATM   12  C31 UNL     1      22.059  35.642  18.372  1.00  0.00     0.124 C 
HETATM   13  C30 UNL     1      21.946  34.146  18.254  1.00  0.00     0.026 C 
BRANCH  11  14
HETATM   14  C6  UNL     1      20.079  37.157  18.066  1.00  0.00     0.096 A 
HETATM   15  C4  UNL     1      18.788  36.998  18.499  1.00  0.00     0.043 A 
HETATM   16  N1  UNL     1      18.169  38.054  18.940  1.00  0.00    -0.361 N 
HETATM   17  C5  UNL     1      18.780  39.223  18.960  1.00  0.00     0.140 A 
ATOM     18  H1  UNL     1      17.208  37.978  19.272  1.00  0.00     0.165 HD
HETATM   19  S1  UNL     1      20.316  38.841  18.327  1.00  0.00    -0.065 SA
BRANCH  15  20
HETATM   20  C3  UNL     1      18.080  35.650  18.472  1.00  0.00     0.059 C 
BRANCH  20  21
HETATM   21  C2  UNL     1      16.924  35.687  17.516  1.00  0.00     0.002 C 
HETATM   22  C1  UNL     1      15.672  35.418  18.360  1.00  0.00     0.005 C 
ENDBRANCH  20  21
ENDBRANCH  15  20
ENDBRANCH  11  14
ENDBRANCH   7   8
ENDBRANCH   4   7
ENDBRANCH   1   3
BRANCH   1  23
HETATM   23  C14 UNL     1      20.727  28.841  14.058  1.00  0.00     0.092 C 
BRANCH  23  24
HETATM   24  N4  UNL     1      20.477  27.875  13.083  1.00  0.00    -0.337 N 
HETATM   25  C15 UNL     1      19.303  27.366  12.578  1.00  0.00     0.244 C 
HETATM   26  O2  UNL     1      18.169  27.737  12.913  1.00  0.00    -0.271 OA
ATOM     27  H4  UNL     1      21.318  27.473  12.669  1.00  0.00     0.168 HD
BRANCH  25  28
HETATM   28  C16 UNL     1      19.379  26.266  11.528  1.00  0.00     0.178 C 
BRANCH  28  29
HETATM   29  C17 UNL     1      18.156  26.406  10.649  1.00  0.00     0.030 C 
HETATM   30  C18 UNL     1      18.411  27.341   9.497  1.00  0.00     0.007 C 
ENDBRANCH  28  29
BRANCH  28  31
HETATM   31  N5  UNL     1      20.599  26.433  10.807  1.00  0.00    -0.324 N 
HETATM   32  C19 UNL     1      21.713  25.531  10.979  1.00  0.00     0.362 C 
HETATM   33  O3  UNL     1      21.598  24.560  11.799  1.00  0.00    -0.238 OA
ATOM     34  H5  UNL     1      20.686  27.211  10.153  1.00  0.00     0.165 HD
BRANCH  32  35
HETATM   35  O4  UNL     1      22.906  25.656  10.305  1.00  0.00    -0.294 OA
BRANCH  35  36
HETATM   36  C20 UNL     1      23.840  26.689  10.596  1.00  0.00     0.061 C 
HETATM   37  C21 UNL     1      23.816  27.082  12.054  1.00  0.00     0.046 C 
HETATM   38  C22 UNL     1      23.624  27.909   9.765  1.00  0.00     0.046 C 
HETATM   39  C23 UNL     1      25.213  26.120  10.265  1.00  0.00     0.046 C 
ENDBRANCH  35  36
ENDBRANCH  32  35
ENDBRANCH  28  31
ENDBRANCH  25  28
ENDBRANCH  23  24
ENDBRANCH   1  23
BRANCH   1  40
HETATM   40  C24 UNL     1      19.712  30.901  13.478  1.00  0.00     0.243 C 
HETATM   41  O5  UNL     1      19.644  31.419  12.324  1.00  0.00    -0.272 OA
HETATM   42  N6  UNL     1      18.607  30.987  14.296  1.00  0.00    -0.344 N 
HETATM   43  C25 UNL     1      18.428  30.469  15.597  1.00  0.00     0.170 C 
HETATM   44  C29 UNL     1      17.437  31.738  13.758  1.00  0.00     0.146 C 
HETATM   45  C26 UNL     1      17.702  31.380  16.546  1.00  0.00     0.077 C 
HETATM   46  N7  UNL     1      17.021  32.469  15.982  1.00  0.00    -0.394 N 
HETATM   47  C27 UNL     1      15.581  32.413  16.111  1.00  0.00     0.148 C 
HETATM   48  C28 UNL     1      17.374  32.933  14.696  1.00  0.00     0.141 C 
ENDBRANCH   1  40
TORSDOF 14
ENDMDL
MODEL 2
REMARK VINA RESULT: -8.695291884      1.730      3.819
REMARK  14 active torsions:
REMARK  status: ('A' for Active; 'I' for Inactive)
REMARK    1  A    between atoms: C2_2  and  C3_3 
REMARK    2  A    between atoms: C3_3  and  C4_4 
REMARK    3  A    between atoms: C6_9  and  N2_10 
REMARK    4  A    between atoms: C9_13  and  C10_14 
REMARK    5  A    between atoms: C10_14  and  N3_15 
REMARK       I    between atoms: N3_15  and  C11_17 
REMARK    6  A    between atoms: C11_17  and  C12_19 
REMARK    7  A    between atoms: C12_19  and  C14_21 
REMARK    8  A    between atoms: C12_19  and  C24_38 
REMARK    9  A    between atoms: C14_21  and  N4_22 
REMARK       I    between atoms: N4_22  and  C15_24 
REMARK   10  A    between atoms: C15_24  and  C16_26 
REMARK   11  A    between atoms: C16_26  and  C17_27 
REMARK   12  A    between atoms: C16_26  and  N5_29 
REMARK       I    between atoms: N5_29  and  C19_31 
REMARK   13  A    between atoms: C19_31  and  O4_33 
REMARK   14  A    between atoms: O4_33  and  C20_34 
REMARK       I    between atoms: C24_38  and  N6_40 
ROOT
HETATM    1  C12 UNL     1      18.257  30.277  13.962  1.00  0.00     0.150 C 
HETATM    2  C13 UNL     1      19.117  29.049  14.470  1.00  0.00     0.042 C 
ENDROOT
BRANCH   1   3
HETATM    3  C11 UNL     1      17.474  30.767  15.024  1.00  0.00     0.240 C 
HETATM    4  N3  UNL     1      16.528  31.804  15.009  1.00  0.00    -0.359 N 
ATOM      5  H3  UNL     1      16.452  32.322  14.134  1.00  0.00     0.162 HD
HETATM    6  O1  UNL     1      17.605  30.194  16.177  1.00  0.00    -0.272 OA
BRANCH   4   7
HETATM    7  C10 UNL     1      15.664  32.226  16.053  1.00  0.00     0.127 C 
BRANCH   7   8
HETATM    8  C9  UNL     1      15.504  33.676  16.297  1.00  0.00     0.006 C 
HETATM    9  C8  UNL     1      15.116  34.135  17.640  1.00  0.00     0.026 C 
HETATM   10  C7  UNL     1      15.500  35.527  17.988  1.00  0.00     0.124 C 
HETATM   11  N2  UNL     1      16.527  36.167  17.227  1.00  0.00    -0.374 N 
HETATM   12  C31 UNL     1      16.722  35.795  15.840  1.00  0.00     0.124 C 
HETATM   13  C30 UNL     1      16.856  34.296  15.833  1.00  0.00     0.026 C 
BRANCH  11  14
HETATM   14  C6  UNL     1      17.354  37.181  17.837  1.00  0.00     0.096 A 
HETATM   15  C4  UNL     1      18.497  37.052  18.584  1.00  0.00     0.043 A 
HETATM   16  N1  UNL     1      19.057  38.144  19.016  1.00  0.00    -0.361 N 
HETATM   17  C5  UNL     1      18.528  39.319  18.735  1.00  0.00     0.140 A 
ATOM     18  H1  UNL     1      19.909  38.091  19.574  1.00  0.00     0.165 HD
HETATM   19  S1  UNL     1      17.162  38.891  17.810  1.00  0.00    -0.065 SA
BRANCH  15  20
HETATM   20  C3  UNL     1      19.106  35.696  18.913  1.00  0.00     0.059 C 
BRANCH  20  21
HETATM   21  C2  UNL     1      20.063  35.278  17.835  1.00  0.00     0.002 C 
HETATM   22  C1  UNL     1      21.402  35.027  18.537  1.00  0.00     0.005 C 
ENDBRANCH  20  21
ENDBRANCH  15  20
ENDBRANCH  11  14
ENDBRANCH   7   8
ENDBRANCH   4   7
ENDBRANCH   1   3
BRANCH   1  23
HETATM   23  C14 UNL     1      17.735  29.845  12.665  1.00  0.00     0.092 C 
BRANCH  23  24
HETATM   24  N4  UNL     1      18.125  28.689  11.989  1.00  0.00    -0.337 N 
HETATM   25  C15 UNL     1      17.950  28.288  10.684  1.00  0.00     0.244 C 
HETATM   26  O2  UNL     1      17.393  28.961   9.806  1.00  0.00    -0.271 OA
ATOM     27  H4  UNL     1      18.632  28.019  12.566  1.00  0.00     0.168 HD
BRANCH  25  28
HETATM   28  C16 UNL     1      18.472  26.920  10.268  1.00  0.00     0.178 C 
BRANCH  28  29
HETATM   29  C17 UNL     1      17.840  26.590   8.933  1.00  0.00     0.030 C 
HETATM   30  C18 UNL     1      16.993  25.348   9.018  1.00  0.00     0.007 C 
ENDBRANCH  28  29
BRANCH  28  31
HETATM   31  N5  UNL     1      19.895  26.996  10.201  1.00  0.00    -0.324 N 
HETATM   32  C19 UNL     1      20.736  25.935  10.702  1.00  0.00     0.362 C 
HETATM   33  O3  UNL     1      20.188  24.905  11.217  1.00  0.00    -0.238 OA
ATOM     34  H5  UNL     1      20.329  27.821   9.788  1.00  0.00     0.165 HD
BRANCH  32  35
HETATM   35  O4  UNL     1      22.112  25.968  10.658  1.00  0.00    -0.294 OA
BRANCH  35  36
HETATM   36  C20 UNL     1      22.871  26.964  11.331  1.00  0.00     0.061 C 
HETATM   37  C21 UNL     1      22.153  27.500  12.547  1.00  0.00     0.046 C 
HETATM   38  C22 UNL     1      23.234  28.108  10.444  1.00  0.00     0.046 C 
HETATM   39  C23 UNL     1      24.155  26.282  11.782  1.00  0.00     0.046 C 
ENDBRANCH  35  36
ENDBRANCH  32  35
ENDBRANCH  28  31
ENDBRANCH  25  28
ENDBRANCH  23  24
ENDBRANCH   1  23
BRANCH   1  40
HETATM   40  C24 UNL     1      19.368  31.271  13.618  1.00  0.00     0.243 C 
HETATM   41  O5  UNL     1      19.493  31.498  12.378  1.00  0.00    -0.272 OA
HETATM   42  N6  UNL     1      20.217  31.921  14.487  1.00  0.00    -0.344 N 
HETATM   43  C25 UNL     1      20.256  31.857  15.896  1.00  0.00     0.170 C 
HETATM   44  C29 UNL     1      21.251  32.801  13.874  1.00  0.00     0.146 C 
HETATM   45  C26 UNL     1      21.635  31.811  16.489  1.00  0.00     0.077 C 
HETATM   46  N7  UNL     1      22.701  32.146  15.641  1.00  0.00    -0.394 N 
HETATM   47  C27 UNL     1      23.398  33.363  15.998  1.00  0.00     0.148 C 
HETATM   48  C28 UNL     1      22.537  32.077  14.240  1.00  0.00     0.141 C 
ENDBRANCH   1  40
TORSDOF 14
ENDMDL
MODEL 3
REMARK VINA RESULT: -8.603196863      1.911      2.618
REMARK  14 active torsions:
REMARK  status: ('A' for Active; 'I' for Inactive)
REMARK    1  A    between atoms: C2_2  and  C3_3 
REMARK    2  A    between atoms: C3_3  and  C4_4 
REMARK    3  A    between atoms: C6_9  and  N2_10 
REMARK    4  A    between atoms: C9_13  and  C10_14 
REMARK    5  A    between atoms: C10_14  and  N3_15 
REMARK       I    between atoms: N3_15  and  C11_17 
REMARK    6  A    between atoms: C11_17  and  C12_19 
REMARK    7  A    between atoms: C12_19  and  C14_21 
REMARK    8  A    between atoms: C12_19  and  C24_38 
REMARK    9  A    between atoms: C14_21  and  N4_22 
REMARK       I    between atoms: N4_22  and  C15_24 
REMARK   10  A    between atoms: C15_24  and  C16_26 
REMARK   11  A    between atoms: C16_26  and  C17_27 
REMARK   12  A    between atoms: C16_26  and  N5_29 
REMARK       I    between atoms: N5_29  and  C19_31 
REMARK   13  A    between atoms: C19_31  and  O4_33 
REMARK   14  A    between atoms: O4_33  and  C20_34 
REMARK       I    between atoms: C24_38  and  N6_40 
ROOT
HETATM    1  C12 UNL     1      22.061  32.199  15.366  1.00  0.00     0.150 C 
HETATM    2  C13 UNL     1      23.078  32.833  14.331  1.00  0.00     0.042 C 
ENDROOT
BRANCH   1   3
HETATM    3  C11 UNL     1      22.060  32.966  16.546  1.00  0.00     0.240 C 
HETATM    4  N3  UNL     1      21.755  34.327  16.706  1.00  0.00    -0.359 N 
ATOM      5  H3  UNL     1      21.585  34.848  15.845  1.00  0.00     0.162 HD
HETATM    6  O1  UNL     1      22.358  32.363  17.651  1.00  0.00    -0.272 OA
BRANCH   4   7
HETATM    7  C10 UNL     1      21.652  35.073  17.909  1.00  0.00     0.127 C 
BRANCH   7   8
HETATM    8  C9  UNL     1      21.473  36.539  17.819  1.00  0.00     0.006 C 
HETATM    9  C8  UNL     1      21.479  37.178  16.494  1.00  0.00     0.026 C 
HETATM   10  C7  UNL     1      20.769  38.480  16.396  1.00  0.00     0.124 C 
HETATM   11  N2  UNL     1      19.819  38.821  17.406  1.00  0.00    -0.374 N 
HETATM   12  C31 UNL     1      19.990  38.305  18.750  1.00  0.00     0.124 C 
HETATM   13  C30 UNL     1      20.153  36.816  18.598  1.00  0.00     0.026 C 
BRANCH  11  14
HETATM   14  C6  UNL     1      18.702  39.681  17.089  1.00  0.00     0.096 A 
HETATM   15  C4  UNL     1      17.374  39.378  16.939  1.00  0.00     0.043 A 
HETATM   16  N1  UNL     1      16.565  40.356  16.654  1.00  0.00    -0.361 N 
HETATM   17  C5  UNL     1      17.027  41.584  16.518  1.00  0.00     0.140 A 
ATOM     18  H1  UNL     1      15.569  40.173  16.535  1.00  0.00     0.165 HD
HETATM   19  S1  UNL     1      18.695  41.378  16.805  1.00  0.00    -0.065 SA
BRANCH  15  20
HETATM   20  C3  UNL     1      16.840  37.960  17.090  1.00  0.00     0.059 C 
BRANCH  20  21
HETATM   21  C2  UNL     1      16.276  37.758  18.465  1.00  0.00     0.002 C 
HETATM   22  C1  UNL     1      16.000  36.255  18.589  1.00  0.00     0.005 C 
ENDBRANCH  20  21
ENDBRANCH  15  20
ENDBRANCH  11  14
ENDBRANCH   7   8
ENDBRANCH   4   7
ENDBRANCH   1   3
BRANCH   1  23
HETATM   23  C14 UNL     1      22.324  30.761  15.301  1.00  0.00     0.092 C 
BRANCH  23  24
HETATM   24  N4  UNL     1      21.885  29.911  14.286  1.00  0.00    -0.337 N 
HETATM   25  C15 UNL     1      20.971  28.882  14.284  1.00  0.00     0.244 C 
HETATM   26  O2  UNL     1      20.303  28.527  15.266  1.00  0.00    -0.271 OA
ATOM     27  H4  UNL     1      22.320  30.083  13.380  1.00  0.00     0.168 HD
BRANCH  25  28
HETATM   28  C16 UNL     1      20.749  28.109  12.992  1.00  0.00     0.178 C 
BRANCH  28  29
HETATM   29  C17 UNL     1      20.278  29.105  11.954  1.00  0.00     0.030 C 
HETATM   30  C18 UNL     1      18.845  29.501  12.184  1.00  0.00     0.007 C 
ENDBRANCH  28  29
BRANCH  28  31
HETATM   31  N5  UNL     1      21.982  27.485  12.637  1.00  0.00    -0.324 N 
HETATM   32  C19 UNL     1      22.024  26.307  11.803  1.00  0.00     0.362 C 
HETATM   33  O3  UNL     1      20.928  25.816  11.374  1.00  0.00    -0.238 OA
ATOM     34  H5  UNL     1      22.856  27.881  12.983  1.00  0.00     0.165 HD
BRANCH  32  35
HETATM   35  O4  UNL     1      23.190  25.673  11.439  1.00  0.00    -0.294 OA
BRANCH  35  36
HETATM   36  C20 UNL     1      24.058  26.191  10.438  1.00  0.00     0.061 C 
HETATM   37  C21 UNL     1      23.640  27.569   9.982  1.00  0.00     0.046 C 
HETATM   38  C22 UNL     1      24.158  25.299   9.246  1.00  0.00     0.046 C 
HETATM   39  C23 UNL     1      25.434  26.286  11.082  1.00  0.00     0.046 C 
ENDBRANCH  35  36
ENDBRANCH  32  35
ENDBRANCH  28  31
ENDBRANCH  25  28
ENDBRANCH  23  24
ENDBRANCH   1  23
BRANCH   1  40
HETATM   40  C24 UNL     1      20.744  32.384  14.610  1.00  0.00     0.243 C 
HETATM   41  O5  UNL     1      20.886  32.637  13.377  1.00  0.00    -0.272 OA
HETATM   42  N6  UNL     1      19.465  32.308  15.115  1.00  0.00    -0.344 N 
HETATM   43  C25 UNL     1      19.051  32.015  16.432  1.00  0.00     0.170 C 
HETATM   44  C29 UNL     1      18.354  32.587  14.161  1.00  0.00     0.146 C 
HETATM   45  C26 UNL     1      17.905  32.846  16.936  1.00  0.00     0.077 C 
HETATM   46  N7  UNL     1      17.183  33.575  15.980  1.00  0.00    -0.394 N 
HETATM   47  C27 UNL     1      15.815  33.142  15.798  1.00  0.00     0.148 C 
HETATM   48  C28 UNL     1      17.768  33.870  14.728  1.00  0.00     0.141 C 
ENDBRANCH   1  40
TORSDOF 14
ENDMDL
MODEL 4
REMARK VINA RESULT: -8.573978011      1.667      3.918
REMARK  14 active torsions:
REMARK  status: ('A' for Active; 'I' for Inactive)
REMARK    1  A    between atoms: C2_2  and  C3_3 
REMARK    2  A    between atoms: C3_3  and  C4_4 
REMARK    3  A    between atoms: C6_9  and  N2_10 
REMARK    4  A    between atoms: C9_13  and  C10_14 
REMARK    5  A    between atoms: C10_14  and  N3_15 
REMARK       I    between atoms: N3_15  and  C11_17 
REMARK    6  A    between atoms: C11_17  and  C12_19 
REMARK    7  A    between atoms: C12_19  and  C14_21 
REMARK    8  A    between atoms: C12_19  and  C24_38 
REMARK    9  A    between atoms: C14_21  and  N4_22 
REMARK       I    between atoms: N4_22  and  C15_24 
REMARK   10  A    between atoms: C15_24  and  C16_26 
REMARK   11  A    between atoms: C16_26  and  C17_27 
REMARK   12  A    between atoms: C16_26  and  N5_29 
REMARK       I    between atoms: N5_29  and  C19_31 
REMARK   13  A    between atoms: C19_31  and  O4_33 
REMARK   14  A    between atoms: O4_33  and  C20_34 
REMARK       I    between atoms: C24_38  and  N6_40 
ROOT
HETATM    1  C12 UNL     1      17.914  31.433  14.168  1.00  0.00     0.150 C 
HETATM    2  C13 UNL     1      18.341  30.513  15.385  1.00  0.00     0.042 C 
ENDROOT
BRANCH   1   3
HETATM    3  C11 UNL     1      17.187  32.536  14.653  1.00  0.00     0.240 C 
HETATM    4  N3  UNL     1      16.188  32.561  15.640  1.00  0.00    -0.359 N 
ATOM      5  H3  UNL     1      15.897  31.652  16.000  1.00  0.00     0.162 HD
HETATM    6  O1  UNL     1      17.463  33.699  14.157  1.00  0.00    -0.272 OA
BRANCH   4   7
HETATM    7  C10 UNL     1      15.531  33.687  16.202  1.00  0.00     0.127 C 
BRANCH   7   8
HETATM    8  C9  UNL     1      16.204  34.427  17.292  1.00  0.00     0.006 C 
HETATM    9  C8  UNL     1      17.538  33.989  17.733  1.00  0.00     0.026 C 
HETATM   10  C7  UNL     1      18.380  35.025  18.385  1.00  0.00     0.124 C 
HETATM   11  N2  UNL     1      18.054  36.401  18.183  1.00  0.00    -0.374 N 
HETATM   12  C31 UNL     1      16.674  36.780  17.945  1.00  0.00     0.124 C 
HETATM   13  C30 UNL     1      16.202  35.909  16.812  1.00  0.00     0.026 C 
BRANCH  11  14
HETATM   14  C6  UNL     1      19.091  37.405  18.227  1.00  0.00     0.096 A 
HETATM   15  C4  UNL     1      20.363  37.378  17.716  1.00  0.00     0.043 A 
HETATM   16  N1  UNL     1      21.102  38.434  17.894  1.00  0.00    -0.361 N 
HETATM   17  C5  UNL     1      20.626  39.478  18.544  1.00  0.00     0.140 A 
ATOM     18  H1  UNL     1      22.054  38.454  17.528  1.00  0.00     0.165 HD
HETATM   19  S1  UNL     1      19.048  38.971  18.939  1.00  0.00    -0.065 SA
BRANCH  15  20
HETATM   20  C3  UNL     1      20.915  36.172  16.969  1.00  0.00     0.059 C 
BRANCH  20  21
HETATM   21  C2  UNL     1      22.242  35.767  17.540  1.00  0.00     0.002 C 
HETATM   22  C1  UNL     1      21.926  34.889  18.757  1.00  0.00     0.005 C 
ENDBRANCH  20  21
ENDBRANCH  15  20
ENDBRANCH  11  14
ENDBRANCH   7   8
ENDBRANCH   4   7
ENDBRANCH   1   3
BRANCH   1  23
HETATM   23  C14 UNL     1      17.436  30.494  13.152  1.00  0.00     0.092 C 
BRANCH  23  24
HETATM   24  N4  UNL     1      18.071  29.304  12.798  1.00  0.00    -0.337 N 
HETATM   25  C15 UNL     1      18.119  28.609  11.611  1.00  0.00     0.244 C 
HETATM   26  O2  UNL     1      17.583  28.975  10.556  1.00  0.00    -0.271 OA
ATOM     27  H4  UNL     1      18.596  28.869  13.556  1.00  0.00     0.168 HD
BRANCH  25  28
HETATM   28  C16 UNL     1      18.883  27.293  11.569  1.00  0.00     0.178 C 
BRANCH  28  29
HETATM   29  C17 UNL     1      18.086  26.345  10.699  1.00  0.00     0.030 C 
HETATM   30  C18 UNL     1      18.914  25.823   9.555  1.00  0.00     0.007 C 
ENDBRANCH  28  29
BRANCH  28  31
HETATM   31  N5  UNL     1      20.184  27.558  11.048  1.00  0.00    -0.324 N 
HETATM   32  C19 UNL     1      21.289  27.911  11.908  1.00  0.00     0.362 C 
HETATM   33  O3  UNL     1      21.091  27.986  13.166  1.00  0.00    -0.238 OA
ATOM     34  H5  UNL     1      20.338  27.497  10.041  1.00  0.00     0.165 HD
BRANCH  32  35
HETATM   35  O4  UNL     1      22.559  28.176  11.447  1.00  0.00    -0.294 OA
BRANCH  35  36
HETATM   36  C20 UNL     1      23.510  27.147  11.202  1.00  0.00     0.061 C 
HETATM   37  C21 UNL     1      22.928  25.771  11.425  1.00  0.00     0.046 C 
HETATM   38  C22 UNL     1      24.740  27.291  12.034  1.00  0.00     0.046 C 
HETATM   39  C23 UNL     1      23.905  27.279   9.737  1.00  0.00     0.046 C 
ENDBRANCH  35  36
ENDBRANCH  32  35
ENDBRANCH  28  31
ENDBRANCH  25  28
ENDBRANCH  23  24
ENDBRANCH   1  23
BRANCH   1  40
HETATM   40  C24 UNL     1      19.286  31.881  13.663  1.00  0.00     0.243 C 
HETATM   41  O5  UNL     1      19.430  31.789  12.407  1.00  0.00    -0.272 OA
HETATM   42  N6  UNL     1      20.344  32.356  14.406  1.00  0.00    -0.344 N 
HETATM   43  C25 UNL     1      20.418  32.575  15.798  1.00  0.00     0.170 C 
HETATM   44  C29 UNL     1      21.594  32.672  13.658  1.00  0.00     0.146 C 
HETATM   45  C26 UNL     1      21.718  32.173  16.433  1.00  0.00     0.077 C 
HETATM   46  N7  UNL     1      22.797  31.930  15.570  1.00  0.00    -0.394 N 
HETATM   47  C27 UNL     1      23.889  32.872  15.690  1.00  0.00     0.148 C 
HETATM   48  C28 UNL     1      22.560  31.636  14.210  1.00  0.00     0.141 C 
ENDBRANCH   1  40
TORSDOF 14
ENDMDL
MODEL 5
REMARK VINA RESULT: -8.454547879      3.589     10.668
REMARK  14 active torsions:
REMARK  status: ('A' for Active; 'I' for Inactive)
REMARK    1  A    between atoms: C2_2  and  C3_3 
REMARK    2  A    between atoms: C3_3  and  C4_4 
REMARK    3  A    between atoms: C6_9  and  N2_10 
REMARK    4  A    between atoms: C9_13  and  C10_14 
REMARK    5  A    between atoms: C10_14  and  N3_15 
REMARK       I    between atoms: N3_15  and  C11_17 
REMARK    6  A    between atoms: C11_17  and  C12_19 
REMARK    7  A    between atoms: C12_19  and  C14_21 
REMARK    8  A    between atoms: C12_19  and  C24_38 
REMARK    9  A    between atoms: C14_21  and  N4_22 
REMARK       I    between atoms: N4_22  and  C15_24 
REMARK   10  A    between atoms: C15_24  and  C16_26 
REMARK   11  A    between atoms: C16_26  and  C17_27 
REMARK   12  A    between atoms: C16_26  and  N5_29 
REMARK       I    between atoms: N5_29  and  C19_31 
REMARK   13  A    between atoms: C19_31  and  O4_33 
REMARK   14  A    between atoms: O4_33  and  C20_34 
REMARK       I    between atoms: C24_38  and  N6_40 
ROOT
HETATM    1  C12 UNL     1      21.167  31.425  14.093  1.00  0.00     0.150 C 
HETATM    2  C13 UNL     1      22.347  30.491  14.587  1.00  0.00     0.042 C 
ENDROOT
BRANCH   1   3
HETATM    3  C11 UNL     1      20.571  30.856  12.952  1.00  0.00     0.240 C 
HETATM    4  N3  UNL     1      19.947  29.605  12.821  1.00  0.00    -0.359 N 
ATOM      5  H3  UNL     1      19.997  28.997  13.638  1.00  0.00     0.162 HD
HETATM    6  O1  UNL     1      20.564  31.561  11.867  1.00  0.00    -0.272 OA
BRANCH   4   7
HETATM    7  C10 UNL     1      19.254  29.078  11.700  1.00  0.00     0.127 C 
BRANCH   7   8
HETATM    8  C9  UNL     1      19.534  27.685  11.287  1.00  0.00     0.006 C 
HETATM    9  C8  UNL     1      19.174  27.259   9.926  1.00  0.00     0.026 C 
HETATM   10  C7  UNL     1      19.938  26.107   9.381  1.00  0.00     0.124 C 
HETATM   11  N2  UNL     1      21.186  25.764   9.985  1.00  0.00    -0.374 N 
HETATM   12  C31 UNL     1      21.397  26.041  11.393  1.00  0.00     0.124 C 
HETATM   13  C30 UNL     1      21.053  27.494  11.579  1.00  0.00     0.026 C 
BRANCH  11  14
HETATM   14  C6  UNL     1      22.223  25.137   9.199  1.00  0.00     0.096 A 
HETATM   15  C4  UNL     1      23.538  25.489   9.038  1.00  0.00     0.043 A 
HETATM   16  N1  UNL     1      24.268  24.739   8.266  1.00  0.00    -0.361 N 
HETATM   17  C5  UNL     1      23.743  23.686   7.670  1.00  0.00     0.140 A 
ATOM     18  H1  UNL     1      25.252  24.966   8.120  1.00  0.00     0.165 HD
HETATM   19  S1  UNL     1      22.128  23.731   8.212  1.00  0.00    -0.065 SA
BRANCH  15  20
HETATM   20  C3  UNL     1      24.145  26.707   9.721  1.00  0.00     0.059 C 
BRANCH  20  21
HETATM   21  C2  UNL     1      25.145  26.282  10.755  1.00  0.00     0.002 C 
HETATM   22  C1  UNL     1      24.867  27.147  11.990  1.00  0.00     0.005 C 
ENDBRANCH  20  21
ENDBRANCH  15  20
ENDBRANCH  11  14
ENDBRANCH   7   8
ENDBRANCH   4   7
ENDBRANCH   1   3
BRANCH   1  23
HETATM   23  C14 UNL     1      21.719  32.779  14.164  1.00  0.00     0.092 C 
BRANCH  23  24
HETATM   24  N4  UNL     1      21.476  33.691  15.191  1.00  0.00    -0.337 N 
HETATM   25  C15 UNL     1      21.976  33.786  16.469  1.00  0.00     0.244 C 
HETATM   26  O2  UNL     1      22.827  33.026  16.954  1.00  0.00    -0.271 OA
ATOM     27  H4  UNL     1      20.804  34.420  14.951  1.00  0.00     0.168 HD
BRANCH  25  28
HETATM   28  C16 UNL     1      21.461  34.899  17.371  1.00  0.00     0.178 C 
BRANCH  28  29
HETATM   29  C17 UNL     1      21.980  36.204  16.807  1.00  0.00     0.030 C 
HETATM   30  C18 UNL     1      22.498  37.105  17.895  1.00  0.00     0.007 C 
ENDBRANCH  28  29
BRANCH  28  31
HETATM   31  N5  UNL     1      20.036  34.830  17.381  1.00  0.00    -0.324 N 
HETATM   32  C19 UNL     1      19.273  35.060  18.585  1.00  0.00     0.362 C 
HETATM   33  O3  UNL     1      19.895  35.331  19.665  1.00  0.00    -0.238 OA
ATOM     34  H5  UNL     1      19.544  34.613  16.514  1.00  0.00     0.165 HD
BRANCH  32  35
HETATM   35  O4  UNL     1      17.899  35.002  18.639  1.00  0.00    -0.294 OA
BRANCH  35  36
HETATM   36  C20 UNL     1      17.072  36.013  18.077  1.00  0.00     0.061 C 
HETATM   37  C21 UNL     1      16.929  35.864  16.581  1.00  0.00     0.046 C 
HETATM   38  C22 UNL     1      17.562  37.390  18.378  1.00  0.00     0.046 C 
HETATM   39  C23 UNL     1      15.702  35.842  18.719  1.00  0.00     0.046 C 
ENDBRANCH  35  36
ENDBRANCH  32  35
ENDBRANCH  28  31
ENDBRANCH  25  28
ENDBRANCH  23  24
ENDBRANCH   1  23
BRANCH   1  40
HETATM   40  C24 UNL     1      20.219  31.332  15.290  1.00  0.00     0.243 C 
HETATM   41  O5  UNL     1      20.616  30.551  16.205  1.00  0.00    -0.272 OA
HETATM   42  N6  UNL     1      19.021  31.988  15.469  1.00  0.00    -0.344 N 
HETATM   43  C25 UNL     1      18.389  32.919  14.618  1.00  0.00     0.170 C 
HETATM   44  C29 UNL     1      18.267  31.670  16.715  1.00  0.00     0.146 C 
HETATM   45  C26 UNL     1      16.900  32.758  14.498  1.00  0.00     0.077 C 
HETATM   46  N7  UNL     1      16.273  31.940  15.450  1.00  0.00    -0.394 N 
HETATM   47  C27 UNL     1      15.375  32.635  16.346  1.00  0.00     0.148 C 
HETATM   48  C28 UNL     1      17.027  30.984  16.166  1.00  0.00     0.141 C 
ENDBRANCH   1  40
TORSDOF 14
ENDMDL
