MODEL 1
REMARK VINA RESULT: -9.804721585      0.000      0.000
REMARK  14 active torsions:
REMARK  status: ('A' for Active; 'I' for Inactive)
REMARK    1  A    between atoms: C2_2  and  O1_3 
REMARK    2  A    between atoms: O1_3  and  C3_4 
REMARK    3  A    between atoms: C5_6  and  O2_7 
REMARK    4  A    between atoms: O2_7  and  C6_8 
REMARK    5  A    between atoms: C6_8  and  C7_10 
REMARK    6  A    between atoms: C9_12  and  O4_13 
REMARK    7  A    between atoms: C11_16  and  C12_17 
REMARK    8  A    between atoms: C12_17  and  C13_18 
REMARK    9  A    between atoms: C13_18  and  C14_19 
REMARK   10  A    between atoms: C14_19  and  C15_20 
REMARK   11  A    between atoms: C15_20  and  N1_21 
REMARK       I    between atoms: N1_21  and  C16_23 
REMARK   12  A    between atoms: C16_23  and  C17_25 
REMARK   13  A    between atoms: C26_36  and  O8_37 
REMARK   14  A    between atoms: O8_37  and  C27_38 
ROOT
HETATM    1  C6  UNL     1      21.496  31.659  13.254  1.00  0.00     0.288 C 
HETATM    2  O3  UNL     1      22.276  32.631  13.281  1.00  0.00    -0.262 OA
ENDROOT
BRANCH   1   3
HETATM    3  O2  UNL     1      21.594  30.744  12.246  1.00  0.00    -0.314 OA
BRANCH   3   4
HETATM    4  C5  UNL     1      21.276  29.346  12.395  1.00  0.00     0.139 C 
HETATM    5  C4  UNL     1      20.307  28.941  11.365  1.00  0.00     0.053 C 
HETATM    6  C3  UNL     1      18.964  28.422  11.915  1.00  0.00     0.141 C 
HETATM    7  C28 UNL     1      20.478  27.629  10.693  1.00  0.00     0.040 C 
HETATM    8  C29 UNL     1      19.005  27.422  10.817  1.00  0.00     0.016 C 
HETATM    9  C30 UNL     1      18.286  27.972   9.562  1.00  0.00     0.021 C 
HETATM   10  C33 UNL     1      18.432  26.120  10.983  1.00  0.00    -0.076 C 
HETATM   11  C31 UNL     1      18.388  26.680   8.718  1.00  0.00     0.028 C 
HETATM   12  C32 UNL     1      18.063  25.658   9.770  1.00  0.00    -0.023 C 
HETATM   13  C34 UNL     1      18.177  25.269  12.190  1.00  0.00     0.044 C 
HETATM   14  C26 UNL     1      21.415  26.717  11.386  1.00  0.00     0.142 C 
HETATM   15  C24 UNL     1      22.740  27.519  11.513  1.00  0.00     0.014 C 
HETATM   16  C23 UNL     1      22.548  28.608  12.503  1.00  0.00     0.039 C 
HETATM   17  C25 UNL     1      23.034  28.074  10.143  1.00  0.00     0.012 C 
BRANCH   6  18
HETATM   18  O1  UNL     1      19.148  28.008  13.196  1.00  0.00    -0.385 OA
BRANCH  18  19
HETATM   19  C2  UNL     1      18.208  28.531  14.100  1.00  0.00     0.163 C 
HETATM   20  C1  UNL     1      17.632  29.829  13.578  1.00  0.00     0.033 C 
ENDBRANCH  18  19
ENDBRANCH   6  18
BRANCH  14  21
HETATM   21  O8  UNL     1      21.727  25.549  10.645  1.00  0.00    -0.300 OA
BRANCH  21  22
HETATM   22  C27 UNL     1      22.993  25.015  10.552  1.00  0.00     0.373 C 
HETATM   23  N2  UNL     1      23.531  24.497   9.326  1.00  0.00    -0.032 NA
HETATM   24  O9  UNL     1      23.740  24.962  11.578  1.00  0.00    -0.242 OA
ENDBRANCH  21  22
ENDBRANCH  14  21
ENDBRANCH   3   4
ENDBRANCH   1   3
BRANCH   1  25
HETATM   25  C7  UNL     1      20.486  31.574  14.358  1.00  0.00     0.223 C 
HETATM   26  C8  UNL     1      21.086  30.766  15.440  1.00  0.00     0.074 C 
HETATM   27  C9  UNL     1      20.285  30.713  16.722  1.00  0.00     0.123 C 
HETATM   28  C10 UNL     1      19.148  31.707  16.639  1.00  0.00     0.063 C 
HETATM   29  C11 UNL     1      19.611  32.995  15.982  1.00  0.00     0.125 C 
HETATM   30  O7  UNL     1      19.945  32.778  14.649  1.00  0.00    -0.370 OA
BRANCH  27  31
HETATM   31  O4  UNL     1      19.829  29.453  17.042  1.00  0.00    -0.395 OA
ATOM     32  H4  UNL     1      19.802  29.281  17.976  1.00  0.00     0.210 HD
ENDBRANCH  27  31
BRANCH  29  33
HETATM   33  C12 UNL     1      20.751  33.627  16.748  1.00  0.00     0.032 C 
BRANCH  33  34
HETATM   34  C13 UNL     1      21.034  35.034  16.256  1.00  0.00     0.004 C 
BRANCH  34  35
HETATM   35  C14 UNL     1      21.653  35.884  17.321  1.00  0.00     0.020 C 
BRANCH  35  36
HETATM   36  C15 UNL     1      20.730  36.941  17.879  1.00  0.00     0.122 C 
BRANCH  36  37
HETATM   37  N1  UNL     1      19.482  36.314  18.242  1.00  0.00    -0.359 N 
HETATM   38  C16 UNL     1      18.267  36.956  17.996  1.00  0.00     0.247 C 
HETATM   39  O5  UNL     1      18.242  38.082  17.462  1.00  0.00    -0.271 OA
ATOM     40  H1  UNL     1      19.488  35.394  18.682  1.00  0.00     0.162 HD
BRANCH  38  41
HETATM   41  C17 UNL     1      16.982  36.300  18.371  1.00  0.00     0.221 C 
HETATM   42  O6  UNL     1      17.243  34.940  18.615  1.00  0.00    -0.367 OA
HETATM   43  C18 UNL     1      16.581  34.212  17.663  1.00  0.00     0.146 C 
HETATM   44  C19 UNL     1      15.115  34.371  17.949  1.00  0.00     0.001 C 
HETATM   45  C22 UNL     1      16.652  35.147  16.440  1.00  0.00     0.047 C 
HETATM   46  C20 UNL     1      14.773  35.645  17.679  1.00  0.00    -0.020 C 
HETATM   47  C21 UNL     1      16.000  36.305  17.224  1.00  0.00     0.049 C 
ENDBRANCH  38  41
ENDBRANCH  36  37
ENDBRANCH  35  36
ENDBRANCH  34  35
ENDBRANCH  33  34
ENDBRANCH  29  33
ENDBRANCH   1  25
TORSDOF 14
ENDMDL
MODEL 2
REMARK VINA RESULT: -9.771446440      1.079      1.197
REMARK  14 active torsions:
REMARK  status: ('A' for Active; 'I' for Inactive)
REMARK    1  A    between atoms: C2_2  and  O1_3 
REMARK    2  A    between atoms: O1_3  and  C3_4 
REMARK    3  A    between atoms: C5_6  and  O2_7 
REMARK    4  A    between atoms: O2_7  and  C6_8 
REMARK    5  A    between atoms: C6_8  and  C7_10 
REMARK    6  A    between atoms: C9_12  and  O4_13 
REMARK    7  A    between atoms: C11_16  and  C12_17 
REMARK    8  A    between atoms: C12_17  and  C13_18 
REMARK    9  A    between atoms: C13_18  and  C14_19 
REMARK   10  A    between atoms: C14_19  and  C15_20 
REMARK   11  A    between atoms: C15_20  and  N1_21 
REMARK       I    between atoms: N1_21  and  C16_23 
REMARK   12  A    between atoms: C16_23  and  C17_25 
REMARK   13  A    between atoms: C26_36  and  O8_37 
REMARK   14  A    between atoms: O8_37  and  C27_38 
ROOT
HETATM    1  C6  UNL     1      20.542  31.990  13.417  1.00  0.00     0.288 C 
HETATM    2  O3  UNL     1      19.775  32.611  12.657  1.00  0.00    -0.262 OA
ENDROOT
BRANCH   1   3
HETATM    3  O2  UNL     1      21.401  31.064  12.898  1.00  0.00    -0.314 OA
BRANCH   3   4
HETATM    4  C5  UNL     1      21.137  29.646  12.875  1.00  0.00     0.139 C 
HETATM    5  C4  UNL     1      20.130  29.343  11.845  1.00  0.00     0.053 C 
HETATM    6  C3  UNL     1      18.834  28.704  12.383  1.00  0.00     0.141 C 
HETATM    7  C28 UNL     1      20.309  28.138  10.999  1.00  0.00     0.040 C 
HETATM    8  C29 UNL     1      18.852  27.859  11.162  1.00  0.00     0.016 C 
HETATM    9  C30 UNL     1      18.052  28.540  10.026  1.00  0.00     0.021 C 
HETATM   10  C33 UNL     1      18.332  26.524  11.180  1.00  0.00    -0.076 C 
HETATM   11  C31 UNL     1      18.153  27.375   9.013  1.00  0.00     0.028 C 
HETATM   12  C32 UNL     1      17.916  26.212   9.935  1.00  0.00    -0.023 C 
HETATM   13  C34 UNL     1      18.166  25.514  12.273  1.00  0.00     0.044 C 
HETATM   14  C26 UNL     1      21.310  27.180  11.520  1.00  0.00     0.142 C 
HETATM   15  C24 UNL     1      22.612  28.010  11.691  1.00  0.00     0.014 C 
HETATM   16  C23 UNL     1      22.436  28.952  12.825  1.00  0.00     0.039 C 
HETATM   17  C25 UNL     1      22.818  28.751  10.394  1.00  0.00     0.012 C 
BRANCH   6  18
HETATM   18  O1  UNL     1      19.097  28.133  13.588  1.00  0.00    -0.385 OA
BRANCH  18  19
HETATM   19  C2  UNL     1      18.124  28.401  14.566  1.00  0.00     0.163 C 
HETATM   20  C1  UNL     1      17.832  29.884  14.634  1.00  0.00     0.033 C 
ENDBRANCH  18  19
ENDBRANCH   6  18
BRANCH  14  21
HETATM   21  O8  UNL     1      21.622  26.132  10.616  1.00  0.00    -0.300 OA
BRANCH  21  22
HETATM   22  C27 UNL     1      22.156  24.922  11.000  1.00  0.00     0.373 C 
HETATM   23  N2  UNL     1      23.512  24.547  10.718  1.00  0.00    -0.032 NA
HETATM   24  O9  UNL     1      21.443  24.081  11.630  1.00  0.00    -0.242 OA
ENDBRANCH  21  22
ENDBRANCH  14  21
ENDBRANCH   3   4
ENDBRANCH   1   3
BRANCH   1  25
HETATM   25  C7  UNL     1      20.457  32.317  14.877  1.00  0.00     0.223 C 
HETATM   26  C8  UNL     1      21.802  32.112  15.453  1.00  0.00     0.074 C 
HETATM   27  C9  UNL     1      21.961  32.562  16.888  1.00  0.00     0.123 C 
HETATM   28  C10 UNL     1      20.727  33.328  17.310  1.00  0.00     0.063 C 
HETATM   29  C11 UNL     1      20.250  34.232  16.186  1.00  0.00     0.125 C 
HETATM   30  O7  UNL     1      19.807  33.481  15.102  1.00  0.00    -0.370 OA
BRANCH  27  31
HETATM   31  O4  UNL     1      22.240  31.537  17.765  1.00  0.00    -0.395 OA
ATOM     32  H4  UNL     1      22.338  31.820  18.667  1.00  0.00     0.210 HD
ENDBRANCH  27  31
BRANCH  29  33
HETATM   33  C12 UNL     1      21.318  35.221  15.781  1.00  0.00     0.032 C 
BRANCH  33  34
HETATM   34  C13 UNL     1      21.676  36.149  16.928  1.00  0.00     0.004 C 
BRANCH  34  35
HETATM   35  C14 UNL     1      20.854  37.399  16.911  1.00  0.00     0.020 C 
BRANCH  35  36
HETATM   36  C15 UNL     1      20.236  37.748  18.244  1.00  0.00     0.122 C 
BRANCH  36  37
HETATM   37  N1  UNL     1      19.166  36.817  18.510  1.00  0.00    -0.359 N 
HETATM   38  C16 UNL     1      17.840  37.168  18.252  1.00  0.00     0.247 C 
HETATM   39  O5  UNL     1      17.561  38.291  17.790  1.00  0.00    -0.271 OA
ATOM     40  H1  UNL     1      19.381  35.896  18.891  1.00  0.00     0.162 HD
BRANCH  38  41
HETATM   41  C17 UNL     1      16.741  36.200  18.527  1.00  0.00     0.221 C 
HETATM   42  O6  UNL     1      17.302  34.912  18.593  1.00  0.00    -0.367 OA
HETATM   43  C18 UNL     1      16.798  34.184  17.549  1.00  0.00     0.146 C 
HETATM   44  C19 UNL     1      15.340  33.974  17.839  1.00  0.00     0.001 C 
HETATM   45  C22 UNL     1      16.635  35.261  16.459  1.00  0.00     0.047 C 
HETATM   46  C20 UNL     1      14.718  35.165  17.735  1.00  0.00    -0.020 C 
HETATM   47  C21 UNL     1      15.759  36.134  17.381  1.00  0.00     0.049 C 
ENDBRANCH  38  41
ENDBRANCH  36  37
ENDBRANCH  35  36
ENDBRANCH  34  35
ENDBRANCH  33  34
ENDBRANCH  29  33
ENDBRANCH   1  25
TORSDOF 14
ENDMDL
MODEL 3
REMARK VINA RESULT: -9.395012664      1.105      2.748
REMARK  14 active torsions:
REMARK  status: ('A' for Active; 'I' for Inactive)
REMARK    1  A    between atoms: C2_2  and  O1_3 
REMARK    2  A    between atoms: O1_3  and  C3_4 
REMARK    3  A    between atoms: C5_6  and  O2_7 
REMARK    4  A    between atoms: O2_7  and  C6_8 
REMARK    5  A    between atoms: C6_8  and  C7_10 
REMARK    6  A    between atoms: C9_12  and  O4_13 
REMARK    7  A    between atoms: C11_16  and  C12_17 
REMARK    8  A    between atoms: C12_17  and  C13_18 
REMARK    9  A    between atoms: C13_18  and  C14_19 
REMARK   10  A    between atoms: C14_19  and  C15_20 
REMARK   11  A    between atoms: C15_20  and  N1_21 
REMARK       I    between atoms: N1_21  and  C16_23 
REMARK   12  A    between atoms: C16_23  and  C17_25 
REMARK   13  A    between atoms: C26_36  and  O8_37 
REMARK   14  A    between atoms: O8_37  and  C27_38 
ROOT
HETATM    1  C6  UNL     1      21.059  31.474  13.347  1.00  0.00     0.288 C 
HETATM    2  O3  UNL     1      21.463  32.648  13.457  1.00  0.00    -0.262 OA
ENDROOT
BRANCH   1   3
HETATM    3  O2  UNL     1      21.735  30.603  12.542  1.00  0.00    -0.314 OA
BRANCH   3   4
HETATM    4  C5  UNL     1      21.506  29.179  12.527  1.00  0.00     0.139 C 
HETATM    5  C4  UNL     1      20.479  28.848  11.526  1.00  0.00     0.053 C 
HETATM    6  C3  UNL     1      19.216  28.178  12.100  1.00  0.00     0.141 C 
HETATM    7  C28 UNL     1      20.666  27.646  10.676  1.00  0.00     0.040 C 
HETATM    8  C29 UNL     1      19.222  27.331  10.879  1.00  0.00     0.016 C 
HETATM    9  C30 UNL     1      18.374  27.990   9.765  1.00  0.00     0.021 C 
HETATM   10  C33 UNL     1      18.736  25.984  10.913  1.00  0.00    -0.076 C 
HETATM   11  C31 UNL     1      18.477  26.826   8.752  1.00  0.00     0.028 C 
HETATM   12  C32 UNL     1      18.295  25.659   9.680  1.00  0.00    -0.023 C 
HETATM   13  C34 UNL     1      18.626  24.971  12.012  1.00  0.00     0.044 C 
HETATM   14  C26 UNL     1      21.705  26.716  11.171  1.00  0.00     0.142 C 
HETATM   15  C24 UNL     1      22.990  27.578  11.305  1.00  0.00     0.014 C 
HETATM   16  C23 UNL     1      22.821  28.517  12.442  1.00  0.00     0.039 C 
HETATM   17  C25 UNL     1      23.141  28.322  10.003  1.00  0.00     0.012 C 
BRANCH   6  18
HETATM   18  O1  UNL     1      19.526  27.616  13.298  1.00  0.00    -0.385 OA
BRANCH  18  19
HETATM   19  C2  UNL     1      18.572  27.859  14.301  1.00  0.00     0.163 C 
HETATM   20  C1  UNL     1      17.182  27.933  13.707  1.00  0.00     0.033 C 
ENDBRANCH  18  19
ENDBRANCH   6  18
BRANCH  14  21
HETATM   21  O8  UNL     1      22.019  25.674  10.260  1.00  0.00    -0.300 OA
BRANCH  21  22
HETATM   22  C27 UNL     1      23.162  24.911  10.333  1.00  0.00     0.373 C 
HETATM   23  N2  UNL     1      23.651  24.136   9.228  1.00  0.00    -0.032 NA
HETATM   24  O9  UNL     1      23.834  24.869  11.410  1.00  0.00    -0.242 OA
ENDBRANCH  21  22
ENDBRANCH  14  21
ENDBRANCH   3   4
ENDBRANCH   1   3
BRANCH   1  25
HETATM   25  C7  UNL     1      19.833  31.107  14.125  1.00  0.00     0.223 C 
HETATM   26  C8  UNL     1      20.111  31.398  15.546  1.00  0.00     0.074 C 
HETATM   27  C9  UNL     1      18.924  31.258  16.474  1.00  0.00     0.123 C 
HETATM   28  C10 UNL     1      17.670  31.060  15.652  1.00  0.00     0.063 C 
HETATM   29  C11 UNL     1      17.686  31.958  14.428  1.00  0.00     0.125 C 
HETATM   30  O7  UNL     1      18.704  31.586  13.556  1.00  0.00    -0.370 OA
BRANCH  27  31
HETATM   31  O4  UNL     1      19.069  30.264  17.417  1.00  0.00    -0.395 OA
ATOM     32  H4  UNL     1      18.418  29.575  17.351  1.00  0.00     0.210 HD
ENDBRANCH  27  31
BRANCH  29  33
HETATM   33  C12 UNL     1      17.787  33.416  14.814  1.00  0.00     0.032 C 
BRANCH  33  34
HETATM   34  C13 UNL     1      16.451  33.955  15.292  1.00  0.00     0.004 C 
BRANCH  34  35
HETATM   35  C14 UNL     1      16.421  35.451  15.295  1.00  0.00     0.020 C 
BRANCH  35  36
HETATM   36  C15 UNL     1      16.352  36.062  16.674  1.00  0.00     0.122 C 
BRANCH  36  37
HETATM   37  N1  UNL     1      17.692  36.380  17.102  1.00  0.00    -0.359 N 
HETATM   38  C16 UNL     1      18.364  35.553  18.004  1.00  0.00     0.247 C 
HETATM   39  O5  UNL     1      17.814  34.529  18.454  1.00  0.00    -0.271 OA
ATOM     40  H1  UNL     1      18.153  37.216  16.743  1.00  0.00     0.162 HD
BRANCH  38  41
HETATM   41  C17 UNL     1      19.750  35.886  18.438  1.00  0.00     0.221 C 
HETATM   42  O6  UNL     1      20.188  36.991  17.687  1.00  0.00    -0.367 OA
HETATM   43  C18 UNL     1      21.234  36.575  16.907  1.00  0.00     0.146 C 
HETATM   44  C19 UNL     1      22.372  36.281  17.842  1.00  0.00     0.001 C 
HETATM   45  C22 UNL     1      20.842  35.117  16.599  1.00  0.00     0.047 C 
HETATM   46  C20 UNL     1      22.050  35.189  18.561  1.00  0.00    -0.020 C 
HETATM   47  C21 UNL     1      20.720  34.779  18.099  1.00  0.00     0.049 C 
ENDBRANCH  38  41
ENDBRANCH  36  37
ENDBRANCH  35  36
ENDBRANCH  34  35
ENDBRANCH  33  34
ENDBRANCH  29  33
ENDBRANCH   1  25
TORSDOF 14
ENDMDL
MODEL 4
REMARK VINA RESULT: -9.367373045      1.760     10.689
REMARK  14 active torsions:
REMARK  status: ('A' for Active; 'I' for Inactive)
REMARK    1  A    between atoms: C2_2  and  O1_3 
REMARK    2  A    between atoms: O1_3  and  C3_4 
REMARK    3  A    between atoms: C5_6  and  O2_7 
REMARK    4  A    between atoms: O2_7  and  C6_8 
REMARK    5  A    between atoms: C6_8  and  C7_10 
REMARK    6  A    between atoms: C9_12  and  O4_13 
REMARK    7  A    between atoms: C11_16  and  C12_17 
REMARK    8  A    between atoms: C12_17  and  C13_18 
REMARK    9  A    between atoms: C13_18  and  C14_19 
REMARK   10  A    between atoms: C14_19  and  C15_20 
REMARK   11  A    between atoms: C15_20  and  N1_21 
REMARK       I    between atoms: N1_21  and  C16_23 
REMARK   12  A    between atoms: C16_23  and  C17_25 
REMARK   13  A    between atoms: C26_36  and  O8_37 
REMARK   14  A    between atoms: O8_37  and  C27_38 
ROOT
HETATM    1  C6  UNL     1      19.379  31.669  12.948  1.00  0.00     0.288 C 
HETATM    2  O3  UNL     1      20.011  32.301  12.080  1.00  0.00    -0.262 OA
ENDROOT
BRANCH   1   3
HETATM    3  O2  UNL     1      18.627  32.350  13.862  1.00  0.00    -0.314 OA
BRANCH   3   4
HETATM    4  C5  UNL     1      19.015  32.546  15.237  1.00  0.00     0.139 C 
HETATM    5  C4  UNL     1      19.649  33.865  15.394  1.00  0.00     0.053 C 
HETATM    6  C3  UNL     1      21.109  33.821  15.887  1.00  0.00     0.141 C 
HETATM    7  C28 UNL     1      19.325  34.680  16.592  1.00  0.00     0.040 C 
HETATM    8  C29 UNL     1      20.775  35.020  16.699  1.00  0.00     0.016 C 
HETATM    9  C30 UNL     1      21.076  36.310  15.901  1.00  0.00     0.021 C 
HETATM   10  C33 UNL     1      21.408  35.255  17.962  1.00  0.00    -0.076 C 
HETATM   11  C31 UNL     1      20.767  37.304  17.045  1.00  0.00     0.028 C 
HETATM   12  C32 UNL     1      21.417  36.585  18.193  1.00  0.00    -0.023 C 
HETATM   13  C34 UNL     1      22.032  34.340  18.971  1.00  0.00     0.044 C 
HETATM   14  C26 UNL     1      18.661  33.920  17.674  1.00  0.00     0.142 C 
HETATM   15  C24 UNL     1      17.410  33.281  17.010  1.00  0.00     0.014 C 
HETATM   16  C23 UNL     1      17.853  32.212  16.080  1.00  0.00     0.039 C 
HETATM   17  C25 UNL     1      16.709  34.391  16.267  1.00  0.00     0.012 C 
BRANCH   6  18
HETATM   18  O1  UNL     1      21.322  32.635  16.513  1.00  0.00    -0.385 OA
BRANCH  18  19
HETATM   19  C2  UNL     1      22.513  31.997  16.127  1.00  0.00     0.163 C 
HETATM   20  C1  UNL     1      23.020  32.562  14.818  1.00  0.00     0.033 C 
ENDBRANCH  18  19
ENDBRANCH   6  18
BRANCH  14  21
HETATM   21  O8  UNL     1      18.177  34.734  18.730  1.00  0.00    -0.300 OA
BRANCH  21  22
HETATM   22  C27 UNL     1      17.216  35.707  18.569  1.00  0.00     0.373 C 
HETATM   23  N2  UNL     1      15.840  35.507  18.926  1.00  0.00    -0.032 NA
HETATM   24  O9  UNL     1      17.529  36.839  18.086  1.00  0.00    -0.242 OA
ENDBRANCH  21  22
ENDBRANCH  14  21
ENDBRANCH   3   4
ENDBRANCH   1   3
BRANCH   1  25
HETATM   25  C7  UNL     1      19.500  30.176  12.920  1.00  0.00     0.223 C 
HETATM   26  C8  UNL     1      18.321  29.627  13.621  1.00  0.00     0.074 C 
HETATM   27  C9  UNL     1      18.172  28.123  13.543  1.00  0.00     0.123 C 
HETATM   28  C10 UNL     1      19.176  27.573  12.556  1.00  0.00     0.063 C 
HETATM   29  C11 UNL     1      19.281  28.478  11.341  1.00  0.00     0.125 C 
HETATM   30  O7  UNL     1      19.817  29.714  11.690  1.00  0.00    -0.370 OA
BRANCH  27  31
HETATM   31  O4  UNL     1      18.268  27.491  14.763  1.00  0.00    -0.395 OA
ATOM     32  H4  UNL     1      18.086  28.057  15.504  1.00  0.00     0.210 HD
ENDBRANCH  27  31
BRANCH  29  33
HETATM   33  C12 UNL     1      17.947  28.624  10.644  1.00  0.00     0.032 C 
BRANCH  33  34
HETATM   34  C13 UNL     1      17.591  27.373   9.864  1.00  0.00     0.004 C 
BRANCH  34  35
HETATM   35  C14 UNL     1      18.666  26.997   8.891  1.00  0.00     0.020 C 
BRANCH  35  36
HETATM   36  C15 UNL     1      19.131  25.566   9.012  1.00  0.00     0.122 C 
BRANCH  36  37
HETATM   37  N1  UNL     1      20.573  25.555   9.059  1.00  0.00    -0.359 N 
HETATM   38  C16 UNL     1      21.243  25.100  10.196  1.00  0.00     0.247 C 
HETATM   39  O5  UNL     1      20.605  24.698  11.189  1.00  0.00    -0.271 OA
ATOM     40  H1  UNL     1      21.107  25.883   8.255  1.00  0.00     0.162 HD
BRANCH  38  41
HETATM   41  C17 UNL     1      22.732  25.088  10.235  1.00  0.00     0.221 C 
HETATM   42  O6  UNL     1      23.132  25.119  11.583  1.00  0.00    -0.367 OA
HETATM   43  C18 UNL     1      23.788  26.301  11.796  1.00  0.00     0.146 C 
HETATM   44  C19 UNL     1      25.074  26.221  11.024  1.00  0.00     0.001 C 
HETATM   45  C22 UNL     1      23.040  27.256  10.846  1.00  0.00     0.047 C 
HETATM   46  C20 UNL     1      24.774  26.248   9.711  1.00  0.00    -0.020 C 
HETATM   47  C21 UNL     1      23.314  26.344   9.632  1.00  0.00     0.049 C 
ENDBRANCH  38  41
ENDBRANCH  36  37
ENDBRANCH  35  36
ENDBRANCH  34  35
ENDBRANCH  33  34
ENDBRANCH  29  33
ENDBRANCH   1  25
TORSDOF 14
ENDMDL
MODEL 5
REMARK VINA RESULT: -9.323413594      1.464      2.613
REMARK  14 active torsions:
REMARK  status: ('A' for Active; 'I' for Inactive)
REMARK    1  A    between atoms: C2_2  and  O1_3 
REMARK    2  A    between atoms: O1_3  and  C3_4 
REMARK    3  A    between atoms: C5_6  and  O2_7 
REMARK    4  A    between atoms: O2_7  and  C6_8 
REMARK    5  A    between atoms: C6_8  and  C7_10 
REMARK    6  A    between atoms: C9_12  and  O4_13 
REMARK    7  A    between atoms: C11_16  and  C12_17 
REMARK    8  A    between atoms: C12_17  and  C13_18 
REMARK    9  A    between atoms: C13_18  and  C14_19 
REMARK   10  A    between atoms: C14_19  and  C15_20 
REMARK   11  A    between atoms: C15_20  and  N1_21 
REMARK       I    between atoms: N1_21  and  C16_23 
REMARK   12  A    between atoms: C16_23  and  C17_25 
REMARK   13  A    between atoms: C26_36  and  O8_37 
REMARK   14  A    between atoms: O8_37  and  C27_38 
ROOT
HETATM    1  C6  UNL     1      20.973  31.540  12.901  1.00  0.00     0.288 C 
HETATM    2  O3  UNL     1      20.230  32.186  12.137  1.00  0.00    -0.262 OA
ENDROOT
BRANCH   1   3
HETATM    3  O2  UNL     1      21.763  30.549  12.391  1.00  0.00    -0.314 OA
BRANCH   3   4
HETATM    4  C5  UNL     1      21.433  29.147  12.452  1.00  0.00     0.139 C 
HETATM    5  C4  UNL     1      20.416  28.829  11.436  1.00  0.00     0.053 C 
HETATM    6  C3  UNL     1      19.090  28.285  12.002  1.00  0.00     0.141 C 
HETATM    7  C28 UNL     1      20.542  27.567  10.664  1.00  0.00     0.040 C 
HETATM    8  C29 UNL     1      19.073  27.368  10.834  1.00  0.00     0.016 C 
HETATM    9  C30 UNL     1      18.311  28.015   9.654  1.00  0.00     0.021 C 
HETATM   10  C33 UNL     1      18.491  26.062  10.929  1.00  0.00    -0.076 C 
HETATM   11  C31 UNL     1      18.361  26.788   8.714  1.00  0.00     0.028 C 
HETATM   12  C32 UNL     1      18.066  25.695   9.702  1.00  0.00    -0.023 C 
HETATM   13  C34 UNL     1      18.273  25.128  12.081  1.00  0.00     0.044 C 
HETATM   14  C26 UNL     1      21.495  26.598  11.249  1.00  0.00     0.142 C 
HETATM   15  C24 UNL     1      22.834  27.374  11.379  1.00  0.00     0.014 C 
HETATM   16  C23 UNL     1      22.698  28.390  12.452  1.00  0.00     0.039 C 
HETATM   17  C25 UNL     1      23.080  28.025  10.041  1.00  0.00     0.012 C 
BRANCH   6  18
HETATM   18  O1  UNL     1      19.321  27.776  13.241  1.00  0.00    -0.385 OA
BRANCH  18  19
HETATM   19  C2  UNL     1      18.518  28.344  14.245  1.00  0.00     0.163 C 
HETATM   20  C1  UNL     1      17.570  29.365  13.654  1.00  0.00     0.033 C 
ENDBRANCH  18  19
ENDBRANCH   6  18
BRANCH  14  21
HETATM   21  O8  UNL     1      21.761  25.484  10.413  1.00  0.00    -0.300 OA
BRANCH  21  22
HETATM   22  C27 UNL     1      22.961  24.809  10.392  1.00  0.00     0.373 C 
HETATM   23  N2  UNL     1      23.429  24.090   9.242  1.00  0.00    -0.032 NA
HETATM   24  O9  UNL     1      23.707  24.803  11.420  1.00  0.00    -0.242 OA
ENDBRANCH  21  22
ENDBRANCH  14  21
ENDBRANCH   3   4
ENDBRANCH   1   3
BRANCH   1  25
HETATM   25  C7  UNL     1      20.939  31.912  14.352  1.00  0.00     0.223 C 
HETATM   26  C8  UNL     1      21.512  33.269  14.471  1.00  0.00     0.074 C 
HETATM   27  C9  UNL     1      21.401  33.893  15.845  1.00  0.00     0.123 C 
HETATM   28  C10 UNL     1      20.513  33.031  16.714  1.00  0.00     0.063 C 
HETATM   29  C11 UNL     1      19.326  32.515  15.919  1.00  0.00     0.125 C 
HETATM   30  O7  UNL     1      19.742  31.643  14.919  1.00  0.00    -0.370 OA
BRANCH  27  31
HETATM   31  O4  UNL     1      22.617  34.130  16.447  1.00  0.00    -0.395 OA
ATOM     32  H4  UNL     1      23.042  33.346  16.774  1.00  0.00     0.210 HD
ENDBRANCH  27  31
BRANCH  29  33
HETATM   33  C12 UNL     1      18.500  33.652  15.361  1.00  0.00     0.032 C 
BRANCH  33  34
HETATM   34  C13 UNL     1      17.187  33.151  14.788  1.00  0.00     0.004 C 
BRANCH  34  35
HETATM   35  C14 UNL     1      16.543  32.133  15.677  1.00  0.00     0.020 C 
BRANCH  35  36
HETATM   36  C15 UNL     1      15.347  32.652  16.439  1.00  0.00     0.122 C 
BRANCH  36  37
HETATM   37  N1  UNL     1      15.416  34.092  16.475  1.00  0.00    -0.359 N 
HETATM   38  C16 UNL     1      15.412  34.774  17.694  1.00  0.00     0.247 C 
HETATM   39  O5  UNL     1      15.346  34.147  18.769  1.00  0.00    -0.271 OA
ATOM     40  H1  UNL     1      15.468  34.618  15.602  1.00  0.00     0.162 HD
BRANCH  38  41
HETATM   41  C17 UNL     1      15.488  36.262  17.722  1.00  0.00     0.221 C 
HETATM   42  O6  UNL     1      16.192  36.683  16.580  1.00  0.00    -0.367 OA
HETATM   43  C18 UNL     1      17.355  37.270  17.002  1.00  0.00     0.146 C 
HETATM   44  C19 UNL     1      16.964  38.543  17.694  1.00  0.00     0.001 C 
HETATM   45  C22 UNL     1      17.688  36.447  18.262  1.00  0.00     0.047 C 
HETATM   46  C20 UNL     1      16.331  38.219  18.838  1.00  0.00    -0.020 C 
HETATM   47  C21 UNL     1      16.311  36.754  18.888  1.00  0.00     0.049 C 
ENDBRANCH  38  41
ENDBRANCH  36  37
ENDBRANCH  35  36
ENDBRANCH  34  35
ENDBRANCH  33  34
ENDBRANCH  29  33
ENDBRANCH   1  25
TORSDOF 14
ENDMDL
