MODEL 1
REMARK VINA RESULT: -8.951308132      0.000      0.000
REMARK  13 active torsions:
REMARK  status: ('A' for Active; 'I' for Inactive)
REMARK    1  A    between atoms: O1_2  and  C2_3 
REMARK    2  A    between atoms: C4_5  and  O2_6 
REMARK    3  A    between atoms: C6_9  and  O3_10 
REMARK    4  A    between atoms: O3_10  and  S1_11 
REMARK    5  A    between atoms: S1_11  and  C7_14 
REMARK    6  A    between atoms: C7_14  and  C8_15 
REMARK    7  A    between atoms: C8_15  and  C9_16 
REMARK    8  A    between atoms: C9_16  and  C10_17 
REMARK    9  A    between atoms: C10_17  and  C11_18 
REMARK   10  A    between atoms: C11_18  and  C12_19 
REMARK   11  A    between atoms: C12_19  and  C13_20 
REMARK   12  A    between atoms: C13_20  and  C14_21 
REMARK       I    between atoms: C14_21  and  N1_23 
REMARK   13  A    between atoms: C15_25  and  C17_27 
ROOT
HETATM    1  C2  UNL     1      21.062  32.740  14.507  1.00  0.00     0.128 C 
HETATM    2  C3  UNL     1      21.701  31.758  13.506  1.00  0.00     0.071 C 
HETATM    3  C4  UNL     1      21.479  30.356  13.999  1.00  0.00     0.077 C 
HETATM    4  C5  UNL     1      22.181  29.370  13.143  1.00  0.00     0.072 C 
HETATM    5  C6  UNL     1      21.577  29.085  11.829  1.00  0.00     0.152 C 
HETATM    6  C18 UNL     1      20.118  29.506  11.724  1.00  0.00     0.112 C 
HETATM    7  C19 UNL     1      19.438  29.552  13.011  1.00  0.00     0.141 C 
HETATM    8  O8  UNL     1      18.258  29.209  13.085  1.00  0.00    -0.297 OA
HETATM    9  C20 UNL     1      20.077  29.997  14.283  1.00  0.00     0.052 C 
HETATM   10  C21 UNL     1      20.063  28.769  15.204  1.00  0.00     0.027 C 
HETATM   11  C22 UNL     1      19.236  31.055  14.909  1.00  0.00     0.011 C 
HETATM   12  C23 UNL     1      19.105  30.921  16.407  1.00  0.00     0.007 C 
HETATM   13  C24 UNL     1      18.216  31.936  17.022  1.00  0.00     0.018 C 
HETATM   14  C25 UNL     1      18.151  33.263  16.380  1.00  0.00     0.021 C 
HETATM   15  C26 UNL     1      18.725  34.335  17.328  1.00  0.00     0.024 C 
HETATM   16  C27 UNL     1      16.724  33.686  16.192  1.00  0.00     0.135 C 
HETATM   17  O9  UNL     1      15.800  33.345  16.898  1.00  0.00    -0.297 OA
HETATM   18  C28 UNL     1      16.665  34.591  14.992  1.00  0.00     0.079 C 
HETATM   19  C29 UNL     1      17.582  33.812  14.074  1.00  0.00     0.013 C 
HETATM   20  C30 UNL     1      18.721  33.465  15.047  1.00  0.00     0.008 C 
HETATM   21  C31 UNL     1      19.592  32.425  14.458  1.00  0.00     0.025 C 
ENDROOT
BRANCH   5  22
HETATM   22  O3  UNL     1      21.719  27.749  11.452  1.00  0.00    -0.270 OA
BRANCH  22  23
HETATM   23  S1  UNL     1      23.145  27.306  10.803  1.00  0.00     0.265 S 
HETATM   24  O4  UNL     1      24.258  27.217  11.832  1.00  0.00    -0.199 OA
HETATM   25  O5  UNL     1      23.584  28.264   9.688  1.00  0.00    -0.199 OA
BRANCH  23  26
HETATM   26  C7  UNL     1      23.053  25.724  10.040  1.00  0.00     0.171 C 
BRANCH  26  27
HETATM   27  C8  UNL     1      23.962  25.510   8.883  1.00  0.00     0.017 C 
BRANCH  27  28
HETATM   28  C9  UNL     1      23.304  25.216   7.588  1.00  0.00     0.001 C 
BRANCH  28  29
HETATM   29  C10 UNL     1      21.993  24.486   7.836  1.00  0.00     0.000 C 
BRANCH  29  30
HETATM   30  C11 UNL     1      21.291  24.129   6.573  1.00  0.00     0.000 C 
BRANCH  30  31
HETATM   31  C12 UNL     1      20.841  25.271   5.724  1.00  0.00     0.009 C 
BRANCH  31  32
HETATM   32  C13 UNL     1      19.343  25.192   5.551  1.00  0.00     0.103 C 
BRANCH  32  33
HETATM   33  C14 UNL     1      18.577  26.184   6.302  1.00  0.00     0.222 C 
HETATM   34  O6  UNL     1      17.702  26.885   5.741  1.00  0.00    -0.273 OA
HETATM   35  N1  UNL     1      18.871  26.319   7.695  1.00  0.00    -0.327 N 
HETATM   36  C15 UNL     1      18.123  25.829   8.623  1.00  0.00     0.073 C 
ATOM     37  H1  UNL     1      19.713  26.827   7.967  1.00  0.00     0.168 HD
HETATM   38  C16 UNL     1      16.880  25.072   8.300  1.00  0.00     0.074 C 
BRANCH  36  39
HETATM   39  C17 UNL     1      18.507  26.019  10.001  1.00  0.00     0.277 C 
HETATM   40  N2  UNL     1      19.454  25.182  10.631  1.00  0.00    -0.056 NA
HETATM   41  O7  UNL     1      17.991  26.954  10.672  1.00  0.00    -0.270 OA
ENDBRANCH  36  39
ENDBRANCH  32  33
ENDBRANCH  31  32
ENDBRANCH  30  31
ENDBRANCH  29  30
ENDBRANCH  28  29
ENDBRANCH  27  28
ENDBRANCH  26  27
ENDBRANCH  23  26
ENDBRANCH  22  23
ENDBRANCH   5  22
BRANCH   3  42
HETATM   42  O2  UNL     1      22.170  30.310  15.253  1.00  0.00    -0.388 OA
ATOM     43  H2  UNL     1      23.078  30.473  15.025  1.00  0.00     0.210 HD
ENDBRANCH   3  42
BRANCH   1  44
HETATM   44  O1  UNL     1      21.670  32.586  15.716  1.00  0.00    -0.390 OA
HETATM   45  C1  UNL     1      22.251  33.819  16.099  1.00  0.00     0.202 C 
ENDBRANCH   1  44
TORSDOF 13
ENDMDL
MODEL 2
REMARK VINA RESULT: -8.645999296      1.234      2.493
REMARK  13 active torsions:
REMARK  status: ('A' for Active; 'I' for Inactive)
REMARK    1  A    between atoms: O1_2  and  C2_3 
REMARK    2  A    between atoms: C4_5  and  O2_6 
REMARK    3  A    between atoms: C6_9  and  O3_10 
REMARK    4  A    between atoms: O3_10  and  S1_11 
REMARK    5  A    between atoms: S1_11  and  C7_14 
REMARK    6  A    between atoms: C7_14  and  C8_15 
REMARK    7  A    between atoms: C8_15  and  C9_16 
REMARK    8  A    between atoms: C9_16  and  C10_17 
REMARK    9  A    between atoms: C10_17  and  C11_18 
REMARK   10  A    between atoms: C11_18  and  C12_19 
REMARK   11  A    between atoms: C12_19  and  C13_20 
REMARK   12  A    between atoms: C13_20  and  C14_21 
REMARK       I    between atoms: C14_21  and  N1_23 
REMARK   13  A    between atoms: C15_25  and  C17_27 
ROOT
HETATM    1  C2  UNL     1      21.055  32.826  14.620  1.00  0.00     0.128 C 
HETATM    2  C3  UNL     1      21.748  31.891  13.611  1.00  0.00     0.071 C 
HETATM    3  C4  UNL     1      21.536  30.469  14.047  1.00  0.00     0.077 C 
HETATM    4  C5  UNL     1      22.287  29.526  13.184  1.00  0.00     0.072 C 
HETATM    5  C6  UNL     1      21.735  29.276  11.840  1.00  0.00     0.152 C 
HETATM    6  C18 UNL     1      20.272  29.674  11.697  1.00  0.00     0.112 C 
HETATM    7  C19 UNL     1      19.547  29.663  12.959  1.00  0.00     0.141 C 
HETATM    8  O8  UNL     1      18.372  29.296  12.980  1.00  0.00    -0.297 OA
HETATM    9  C20 UNL     1      20.131  30.075  14.268  1.00  0.00     0.052 C 
HETATM   10  C21 UNL     1      20.109  28.815  15.146  1.00  0.00     0.027 C 
HETATM   11  C22 UNL     1      19.249  31.095  14.899  1.00  0.00     0.011 C 
HETATM   12  C23 UNL     1      19.067  30.907  16.386  1.00  0.00     0.007 C 
HETATM   13  C24 UNL     1      18.138  31.883  17.002  1.00  0.00     0.018 C 
HETATM   14  C25 UNL     1      18.070  33.231  16.404  1.00  0.00     0.021 C 
HETATM   15  C26 UNL     1      18.590  34.279  17.408  1.00  0.00     0.024 C 
HETATM   16  C27 UNL     1      16.642  33.634  16.180  1.00  0.00     0.135 C 
HETATM   17  O9  UNL     1      15.701  33.252  16.840  1.00  0.00    -0.297 OA
HETATM   18  C28 UNL     1      16.609  34.579  15.010  1.00  0.00     0.079 C 
HETATM   19  C29 UNL     1      17.573  33.848  14.099  1.00  0.00     0.013 C 
HETATM   20  C30 UNL     1      18.682  33.489  15.101  1.00  0.00     0.008 C 
HETATM   21  C31 UNL     1      19.594  32.486  14.508  1.00  0.00     0.025 C 
ENDROOT
BRANCH   5  22
HETATM   22  O3  UNL     1      21.916  27.957  11.423  1.00  0.00    -0.270 OA
BRANCH  22  23
HETATM   23  S1  UNL     1      23.307  27.603  10.655  1.00  0.00     0.265 S 
HETATM   24  O4  UNL     1      24.497  27.531  11.596  1.00  0.00    -0.199 OA
HETATM   25  O5  UNL     1      23.619  28.618   9.548  1.00  0.00    -0.199 OA
BRANCH  23  26
HETATM   26  C7  UNL     1      23.228  26.046   9.842  1.00  0.00     0.171 C 
BRANCH  26  27
HETATM   27  C8  UNL     1      21.963  25.285  10.024  1.00  0.00     0.017 C 
BRANCH  27  28
HETATM   28  C9  UNL     1      21.646  24.879  11.414  1.00  0.00     0.001 C 
BRANCH  28  29
HETATM   29  C10 UNL     1      20.139  24.795  11.590  1.00  0.00     0.000 C 
BRANCH  29  30
HETATM   30  C11 UNL     1      19.468  26.109  11.390  1.00  0.00     0.000 C 
BRANCH  30  31
HETATM   31  C12 UNL     1      18.186  26.085  10.625  1.00  0.00     0.009 C 
BRANCH  31  32
HETATM   32  C13 UNL     1      18.475  26.395   9.176  1.00  0.00     0.103 C 
BRANCH  32  33
HETATM   33  C14 UNL     1      18.547  25.232   8.294  1.00  0.00     0.222 C 
HETATM   34  O6  UNL     1      17.625  24.383   8.266  1.00  0.00    -0.273 OA
HETATM   35  N1  UNL     1      19.711  25.106   7.472  1.00  0.00    -0.327 N 
HETATM   36  C15 UNL     1      19.719  25.387   6.215  1.00  0.00     0.073 C 
ATOM     37  H1  UNL     1      20.577  24.779   7.902  1.00  0.00     0.168 HD
HETATM   38  C16 UNL     1      18.493  25.873   5.520  1.00  0.00     0.074 C 
BRANCH  36  39
HETATM   39  C17 UNL     1      20.945  25.227   5.472  1.00  0.00     0.277 C 
HETATM   40  N2  UNL     1      22.207  25.256   6.106  1.00  0.00    -0.056 NA
HETATM   41  O7  UNL     1      20.905  25.055   4.223  1.00  0.00    -0.270 OA
ENDBRANCH  36  39
ENDBRANCH  32  33
ENDBRANCH  31  32
ENDBRANCH  30  31
ENDBRANCH  29  30
ENDBRANCH  28  29
ENDBRANCH  27  28
ENDBRANCH  26  27
ENDBRANCH  23  26
ENDBRANCH  22  23
ENDBRANCH   5  22
BRANCH   3  42
HETATM   42  O2  UNL     1      22.183  30.392  15.322  1.00  0.00    -0.388 OA
ATOM     43  H2  UNL     1      22.788  31.125  15.322  1.00  0.00     0.210 HD
ENDBRANCH   3  42
BRANCH   1  44
HETATM   44  O1  UNL     1      21.623  32.641  15.845  1.00  0.00    -0.390 OA
HETATM   45  C1  UNL     1      22.174  33.869  16.287  1.00  0.00     0.202 C 
ENDBRANCH   1  44
TORSDOF 13
ENDMDL
MODEL 3
REMARK VINA RESULT: -8.592006703      2.046      3.539
REMARK  13 active torsions:
REMARK  status: ('A' for Active; 'I' for Inactive)
REMARK    1  A    between atoms: O1_2  and  C2_3 
REMARK    2  A    between atoms: C4_5  and  O2_6 
REMARK    3  A    between atoms: C6_9  and  O3_10 
REMARK    4  A    between atoms: O3_10  and  S1_11 
REMARK    5  A    between atoms: S1_11  and  C7_14 
REMARK    6  A    between atoms: C7_14  and  C8_15 
REMARK    7  A    between atoms: C8_15  and  C9_16 
REMARK    8  A    between atoms: C9_16  and  C10_17 
REMARK    9  A    between atoms: C10_17  and  C11_18 
REMARK   10  A    between atoms: C11_18  and  C12_19 
REMARK   11  A    between atoms: C12_19  and  C13_20 
REMARK   12  A    between atoms: C13_20  and  C14_21 
REMARK       I    between atoms: C14_21  and  N1_23 
REMARK   13  A    between atoms: C15_25  and  C17_27 
ROOT
HETATM    1  C2  UNL     1      20.870  31.941  13.233  1.00  0.00     0.128 C 
HETATM    2  C3  UNL     1      20.931  30.815  12.183  1.00  0.00     0.071 C 
HETATM    3  C4  UNL     1      20.804  29.493  12.885  1.00  0.00     0.077 C 
HETATM    4  C5  UNL     1      20.982  28.365  11.941  1.00  0.00     0.072 C 
HETATM    5  C6  UNL     1      19.856  28.077  11.034  1.00  0.00     0.152 C 
HETATM    6  C18 UNL     1      18.536  28.686  11.487  1.00  0.00     0.112 C 
HETATM    7  C19 UNL     1      18.470  28.911  12.924  1.00  0.00     0.141 C 
HETATM    8  O8  UNL     1      17.404  28.738  13.515  1.00  0.00    -0.297 OA
HETATM    9  C20 UNL     1      19.624  29.350  13.760  1.00  0.00     0.052 C 
HETATM   10  C21 UNL     1      19.882  28.199  14.744  1.00  0.00     0.027 C 
HETATM   11  C22 UNL     1      19.231  30.552  14.545  1.00  0.00     0.011 C 
HETATM   12  C23 UNL     1      19.731  30.539  15.970  1.00  0.00     0.007 C 
HETATM   13  C24 UNL     1      19.286  31.705  16.770  1.00  0.00     0.018 C 
HETATM   14  C25 UNL     1      19.084  32.982  16.059  1.00  0.00     0.021 C 
HETATM   15  C26 UNL     1      20.104  34.027  16.554  1.00  0.00     0.024 C 
HETATM   16  C27 UNL     1      17.759  33.583  16.424  1.00  0.00     0.135 C 
HETATM   17  O9  UNL     1      17.190  33.419  17.481  1.00  0.00    -0.297 OA
HETATM   18  C28 UNL     1      17.287  34.404  15.255  1.00  0.00     0.079 C 
HETATM   19  C29 UNL     1      17.653  33.446  14.141  1.00  0.00     0.013 C 
HETATM   20  C30 UNL     1      19.056  33.014  14.596  1.00  0.00     0.008 C 
HETATM   21  C31 UNL     1      19.494  31.827  13.829  1.00  0.00     0.025 C 
ENDROOT
BRANCH   5  22
HETATM   22  O3  UNL     1      19.697  26.712  10.793  1.00  0.00    -0.270 OA
BRANCH  22  23
HETATM   23  S1  UNL     1      18.809  26.282   9.498  1.00  0.00     0.265 S 
HETATM   24  O4  UNL     1      18.283  27.477   8.723  1.00  0.00    -0.199 OA
HETATM   25  O5  UNL     1      17.622  25.393   9.893  1.00  0.00    -0.199 OA
BRANCH  23  26
HETATM   26  C7  UNL     1      19.740  25.324   8.354  1.00  0.00     0.171 C 
BRANCH  26  27
HETATM   27  C8  UNL     1      19.089  25.072   7.041  1.00  0.00     0.017 C 
BRANCH  27  28
HETATM   28  C9  UNL     1      19.684  25.773   5.879  1.00  0.00     0.001 C 
BRANCH  28  29
HETATM   29  C10 UNL     1      20.322  24.758   4.944  1.00  0.00     0.000 C 
BRANCH  29  30
HETATM   30  C11 UNL     1      21.807  24.749   5.040  1.00  0.00     0.000 C 
BRANCH  30  31
HETATM   31  C12 UNL     1      22.444  23.424   5.297  1.00  0.00     0.009 C 
BRANCH  31  32
HETATM   32  C13 UNL     1      22.408  23.143   6.780  1.00  0.00     0.103 C 
BRANCH  32  33
HETATM   33  C14 UNL     1      23.637  23.458   7.503  1.00  0.00     0.222 C 
HETATM   34  O6  UNL     1      24.739  23.524   6.908  1.00  0.00    -0.273 OA
HETATM   35  N1  UNL     1      23.528  23.682   8.911  1.00  0.00    -0.327 N 
HETATM   36  C15 UNL     1      23.552  24.856   9.441  1.00  0.00     0.073 C 
ATOM     37  H1  UNL     1      23.425  22.873   9.525  1.00  0.00     0.168 HD
HETATM   38  C16 UNL     1      23.697  26.082   8.606  1.00  0.00     0.074 C 
BRANCH  36  39
HETATM   39  C17 UNL     1      23.434  24.977  10.874  1.00  0.00     0.277 C 
HETATM   40  N2  UNL     1      24.532  25.353  11.681  1.00  0.00    -0.056 NA
HETATM   41  O7  UNL     1      22.329  24.745  11.435  1.00  0.00    -0.270 OA
ENDBRANCH  36  39
ENDBRANCH  32  33
ENDBRANCH  31  32
ENDBRANCH  30  31
ENDBRANCH  29  30
ENDBRANCH  28  29
ENDBRANCH  27  28
ENDBRANCH  26  27
ENDBRANCH  23  26
ENDBRANCH  22  23
ENDBRANCH   5  22
BRANCH   3  42
HETATM   42  O2  UNL     1      21.950  29.438  13.742  1.00  0.00    -0.388 OA
ATOM     43  H2  UNL     1      21.602  29.158  14.581  1.00  0.00     0.210 HD
ENDBRANCH   3  42
BRANCH   1  44
HETATM   44  O1  UNL     1      21.913  31.787  14.096  1.00  0.00    -0.390 OA
HETATM   45  C1  UNL     1      22.680  32.978  14.108  1.00  0.00     0.202 C 
ENDBRANCH   1  44
TORSDOF 13
ENDMDL
MODEL 4
REMARK VINA RESULT: -8.568915643      1.338      2.474
REMARK  13 active torsions:
REMARK  status: ('A' for Active; 'I' for Inactive)
REMARK    1  A    between atoms: O1_2  and  C2_3 
REMARK    2  A    between atoms: C4_5  and  O2_6 
REMARK    3  A    between atoms: C6_9  and  O3_10 
REMARK    4  A    between atoms: O3_10  and  S1_11 
REMARK    5  A    between atoms: S1_11  and  C7_14 
REMARK    6  A    between atoms: C7_14  and  C8_15 
REMARK    7  A    between atoms: C8_15  and  C9_16 
REMARK    8  A    between atoms: C9_16  and  C10_17 
REMARK    9  A    between atoms: C10_17  and  C11_18 
REMARK   10  A    between atoms: C11_18  and  C12_19 
REMARK   11  A    between atoms: C12_19  and  C13_20 
REMARK   12  A    between atoms: C13_20  and  C14_21 
REMARK       I    between atoms: C14_21  and  N1_23 
REMARK   13  A    between atoms: C15_25  and  C17_27 
ROOT
HETATM    1  C2  UNL     1      21.025  32.843  14.645  1.00  0.00     0.128 C 
HETATM    2  C3  UNL     1      21.712  31.887  13.651  1.00  0.00     0.071 C 
HETATM    3  C4  UNL     1      21.500  30.474  14.115  1.00  0.00     0.077 C 
HETATM    4  C5  UNL     1      22.245  29.514  13.268  1.00  0.00     0.072 C 
HETATM    5  C6  UNL     1      21.687  29.238  11.932  1.00  0.00     0.152 C 
HETATM    6  C18 UNL     1      20.224  29.636  11.786  1.00  0.00     0.112 C 
HETATM    7  C19 UNL     1      19.504  29.651  13.052  1.00  0.00     0.141 C 
HETATM    8  O8  UNL     1      18.329  29.287  13.084  1.00  0.00    -0.297 OA
HETATM    9  C20 UNL     1      20.095  30.087  14.350  1.00  0.00     0.052 C 
HETATM   10  C21 UNL     1      20.074  28.845  15.252  1.00  0.00     0.027 C 
HETATM   11  C22 UNL     1      19.217  31.121  14.964  1.00  0.00     0.011 C 
HETATM   12  C23 UNL     1      19.041  30.962  16.456  1.00  0.00     0.007 C 
HETATM   13  C24 UNL     1      18.116  31.952  17.057  1.00  0.00     0.018 C 
HETATM   14  C25 UNL     1      18.048  33.288  16.433  1.00  0.00     0.021 C 
HETATM   15  C26 UNL     1      18.574  34.354  17.414  1.00  0.00     0.024 C 
HETATM   16  C27 UNL     1      16.620  33.689  16.207  1.00  0.00     0.135 C 
HETATM   17  O9  UNL     1      15.681  33.321  16.878  1.00  0.00    -0.297 OA
HETATM   18  C28 UNL     1      16.583  34.611  15.019  1.00  0.00     0.079 C 
HETATM   19  C29 UNL     1      17.542  33.861  14.118  1.00  0.00     0.013 C 
HETATM   20  C30 UNL     1      18.655  33.520  15.122  1.00  0.00     0.008 C 
HETATM   21  C31 UNL     1      19.563  32.503  14.545  1.00  0.00     0.025 C 
ENDROOT
BRANCH   5  22
HETATM   22  O3  UNL     1      21.864  27.910  11.539  1.00  0.00    -0.270 OA
BRANCH  22  23
HETATM   23  S1  UNL     1      23.253  27.538  10.777  1.00  0.00     0.265 S 
HETATM   24  O4  UNL     1      24.446  27.497  11.715  1.00  0.00    -0.199 OA
HETATM   25  O5  UNL     1      23.559  28.521   9.640  1.00  0.00    -0.199 OA
BRANCH  23  26
HETATM   26  C7  UNL     1      23.175  25.958  10.010  1.00  0.00     0.171 C 
BRANCH  26  27
HETATM   27  C8  UNL     1      21.823  25.343   9.931  1.00  0.00     0.017 C 
BRANCH  27  28
HETATM   28  C9  UNL     1      21.246  24.881  11.216  1.00  0.00     0.001 C 
BRANCH  28  29
HETATM   29  C10 UNL     1      19.782  25.283  11.291  1.00  0.00     0.000 C 
BRANCH  29  30
HETATM   30  C11 UNL     1      19.440  26.370  10.333  1.00  0.00     0.000 C 
BRANCH  30  31
HETATM   31  C12 UNL     1      17.993  26.526  10.003  1.00  0.00     0.009 C 
BRANCH  31  32
HETATM   32  C13 UNL     1      17.612  25.491   8.972  1.00  0.00     0.103 C 
BRANCH  32  33
HETATM   33  C14 UNL     1      18.460  25.456   7.783  1.00  0.00     0.222 C 
HETATM   34  O6  UNL     1      19.255  24.508   7.583  1.00  0.00    -0.273 OA
HETATM   35  N1  UNL     1      18.344  26.547   6.865  1.00  0.00    -0.327 N 
HETATM   36  C15 UNL     1      17.702  26.464   5.751  1.00  0.00     0.073 C 
ATOM     37  H1  UNL     1      18.790  27.433   7.104  1.00  0.00     0.168 HD
HETATM   38  C16 UNL     1      17.023  25.203   5.337  1.00  0.00     0.074 C 
BRANCH  36  39
HETATM   39  C17 UNL     1      17.642  27.622   4.892  1.00  0.00     0.277 C 
HETATM   40  N2  UNL     1      16.755  27.688   3.794  1.00  0.00    -0.056 NA
HETATM   41  O7  UNL     1      18.395  28.608   5.116  1.00  0.00    -0.270 OA
ENDBRANCH  36  39
ENDBRANCH  32  33
ENDBRANCH  31  32
ENDBRANCH  30  31
ENDBRANCH  29  30
ENDBRANCH  28  29
ENDBRANCH  27  28
ENDBRANCH  26  27
ENDBRANCH  23  26
ENDBRANCH  22  23
ENDBRANCH   5  22
BRANCH   3  42
HETATM   42  O2  UNL     1      22.151  30.421  15.389  1.00  0.00    -0.388 OA
ATOM     43  H2  UNL     1      22.506  29.541  15.433  1.00  0.00     0.210 HD
ENDBRANCH   3  42
BRANCH   1  44
HETATM   44  O1  UNL     1      21.597  32.681  15.870  1.00  0.00    -0.390 OA
HETATM   45  C1  UNL     1      22.144  33.918  16.290  1.00  0.00     0.202 C 
ENDBRANCH   1  44
TORSDOF 13
ENDMDL
MODEL 5
REMARK VINA RESULT: -8.544699729      2.456      4.783
REMARK  13 active torsions:
REMARK  status: ('A' for Active; 'I' for Inactive)
REMARK    1  A    between atoms: O1_2  and  C2_3 
REMARK    2  A    between atoms: C4_5  and  O2_6 
REMARK    3  A    between atoms: C6_9  and  O3_10 
REMARK    4  A    between atoms: O3_10  and  S1_11 
REMARK    5  A    between atoms: S1_11  and  C7_14 
REMARK    6  A    between atoms: C7_14  and  C8_15 
REMARK    7  A    between atoms: C8_15  and  C9_16 
REMARK    8  A    between atoms: C9_16  and  C10_17 
REMARK    9  A    between atoms: C10_17  and  C11_18 
REMARK   10  A    between atoms: C11_18  and  C12_19 
REMARK   11  A    between atoms: C12_19  and  C13_20 
REMARK   12  A    between atoms: C13_20  and  C14_21 
REMARK       I    between atoms: C14_21  and  N1_23 
REMARK   13  A    between atoms: C15_25  and  C17_27 
ROOT
HETATM    1  C2  UNL     1      21.319  29.142  12.114  1.00  0.00     0.128 C 
HETATM    2  C3  UNL     1      20.772  28.277  10.961  1.00  0.00     0.071 C 
HETATM    3  C4  UNL     1      19.728  27.348  11.510  1.00  0.00     0.077 C 
HETATM    4  C5  UNL     1      19.254  26.402  10.471  1.00  0.00     0.072 C 
HETATM    5  C6  UNL     1      18.342  26.946   9.449  1.00  0.00     0.152 C 
HETATM    6  C18 UNL     1      17.687  28.260   9.850  1.00  0.00     0.112 C 
HETATM    7  C19 UNL     1      17.595  28.440  11.292  1.00  0.00     0.141 C 
HETATM    8  O8  UNL     1      16.607  28.994  11.772  1.00  0.00    -0.297 OA
HETATM    9  C20 UNL     1      18.636  27.993  12.263  1.00  0.00     0.052 C 
HETATM   10  C21 UNL     1      17.954  26.932  13.140  1.00  0.00     0.027 C 
HETATM   11  C22 UNL     1      19.018  29.138  13.133  1.00  0.00     0.011 C 
HETATM   12  C23 UNL     1      19.197  28.767  14.586  1.00  0.00     0.007 C 
HETATM   13  C24 UNL     1      19.514  29.919  15.462  1.00  0.00     0.018 C 
HETATM   14  C25 UNL     1      20.285  31.032  14.873  1.00  0.00     0.021 C 
HETATM   15  C26 UNL     1      21.662  31.139  15.557  1.00  0.00     0.024 C 
HETATM   16  C27 UNL     1      19.632  32.346  15.187  1.00  0.00     0.135 C 
HETATM   17  O9  UNL     1      18.961  32.571  16.170  1.00  0.00    -0.297 OA
HETATM   18  C28 UNL     1      19.964  33.303  14.074  1.00  0.00     0.079 C 
HETATM   19  C29 UNL     1      19.763  32.367  12.901  1.00  0.00     0.013 C 
HETATM   20  C30 UNL     1      20.476  31.109  13.425  1.00  0.00     0.008 C 
HETATM   21  C31 UNL     1      20.135  29.945  12.578  1.00  0.00     0.025 C 
ENDROOT
BRANCH   5  22
HETATM   22  O3  UNL     1      17.369  26.026   9.055  1.00  0.00    -0.270 OA
BRANCH  22  23
HETATM   23  S1  UNL     1      17.785  24.945   7.911  1.00  0.00     0.265 S 
HETATM   24  O4  UNL     1      17.011  23.644   8.021  1.00  0.00    -0.199 OA
HETATM   25  O5  UNL     1      19.286  24.627   7.948  1.00  0.00    -0.199 OA
BRANCH  23  26
HETATM   26  C7  UNL     1      17.487  25.560   6.290  1.00  0.00     0.171 C 
BRANCH  26  27
HETATM   27  C8  UNL     1      18.657  26.170   5.604  1.00  0.00     0.017 C 
BRANCH  27  28
HETATM   28  C9  UNL     1      18.954  25.654   4.247  1.00  0.00     0.001 C 
BRANCH  28  29
HETATM   29  C10 UNL     1      20.095  24.652   4.322  1.00  0.00     0.000 C 
BRANCH  29  30
HETATM   30  C11 UNL     1      21.181  25.092   5.239  1.00  0.00     0.000 C 
BRANCH  30  31
HETATM   31  C12 UNL     1      22.380  24.207   5.313  1.00  0.00     0.009 C 
BRANCH  31  32
HETATM   32  C13 UNL     1      22.362  23.467   6.628  1.00  0.00     0.103 C 
BRANCH  32  33
HETATM   33  C14 UNL     1      23.592  23.560   7.412  1.00  0.00     0.222 C 
HETATM   34  O6  UNL     1      24.716  23.486   6.863  1.00  0.00    -0.273 OA
HETATM   35  N1  UNL     1      23.454  23.736   8.825  1.00  0.00    -0.327 N 
HETATM   36  C15 UNL     1      23.630  24.869   9.413  1.00  0.00     0.073 C 
ATOM     37  H1  UNL     1      23.205  22.927   9.393  1.00  0.00     0.168 HD
HETATM   38  C16 UNL     1      23.993  26.095   8.646  1.00  0.00     0.074 C 
BRANCH  36  39
HETATM   39  C17 UNL     1      23.468  24.943  10.845  1.00  0.00     0.277 C 
HETATM   40  N2  UNL     1      24.547  25.267  11.699  1.00  0.00    -0.056 NA
HETATM   41  O7  UNL     1      22.340  24.717  11.362  1.00  0.00    -0.270 OA
ENDBRANCH  36  39
ENDBRANCH  32  33
ENDBRANCH  31  32
ENDBRANCH  30  31
ENDBRANCH  29  30
ENDBRANCH  28  29
ENDBRANCH  27  28
ENDBRANCH  26  27
ENDBRANCH  23  26
ENDBRANCH  22  23
ENDBRANCH   5  22
BRANCH   3  42
HETATM   42  O2  UNL     1      20.440  26.533  12.448  1.00  0.00    -0.388 OA
ATOM     43  H2  UNL     1      19.944  26.619  13.254  1.00  0.00     0.210 HD
ENDBRANCH   3  42
BRANCH   1  44
HETATM   44  O1  UNL     1      21.889  28.321  13.040  1.00  0.00    -0.390 OA
HETATM   45  C1  UNL     1      23.282  28.250  12.798  1.00  0.00     0.202 C 
ENDBRANCH   1  44
TORSDOF 13
ENDMDL
