MODEL 1
REMARK VINA RESULT: -7.233742270      0.000      0.000
REMARK  14 active torsions:
REMARK  status: ('A' for Active; 'I' for Inactive)
REMARK    1  A    between atoms: C2_2  and  C3_3 
REMARK    2  A    between atoms: C3_3  and  N1_4 
REMARK    3  A    between atoms: N1_4  and  C4_5 
REMARK       I    between atoms: N1_4  and  C6_7 
REMARK    4  A    between atoms: C6_7  and  C7_9 
REMARK    5  A    between atoms: C7_9  and  N2_10 
REMARK    6  A    between atoms: C7_9  and  C15_21 
REMARK       I    between atoms: N2_10  and  C8_12 
REMARK    7  A    between atoms: C8_12  and  C9_14 
REMARK    8  A    between atoms: C9_14  and  N3_15 
REMARK    9  A    between atoms: C15_21  and  N4_22 
REMARK       I    between atoms: N4_22  and  C16_24 
REMARK   10  A    between atoms: C16_24  and  O4_26 
REMARK   11  A    between atoms: O4_26  and  C17_27 
REMARK   12  A    between atoms: C21_35  and  O5_36 
REMARK   13  A    between atoms: O5_36  and  C22_37 
REMARK   14  A    between atoms: C22_37  and  C23_39 
ROOT
HETATM    1  C15 UNL     1      20.394  31.375  14.432  1.00  0.00     0.131 C 
HETATM    2  C19 UNL     1      20.413  31.627  15.924  1.00  0.00     0.328 C 
HETATM    3  C20 UNL     1      20.102  30.539  16.796  1.00  0.00     0.095 C 
HETATM    4  N5  UNL     1      19.815  29.678  17.546  1.00  0.00    -0.195 NA
HETATM    5  N6  UNL     1      21.610  32.293  16.353  1.00  0.00    -0.021 N 
ATOM      6  H61 UNL     1      22.428  31.695  16.236  1.00  0.00     0.282 HD
ATOM      7  H62 UNL     1      21.632  32.400  17.367  1.00  0.00     0.282 HD
HETATM    8  C21 UNL     1      21.791  33.564  15.687  1.00  0.00     0.263 C 
HETATM    9  C29 UNL     1      20.581  33.908  14.816  1.00  0.00     0.107 C 
HETATM   10  C30 UNL     1      20.659  32.772  13.846  1.00  0.00     0.160 C 
HETATM   11  O7  UNL     1      22.043  32.800  13.493  1.00  0.00    -0.373 OA
HETATM   12  C31 UNL     1      22.754  33.321  14.526  1.00  0.00     0.182 C 
HETATM   13  C32 UNL     1      23.926  32.551  15.018  1.00  0.00     0.044 C 
ENDROOT
BRANCH   1  14
HETATM   14  C7  UNL     1      18.994  30.859  14.074  1.00  0.00     0.210 C 
BRANCH  14  15
HETATM   15  C6  UNL     1      18.852  30.379  12.688  1.00  0.00     0.245 C 
HETATM   16  N1  UNL     1      18.170  29.193  12.247  1.00  0.00    -0.351 N 
HETATM   17  O1  UNL     1      19.360  31.033  11.708  1.00  0.00    -0.271 OA
BRANCH  16  18
HETATM   18  C3  UNL     1      17.412  28.442  13.196  1.00  0.00     0.125 C 
BRANCH  18  19
HETATM   19  C2  UNL     1      17.956  27.116  13.598  1.00  0.00     0.015 C 
HETATM   20  C1  UNL     1      18.111  26.091  12.525  1.00  0.00     0.006 C 
ENDBRANCH  18  19
ENDBRANCH  16  18
BRANCH  16  21
HETATM   21  C4  UNL     1      18.364  28.743  10.858  1.00  0.00     0.121 C 
HETATM   22  C5  UNL     1      17.109  28.575  10.075  1.00  0.00     0.026 C 
ENDBRANCH  16  21
ENDBRANCH  14  15
BRANCH  14  23
HETATM   23  N2  UNL     1      18.087  32.051  14.130  1.00  0.00    -0.344 N 
HETATM   24  C8  UNL     1      17.077  32.207  15.089  1.00  0.00     0.235 C 
HETATM   25  O2  UNL     1      16.829  31.364  15.995  1.00  0.00    -0.272 OA
ATOM     26  H2  UNL     1      18.212  32.786  13.435  1.00  0.00     0.163 HD
BRANCH  24  27
HETATM   27  C9  UNL     1      16.230  33.428  15.063  1.00  0.00     0.219 C 
BRANCH  27  28
HETATM   28  N3  UNL     1      16.237  34.183  16.271  1.00  0.00    -0.404 N 
HETATM   29  C10 UNL     1      15.053  34.191  17.041  1.00  0.00     0.117 C 
HETATM   30  C11 UNL     1      15.385  34.604  18.468  1.00  0.00     0.019 C 
HETATM   31  C12 UNL     1      16.153  35.895  18.456  1.00  0.00     0.003 C 
HETATM   32  C13 UNL     1      16.163  36.459  17.057  1.00  0.00     0.019 C 
HETATM   33  C14 UNL     1      16.853  35.453  16.146  1.00  0.00     0.117 C 
ENDBRANCH  27  28
ENDBRANCH  24  27
ENDBRANCH  14  23
ENDBRANCH   1  14
BRANCH   1  34
HETATM   34  N4  UNL     1      21.440  30.539  13.938  1.00  0.00    -0.319 N 
HETATM   35  C16 UNL     1      21.750  29.185  14.041  1.00  0.00     0.361 C 
HETATM   36  O3  UNL     1      21.152  28.277  14.637  1.00  0.00    -0.238 OA
ATOM     37  H4  UNL     1      22.119  31.054  13.377  1.00  0.00     0.165 HD
BRANCH  35  38
HETATM   38  O4  UNL     1      22.917  28.718  13.385  1.00  0.00    -0.304 OA
BRANCH  38  39
HETATM   39  C17 UNL     1      22.748  27.730  12.356  1.00  0.00     0.176 C 
HETATM   40  C18 UNL     1      22.091  28.361  11.150  1.00  0.00     0.034 C 
ENDBRANCH  38  39
ENDBRANCH  35  38
ENDBRANCH   1  34
BRANCH   8  41
HETATM   41  O5  UNL     1      22.227  34.594  16.497  1.00  0.00    -0.278 OA
BRANCH  41  42
HETATM   42  C22 UNL     1      21.768  34.926  17.732  1.00  0.00     0.265 C 
HETATM   43  O6  UNL     1      21.737  34.052  18.629  1.00  0.00    -0.265 OA
BRANCH  42  44
HETATM   44  C23 UNL     1      21.306  36.305  18.030  1.00  0.00     0.085 C 
HETATM   45  C24 UNL     1      21.569  37.113  16.773  1.00  0.00     0.014 C 
HETATM   46  C25 UNL     1      20.944  38.477  16.810  1.00  0.00     0.001 C 
HETATM   47  C26 UNL     1      19.502  38.452  17.213  1.00  0.00     0.000 C 
HETATM   48  C27 UNL     1      19.400  37.755  18.553  1.00  0.00     0.001 C 
HETATM   49  C28 UNL     1      19.808  36.323  18.361  1.00  0.00     0.014 C 
ENDBRANCH  42  44
ENDBRANCH  41  42
ENDBRANCH   8  41
TORSDOF 14
ENDMDL
MODEL 2
REMARK VINA RESULT: -6.719541328      2.458      6.865
REMARK  14 active torsions:
REMARK  status: ('A' for Active; 'I' for Inactive)
REMARK    1  A    between atoms: C2_2  and  C3_3 
REMARK    2  A    between atoms: C3_3  and  N1_4 
REMARK    3  A    between atoms: N1_4  and  C4_5 
REMARK       I    between atoms: N1_4  and  C6_7 
REMARK    4  A    between atoms: C6_7  and  C7_9 
REMARK    5  A    between atoms: C7_9  and  N2_10 
REMARK    6  A    between atoms: C7_9  and  C15_21 
REMARK       I    between atoms: N2_10  and  C8_12 
REMARK    7  A    between atoms: C8_12  and  C9_14 
REMARK    8  A    between atoms: C9_14  and  N3_15 
REMARK    9  A    between atoms: C15_21  and  N4_22 
REMARK       I    between atoms: N4_22  and  C16_24 
REMARK   10  A    between atoms: C16_24  and  O4_26 
REMARK   11  A    between atoms: O4_26  and  C17_27 
REMARK   12  A    between atoms: C21_35  and  O5_36 
REMARK   13  A    between atoms: O5_36  and  C22_37 
REMARK   14  A    between atoms: C22_37  and  C23_39 
ROOT
HETATM    1  C15 UNL     1      20.134  29.788  12.911  1.00  0.00     0.131 C 
HETATM    2  C19 UNL     1      19.388  29.476  14.191  1.00  0.00     0.328 C 
HETATM    3  C20 UNL     1      20.006  28.601  15.136  1.00  0.00     0.095 C 
HETATM    4  N5  UNL     1      20.465  27.855  15.923  1.00  0.00    -0.195 NA
HETATM    5  N6  UNL     1      18.896  30.657  14.841  1.00  0.00    -0.021 N 
ATOM      6  H61 UNL     1      19.662  31.235  15.187  1.00  0.00     0.282 HD
ATOM      7  H62 UNL     1      18.450  30.432  15.730  1.00  0.00     0.282 HD
HETATM    8  C21 UNL     1      18.011  31.417  13.987  1.00  0.00     0.263 C 
HETATM    9  C29 UNL     1      17.734  30.675  12.679  1.00  0.00     0.107 C 
HETATM   10  C30 UNL     1      19.124  30.643  12.127  1.00  0.00     0.160 C 
HETATM   11  O7  UNL     1      19.528  32.001  12.308  1.00  0.00    -0.373 OA
HETATM   12  C31 UNL     1      18.850  32.529  13.359  1.00  0.00     0.182 C 
HETATM   13  C32 UNL     1      19.639  33.204  14.424  1.00  0.00     0.044 C 
ENDROOT
BRANCH   1  14
HETATM   14  C7  UNL     1      20.419  28.452  12.213  1.00  0.00     0.210 C 
BRANCH  14  15
HETATM   15  C6  UNL     1      21.706  28.397  11.496  1.00  0.00     0.245 C 
HETATM   16  N1  UNL     1      22.614  27.284  11.427  1.00  0.00    -0.351 N 
HETATM   17  O1  UNL     1      22.136  29.408  10.833  1.00  0.00    -0.271 OA
BRANCH  16  18
HETATM   18  C3  UNL     1      22.207  26.030  11.976  1.00  0.00     0.125 C 
BRANCH  18  19
HETATM   19  C2  UNL     1      21.943  24.925  11.014  1.00  0.00     0.015 C 
HETATM   20  C1  UNL     1      21.371  25.300   9.689  1.00  0.00     0.006 C 
ENDBRANCH  18  19
ENDBRANCH  16  18
BRANCH  16  21
HETATM   21  C4  UNL     1      23.965  27.508  10.887  1.00  0.00     0.121 C 
HETATM   22  C5  UNL     1      25.050  26.780  11.600  1.00  0.00     0.026 C 
ENDBRANCH  16  21
ENDBRANCH  14  15
BRANCH  14  23
HETATM   23  N2  UNL     1      19.400  28.331  11.121  1.00  0.00    -0.344 N 
HETATM   24  C8  UNL     1      18.528  27.241  10.998  1.00  0.00     0.235 C 
HETATM   25  O2  UNL     1      18.513  26.257  11.790  1.00  0.00    -0.272 OA
ATOM     26  H2  UNL     1      19.339  29.079  10.431  1.00  0.00     0.163 HD
BRANCH  24  27
HETATM   27  C9  UNL     1      17.549  27.213   9.880  1.00  0.00     0.219 C 
BRANCH  27  28
HETATM   28  N3  UNL     1      17.767  26.181   8.923  1.00  0.00    -0.404 N 
HETATM   29  C10 UNL     1      18.247  26.563   7.651  1.00  0.00     0.117 C 
HETATM   30  C11 UNL     1      18.872  25.355   6.967  1.00  0.00     0.019 C 
HETATM   31  C12 UNL     1      17.898  24.211   6.970  1.00  0.00     0.003 C 
HETATM   32  C13 UNL     1      16.558  24.696   7.462  1.00  0.00     0.019 C 
HETATM   33  C14 UNL     1      16.733  25.213   8.884  1.00  0.00     0.117 C 
ENDBRANCH  27  28
ENDBRANCH  24  27
ENDBRANCH  14  23
ENDBRANCH   1  14
BRANCH   1  34
HETATM   34  N4  UNL     1      21.299  30.599  13.063  1.00  0.00    -0.319 N 
HETATM   35  C16 UNL     1      22.088  30.998  14.138  1.00  0.00     0.361 C 
HETATM   36  O3  UNL     1      21.977  30.735  15.345  1.00  0.00    -0.238 OA
ATOM     37  H4  UNL     1      21.632  30.973  12.174  1.00  0.00     0.165 HD
BRANCH  35  38
HETATM   38  O4  UNL     1      23.200  31.836  13.873  1.00  0.00    -0.304 OA
BRANCH  38  39
HETATM   39  C17 UNL     1      23.834  32.470  14.996  1.00  0.00     0.176 C 
HETATM   40  C18 UNL     1      22.957  33.591  15.507  1.00  0.00     0.034 C 
ENDBRANCH  38  39
ENDBRANCH  35  38
ENDBRANCH   1  34
BRANCH   8  41
HETATM   41  O5  UNL     1      16.887  31.923  14.609  1.00  0.00    -0.278 OA
BRANCH  41  42
HETATM   42  C22 UNL     1      16.810  32.500  15.837  1.00  0.00     0.265 C 
HETATM   43  O6  UNL     1      17.351  31.933  16.814  1.00  0.00    -0.265 OA
BRANCH  42  44
HETATM   44  C23 UNL     1      16.096  33.787  16.034  1.00  0.00     0.085 C 
HETATM   45  C24 UNL     1      15.222  33.595  17.259  1.00  0.00     0.014 C 
HETATM   46  C25 UNL     1      14.606  34.874  17.747  1.00  0.00     0.001 C 
HETATM   47  C26 UNL     1      15.598  35.988  17.888  1.00  0.00     0.000 C 
HETATM   48  C27 UNL     1      16.289  36.175  16.554  1.00  0.00     0.001 C 
HETATM   49  C28 UNL     1      17.086  34.934  16.270  1.00  0.00     0.014 C 
ENDBRANCH  42  44
ENDBRANCH  41  42
ENDBRANCH   8  41
TORSDOF 14
ENDMDL
MODEL 3
REMARK VINA RESULT: -6.040251285      8.247     13.765
REMARK  14 active torsions:
REMARK  status: ('A' for Active; 'I' for Inactive)
REMARK    1  A    between atoms: C2_2  and  C3_3 
REMARK    2  A    between atoms: C3_3  and  N1_4 
REMARK    3  A    between atoms: N1_4  and  C4_5 
REMARK       I    between atoms: N1_4  and  C6_7 
REMARK    4  A    between atoms: C6_7  and  C7_9 
REMARK    5  A    between atoms: C7_9  and  N2_10 
REMARK    6  A    between atoms: C7_9  and  C15_21 
REMARK       I    between atoms: N2_10  and  C8_12 
REMARK    7  A    between atoms: C8_12  and  C9_14 
REMARK    8  A    between atoms: C9_14  and  N3_15 
REMARK    9  A    between atoms: C15_21  and  N4_22 
REMARK       I    between atoms: N4_22  and  C16_24 
REMARK   10  A    between atoms: C16_24  and  O4_26 
REMARK   11  A    between atoms: O4_26  and  C17_27 
REMARK   12  A    between atoms: C21_35  and  O5_36 
REMARK   13  A    between atoms: O5_36  and  C22_37 
REMARK   14  A    between atoms: C22_37  and  C23_39 
ROOT
HETATM    1  C15 UNL     1      22.198  23.543   5.481  1.00  0.00     0.131 C 
HETATM    2  C19 UNL     1      22.700  22.284   6.156  1.00  0.00     0.328 C 
HETATM    3  C20 UNL     1      21.739  21.404   6.742  1.00  0.00     0.095 C 
HETATM    4  N5  UNL     1      20.982  20.672   7.269  1.00  0.00    -0.195 NA
HETATM    5  N6  UNL     1      23.622  21.553   5.335  1.00  0.00    -0.021 N 
ATOM      6  H61 UNL     1      23.161  21.172   4.509  1.00  0.00     0.282 HD
ATOM      7  H62 UNL     1      23.902  20.679   5.780  1.00  0.00     0.282 HD
HETATM    8  C21 UNL     1      24.773  22.349   4.972  1.00  0.00     0.263 C 
HETATM    9  C29 UNL     1      24.754  23.703   5.682  1.00  0.00     0.107 C 
HETATM   10  C30 UNL     1      23.499  24.263   5.088  1.00  0.00     0.160 C 
HETATM   11  O7  UNL     1      23.701  23.991   3.701  1.00  0.00    -0.373 OA
HETATM   12  C31 UNL     1      24.503  22.903   3.574  1.00  0.00     0.182 C 
HETATM   13  C32 UNL     1      24.039  21.799   2.693  1.00  0.00     0.044 C 
ENDROOT
BRANCH   1  14
HETATM   14  C7  UNL     1      21.399  24.332   6.526  1.00  0.00     0.210 C 
BRANCH  14  15
HETATM   15  C6  UNL     1      20.456  25.316   5.963  1.00  0.00     0.245 C 
HETATM   16  N1  UNL     1      19.118  25.591   6.412  1.00  0.00    -0.351 N 
HETATM   17  O1  UNL     1      20.787  26.051   4.965  1.00  0.00    -0.271 OA
BRANCH  16  18
HETATM   18  C3  UNL     1      18.656  24.974   7.614  1.00  0.00     0.125 C 
BRANCH  18  19
HETATM   19  C2  UNL     1      18.277  25.877   8.735  1.00  0.00     0.015 C 
HETATM   20  C1  UNL     1      19.287  26.084   9.811  1.00  0.00     0.006 C 
ENDBRANCH  18  19
ENDBRANCH  16  18
BRANCH  16  21
HETATM   21  C4  UNL     1      18.243  26.414   5.561  1.00  0.00     0.121 C 
HETATM   22  C5  UNL     1      17.102  25.682   4.947  1.00  0.00     0.026 C 
ENDBRANCH  16  21
ENDBRANCH  14  15
BRANCH  14  23
HETATM   23  N2  UNL     1      22.396  25.177   7.258  1.00  0.00    -0.344 N 
HETATM   24  C8  UNL     1      22.702  25.007   8.615  1.00  0.00     0.235 C 
HETATM   25  O2  UNL     1      22.171  24.132   9.354  1.00  0.00    -0.272 OA
ATOM     26  H2  UNL     1      22.877  25.914   6.743  1.00  0.00     0.163 HD
BRANCH  24  27
HETATM   27  C9  UNL     1      23.710  25.895   9.252  1.00  0.00     0.219 C 
BRANCH  27  28
HETATM   28  N3  UNL     1      23.240  26.607  10.392  1.00  0.00    -0.404 N 
HETATM   29  C10 UNL     1      22.940  27.977  10.227  1.00  0.00     0.117 C 
HETATM   30  C11 UNL     1      22.019  28.429  11.352  1.00  0.00     0.019 C 
HETATM   31  C12 UNL     1      22.620  28.059  12.679  1.00  0.00     0.003 C 
HETATM   32  C13 UNL     1      24.024  27.549  12.466  1.00  0.00     0.019 C 
HETATM   33  C14 UNL     1      23.951  26.312  11.582  1.00  0.00     0.117 C 
ENDBRANCH  27  28
ENDBRANCH  24  27
ENDBRANCH  14  23
ENDBRANCH   1  14
BRANCH   1  34
HETATM   34  N4  UNL     1      21.479  23.342   4.264  1.00  0.00    -0.319 N 
HETATM   35  C16 UNL     1      20.259  22.763   3.925  1.00  0.00     0.361 C 
HETATM   36  O3  UNL     1      19.407  22.226   4.648  1.00  0.00    -0.238 OA
ATOM     37  H4  UNL     1      21.977  23.709   3.453  1.00  0.00     0.165 HD
BRANCH  35  38
HETATM   38  O4  UNL     1      19.883  22.757   2.558  1.00  0.00    -0.304 OA
BRANCH  38  39
HETATM   39  C17 UNL     1      19.984  23.996   1.838  1.00  0.00     0.176 C 
HETATM   40  C18 UNL     1      18.600  24.490   1.481  1.00  0.00     0.034 C 
ENDBRANCH  38  39
ENDBRANCH  35  38
ENDBRANCH   1  34
BRANCH   8  41
HETATM   41  O5  UNL     1      25.985  21.689   5.027  1.00  0.00    -0.278 OA
BRANCH  41  42
HETATM   42  C22 UNL     1      26.621  21.218   6.133  1.00  0.00     0.265 C 
HETATM   43  O6  UNL     1      25.945  20.719   7.061  1.00  0.00    -0.265 OA
BRANCH  42  44
HETATM   44  C23 UNL     1      28.098  21.290   6.252  1.00  0.00     0.085 C 
HETATM   45  C24 UNL     1      28.436  22.764   6.373  1.00  0.00     0.014 C 
HETATM   46  C25 UNL     1      29.869  23.011   6.742  1.00  0.00     0.001 C 
HETATM   47  C26 UNL     1      30.324  22.196   7.914  1.00  0.00     0.000 C 
HETATM   48  C27 UNL     1      30.072  20.737   7.598  1.00  0.00     0.001 C 
HETATM   49  C28 UNL     1      28.587  20.537   7.495  1.00  0.00     0.014 C 
ENDBRANCH  42  44
ENDBRANCH  41  42
ENDBRANCH   8  41
TORSDOF 14
ENDMDL
MODEL 4
REMARK VINA RESULT: -5.762145157      1.926      7.302
REMARK  14 active torsions:
REMARK  status: ('A' for Active; 'I' for Inactive)
REMARK    1  A    between atoms: C2_2  and  C3_3 
REMARK    2  A    between atoms: C3_3  and  N1_4 
REMARK    3  A    between atoms: N1_4  and  C4_5 
REMARK       I    between atoms: N1_4  and  C6_7 
REMARK    4  A    between atoms: C6_7  and  C7_9 
REMARK    5  A    between atoms: C7_9  and  N2_10 
REMARK    6  A    between atoms: C7_9  and  C15_21 
REMARK       I    between atoms: N2_10  and  C8_12 
REMARK    7  A    between atoms: C8_12  and  C9_14 
REMARK    8  A    between atoms: C9_14  and  N3_15 
REMARK    9  A    between atoms: C15_21  and  N4_22 
REMARK       I    between atoms: N4_22  and  C16_24 
REMARK   10  A    between atoms: C16_24  and  O4_26 
REMARK   11  A    between atoms: O4_26  and  C17_27 
REMARK   12  A    between atoms: C21_35  and  O5_36 
REMARK   13  A    between atoms: O5_36  and  C22_37 
REMARK   14  A    between atoms: C22_37  and  C23_39 
ROOT
HETATM    1  C15 UNL     1      19.713  32.113  14.701  1.00  0.00     0.131 C 
HETATM    2  C19 UNL     1      20.437  30.975  15.389  1.00  0.00     0.328 C 
HETATM    3  C20 UNL     1      19.782  30.316  16.473  1.00  0.00     0.095 C 
HETATM    4  N5  UNL     1      19.290  29.772  17.395  1.00  0.00    -0.195 NA
HETATM    5  N6  UNL     1      20.963  30.018  14.458  1.00  0.00    -0.021 N 
ATOM      6  H61 UNL     1      20.215  29.521  13.975  1.00  0.00     0.282 HD
ATOM      7  H62 UNL     1      21.394  29.229  14.941  1.00  0.00     0.282 HD
HETATM    8  C21 UNL     1      21.882  30.623  13.519  1.00  0.00     0.263 C 
HETATM    9  C29 UNL     1      22.144  32.088  13.870  1.00  0.00     0.107 C 
HETATM   10  C30 UNL     1      20.758  32.624  13.695  1.00  0.00     0.160 C 
HETATM   11  O7  UNL     1      20.400  32.065  12.430  1.00  0.00    -0.373 OA
HETATM   12  C31 UNL     1      21.086  30.909  12.246  1.00  0.00     0.182 C 
HETATM   13  C32 UNL     1      20.312  29.696  11.872  1.00  0.00     0.044 C 
ENDROOT
BRANCH   1  14
HETATM   14  C7  UNL     1      19.389  33.161  15.773  1.00  0.00     0.210 C 
BRANCH  14  15
HETATM   15  C6  UNL     1      18.077  33.813  15.616  1.00  0.00     0.245 C 
HETATM   16  N1  UNL     1      17.185  34.232  16.664  1.00  0.00    -0.351 N 
HETATM   17  O1  UNL     1      17.605  34.075  14.452  1.00  0.00    -0.271 OA
BRANCH  16  18
HETATM   18  C3  UNL     1      17.633  34.160  18.018  1.00  0.00     0.125 C 
BRANCH  18  19
HETATM   19  C2  UNL     1      18.107  35.426  18.641  1.00  0.00     0.015 C 
HETATM   20  C1  UNL     1      18.136  36.640  17.776  1.00  0.00     0.006 C 
ENDBRANCH  18  19
ENDBRANCH  16  18
BRANCH  16  21
HETATM   21  C4  UNL     1      15.810  34.620  16.307  1.00  0.00     0.121 C 
HETATM   22  C5  UNL     1      14.865  34.696  17.455  1.00  0.00     0.026 C 
ENDBRANCH  16  21
ENDBRANCH  14  15
BRANCH  14  23
HETATM   23  N2  UNL     1      20.366  34.278  15.569  1.00  0.00    -0.344 N 
HETATM   24  C8  UNL     1      21.168  34.798  16.594  1.00  0.00     0.235 C 
HETATM   25  O2  UNL     1      21.148  34.381  17.786  1.00  0.00    -0.272 OA
ATOM     26  H2  UNL     1      20.452  34.681  14.637  1.00  0.00     0.163 HD
BRANCH  24  27
HETATM   27  C9  UNL     1      22.111  35.907  16.291  1.00  0.00     0.219 C 
BRANCH  27  28
HETATM   28  N3  UNL     1      21.920  37.080  17.075  1.00  0.00    -0.404 N 
HETATM   29  C10 UNL     1      21.386  38.216  16.429  1.00  0.00     0.117 C 
HETATM   30  C11 UNL     1      20.806  39.162  17.472  1.00  0.00     0.019 C 
HETATM   31  C12 UNL     1      21.839  39.448  18.526  1.00  0.00     0.003 C 
HETATM   32  C13 UNL     1      23.166  38.873  18.095  1.00  0.00     0.019 C 
HETATM   33  C14 UNL     1      23.002  37.367  17.944  1.00  0.00     0.117 C 
ENDBRANCH  27  28
ENDBRANCH  24  27
ENDBRANCH  14  23
ENDBRANCH   1  14
BRANCH   1  34
HETATM   34  N4  UNL     1      18.576  31.736  13.926  1.00  0.00    -0.319 N 
HETATM   35  C16 UNL     1      17.831  30.570  13.772  1.00  0.00     0.361 C 
HETATM   36  O3  UNL     1      17.972  29.462  14.310  1.00  0.00    -0.238 OA
ATOM     37  H4  UNL     1      18.225  32.502  13.350  1.00  0.00     0.165 HD
BRANCH  35  38
HETATM   38  O4  UNL     1      16.734  30.594  12.874  1.00  0.00    -0.304 OA
BRANCH  38  39
HETATM   39  C17 UNL     1      16.322  29.343  12.299  1.00  0.00     0.176 C 
HETATM   40  C18 UNL     1      16.919  29.199  10.918  1.00  0.00     0.034 C 
ENDBRANCH  38  39
ENDBRANCH  35  38
ENDBRANCH   1  34
BRANCH   8  41
HETATM   41  O5  UNL     1      23.017  29.885  13.249  1.00  0.00    -0.278 OA
BRANCH  41  42
HETATM   42  C22 UNL     1      23.086  28.577  12.885  1.00  0.00     0.265 C 
HETATM   43  O6  UNL     1      22.461  27.722  13.553  1.00  0.00    -0.265 OA
BRANCH  42  44
HETATM   44  C23 UNL     1      23.890  28.153  11.711  1.00  0.00     0.085 C 
HETATM   45  C24 UNL     1      24.759  27.007  12.194  1.00  0.00     0.014 C 
HETATM   46  C25 UNL     1      25.466  26.296  11.078  1.00  0.00     0.001 C 
HETATM   47  C26 UNL     1      24.557  25.921   9.948  1.00  0.00     0.000 C 
HETATM   48  C27 UNL     1      23.869  27.179   9.461  1.00  0.00     0.001 C 
HETATM   49  C28 UNL     1      22.985  27.679  10.567  1.00  0.00     0.014 C 
ENDBRANCH  42  44
ENDBRANCH  41  42
ENDBRANCH   8  41
TORSDOF 14
ENDMDL
MODEL 5
REMARK VINA RESULT: -5.699021180      3.547      8.894
REMARK  14 active torsions:
REMARK  status: ('A' for Active; 'I' for Inactive)
REMARK    1  A    between atoms: C2_2  and  C3_3 
REMARK    2  A    between atoms: C3_3  and  N1_4 
REMARK    3  A    between atoms: N1_4  and  C4_5 
REMARK       I    between atoms: N1_4  and  C6_7 
REMARK    4  A    between atoms: C6_7  and  C7_9 
REMARK    5  A    between atoms: C7_9  and  N2_10 
REMARK    6  A    between atoms: C7_9  and  C15_21 
REMARK       I    between atoms: N2_10  and  C8_12 
REMARK    7  A    between atoms: C8_12  and  C9_14 
REMARK    8  A    between atoms: C9_14  and  N3_15 
REMARK    9  A    between atoms: C15_21  and  N4_22 
REMARK       I    between atoms: N4_22  and  C16_24 
REMARK   10  A    between atoms: C16_24  and  O4_26 
REMARK   11  A    between atoms: O4_26  and  C17_27 
REMARK   12  A    between atoms: C21_35  and  O5_36 
REMARK   13  A    between atoms: O5_36  and  C22_37 
REMARK   14  A    between atoms: C22_37  and  C23_39 
ROOT
HETATM    1  C15 UNL     1      20.437  35.739  17.376  1.00  0.00     0.131 C 
HETATM    2  C19 UNL     1      21.137  34.696  18.220  1.00  0.00     0.328 C 
HETATM    3  C20 UNL     1      20.822  34.631  19.612  1.00  0.00     0.095 C 
HETATM    4  N5  UNL     1      20.616  34.570  20.770  1.00  0.00    -0.195 NA
HETATM    5  N6  UNL     1      21.089  33.389  17.628  1.00  0.00    -0.021 N 
ATOM      6  H61 UNL     1      20.135  33.028  17.607  1.00  0.00     0.282 HD
ATOM      7  H62 UNL     1      21.512  32.690  18.239  1.00  0.00     0.282 HD
HETATM    8  C21 UNL     1      21.688  33.368  16.312  1.00  0.00     0.263 C 
HETATM    9  C29 UNL     1      22.332  34.714  15.977  1.00  0.00     0.107 C 
HETATM   10  C30 UNL     1      21.108  35.574  16.002  1.00  0.00     0.160 C 
HETATM   11  O7  UNL     1      20.207  34.800  15.209  1.00  0.00    -0.373 OA
HETATM   12  C31 UNL     1      20.545  33.489  15.305  1.00  0.00     0.182 C 
HETATM   13  C32 UNL     1      19.474  32.522  15.665  1.00  0.00     0.044 C 
ENDROOT
BRANCH   1  14
HETATM   14  C7  UNL     1      20.739  37.108  18.000  1.00  0.00     0.210 C 
BRANCH  14  15
HETATM   15  C6  UNL     1      20.263  38.259  17.213  1.00  0.00     0.245 C 
HETATM   16  N1  UNL     1      19.125  39.092  17.495  1.00  0.00    -0.351 N 
HETATM   17  O1  UNL     1      20.876  38.629  16.148  1.00  0.00    -0.271 OA
BRANCH  16  18
HETATM   18  C3  UNL     1      18.433  38.915  18.731  1.00  0.00     0.125 C 
BRANCH  18  19
HETATM   19  C2  UNL     1      16.949  38.819  18.667  1.00  0.00     0.015 C 
HETATM   20  C1  UNL     1      16.177  39.470  19.764  1.00  0.00     0.006 C 
ENDBRANCH  18  19
ENDBRANCH  16  18
BRANCH  16  21
HETATM   21  C4  UNL     1      18.657  40.022  16.454  1.00  0.00     0.121 C 
HETATM   22  C5  UNL     1      18.821  41.464  16.786  1.00  0.00     0.026 C 
ENDBRANCH  16  21
ENDBRANCH  14  15
BRANCH  14  23
HETATM   23  N2  UNL     1      22.230  37.254  17.976  1.00  0.00    -0.344 N 
HETATM   24  C8  UNL     1      22.913  38.289  18.629  1.00  0.00     0.235 C 
HETATM   25  O2  UNL     1      22.346  39.197  19.298  1.00  0.00    -0.272 OA
ATOM     26  H2  UNL     1      22.775  36.566  17.459  1.00  0.00     0.163 HD
BRANCH  24  27
HETATM   27  C9  UNL     1      24.396  38.347  18.549  1.00  0.00     0.219 C 
BRANCH  27  28
HETATM   28  N3  UNL     1      25.031  38.943  19.676  1.00  0.00    -0.404 N 
HETATM   29  C10 UNL     1      26.285  39.558  19.469  1.00  0.00     0.117 C 
HETATM   30  C11 UNL     1      26.561  40.531  20.608  1.00  0.00     0.019 C 
HETATM   31  C12 UNL     1      26.400  39.827  21.926  1.00  0.00     0.003 C 
HETATM   32  C13 UNL     1      26.222  38.349  21.685  1.00  0.00     0.019 C 
HETATM   33  C14 UNL     1      24.962  38.153  20.851  1.00  0.00     0.117 C 
ENDBRANCH  27  28
ENDBRANCH  24  27
ENDBRANCH  14  23
ENDBRANCH   1  14
BRANCH   1  34
HETATM   34  N4  UNL     1      19.044  35.519  17.160  1.00  0.00    -0.319 N 
HETATM   35  C16 UNL     1      17.933  35.358  17.983  1.00  0.00     0.361 C 
HETATM   36  O3  UNL     1      17.855  35.363  19.221  1.00  0.00    -0.238 OA
ATOM     37  H4  UNL     1      18.806  35.468  16.169  1.00  0.00     0.165 HD
BRANCH  35  38
HETATM   38  O4  UNL     1      16.672  35.152  17.368  1.00  0.00    -0.304 OA
BRANCH  38  39
HETATM   39  C17 UNL     1      15.950  33.961  17.722  1.00  0.00     0.176 C 
HETATM   40  C18 UNL     1      15.729  33.116  16.488  1.00  0.00     0.034 C 
ENDBRANCH  38  39
ENDBRANCH  35  38
ENDBRANCH   1  34
BRANCH   8  41
HETATM   41  O5  UNL     1      22.480  32.269  16.045  1.00  0.00    -0.278 OA
BRANCH  41  42
HETATM   42  C22 UNL     1      23.056  31.933  14.860  1.00  0.00     0.265 C 
HETATM   43  O6  UNL     1      24.053  32.577  14.460  1.00  0.00    -0.265 OA
BRANCH  42  44
HETATM   44  C23 UNL     1      22.518  30.820  14.039  1.00  0.00     0.085 C 
HETATM   45  C24 UNL     1      21.755  29.926  14.998  1.00  0.00     0.014 C 
HETATM   46  C25 UNL     1      20.943  28.874  14.301  1.00  0.00     0.001 C 
HETATM   47  C26 UNL     1      20.096  29.423  13.193  1.00  0.00     0.000 C 
HETATM   48  C27 UNL     1      21.003  30.159  12.229  1.00  0.00     0.001 C 
HETATM   49  C28 UNL     1      21.576  31.345  12.949  1.00  0.00     0.014 C 
ENDBRANCH  42  44
ENDBRANCH  41  42
ENDBRANCH   8  41
TORSDOF 14
ENDMDL
