MODEL 1
REMARK VINA RESULT: -8.425132513      0.000      0.000
REMARK  10 active torsions:
REMARK  status: ('A' for Active; 'I' for Inactive)
REMARK    1  A    between atoms: C5_5  and  C6_6 
REMARK    2  A    between atoms: C6_6  and  C7_11 
REMARK    3  A    between atoms: N1_7  and  O1_9 
REMARK    4  A    between atoms: C9_15  and  C10_16 
REMARK    5  A    between atoms: C10_16  and  O4_17 
REMARK    6  A    between atoms: C10_16  and  C18_25 
REMARK    7  A    between atoms: O4_17  and  C11_18 
REMARK    8  A    between atoms: C11_18  and  C12_19 
REMARK    9  A    between atoms: C19_28  and  O7_29 
REMARK   10  A    between atoms: C20_31  and  O8_32 
ROOT
HETATM    1  C7  UNL     1      -8.184  27.371  81.022  1.00  0.00     0.215 C 
HETATM    2  O2  UNL     1      -9.012  26.254  80.772  1.00  0.00    -0.306 OA
HETATM    3  C8  UNL     1     -10.083  25.921  81.598  1.00  0.00     0.269 C 
HETATM    4  O3  UNL     1     -11.114  25.440  81.045  1.00  0.00    -0.265 OA
HETATM    5  C9  UNL     1      -9.955  26.144  83.032  1.00  0.00     0.156 C 
HETATM    6  C19 UNL     1      -8.617  26.724  83.338  1.00  0.00     0.166 C 
HETATM    7  C20 UNL     1      -8.430  27.931  82.402  1.00  0.00     0.183 C 
ENDROOT
BRANCH   1   8
HETATM    8  C6  UNL     1      -8.460  28.372  79.936  1.00  0.00     0.074 C 
HETATM    9  N1  UNL     1      -9.638  28.729  79.692  1.00  0.00    -0.270 N 
ATOM     10  H1  UNL     1     -10.339  28.304  80.298  1.00  0.00     0.194 HD
BRANCH   8  11
HETATM   11  C5  UNL     1      -7.321  28.863  79.187  1.00  0.00    -0.009 A 
HETATM   12  C4  UNL     1      -7.033  28.585  77.882  1.00  0.00     0.014 A 
HETATM   13  C3  UNL     1      -5.911  29.151  77.265  1.00  0.00     0.007 A 
HETATM   14  C2  UNL     1      -5.052  30.000  77.917  1.00  0.00    -0.062 A 
HETATM   15  C1  UNL     1      -3.869  30.584  77.231  1.00  0.00     0.048 C 
HETATM   16  C22 UNL     1      -5.326  30.291  79.231  1.00  0.00     0.007 A 
HETATM   17  C21 UNL     1      -6.434  29.732  79.842  1.00  0.00     0.014 A 
ENDBRANCH   8  11
BRANCH   9  18
HETATM   18  O1  UNL     1     -10.125  29.551  78.795  1.00  0.00    -0.290 OA
ATOM     19  H1  UNL     1     -10.852  29.461  78.190  1.00  0.00     0.244 HD
ENDBRANCH   9  18
ENDBRANCH   1   8
BRANCH   7  20
HETATM   20  O8  UNL     1      -9.519  28.752  82.487  1.00  0.00    -0.390 OA
ATOM     21  H8  UNL     1      -9.352  29.574  82.932  1.00  0.00     0.210 HD
ENDBRANCH   7  20
BRANCH   6  22
HETATM   22  O7  UNL     1      -7.573  25.828  83.144  1.00  0.00    -0.392 OA
ATOM     23  H7  UNL     1      -6.991  25.763  83.892  1.00  0.00     0.210 HD
ENDBRANCH   6  22
BRANCH   5  24
HETATM   24  C10 UNL     1     -10.317  24.976  83.909  1.00  0.00     0.238 C 
BRANCH  24  25
HETATM   25  O4  UNL     1      -9.385  23.977  83.975  1.00  0.00    -0.370 OA
BRANCH  25  26
HETATM   26  C11 UNL     1      -9.899  22.807  83.481  1.00  0.00     0.207 C 
BRANCH  26  27
HETATM   27  C12 UNL     1      -9.438  22.502  82.103  1.00  0.00    -0.035 A 
HETATM   28  C13 UNL     1      -8.107  22.734  81.828  1.00  0.00     0.009 A 
HETATM   29  C14 UNL     1      -7.586  22.478  80.557  1.00  0.00     0.001 A 
HETATM   30  C15 UNL     1      -8.443  21.980  79.571  1.00  0.00     0.000 A 
HETATM   31  C16 UNL     1      -9.761  21.755  79.860  1.00  0.00     0.001 A 
HETATM   32  C17 UNL     1     -10.268  22.011  81.114  1.00  0.00     0.009 A 
ENDBRANCH  26  27
ENDBRANCH  25  26
ENDBRANCH  24  25
BRANCH  24  33
HETATM   33  C18 UNL     1     -10.659  25.536  85.240  1.00  0.00     0.204 C 
HETATM   34  O5  UNL     1     -10.169  25.006  86.254  1.00  0.00    -0.646 OA
HETATM   35  O6  UNL     1     -11.495  26.615  85.349  1.00  0.00    -0.646 OA
ENDBRANCH  24  33
ENDBRANCH   5  24
TORSDOF 10
ENDMDL
MODEL 2
REMARK VINA RESULT: -8.113326641      1.297      1.840
REMARK  10 active torsions:
REMARK  status: ('A' for Active; 'I' for Inactive)
REMARK    1  A    between atoms: C5_5  and  C6_6 
REMARK    2  A    between atoms: C6_6  and  C7_11 
REMARK    3  A    between atoms: N1_7  and  O1_9 
REMARK    4  A    between atoms: C9_15  and  C10_16 
REMARK    5  A    between atoms: C10_16  and  O4_17 
REMARK    6  A    between atoms: C10_16  and  C18_25 
REMARK    7  A    between atoms: O4_17  and  C11_18 
REMARK    8  A    between atoms: C11_18  and  C12_19 
REMARK    9  A    between atoms: C19_28  and  O7_29 
REMARK   10  A    between atoms: C20_31  and  O8_32 
ROOT
HETATM    1  C7  UNL     1      -7.765  27.545  80.052  1.00  0.00     0.215 C 
HETATM    2  O2  UNL     1      -8.105  26.177  79.969  1.00  0.00    -0.306 OA
HETATM    3  C8  UNL     1      -9.346  25.692  80.375  1.00  0.00     0.269 C 
HETATM    4  O3  UNL     1      -9.843  24.739  79.708  1.00  0.00    -0.265 OA
HETATM    5  C9  UNL     1      -9.991  26.303  81.530  1.00  0.00     0.156 C 
HETATM    6  C19 UNL     1      -9.134  27.396  82.070  1.00  0.00     0.166 C 
HETATM    7  C20 UNL     1      -8.770  28.305  80.884  1.00  0.00     0.183 C 
ENDROOT
BRANCH   1   8
HETATM    8  C6  UNL     1      -7.673  28.061  78.644  1.00  0.00     0.074 C 
HETATM    9  N1  UNL     1      -8.537  27.732  77.796  1.00  0.00    -0.270 N 
ATOM     10  H1  UNL     1      -9.276  27.130  78.160  1.00  0.00     0.194 HD
BRANCH   8  11
HETATM   11  C5  UNL     1      -6.544  28.911  78.325  1.00  0.00    -0.009 A 
HETATM   12  C4  UNL     1      -6.025  29.128  77.082  1.00  0.00     0.014 A 
HETATM   13  C3  UNL     1      -4.945  30.001  76.904  1.00  0.00     0.007 A 
HETATM   14  C2  UNL     1      -4.356  30.676  77.944  1.00  0.00    -0.062 A 
HETATM   15  C1  UNL     1      -3.210  31.597  77.721  1.00  0.00     0.048 C 
HETATM   16  C22 UNL     1      -4.866  30.470  79.202  1.00  0.00     0.007 A 
HETATM   17  C21 UNL     1      -5.933  29.607  79.378  1.00  0.00     0.014 A 
ENDBRANCH   8  11
BRANCH   9  18
HETATM   18  O1  UNL     1      -8.656  28.024  76.524  1.00  0.00    -0.290 OA
ATOM     19  H1  UNL     1      -9.252  28.606  76.067  1.00  0.00     0.244 HD
ENDBRANCH   9  18
ENDBRANCH   1   8
BRANCH   7  20
HETATM   20  O8  UNL     1      -9.904  28.655  80.207  1.00  0.00    -0.390 OA
ATOM     21  H8  UNL     1     -10.705  28.539  80.705  1.00  0.00     0.210 HD
ENDBRANCH   7  20
BRANCH   6  22
HETATM   22  O7  UNL     1      -7.968  26.934  82.668  1.00  0.00    -0.392 OA
ATOM     23  H7  UNL     1      -8.126  26.286  83.345  1.00  0.00     0.210 HD
ENDBRANCH   6  22
BRANCH   5  24
HETATM   24  C10 UNL     1     -10.483  25.349  82.584  1.00  0.00     0.238 C 
BRANCH  24  25
HETATM   25  O4  UNL     1      -9.528  24.875  83.441  1.00  0.00    -0.370 OA
BRANCH  25  26
HETATM   26  C11 UNL     1      -9.551  23.506  83.476  1.00  0.00     0.207 C 
BRANCH  26  27
HETATM   27  C12 UNL     1      -8.881  22.881  82.307  1.00  0.00    -0.035 A 
HETATM   28  C13 UNL     1      -9.608  21.945  81.602  1.00  0.00     0.009 A 
HETATM   29  C14 UNL     1      -9.057  21.305  80.489  1.00  0.00     0.001 A 
HETATM   30  C15 UNL     1      -7.754  21.635  80.105  1.00  0.00     0.000 A 
HETATM   31  C16 UNL     1      -7.047  22.566  80.815  1.00  0.00     0.001 A 
HETATM   32  C17 UNL     1      -7.595  23.192  81.911  1.00  0.00     0.009 A 
ENDBRANCH  26  27
ENDBRANCH  25  26
ENDBRANCH  24  25
BRANCH  24  33
HETATM   33  C18 UNL     1     -11.601  26.029  83.283  1.00  0.00     0.204 C 
HETATM   34  O5  UNL     1     -12.644  26.267  82.648  1.00  0.00    -0.646 OA
HETATM   35  O6  UNL     1     -11.486  26.387  84.600  1.00  0.00    -0.646 OA
ENDBRANCH  24  33
ENDBRANCH   5  24
TORSDOF 10
ENDMDL
MODEL 3
REMARK VINA RESULT: -8.096614155      1.389      2.139
REMARK  10 active torsions:
REMARK  status: ('A' for Active; 'I' for Inactive)
REMARK    1  A    between atoms: C5_5  and  C6_6 
REMARK    2  A    between atoms: C6_6  and  C7_11 
REMARK    3  A    between atoms: N1_7  and  O1_9 
REMARK    4  A    between atoms: C9_15  and  C10_16 
REMARK    5  A    between atoms: C10_16  and  O4_17 
REMARK    6  A    between atoms: C10_16  and  C18_25 
REMARK    7  A    between atoms: O4_17  and  C11_18 
REMARK    8  A    between atoms: C11_18  and  C12_19 
REMARK    9  A    between atoms: C19_28  and  O7_29 
REMARK   10  A    between atoms: C20_31  and  O8_32 
ROOT
HETATM    1  C7  UNL     1      -8.352  27.403  80.705  1.00  0.00     0.215 C 
HETATM    2  O2  UNL     1      -8.366  26.172  80.013  1.00  0.00    -0.306 OA
HETATM    3  C8  UNL     1      -9.401  25.251  80.151  1.00  0.00     0.269 C 
HETATM    4  O3  UNL     1      -9.730  24.590  79.124  1.00  0.00    -0.265 OA
HETATM    5  C9  UNL     1     -10.037  25.105  81.454  1.00  0.00     0.156 C 
HETATM    6  C19 UNL     1      -9.407  26.036  82.433  1.00  0.00     0.166 C 
HETATM    7  C20 UNL     1      -9.407  27.430  81.784  1.00  0.00     0.183 C 
ENDROOT
BRANCH   1   8
HETATM    8  C6  UNL     1      -8.547  28.484  79.680  1.00  0.00     0.074 C 
HETATM    9  N1  UNL     1      -9.696  28.935  79.451  1.00  0.00    -0.270 N 
ATOM     10  H1  UNL     1     -10.431  28.524  80.026  1.00  0.00     0.194 HD
BRANCH   8  11
HETATM   11  C5  UNL     1      -7.370  28.940  78.969  1.00  0.00    -0.009 A 
HETATM   12  C4  UNL     1      -7.050  28.653  77.674  1.00  0.00     0.014 A 
HETATM   13  C3  UNL     1      -5.891  29.185  77.094  1.00  0.00     0.007 A 
HETATM   14  C2  UNL     1      -5.027  30.005  77.774  1.00  0.00    -0.062 A 
HETATM   15  C1  UNL     1      -3.805  30.552  77.128  1.00  0.00     0.048 C 
HETATM   16  C22 UNL     1      -5.334  30.303  79.079  1.00  0.00     0.007 A 
HETATM   17  C21 UNL     1      -6.478  29.779  79.653  1.00  0.00     0.014 A 
ENDBRANCH   8  11
BRANCH   9  18
HETATM   18  O1  UNL     1     -10.116  29.842  78.603  1.00  0.00    -0.290 OA
ATOM     19  H1  UNL     1     -10.533  30.684  78.740  1.00  0.00     0.244 HD
ENDBRANCH   9  18
ENDBRANCH   1   8
BRANCH   7  20
HETATM   20  O8  UNL     1     -10.662  27.728  81.332  1.00  0.00    -0.390 OA
ATOM     21  H8  UNL     1     -11.330  27.721  82.007  1.00  0.00     0.210 HD
ENDBRANCH   7  20
BRANCH   6  22
HETATM   22  O7  UNL     1      -8.105  25.684  82.764  1.00  0.00    -0.392 OA
ATOM     23  H7  UNL     1      -7.696  26.291  83.371  1.00  0.00     0.210 HD
ENDBRANCH   6  22
BRANCH   5  24
HETATM   24  C10 UNL     1     -10.164  23.695  81.964  1.00  0.00     0.238 C 
BRANCH  24  25
HETATM   25  O4  UNL     1      -9.045  22.919  81.837  1.00  0.00    -0.370 OA
BRANCH  25  26
HETATM   26  C11 UNL     1      -9.388  21.599  81.697  1.00  0.00     0.207 C 
BRANCH  26  27
HETATM   27  C12 UNL     1     -10.351  21.360  80.591  1.00  0.00    -0.035 A 
HETATM   28  C13 UNL     1     -11.644  21.043  80.951  1.00  0.00     0.009 A 
HETATM   29  C14 UNL     1     -12.616  20.800  79.978  1.00  0.00     0.001 A 
HETATM   30  C15 UNL     1     -12.249  20.887  78.631  1.00  0.00     0.000 A 
HETATM   31  C16 UNL     1     -10.962  21.203  78.291  1.00  0.00     0.001 A 
HETATM   32  C17 UNL     1     -10.010  21.440  79.255  1.00  0.00     0.009 A 
ENDBRANCH  26  27
ENDBRANCH  25  26
ENDBRANCH  24  25
BRANCH  24  33
HETATM   33  C18 UNL     1     -10.644  23.792  83.364  1.00  0.00     0.204 C 
HETATM   34  O5  UNL     1     -11.867  23.890  83.570  1.00  0.00    -0.646 OA
HETATM   35  O6  UNL     1      -9.757  23.774  84.408  1.00  0.00    -0.646 OA
ENDBRANCH  24  33
ENDBRANCH   5  24
TORSDOF 10
ENDMDL
MODEL 4
REMARK VINA RESULT: -7.983906032      1.584      2.173
REMARK  10 active torsions:
REMARK  status: ('A' for Active; 'I' for Inactive)
REMARK    1  A    between atoms: C5_5  and  C6_6 
REMARK    2  A    between atoms: C6_6  and  C7_11 
REMARK    3  A    between atoms: N1_7  and  O1_9 
REMARK    4  A    between atoms: C9_15  and  C10_16 
REMARK    5  A    between atoms: C10_16  and  O4_17 
REMARK    6  A    between atoms: C10_16  and  C18_25 
REMARK    7  A    between atoms: O4_17  and  C11_18 
REMARK    8  A    between atoms: C11_18  and  C12_19 
REMARK    9  A    between atoms: C19_28  and  O7_29 
REMARK   10  A    between atoms: C20_31  and  O8_32 
ROOT
HETATM    1  C7  UNL     1      -7.915  27.259  80.345  1.00  0.00     0.215 C 
HETATM    2  O2  UNL     1      -8.191  25.923  79.980  1.00  0.00    -0.306 OA
HETATM    3  C8  UNL     1      -9.427  25.326  80.214  1.00  0.00     0.269 C 
HETATM    4  O3  UNL     1      -9.848  24.505  79.349  1.00  0.00    -0.265 OA
HETATM    5  C9  UNL     1     -10.154  25.678  81.427  1.00  0.00     0.156 C 
HETATM    6  C19 UNL     1      -9.374  26.672  82.215  1.00  0.00     0.166 C 
HETATM    7  C20 UNL     1      -8.993  27.807  81.250  1.00  0.00     0.183 C 
ENDROOT
BRANCH   1   8
HETATM    8  C6  UNL     1      -7.778  28.042  79.071  1.00  0.00     0.074 C 
HETATM    9  N1  UNL     1      -8.619  27.899  78.150  1.00  0.00    -0.270 N 
ATOM     10  H1  UNL     1      -9.373  27.247  78.367  1.00  0.00     0.194 HD
BRANCH   8  11
HETATM   11  C5  UNL     1      -6.635  28.924  78.958  1.00  0.00    -0.009 A 
HETATM   12  C4  UNL     1      -5.911  29.164  77.826  1.00  0.00     0.014 A 
HETATM   13  C3  UNL     1      -4.840  30.067  77.844  1.00  0.00     0.007 A 
HETATM   14  C2  UNL     1      -4.461  30.749  78.973  1.00  0.00    -0.062 A 
HETATM   15  C1  UNL     1      -3.320  31.701  78.959  1.00  0.00     0.048 C 
HETATM   16  C22 UNL     1      -5.179  30.519  80.122  1.00  0.00     0.007 A 
HETATM   17  C21 UNL     1      -6.236  29.627  80.105  1.00  0.00     0.014 A 
ENDBRANCH   8  11
BRANCH   9  18
HETATM   18  O1  UNL     1      -8.698  28.440  76.959  1.00  0.00    -0.290 OA
ATOM     19  H1  UNL     1      -8.111  28.401  76.212  1.00  0.00     0.244 HD
ENDBRANCH   9  18
ENDBRANCH   1   8
BRANCH   7  20
HETATM   20  O8  UNL     1     -10.107  28.244  80.590  1.00  0.00    -0.390 OA
ATOM     21  H8  UNL     1     -10.581  28.932  81.043  1.00  0.00     0.210 HD
ENDBRANCH   7  20
BRANCH   6  22
HETATM   22  O7  UNL     1      -8.219  26.142  82.778  1.00  0.00    -0.392 OA
ATOM     23  H7  UNL     1      -8.060  26.447  83.663  1.00  0.00     0.210 HD
ENDBRANCH   6  22
BRANCH   5  24
HETATM   24  C10 UNL     1     -10.654  24.520  82.248  1.00  0.00     0.238 C 
BRANCH  24  25
HETATM   25  O4  UNL     1      -9.724  23.561  82.541  1.00  0.00    -0.370 OA
BRANCH  25  26
HETATM   26  C11 UNL     1     -10.337  22.368  82.824  1.00  0.00     0.207 C 
BRANCH  26  27
HETATM   27  C12 UNL     1     -10.968  21.740  81.635  1.00  0.00    -0.035 A 
HETATM   28  C13 UNL     1     -12.341  21.613  81.656  1.00  0.00     0.009 A 
HETATM   29  C14 UNL     1     -13.019  21.032  80.581  1.00  0.00     0.001 A 
HETATM   30  C15 UNL     1     -12.276  20.584  79.485  1.00  0.00     0.000 A 
HETATM   31  C16 UNL     1     -10.915  20.717  79.481  1.00  0.00     0.001 A 
HETATM   32  C17 UNL     1     -10.253  21.290  80.543  1.00  0.00     0.009 A 
ENDBRANCH  26  27
ENDBRANCH  25  26
ENDBRANCH  24  25
BRANCH  24  33
HETATM   33  C18 UNL     1     -11.288  25.100  83.457  1.00  0.00     0.204 C 
HETATM   34  O5  UNL     1     -12.464  25.498  83.381  1.00  0.00    -0.646 OA
HETATM   35  O6  UNL     1     -10.591  25.195  84.633  1.00  0.00    -0.646 OA
ENDBRANCH  24  33
ENDBRANCH   5  24
TORSDOF 10
ENDMDL
MODEL 5
REMARK VINA RESULT: -7.962668040      0.752      1.431
REMARK  10 active torsions:
REMARK  status: ('A' for Active; 'I' for Inactive)
REMARK    1  A    between atoms: C5_5  and  C6_6 
REMARK    2  A    between atoms: C6_6  and  C7_11 
REMARK    3  A    between atoms: N1_7  and  O1_9 
REMARK    4  A    between atoms: C9_15  and  C10_16 
REMARK    5  A    between atoms: C10_16  and  O4_17 
REMARK    6  A    between atoms: C10_16  and  C18_25 
REMARK    7  A    between atoms: O4_17  and  C11_18 
REMARK    8  A    between atoms: C11_18  and  C12_19 
REMARK    9  A    between atoms: C19_28  and  O7_29 
REMARK   10  A    between atoms: C20_31  and  O8_32 
ROOT
HETATM    1  C7  UNL     1      -8.377  27.448  81.195  1.00  0.00     0.215 C 
HETATM    2  O2  UNL     1      -9.339  26.421  81.076  1.00  0.00    -0.306 OA
HETATM    3  C8  UNL     1     -10.378  26.264  81.990  1.00  0.00     0.269 C 
HETATM    4  O3  UNL     1     -11.493  25.872  81.538  1.00  0.00    -0.265 OA
HETATM    5  C9  UNL     1     -10.124  26.556  83.395  1.00  0.00     0.156 C 
HETATM    6  C19 UNL     1      -8.712  26.996  83.573  1.00  0.00     0.166 C 
HETATM    7  C20 UNL     1      -8.460  28.114  82.548  1.00  0.00     0.183 C 
ENDROOT
BRANCH   1   8
HETATM    8  C6  UNL     1      -8.617  28.407  80.064  1.00  0.00     0.074 C 
HETATM    9  N1  UNL     1      -9.782  28.790  79.799  1.00  0.00    -0.270 N 
ATOM     10  H1  UNL     1     -10.499  28.415  80.420  1.00  0.00     0.194 HD
BRANCH   8  11
HETATM   11  C5  UNL     1      -7.460  28.827  79.300  1.00  0.00    -0.009 A 
HETATM   12  C4  UNL     1      -7.203  28.522  77.994  1.00  0.00     0.014 A 
HETATM   13  C3  UNL     1      -6.058  29.020  77.360  1.00  0.00     0.007 A 
HETATM   14  C2  UNL     1      -5.145  29.824  77.996  1.00  0.00    -0.062 A 
HETATM   15  C1  UNL     1      -3.939  30.336  77.293  1.00  0.00     0.048 C 
HETATM   16  C22 UNL     1      -5.389  30.141  79.310  1.00  0.00     0.007 A 
HETATM   17  C21 UNL     1      -6.520  29.650  79.937  1.00  0.00     0.014 A 
ENDBRANCH   8  11
BRANCH   9  18
HETATM   18  O1  UNL     1     -10.239  29.586  78.864  1.00  0.00    -0.290 OA
ATOM     19  H1  UNL     1     -10.863  29.437  78.163  1.00  0.00     0.244 HD
ENDBRANCH   9  18
ENDBRANCH   1   8
BRANCH   7  20
HETATM   20  O8  UNL     1      -9.442  29.059  82.646  1.00  0.00    -0.390 OA
ATOM     21  H8  UNL     1      -9.508  29.463  83.504  1.00  0.00     0.210 HD
ENDBRANCH   7  20
BRANCH   6  22
HETATM   22  O7  UNL     1      -7.790  25.975  83.373  1.00  0.00    -0.392 OA
ATOM     23  H7  UNL     1      -7.622  25.464  84.156  1.00  0.00     0.210 HD
ENDBRANCH   6  22
BRANCH   5  24
HETATM   24  C10 UNL     1     -10.550  25.493  84.370  1.00  0.00     0.238 C 
BRANCH  24  25
HETATM   25  O4  UNL     1      -9.793  24.353  84.367  1.00  0.00    -0.370 OA
BRANCH  25  26
HETATM   26  C11 UNL     1     -10.596  23.244  84.319  1.00  0.00     0.207 C 
BRANCH  26  27
HETATM   27  C12 UNL     1     -10.590  22.575  82.993  1.00  0.00    -0.035 A 
HETATM   28  C13 UNL     1     -11.749  21.930  82.617  1.00  0.00     0.009 A 
HETATM   29  C14 UNL     1     -11.832  21.273  81.387  1.00  0.00     0.001 A 
HETATM   30  C15 UNL     1     -10.716  21.284  80.546  1.00  0.00     0.000 A 
HETATM   31  C16 UNL     1      -9.573  21.929  80.934  1.00  0.00     0.001 A 
HETATM   32  C17 UNL     1      -9.498  22.574  82.147  1.00  0.00     0.009 A 
ENDBRANCH  26  27
ENDBRANCH  25  26
ENDBRANCH  24  25
BRANCH  24  33
HETATM   33  C18 UNL     1     -10.612  26.141  85.703  1.00  0.00     0.204 C 
HETATM   34  O5  UNL     1     -11.464  27.028  85.895  1.00  0.00    -0.646 OA
HETATM   35  O6  UNL     1      -9.751  25.770  86.701  1.00  0.00    -0.646 OA
ENDBRANCH  24  33
ENDBRANCH   5  24
TORSDOF 10
ENDMDL
