MODEL 1
REMARK VINA RESULT: -8.518414722      0.000      0.000
REMARK  7 active torsions:
REMARK  status: ('A' for Active; 'I' for Inactive)
REMARK    1  A    between atoms: C2_2  and  N1_3 
REMARK    2  A    between atoms: C2_2  and  C13_23 
REMARK    3  A    between atoms: N1_3  and  C3_5 
REMARK    4  A    between atoms: C4_8  and  N3_9 
REMARK    5  A    between atoms: C7_12  and  C8_13 
REMARK    6  A    between atoms: C8_13  and  O1_14 
REMARK    7  A    between atoms: N6_28  and  C16_29 
ROOT
HETATM    1  C3  UNL     1      -3.716   3.996  11.407  1.00  0.00     0.680 A 
HETATM    2  N2  UNL     1      -4.225   4.099  12.674  1.00  0.00    -0.174 N 
ATOM      3  H2  UNL     1      -4.375   5.029  13.067  1.00  0.00     0.186 HD
HETATM    4  C4  UNL     1      -4.535   3.020  13.427  1.00  0.00     0.159 A 
HETATM    5  C11 UNL     1      -4.345   1.763  12.928  1.00  0.00     0.176 A 
HETATM    6  F1  UNL     1      -4.615   0.606  13.581  1.00  0.00    -0.201 F 
HETATM    7  C12 UNL     1      -3.836   1.651  11.657  1.00  0.00     0.152 A 
HETATM    8  N4  UNL     1      -3.542   2.781  10.945  1.00  0.00    -0.199 N 
ATOM      9  H4  UNL     1      -3.166   2.672  10.002  1.00  0.00     0.183 HD
ENDROOT
BRANCH   1  10
HETATM   10  N1  UNL     1      -3.472   5.047  10.818  1.00  0.00    -0.215 N 
ATOM     11  H1  UNL     1      -2.935   4.877   9.967  1.00  0.00     0.178 HD
BRANCH  10  12
HETATM   12  C2  UNL     1      -3.732   6.436  10.994  1.00  0.00     0.163 C 
HETATM   13  C1  UNL     1      -2.490   7.228  10.803  1.00  0.00     0.041 C 
BRANCH  12  14
HETATM   14  C13 UNL     1      -4.846   6.785  10.059  1.00  0.00     0.107 A 
HETATM   15  N5  UNL     1      -6.107   7.089  10.414  1.00  0.00    -0.346 N 
HETATM   16  C14 UNL     1      -6.827   7.323   9.332  1.00  0.00     0.033 A 
ATOM     17  H5  UNL     1      -6.454   7.132  11.372  1.00  0.00     0.167 HD
HETATM   18  C15 UNL     1      -5.981   7.156   8.276  1.00  0.00     0.036 A 
HETATM   19  C23 UNL     1      -8.195   7.695   8.888  1.00  0.00     0.059 C 
HETATM   20  N6  UNL     1      -4.725   6.815   8.726  1.00  0.00    -0.332 N 
HETATM   21  C21 UNL     1      -6.768   7.413   7.015  1.00  0.00     0.059 C 
HETATM   22  C22 UNL     1      -7.999   8.133   7.448  1.00  0.00     0.012 C 
BRANCH  20  23
HETATM   23  C16 UNL     1      -3.689   6.578   7.805  1.00  0.00     0.091 C 
HETATM   24  C17 UNL     1      -3.373   7.727   6.868  1.00  0.00     0.026 C 
HETATM   25  C18 UNL     1      -2.187   7.133   6.101  1.00  0.00     0.002 C 
HETATM   26  C19 UNL     1      -2.263   5.621   6.301  1.00  0.00     0.002 C 
HETATM   27  C20 UNL     1      -3.695   5.453   6.872  1.00  0.00     0.026 C 
ENDBRANCH  20  23
ENDBRANCH  12  14
ENDBRANCH  10  12
ENDBRANCH   1  10
BRANCH   4  28
HETATM   28  N3  UNL     1      -5.062   3.168  14.738  1.00  0.00    -0.364 N 
HETATM   29  C5  UNL     1      -4.138   2.906  15.854  1.00  0.00     0.125 C 
HETATM   30  C6  UNL     1      -4.787   1.814  16.672  1.00  0.00     0.026 C 
HETATM   31  C7  UNL     1      -6.080   2.338  17.206  1.00  0.00     0.012 C 
HETATM   32  C9  UNL     1      -6.476   3.652  16.603  1.00  0.00     0.026 C 
HETATM   33  C10 UNL     1      -6.394   3.545  15.081  1.00  0.00     0.125 C 
BRANCH  31  34
HETATM   34  C8  UNL     1      -7.210   1.348  16.934  1.00  0.00     0.168 C 
BRANCH  34  35
HETATM   35  O1  UNL     1      -6.696   0.082  16.656  1.00  0.00    -0.400 OA
ATOM     36  H1  UNL     1      -7.391  -0.566  16.647  1.00  0.00     0.209 HD
ENDBRANCH  34  35
ENDBRANCH  31  34
ENDBRANCH   4  28
TORSDOF 7
ENDMDL
MODEL 2
REMARK VINA RESULT: -8.469949570      1.638      3.064
REMARK  7 active torsions:
REMARK  status: ('A' for Active; 'I' for Inactive)
REMARK    1  A    between atoms: C2_2  and  N1_3 
REMARK    2  A    between atoms: C2_2  and  C13_23 
REMARK    3  A    between atoms: N1_3  and  C3_5 
REMARK    4  A    between atoms: C4_8  and  N3_9 
REMARK    5  A    between atoms: C7_12  and  C8_13 
REMARK    6  A    between atoms: C8_13  and  O1_14 
REMARK    7  A    between atoms: N6_28  and  C16_29 
ROOT
HETATM    1  C3  UNL     1      -3.839   2.829  11.073  1.00  0.00     0.680 A 
HETATM    2  N2  UNL     1      -4.311   3.216  12.299  1.00  0.00    -0.174 N 
ATOM      3  H2  UNL     1      -4.478   4.208  12.468  1.00  0.00     0.186 HD
HETATM    4  C4  UNL     1      -4.565   2.337  13.294  1.00  0.00     0.159 A 
HETATM    5  C11 UNL     1      -4.351   1.002  13.097  1.00  0.00     0.176 A 
HETATM    6  F1  UNL     1      -4.565   0.025  14.011  1.00  0.00    -0.201 F 
HETATM    7  C12 UNL     1      -3.878   0.606  11.869  1.00  0.00     0.152 A 
HETATM    8  N4  UNL     1      -3.640   1.544  10.902  1.00  0.00    -0.199 N 
ATOM      9  H4  UNL     1      -3.290   1.226   9.998  1.00  0.00     0.183 HD
ENDROOT
BRANCH   1  10
HETATM   10  N1  UNL     1      -3.646   3.718  10.245  1.00  0.00    -0.215 N 
ATOM     11  H1  UNL     1      -4.327   3.671   9.487  1.00  0.00     0.178 HD
BRANCH  10  12
HETATM   12  C2  UNL     1      -2.735   4.795  10.053  1.00  0.00     0.163 C 
HETATM   13  C1  UNL     1      -1.825   4.512   8.913  1.00  0.00     0.041 C 
BRANCH  12  14
HETATM   14  C13 UNL     1      -3.561   6.032   9.901  1.00  0.00     0.107 A 
HETATM   15  N5  UNL     1      -4.388   6.306   8.876  1.00  0.00    -0.346 N 
HETATM   16  C14 UNL     1      -4.939   7.492   9.057  1.00  0.00     0.033 A 
ATOM     17  H5  UNL     1      -4.563   5.692   8.080  1.00  0.00     0.167 HD
HETATM   18  C15 UNL     1      -4.433   7.964  10.232  1.00  0.00     0.036 A 
HETATM   19  C23 UNL     1      -5.890   8.454   8.441  1.00  0.00     0.059 C 
HETATM   20  N6  UNL     1      -3.560   7.047  10.773  1.00  0.00    -0.332 N 
HETATM   21  C21 UNL     1      -5.038   9.324  10.476  1.00  0.00     0.059 C 
HETATM   22  C22 UNL     1      -6.223   9.406   9.575  1.00  0.00     0.012 C 
BRANCH  20  23
HETATM   23  C16 UNL     1      -2.904   7.331  11.984  1.00  0.00     0.091 C 
HETATM   24  C17 UNL     1      -1.421   7.621  11.872  1.00  0.00     0.026 C 
HETATM   25  C18 UNL     1      -1.096   7.944  13.333  1.00  0.00     0.002 C 
HETATM   26  C19 UNL     1      -2.229   7.347  14.165  1.00  0.00     0.002 C 
HETATM   27  C20 UNL     1      -2.923   6.423  13.131  1.00  0.00     0.026 C 
ENDBRANCH  20  23
ENDBRANCH  12  14
ENDBRANCH  10  12
ENDBRANCH   1  10
BRANCH   4  28
HETATM   28  N3  UNL     1      -5.056   2.776  14.553  1.00  0.00    -0.364 N 
HETATM   29  C5  UNL     1      -4.116   2.719  15.684  1.00  0.00     0.125 C 
HETATM   30  C6  UNL     1      -4.782   1.848  16.723  1.00  0.00     0.026 C 
HETATM   31  C7  UNL     1      -6.043   2.522  17.155  1.00  0.00     0.012 C 
HETATM   32  C9  UNL     1      -6.409   3.693  16.296  1.00  0.00     0.026 C 
HETATM   33  C10 UNL     1      -6.367   3.266  14.829  1.00  0.00     0.125 C 
BRANCH  31  34
HETATM   34  C8  UNL     1      -7.213   1.539  17.115  1.00  0.00     0.168 C 
BRANCH  34  35
HETATM   35  O1  UNL     1      -6.794   0.299  16.636  1.00  0.00    -0.400 OA
ATOM     36  H1  UNL     1      -6.975   0.223  15.706  1.00  0.00     0.209 HD
ENDBRANCH  34  35
ENDBRANCH  31  34
ENDBRANCH   4  28
TORSDOF 7
ENDMDL
MODEL 3
REMARK VINA RESULT: -8.451948556      1.784      3.992
REMARK  7 active torsions:
REMARK  status: ('A' for Active; 'I' for Inactive)
REMARK    1  A    between atoms: C2_2  and  N1_3 
REMARK    2  A    between atoms: C2_2  and  C13_23 
REMARK    3  A    between atoms: N1_3  and  C3_5 
REMARK    4  A    between atoms: C4_8  and  N3_9 
REMARK    5  A    between atoms: C7_12  and  C8_13 
REMARK    6  A    between atoms: C8_13  and  O1_14 
REMARK    7  A    between atoms: N6_28  and  C16_29 
ROOT
HETATM    1  C3  UNL     1      -3.913   3.011  10.992  1.00  0.00     0.680 A 
HETATM    2  N2  UNL     1      -4.370   3.361  12.234  1.00  0.00    -0.174 N 
ATOM      3  H2  UNL     1      -4.567   4.344  12.423  1.00  0.00     0.186 HD
HETATM    4  C4  UNL     1      -4.570   2.459  13.220  1.00  0.00     0.159 A 
HETATM    5  C11 UNL     1      -4.314   1.135  12.996  1.00  0.00     0.176 A 
HETATM    6  F1  UNL     1      -4.473   0.138  13.900  1.00  0.00    -0.201 F 
HETATM    7  C12 UNL     1      -3.857   0.776  11.752  1.00  0.00     0.152 A 
HETATM    8  N4  UNL     1      -3.674   1.736  10.795  1.00  0.00    -0.199 N 
ATOM      9  H4  UNL     1      -3.334   1.444   9.879  1.00  0.00     0.183 HD
ENDROOT
BRANCH   1  10
HETATM   10  N1  UNL     1      -3.770   3.918  10.175  1.00  0.00    -0.215 N 
ATOM     11  H1  UNL     1      -4.668   4.330   9.919  1.00  0.00     0.178 HD
BRANCH  10  12
HETATM   12  C2  UNL     1      -2.698   4.554   9.487  1.00  0.00     0.163 C 
HETATM   13  C1  UNL     1      -3.148   5.047   8.160  1.00  0.00     0.041 C 
BRANCH  12  14
HETATM   14  C13 UNL     1      -2.171   5.613  10.401  1.00  0.00     0.107 A 
HETATM   15  N5  UNL     1      -0.917   5.687  10.882  1.00  0.00    -0.346 N 
HETATM   16  C14 UNL     1      -0.808   6.737  11.674  1.00  0.00     0.033 A 
ATOM     17  H5  UNL     1      -0.165   5.031  10.669  1.00  0.00     0.167 HD
HETATM   18  C15 UNL     1      -2.036   7.330  11.682  1.00  0.00     0.036 A 
HETATM   19  C23 UNL     1       0.162   7.471  12.529  1.00  0.00     0.059 C 
HETATM   20  N6  UNL     1      -2.905   6.625  10.879  1.00  0.00    -0.332 N 
HETATM   21  C21 UNL     1      -1.955   8.538  12.581  1.00  0.00     0.059 C 
HETATM   22  C22 UNL     1      -0.501   8.818  12.750  1.00  0.00     0.012 C 
BRANCH  20  23
HETATM   23  C16 UNL     1      -4.240   7.048  10.747  1.00  0.00     0.091 C 
HETATM   24  C17 UNL     1      -4.432   8.528  10.478  1.00  0.00     0.026 C 
HETATM   25  C18 UNL     1      -5.956   8.580  10.327  1.00  0.00     0.002 C 
HETATM   26  C19 UNL     1      -6.494   7.313  10.988  1.00  0.00     0.002 C 
HETATM   27  C20 UNL     1      -5.253   6.820  11.776  1.00  0.00     0.026 C 
ENDBRANCH  20  23
ENDBRANCH  12  14
ENDBRANCH  10  12
ENDBRANCH   1  10
BRANCH   4  28
HETATM   28  N3  UNL     1      -5.046   2.861  14.497  1.00  0.00    -0.364 N 
HETATM   29  C5  UNL     1      -4.090   2.781  15.613  1.00  0.00     0.125 C 
HETATM   30  C6  UNL     1      -4.736   1.879  16.638  1.00  0.00     0.026 C 
HETATM   31  C7  UNL     1      -5.996   2.531  17.105  1.00  0.00     0.012 C 
HETATM   32  C9  UNL     1      -6.382   3.722  16.282  1.00  0.00     0.026 C 
HETATM   33  C10 UNL     1      -6.357   3.334  14.804  1.00  0.00     0.125 C 
BRANCH  31  34
HETATM   34  C8  UNL     1      -7.159   1.541  17.055  1.00  0.00     0.168 C 
BRANCH  34  35
HETATM   35  O1  UNL     1      -6.715   0.285  16.643  1.00  0.00    -0.400 OA
ATOM     36  H1  UNL     1      -7.222  -0.401  17.061  1.00  0.00     0.209 HD
ENDBRANCH  34  35
ENDBRANCH  31  34
ENDBRANCH   4  28
TORSDOF 7
ENDMDL
MODEL 4
REMARK VINA RESULT: -8.394047255      2.429      4.923
REMARK  7 active torsions:
REMARK  status: ('A' for Active; 'I' for Inactive)
REMARK    1  A    between atoms: C2_2  and  N1_3 
REMARK    2  A    between atoms: C2_2  and  C13_23 
REMARK    3  A    between atoms: N1_3  and  C3_5 
REMARK    4  A    between atoms: C4_8  and  N3_9 
REMARK    5  A    between atoms: C7_12  and  C8_13 
REMARK    6  A    between atoms: C8_13  and  O1_14 
REMARK    7  A    between atoms: N6_28  and  C16_29 
ROOT
HETATM    1  C3  UNL     1      -3.857   3.369  11.220  1.00  0.00     0.680 A 
HETATM    2  N2  UNL     1      -4.336   3.613  12.479  1.00  0.00    -0.174 N 
ATOM      3  H2  UNL     1      -4.518   4.579  12.754  1.00  0.00     0.186 HD
HETATM    4  C4  UNL     1      -4.578   2.628  13.373  1.00  0.00     0.159 A 
HETATM    5  C11 UNL     1      -4.345   1.326  13.033  1.00  0.00     0.176 A 
HETATM    6  F1  UNL     1      -4.546   0.253  13.836  1.00  0.00    -0.201 F 
HETATM    7  C12 UNL     1      -3.865   1.072  11.771  1.00  0.00     0.152 A 
HETATM    8  N4  UNL     1      -3.640   2.112  10.911  1.00  0.00    -0.199 N 
ATOM      9  H4  UNL     1      -3.284   1.899   9.979  1.00  0.00     0.183 HD
ENDROOT
BRANCH   1  10
HETATM   10  N1  UNL     1      -3.676   4.344  10.494  1.00  0.00    -0.215 N 
ATOM     11  H1  UNL     1      -4.182   5.160  10.839  1.00  0.00     0.178 HD
BRANCH  10  12
HETATM   12  C2  UNL     1      -2.954   4.651   9.305  1.00  0.00     0.163 C 
HETATM   13  C1  UNL     1      -3.452   5.915   8.704  1.00  0.00     0.041 C 
BRANCH  12  14
HETATM   14  C13 UNL     1      -1.506   4.662   9.674  1.00  0.00     0.107 A 
HETATM   15  N5  UNL     1      -0.534   3.951   9.074  1.00  0.00    -0.346 N 
HETATM   16  C14 UNL     1       0.620   4.187   9.670  1.00  0.00     0.033 A 
ATOM     17  H5  UNL     1      -0.668   3.325   8.280  1.00  0.00     0.167 HD
HETATM   18  C15 UNL     1       0.349   5.072  10.672  1.00  0.00     0.036 A 
HETATM   19  C23 UNL     1       2.063   3.833   9.624  1.00  0.00     0.059 C 
HETATM   20  N6  UNL     1      -0.993   5.378  10.682  1.00  0.00    -0.332 N 
HETATM   21  C21 UNL     1       1.646   5.369  11.383  1.00  0.00     0.059 C 
HETATM   22  C22 UNL     1       2.725   4.912  10.461  1.00  0.00     0.012 C 
BRANCH  20  23
HETATM   23  C16 UNL     1      -1.505   6.266  11.646  1.00  0.00     0.091 C 
HETATM   24  C17 UNL     1      -1.016   7.696  11.540  1.00  0.00     0.026 C 
HETATM   25  C18 UNL     1      -1.824   8.343  12.669  1.00  0.00     0.002 C 
HETATM   26  C19 UNL     1      -2.276   7.203  13.579  1.00  0.00     0.002 C 
HETATM   27  C20 UNL     1      -1.382   6.036  13.085  1.00  0.00     0.026 C 
ENDBRANCH  20  23
ENDBRANCH  12  14
ENDBRANCH  10  12
ENDBRANCH   1  10
BRANCH   4  28
HETATM   28  N3  UNL     1      -5.077   2.922  14.671  1.00  0.00    -0.364 N 
HETATM   29  C5  UNL     1      -4.133   2.771  15.790  1.00  0.00     0.125 C 
HETATM   30  C6  UNL     1      -4.775   1.781  16.733  1.00  0.00     0.026 C 
HETATM   31  C7  UNL     1      -6.051   2.374  17.232  1.00  0.00     0.012 C 
HETATM   32  C9  UNL     1      -6.449   3.618  16.499  1.00  0.00     0.026 C 
HETATM   33  C10 UNL     1      -6.399   3.348  14.996  1.00  0.00     0.125 C 
BRANCH  31  34
HETATM   34  C8  UNL     1      -7.196   1.371  17.090  1.00  0.00     0.168 C 
BRANCH  34  35
HETATM   35  O1  UNL     1      -6.718   0.144  16.632  1.00  0.00    -0.400 OA
ATOM     36  H1  UNL     1      -7.298  -0.560  16.899  1.00  0.00     0.209 HD
ENDBRANCH  34  35
ENDBRANCH  31  34
ENDBRANCH   4  28
TORSDOF 7
ENDMDL
MODEL 5
REMARK VINA RESULT: -8.338609580      0.932      2.959
REMARK  7 active torsions:
REMARK  status: ('A' for Active; 'I' for Inactive)
REMARK    1  A    between atoms: C2_2  and  N1_3 
REMARK    2  A    between atoms: C2_2  and  C13_23 
REMARK    3  A    between atoms: N1_3  and  C3_5 
REMARK    4  A    between atoms: C4_8  and  N3_9 
REMARK    5  A    between atoms: C7_12  and  C8_13 
REMARK    6  A    between atoms: C8_13  and  O1_14 
REMARK    7  A    between atoms: N6_28  and  C16_29 
ROOT
HETATM    1  C3  UNL     1      -4.058   3.834  11.245  1.00  0.00     0.680 A 
HETATM    2  N2  UNL     1      -4.509   3.976  12.530  1.00  0.00    -0.174 N 
ATOM      3  H2  UNL     1      -4.733   4.912  12.869  1.00  0.00     0.186 HD
HETATM    4  C4  UNL     1      -4.670   2.928  13.368  1.00  0.00     0.159 A 
HETATM    5  C11 UNL     1      -4.378   1.663  12.942  1.00  0.00     0.176 A 
HETATM    6  F1  UNL     1      -4.496   0.534  13.682  1.00  0.00    -0.201 F 
HETATM    7  C12 UNL     1      -3.926   1.512  11.653  1.00  0.00     0.152 A 
HETATM    8  N4  UNL     1      -3.785   2.612  10.853  1.00  0.00    -0.199 N 
ATOM      9  H4  UNL     1      -3.448   2.475   9.900  1.00  0.00     0.183 HD
ENDROOT
BRANCH   1  10
HETATM   10  N1  UNL     1      -3.952   4.860  10.575  1.00  0.00    -0.215 N 
ATOM     11  H1  UNL     1      -3.018   4.943  10.173  1.00  0.00     0.178 HD
BRANCH  10  12
HETATM   12  C2  UNL     1      -4.772   5.964  10.206  1.00  0.00     0.163 C 
HETATM   13  C1  UNL     1      -4.750   7.007  11.264  1.00  0.00     0.041 C 
BRANCH  12  14
HETATM   14  C13 UNL     1      -4.295   6.422   8.866  1.00  0.00     0.107 A 
HETATM   15  N5  UNL     1      -3.058   6.245   8.367  1.00  0.00    -0.346 N 
HETATM   16  C14 UNL     1      -2.981   6.794   7.169  1.00  0.00     0.033 A 
ATOM     17  H5  UNL     1      -2.296   5.760   8.841  1.00  0.00     0.167 HD
HETATM   18  C15 UNL     1      -4.211   7.329   6.923  1.00  0.00     0.036 A 
HETATM   19  C23 UNL     1      -2.046   7.020   6.036  1.00  0.00     0.059 C 
HETATM   20  N6  UNL     1      -5.049   7.099   7.991  1.00  0.00    -0.332 N 
HETATM   21  C21 UNL     1      -4.166   7.972   5.559  1.00  0.00     0.059 C 
HETATM   22  C22 UNL     1      -2.960   7.408   4.887  1.00  0.00     0.012 C 
BRANCH  20  23
HETATM   23  C16 UNL     1      -6.371   7.576   7.963  1.00  0.00     0.091 C 
HETATM   24  C17 UNL     1      -6.569   8.983   8.493  1.00  0.00     0.026 C 
HETATM   25  C18 UNL     1      -8.068   9.162   8.236  1.00  0.00     0.002 C 
HETATM   26  C19 UNL     1      -8.644   7.757   8.073  1.00  0.00     0.002 C 
HETATM   27  C20 UNL     1      -7.483   6.879   8.608  1.00  0.00     0.026 C 
ENDBRANCH  20  23
ENDBRANCH  12  14
ENDBRANCH  10  12
ENDBRANCH   1  10
BRANCH   4  28
HETATM   28  N3  UNL     1      -5.142   3.115  14.695  1.00  0.00    -0.364 N 
HETATM   29  C5  UNL     1      -4.160   2.932  15.776  1.00  0.00     0.125 C 
HETATM   30  C6  UNL     1      -4.733   1.856  16.668  1.00  0.00     0.026 C 
HETATM   31  C7  UNL     1      -6.017   2.361  17.240  1.00  0.00     0.012 C 
HETATM   32  C9  UNL     1      -6.486   3.633  16.602  1.00  0.00     0.026 C 
HETATM   33  C10 UNL     1      -6.470   3.463  15.083  1.00  0.00     0.125 C 
BRANCH  31  34
HETATM   34  C8  UNL     1      -7.124   1.323  17.062  1.00  0.00     0.168 C 
BRANCH  34  35
HETATM   35  O1  UNL     1      -6.600   0.127  16.572  1.00  0.00    -0.400 OA
ATOM     36  H1  UNL     1      -7.174  -0.242  15.911  1.00  0.00     0.209 HD
ENDBRANCH  34  35
ENDBRANCH  31  34
ENDBRANCH   4  28
TORSDOF 7
ENDMDL
