MODEL 1
REMARK VINA RESULT: -8.577480509      0.000      0.000
REMARK  5 active torsions:
REMARK  status: ('A' for Active; 'I' for Inactive)
REMARK    1  A    between atoms: O1_2  and  C2_3 
REMARK    2  A    between atoms: C3_4  and  C4_5 
REMARK    3  A    between atoms: C5_8  and  N2_9 
REMARK    4  A    between atoms: C11_19  and  C12_20 
REMARK       I    between atoms: C12_20  and  N5_22 
REMARK    5  A    between atoms: N5_22  and  C13_24 
ROOT
HETATM    1  C2  UNL     1      -2.374   3.255  11.323  1.00  0.00     0.091 A 
HETATM    2  C3  UNL     1      -3.623   3.392  11.860  1.00  0.00     0.045 A 
HETATM    3  C10 UNL     1      -4.442   4.375  11.371  1.00  0.00     0.038 A 
HETATM    4  C11 UNL     1      -4.070   5.255  10.348  1.00  0.00     0.067 A 
HETATM    5  C19 UNL     1      -2.810   5.087   9.837  1.00  0.00     0.093 A 
HETATM    6  C20 UNL     1      -1.977   4.108  10.313  1.00  0.00     0.013 A 
HETATM    7  C21 UNL     1      -0.684   4.198   9.543  1.00  0.00     0.071 C 
HETATM    8  C22 UNL     1      -0.753   5.619   9.026  1.00  0.00     0.180 C 
HETATM    9  O3  UNL     1      -2.144   5.797   8.818  1.00  0.00    -0.349 OA
ENDROOT
BRANCH   2  10
HETATM   10  C4  UNL     1      -4.064   2.557  12.983  1.00  0.00     0.149 A 
HETATM   11  N1  UNL     1      -4.792   3.061  14.010  1.00  0.00    -0.173 N 
HETATM   12  C5  UNL     1      -5.105   2.115  14.908  1.00  0.00     0.696 A 
ATOM     13  H1  UNL     1      -5.068   4.040  14.090  1.00  0.00     0.186 HD
HETATM   14  N3  UNL     1      -4.544   0.975  14.413  1.00  0.00    -0.130 N 
HETATM   15  N4  UNL     1      -3.926   1.273  13.257  1.00  0.00    -0.270 N 
ATOM     16  H3  UNL     1      -4.586   0.053  14.847  1.00  0.00     0.205 HD
ATOM     17  H4  UNL     1      -3.422   0.603  12.675  1.00  0.00     0.189 HD
BRANCH  12  18
HETATM   18  N2  UNL     1      -5.848   2.236  16.111  1.00  0.00    -0.216 N 
HETATM   19  C6  UNL     1      -5.950   1.284  17.188  1.00  0.00     0.141 C 
HETATM   20  C7  UNL     1      -6.160   2.156  18.424  1.00  0.00     0.022 C 
HETATM   21  C8  UNL     1      -6.334   3.559  17.934  1.00  0.00     0.022 C 
HETATM   22  C9  UNL     1      -6.654   3.374  16.469  1.00  0.00     0.141 C 
ENDBRANCH  12  18
ENDBRANCH   2  10
BRANCH   1  23
HETATM   23  O1  UNL     1      -1.438   2.290  11.715  1.00  0.00    -0.354 OA
HETATM   24  C1  UNL     1      -1.435   1.100  10.900  1.00  0.00     0.210 C 
ENDBRANCH   1  23
BRANCH   4  25
HETATM   25  C12 UNL     1      -5.035   6.266   9.912  1.00  0.00     0.254 C 
HETATM   26  O2  UNL     1      -6.261   5.923   9.786  1.00  0.00    -0.268 OA
HETATM   27  N5  UNL     1      -4.656   7.586   9.632  1.00  0.00    -0.352 N 
ATOM     28  H5  UNL     1      -3.688   7.892   9.724  1.00  0.00     0.163 HD
BRANCH  27  29
HETATM   29  C13 UNL     1      -5.722   8.520   9.199  1.00  0.00     0.087 C 
HETATM   30  C14 UNL     1      -5.368   9.130   7.879  1.00  0.00     0.025 C 
HETATM   31  C15 UNL     1      -6.487  10.073   7.496  1.00  0.00     0.005 C 
HETATM   32  C16 UNL     1      -6.478  11.222   8.445  1.00  0.00     0.037 C 
HETATM   33  C17 UNL     1      -5.886  10.956   9.781  1.00  0.00     0.172 C 
HETATM   34  F1  UNL     1      -6.555  11.765  10.707  1.00  0.00    -0.249 F 
HETATM   35  C18 UNL     1      -6.006   9.548  10.264  1.00  0.00     0.062 C 
ENDBRANCH  27  29
ENDBRANCH   4  25
TORSDOF 5
ENDMDL
MODEL 2
REMARK VINA RESULT: -8.468978624      4.683      8.213
REMARK  5 active torsions:
REMARK  status: ('A' for Active; 'I' for Inactive)
REMARK    1  A    between atoms: O1_2  and  C2_3 
REMARK    2  A    between atoms: C3_4  and  C4_5 
REMARK    3  A    between atoms: C5_8  and  N2_9 
REMARK    4  A    between atoms: C11_19  and  C12_20 
REMARK       I    between atoms: C12_20  and  N5_22 
REMARK    5  A    between atoms: N5_22  and  C13_24 
ROOT
HETATM    1  C2  UNL     1      -1.290   2.655  10.806  1.00  0.00     0.091 A 
HETATM    2  C3  UNL     1      -1.490   3.754  11.593  1.00  0.00     0.045 A 
HETATM    3  C10 UNL     1      -2.545   3.753  12.466  1.00  0.00     0.038 A 
HETATM    4  C11 UNL     1      -3.439   2.683  12.598  1.00  0.00     0.067 A 
HETATM    5  C19 UNL     1      -3.207   1.600  11.791  1.00  0.00     0.093 A 
HETATM    6  C20 UNL     1      -2.154   1.584  10.912  1.00  0.00     0.013 A 
HETATM    7  C21 UNL     1      -2.187   0.262  10.189  1.00  0.00     0.071 C 
HETATM    8  C22 UNL     1      -3.630  -0.147  10.398  1.00  0.00     0.180 C 
HETATM    9  O3  UNL     1      -3.911   0.384  11.682  1.00  0.00    -0.349 OA
ENDROOT
BRANCH   2  10
HETATM   10  C4  UNL     1      -0.641   4.945  11.466  1.00  0.00     0.149 A 
HETATM   11  N1  UNL     1       0.624   4.980  11.955  1.00  0.00    -0.173 N 
HETATM   12  C5  UNL     1       1.220   6.156  11.704  1.00  0.00     0.696 A 
ATOM     13  H1  UNL     1       1.067   4.208  12.453  1.00  0.00     0.186 HD
HETATM   14  N3  UNL     1       0.280   6.879  11.031  1.00  0.00    -0.130 N 
HETATM   15  N4  UNL     1      -0.826   6.125  10.904  1.00  0.00    -0.270 N 
ATOM     16  H3  UNL     1       0.397   7.830  10.683  1.00  0.00     0.205 HD
ATOM     17  H4  UNL     1      -1.685   6.422  10.440  1.00  0.00     0.189 HD
BRANCH  12  18
HETATM   18  N2  UNL     1       2.528   6.585  12.047  1.00  0.00    -0.216 N 
HETATM   19  C6  UNL     1       2.940   7.885  12.515  1.00  0.00     0.141 C 
HETATM   20  C7  UNL     1       4.139   7.585  13.410  1.00  0.00     0.022 C 
HETATM   21  C8  UNL     1       4.436   6.126  13.254  1.00  0.00     0.022 C 
HETATM   22  C9  UNL     1       3.708   5.761  11.982  1.00  0.00     0.141 C 
ENDBRANCH  12  18
ENDBRANCH   2  10
BRANCH   1  23
HETATM   23  O1  UNL     1      -0.248   2.514   9.880  1.00  0.00    -0.354 OA
HETATM   24  C1  UNL     1      -0.464   3.206   8.634  1.00  0.00     0.210 C 
ENDBRANCH   1  23
BRANCH   4  25
HETATM   25  C12 UNL     1      -4.530   2.801  13.566  1.00  0.00     0.254 C 
HETATM   26  O2  UNL     1      -5.604   3.394  13.204  1.00  0.00    -0.268 OA
HETATM   27  N5  UNL     1      -4.432   2.286  14.866  1.00  0.00    -0.352 N 
ATOM     28  H5  UNL     1      -3.590   1.807  15.185  1.00  0.00     0.163 HD
BRANCH  27  29
HETATM   29  C13 UNL     1      -5.602   2.467  15.758  1.00  0.00     0.087 C 
HETATM   30  C14 UNL     1      -5.717   3.899  16.173  1.00  0.00     0.025 C 
HETATM   31  C15 UNL     1      -6.921   4.016  17.082  1.00  0.00     0.005 C 
HETATM   32  C16 UNL     1      -6.626   3.289  18.349  1.00  0.00     0.037 C 
HETATM   33  C17 UNL     1      -5.620   2.201  18.253  1.00  0.00     0.172 C 
HETATM   34  F1  UNL     1      -5.963   1.226  19.197  1.00  0.00    -0.249 F 
HETATM   35  C18 UNL     1      -5.542   1.518  16.927  1.00  0.00     0.062 C 
ENDBRANCH  27  29
ENDBRANCH   4  25
TORSDOF 5
ENDMDL
MODEL 3
REMARK VINA RESULT: -8.466611048      1.332      1.615
REMARK  5 active torsions:
REMARK  status: ('A' for Active; 'I' for Inactive)
REMARK    1  A    between atoms: O1_2  and  C2_3 
REMARK    2  A    between atoms: C3_4  and  C4_5 
REMARK    3  A    between atoms: C5_8  and  N2_9 
REMARK    4  A    between atoms: C11_19  and  C12_20 
REMARK       I    between atoms: C12_20  and  N5_22 
REMARK    5  A    between atoms: N5_22  and  C13_24 
ROOT
HETATM    1  C2  UNL     1      -2.710   3.188  11.120  1.00  0.00     0.091 A 
HETATM    2  C3  UNL     1      -3.882   3.338  11.806  1.00  0.00     0.045 A 
HETATM    3  C10 UNL     1      -4.733   4.346  11.439  1.00  0.00     0.038 A 
HETATM    4  C11 UNL     1      -4.468   5.241  10.394  1.00  0.00     0.067 A 
HETATM    5  C19 UNL     1      -3.282   5.059   9.732  1.00  0.00     0.093 A 
HETATM    6  C20 UNL     1      -2.419   4.054  10.086  1.00  0.00     0.013 A 
HETATM    7  C21 UNL     1      -1.227   4.136   9.167  1.00  0.00     0.071 C 
HETATM    8  C22 UNL     1      -1.327   5.569   8.689  1.00  0.00     0.180 C 
HETATM    9  O3  UNL     1      -2.729   5.778   8.654  1.00  0.00    -0.349 OA
ENDROOT
BRANCH   2  10
HETATM   10  C4  UNL     1      -4.204   2.487  12.959  1.00  0.00     0.149 A 
HETATM   11  N1  UNL     1      -4.923   2.948  14.012  1.00  0.00    -0.173 N 
HETATM   12  C5  UNL     1      -5.117   1.993  14.935  1.00  0.00     0.696 A 
ATOM     13  H1  UNL     1      -5.274   3.902  14.093  1.00  0.00     0.186 HD
HETATM   14  N3  UNL     1      -4.488   0.895  14.429  1.00  0.00    -0.130 N 
HETATM   15  N4  UNL     1      -3.949   1.223  13.241  1.00  0.00    -0.270 N 
ATOM     16  H3  UNL     1      -4.436  -0.021  14.875  1.00  0.00     0.205 HD
ATOM     17  H4  UNL     1      -3.419   0.587  12.645  1.00  0.00     0.189 HD
BRANCH  12  18
HETATM   18  N2  UNL     1      -5.812   2.073  16.169  1.00  0.00    -0.216 N 
HETATM   19  C6  UNL     1      -5.754   1.156  17.279  1.00  0.00     0.141 C 
HETATM   20  C7  UNL     1      -6.006   2.042  18.497  1.00  0.00     0.022 C 
HETATM   21  C8  UNL     1      -6.363   3.398  17.972  1.00  0.00     0.022 C 
HETATM   22  C9  UNL     1      -6.728   3.125  16.532  1.00  0.00     0.141 C 
ENDBRANCH  12  18
ENDBRANCH   2  10
BRANCH   1  23
HETATM   23  O1  UNL     1      -1.754   2.197  11.379  1.00  0.00    -0.354 OA
HETATM   24  C1  UNL     1      -1.864   1.033  10.535  1.00  0.00     0.210 C 
ENDBRANCH   1  23
BRANCH   4  25
HETATM   25  C12 UNL     1      -5.456   6.278  10.097  1.00  0.00     0.254 C 
HETATM   26  O2  UNL     1      -6.194   6.708  11.050  1.00  0.00    -0.268 OA
HETATM   27  N5  UNL     1      -5.615   6.810   8.810  1.00  0.00    -0.352 N 
ATOM     28  H5  UNL     1      -5.043   6.490   8.029  1.00  0.00     0.163 HD
BRANCH  27  29
HETATM   29  C13 UNL     1      -6.649   7.856   8.631  1.00  0.00     0.087 C 
HETATM   30  C14 UNL     1      -7.901   7.255   8.074  1.00  0.00     0.025 C 
HETATM   31  C15 UNL     1      -8.910   8.370   7.909  1.00  0.00     0.005 C 
HETATM   32  C16 UNL     1      -8.431   9.283   6.833  1.00  0.00     0.037 C 
HETATM   33  C17 UNL     1      -6.964   9.297   6.601  1.00  0.00     0.172 C 
HETATM   34  F1  UNL     1      -6.619  10.584   6.169  1.00  0.00    -0.249 F 
HETATM   35  C18 UNL     1      -6.124   8.998   7.798  1.00  0.00     0.062 C 
ENDBRANCH  27  29
ENDBRANCH   4  25
TORSDOF 5
ENDMDL
MODEL 4
REMARK VINA RESULT: -8.350552876      2.473      8.114
REMARK  5 active torsions:
REMARK  status: ('A' for Active; 'I' for Inactive)
REMARK    1  A    between atoms: O1_2  and  C2_3 
REMARK    2  A    between atoms: C3_4  and  C4_5 
REMARK    3  A    between atoms: C5_8  and  N2_9 
REMARK    4  A    between atoms: C11_19  and  C12_20 
REMARK       I    between atoms: C12_20  and  N5_22 
REMARK    5  A    between atoms: N5_22  and  C13_24 
ROOT
HETATM    1  C2  UNL     1      -2.916   4.794   9.757  1.00  0.00     0.091 A 
HETATM    2  C3  UNL     1      -3.742   5.501  10.584  1.00  0.00     0.045 A 
HETATM    3  C10 UNL     1      -3.890   5.081  11.879  1.00  0.00     0.038 A 
HETATM    4  C11 UNL     1      -3.239   3.960  12.409  1.00  0.00     0.067 A 
HETATM    5  C19 UNL     1      -2.420   3.277  11.548  1.00  0.00     0.093 A 
HETATM    6  C20 UNL     1      -2.260   3.683  10.248  1.00  0.00     0.013 A 
HETATM    7  C21 UNL     1      -1.305   2.723   9.587  1.00  0.00     0.071 C 
HETATM    8  C22 UNL     1      -1.421   1.522  10.502  1.00  0.00     0.180 C 
HETATM    9  O3  UNL     1      -1.637   2.126  11.767  1.00  0.00    -0.349 OA
ENDROOT
BRANCH   2  10
HETATM   10  C4  UNL     1      -4.516   6.646  10.089  1.00  0.00     0.149 A 
HETATM   11  N1  UNL     1      -5.561   6.492   9.237  1.00  0.00    -0.173 N 
HETATM   12  C5  UNL     1      -6.134   7.668   8.939  1.00  0.00     0.696 A 
ATOM     13  H1  UNL     1      -5.872   5.593   8.869  1.00  0.00     0.186 HD
HETATM   14  N3  UNL     1      -5.410   8.589   9.637  1.00  0.00    -0.130 N 
HETATM   15  N4  UNL     1      -4.445   7.944  10.317  1.00  0.00    -0.270 N 
ATOM     16  H3  UNL     1      -5.573   9.596   9.641  1.00  0.00     0.205 HD
ATOM     17  H4  UNL     1      -3.758   8.394  10.922  1.00  0.00     0.189 HD
BRANCH  12  18
HETATM   18  N2  UNL     1      -7.242   7.932   8.093  1.00  0.00    -0.216 N 
HETATM   19  C6  UNL     1      -8.641   7.739   8.379  1.00  0.00     0.141 C 
HETATM   20  C7  UNL     1      -9.333   8.824   7.557  1.00  0.00     0.022 C 
HETATM   21  C8  UNL     1      -8.274   9.463   6.714  1.00  0.00     0.022 C 
HETATM   22  C9  UNL     1      -7.149   8.456   6.754  1.00  0.00     0.141 C 
ENDBRANCH  12  18
ENDBRANCH   2  10
BRANCH   1  23
HETATM   23  O1  UNL     1      -2.663   5.114   8.417  1.00  0.00    -0.354 OA
HETATM   24  C1  UNL     1      -1.579   6.045   8.224  1.00  0.00     0.210 C 
ENDBRANCH   1  23
BRANCH   4  25
HETATM   25  C12 UNL     1      -3.478   3.611  13.810  1.00  0.00     0.254 C 
HETATM   26  O2  UNL     1      -2.660   4.043  14.693  1.00  0.00    -0.268 OA
HETATM   27  N5  UNL     1      -4.569   2.826  14.207  1.00  0.00    -0.352 N 
ATOM     28  H5  UNL     1      -5.240   2.468  13.527  1.00  0.00     0.163 HD
BRANCH  27  29
HETATM   29  C13 UNL     1      -4.708   2.538  15.653  1.00  0.00     0.087 C 
HETATM   30  C14 UNL     1      -5.277   1.169  15.855  1.00  0.00     0.025 C 
HETATM   31  C15 UNL     1      -5.399   0.940  17.346  1.00  0.00     0.005 C 
HETATM   32  C16 UNL     1      -6.447   1.855  17.878  1.00  0.00     0.037 C 
HETATM   33  C17 UNL     1      -6.687   3.093  17.093  1.00  0.00     0.172 C 
HETATM   34  F1  UNL     1      -7.078   4.093  17.992  1.00  0.00    -0.249 F 
HETATM   35  C18 UNL     1      -5.505   3.614  16.345  1.00  0.00     0.062 C 
ENDBRANCH  27  29
ENDBRANCH   4  25
TORSDOF 5
ENDMDL
MODEL 5
REMARK VINA RESULT: -8.306910966      1.871      2.222
REMARK  5 active torsions:
REMARK  status: ('A' for Active; 'I' for Inactive)
REMARK    1  A    between atoms: O1_2  and  C2_3 
REMARK    2  A    between atoms: C3_4  and  C4_5 
REMARK    3  A    between atoms: C5_8  and  N2_9 
REMARK    4  A    between atoms: C11_19  and  C12_20 
REMARK       I    between atoms: C12_20  and  N5_22 
REMARK    5  A    between atoms: N5_22  and  C13_24 
ROOT
HETATM    1  C2  UNL     1      -2.934   4.270  10.979  1.00  0.00     0.091 A 
HETATM    2  C3  UNL     1      -3.876   4.664  11.887  1.00  0.00     0.045 A 
HETATM    3  C10 UNL     1      -4.815   5.583  11.500  1.00  0.00     0.038 A 
HETATM    4  C11 UNL     1      -4.865   6.147  10.218  1.00  0.00     0.067 A 
HETATM    5  C19 UNL     1      -3.903   5.727   9.338  1.00  0.00     0.093 A 
HETATM    6  C20 UNL     1      -2.955   4.807   9.708  1.00  0.00     0.013 A 
HETATM    7  C21 UNL     1      -2.063   4.571   8.517  1.00  0.00     0.071 C 
HETATM    8  C22 UNL     1      -2.320   5.825   7.709  1.00  0.00     0.180 C 
HETATM    9  O3  UNL     1      -3.681   6.096   7.996  1.00  0.00    -0.349 OA
ENDROOT
BRANCH   2  10
HETATM   10  C4  UNL     1      -3.851   4.175  13.271  1.00  0.00     0.149 A 
HETATM   11  N1  UNL     1      -4.968   3.717  13.890  1.00  0.00    -0.173 N 
HETATM   12  C5  UNL     1      -4.706   3.298  15.137  1.00  0.00     0.696 A 
ATOM     13  H1  UNL     1      -5.892   3.693  13.459  1.00  0.00     0.186 HD
HETATM   14  N3  UNL     1      -3.368   3.509  15.296  1.00  0.00    -0.130 N 
HETATM   15  N4  UNL     1      -2.883   4.038  14.158  1.00  0.00    -0.270 N 
ATOM     16  H3  UNL     1      -2.827   3.302  16.135  1.00  0.00     0.205 HD
ATOM     17  H4  UNL     1      -1.908   4.294  14.003  1.00  0.00     0.189 HD
BRANCH  12  18
HETATM   18  N2  UNL     1      -5.594   2.756  16.101  1.00  0.00    -0.216 N 
HETATM   19  C6  UNL     1      -5.778   1.371  16.456  1.00  0.00     0.141 C 
HETATM   20  C7  UNL     1      -6.181   1.423  17.928  1.00  0.00     0.022 C 
HETATM   21  C8  UNL     1      -6.365   2.869  18.270  1.00  0.00     0.022 C 
HETATM   22  C9  UNL     1      -6.495   3.528  16.918  1.00  0.00     0.141 C 
ENDBRANCH  12  18
ENDBRANCH   2  10
BRANCH   1  23
HETATM   23  O1  UNL     1      -1.924   3.333  11.233  1.00  0.00    -0.354 OA
HETATM   24  C1  UNL     1      -2.318   1.963  11.015  1.00  0.00     0.210 C 
ENDBRANCH   1  23
BRANCH   4  25
HETATM   25  C12 UNL     1      -5.917   7.120   9.925  1.00  0.00     0.254 C 
HETATM   26  O2  UNL     1      -6.523   7.676  10.906  1.00  0.00    -0.268 OA
HETATM   27  N5  UNL     1      -6.277   7.458   8.613  1.00  0.00    -0.352 N 
ATOM     28  H5  UNL     1      -5.813   7.033   7.810  1.00  0.00     0.163 HD
BRANCH  27  29
HETATM   29  C13 UNL     1      -7.358   8.456   8.441  1.00  0.00     0.087 C 
HETATM   30  C14 UNL     1      -8.637   7.774   8.072  1.00  0.00     0.025 C 
HETATM   31  C15 UNL     1      -9.694   8.843   7.905  1.00  0.00     0.005 C 
HETATM   32  C16 UNL     1      -9.353   9.658   6.705  1.00  0.00     0.037 C 
HETATM   33  C17 UNL     1      -7.918   9.685   6.326  1.00  0.00     0.172 C 
HETATM   34  F1  UNL     1      -7.660  10.932   5.743  1.00  0.00    -0.249 F 
HETATM   35  C18 UNL     1      -6.955   9.524   7.456  1.00  0.00     0.062 C 
ENDBRANCH  27  29
ENDBRANCH   4  25
TORSDOF 5
ENDMDL
