MODEL 1
REMARK VINA RESULT: -7.211858081      0.000      0.000
REMARK  7 active torsions:
REMARK  status: ('A' for Active; 'I' for Inactive)
REMARK    1  A    between atoms: C3_3  and  C4_4 
REMARK    2  A    between atoms: C10_13  and  N2_14 
REMARK    3  A    between atoms: N2_14  and  C11_16 
REMARK    4  A    between atoms: C11_16  and  C13_18 
REMARK    5  A    between atoms: C15_20  and  O1_21 
REMARK    6  A    between atoms: C17_23  and  O2_24 
REMARK    7  A    between atoms: C19_26  and  O3_27 
ROOT
HETATM    1  C1  UNL     1      -1.841   7.800  14.680  1.00  0.00     0.112 C 
HETATM    2  C2  UNL     1      -1.756   7.208  13.325  1.00  0.00    -0.109 C 
HETATM    3  C3  UNL     1      -1.681   6.746  12.214  1.00  0.00    -0.078 C 
ENDROOT
BRANCH   3   4
HETATM    4  C4  UNL     1      -1.587   6.215  10.874  1.00  0.00     0.127 A 
HETATM    5 CL1  UNL     1      -2.818   6.845   9.752  1.00  0.00    -0.103 Cl
HETATM    6  C5  UNL     1      -0.254   5.889  10.289  1.00  0.00     0.007 A 
HETATM    7  C6  UNL     1      -0.005   6.228   8.849  1.00  0.00     0.019 C 
HETATM    8  C7  UNL     1       0.917   6.228  11.210  1.00  0.00     0.019 C 
HETATM    9  C8  UNL     1      -1.129   4.762  10.682  1.00  0.00     0.101 A 
HETATM   10  C9  UNL     1      -0.696   3.990  11.883  1.00  0.00     0.161 C 
HETATM   11  C22 UNL     1      -1.943   4.023   9.724  1.00  0.00     0.250 C 
HETATM   12  N1  UNL     1      -1.312   2.721  12.057  1.00  0.00    -0.225 N 
HETATM   13  C10 UNL     1      -2.110   2.129  11.268  1.00  0.00     0.677 C 
ATOM     14  H1  UNL     1      -1.086   2.226  12.919  1.00  0.00     0.177 HD
HETATM   15  N3  UNL     1      -2.469   2.747  10.058  1.00  0.00    -0.159 N 
ATOM     16  H3  UNL     1      -3.110   2.278   9.418  1.00  0.00     0.187 HD
HETATM   17  O4  UNL     1      -2.194   4.486   8.605  1.00  0.00    -0.272 OA
BRANCH  13  18
HETATM   18  N2  UNL     1      -2.597   0.851  11.669  1.00  0.00    -0.218 N 
ATOM     19  H2  UNL     1      -1.966   0.053  11.723  1.00  0.00     0.178 HD
BRANCH  18  20
HETATM   20  C11 UNL     1      -3.987   0.701  11.995  1.00  0.00     0.128 C 
HETATM   21  C12 UNL     1      -4.331  -0.772  12.012  1.00  0.00     0.038 C 
BRANCH  20  22
HETATM   22  C13 UNL     1      -4.375   1.354  13.247  1.00  0.00    -0.030 A 
HETATM   23  C14 UNL     1      -4.396   0.714  14.464  1.00  0.00     0.049 A 
HETATM   24  C15 UNL     1      -4.771   1.391  15.610  1.00  0.00     0.104 A 
HETATM   25  C17 UNL     1      -5.129   2.731  15.532  1.00  0.00     0.135 A 
HETATM   26  C19 UNL     1      -5.112   3.384  14.317  1.00  0.00     0.104 A 
HETATM   27  C21 UNL     1      -4.736   2.682  13.205  1.00  0.00     0.049 A 
BRANCH  24  28
HETATM   28  O1  UNL     1      -4.809   0.800  16.843  1.00  0.00    -0.353 OA
HETATM   29  C16 UNL     1      -5.949   0.128  17.327  1.00  0.00     0.210 C 
ENDBRANCH  24  28
BRANCH  25  30
HETATM   30  O2  UNL     1      -5.510   3.454  16.639  1.00  0.00    -0.351 OA
HETATM   31  C18 UNL     1      -6.836   3.620  17.057  1.00  0.00     0.210 C 
ENDBRANCH  25  30
BRANCH  26  32
HETATM   32  O3  UNL     1      -5.472   4.741  14.217  1.00  0.00    -0.353 OA
HETATM   33  C20 UNL     1      -4.990   5.492  13.120  1.00  0.00     0.210 C 
ENDBRANCH  26  32
ENDBRANCH  20  22
ENDBRANCH  18  20
ENDBRANCH  13  18
ENDBRANCH   3   4
TORSDOF 7
ENDMDL
MODEL 2
REMARK VINA RESULT: -7.064384338      0.116      2.328
REMARK  7 active torsions:
REMARK  status: ('A' for Active; 'I' for Inactive)
REMARK    1  A    between atoms: C3_3  and  C4_4 
REMARK    2  A    between atoms: C10_13  and  N2_14 
REMARK    3  A    between atoms: N2_14  and  C11_16 
REMARK    4  A    between atoms: C11_16  and  C13_18 
REMARK    5  A    between atoms: C15_20  and  O1_21 
REMARK    6  A    between atoms: C17_23  and  O2_24 
REMARK    7  A    between atoms: C19_26  and  O3_27 
ROOT
HETATM    1  C1  UNL     1      -1.861   7.690  14.655  1.00  0.00     0.112 C 
HETATM    2  C2  UNL     1      -1.766   7.101  13.299  1.00  0.00    -0.109 C 
HETATM    3  C3  UNL     1      -1.678   6.639  12.189  1.00  0.00    -0.078 C 
ENDROOT
BRANCH   3   4
HETATM    4  C4  UNL     1      -1.562   6.107  10.851  1.00  0.00     0.127 A 
HETATM    5 CL1  UNL     1      -2.767   6.745   9.705  1.00  0.00    -0.103 Cl
HETATM    6  C5  UNL     1      -0.220   5.774  10.291  1.00  0.00     0.007 A 
HETATM    7  C6  UNL     1       0.059   6.110   8.857  1.00  0.00     0.019 C 
HETATM    8  C7  UNL     1       0.935   6.106  11.235  1.00  0.00     0.019 C 
HETATM    9  C8  UNL     1      -1.109   4.651  10.668  1.00  0.00     0.101 A 
HETATM   10  C9  UNL     1      -0.704   3.877  11.877  1.00  0.00     0.161 C 
HETATM   11  C22 UNL     1      -1.909   3.917   9.695  1.00  0.00     0.250 C 
HETATM   12  N1  UNL     1      -1.331   2.612  12.039  1.00  0.00    -0.225 N 
HETATM   13  C10 UNL     1      -2.117   2.024  11.235  1.00  0.00     0.677 C 
ATOM     14  H1  UNL     1      -1.124   2.116  12.906  1.00  0.00     0.177 HD
HETATM   15  N3  UNL     1      -2.449   2.644  10.019  1.00  0.00    -0.159 N 
ATOM     16  H3  UNL     1      -3.080   2.179   9.367  1.00  0.00     0.187 HD
HETATM   17  O4  UNL     1      -2.136   4.381   8.571  1.00  0.00    -0.272 OA
BRANCH  13  18
HETATM   18  N2  UNL     1      -2.620   0.750  11.627  1.00  0.00    -0.218 N 
ATOM     19  H2  UNL     1      -2.002  -0.060  11.658  1.00  0.00     0.178 HD
BRANCH  18  20
HETATM   20  C11 UNL     1      -4.005   0.619  11.978  1.00  0.00     0.128 C 
HETATM   21  C12 UNL     1      -4.333  -0.847  12.148  1.00  0.00     0.038 C 
BRANCH  20  22
HETATM   22  C13 UNL     1      -4.391   1.393  13.161  1.00  0.00    -0.030 A 
HETATM   23  C14 UNL     1      -4.750   2.720  13.117  1.00  0.00     0.049 A 
HETATM   24  C15 UNL     1      -5.106   3.392  14.273  1.00  0.00     0.104 A 
HETATM   25  C17 UNL     1      -5.100   2.720  15.489  1.00  0.00     0.135 A 
HETATM   26  C19 UNL     1      -4.741   1.389  15.544  1.00  0.00     0.104 A 
HETATM   27  C21 UNL     1      -4.396   0.758  14.382  1.00  0.00     0.049 A 
BRANCH  24  28
HETATM   28  O1  UNL     1      -5.470   4.710  14.282  1.00  0.00    -0.353 OA
HETATM   29  C16 UNL     1      -5.201   5.579  13.206  1.00  0.00     0.210 C 
ENDBRANCH  24  28
BRANCH  25  30
HETATM   30  O2  UNL     1      -5.445   3.338  16.669  1.00  0.00    -0.351 OA
HETATM   31  C18 UNL     1      -6.759   3.625  17.058  1.00  0.00     0.210 C 
ENDBRANCH  25  30
BRANCH  26  32
HETATM   32  O3  UNL     1      -4.730   0.692  16.768  1.00  0.00    -0.353 OA
HETATM   33  C20 UNL     1      -5.938   0.125  17.236  1.00  0.00     0.210 C 
ENDBRANCH  26  32
ENDBRANCH  20  22
ENDBRANCH  18  20
ENDBRANCH  13  18
ENDBRANCH   3   4
TORSDOF 7
ENDMDL
MODEL 3
REMARK VINA RESULT: -6.836958781      4.067      5.145
REMARK  7 active torsions:
REMARK  status: ('A' for Active; 'I' for Inactive)
REMARK    1  A    between atoms: C3_3  and  C4_4 
REMARK    2  A    between atoms: C10_13  and  N2_14 
REMARK    3  A    between atoms: N2_14  and  C11_16 
REMARK    4  A    between atoms: C11_16  and  C13_18 
REMARK    5  A    between atoms: C15_20  and  O1_21 
REMARK    6  A    between atoms: C17_23  and  O2_24 
REMARK    7  A    between atoms: C19_26  and  O3_27 
ROOT
HETATM    1  C1  UNL     1      -6.342  12.843  10.045  1.00  0.00     0.112 C 
HETATM    2  C2  UNL     1      -6.441  11.415   9.662  1.00  0.00    -0.109 C 
HETATM    3  C3  UNL     1      -6.504  10.256   9.338  1.00  0.00    -0.078 C 
ENDROOT
BRANCH   3   4
HETATM    4  C4  UNL     1      -6.560   8.870   8.934  1.00  0.00     0.127 A 
HETATM    5 CL1  UNL     1      -8.184   8.146   9.036  1.00  0.00    -0.103 Cl
HETATM    6  C5  UNL     1      -5.674   8.372   7.842  1.00  0.00     0.007 A 
HETATM    7  C6  UNL     1      -6.243   7.406   6.846  1.00  0.00     0.019 C 
HETATM    8  C7  UNL     1      -4.807   9.461   7.214  1.00  0.00     0.019 C 
HETATM    9  C8  UNL     1      -5.358   7.961   9.229  1.00  0.00     0.101 A 
HETATM   10  C9  UNL     1      -4.136   8.574   9.826  1.00  0.00     0.161 C 
HETATM   11  C22 UNL     1      -5.737   6.664   9.775  1.00  0.00     0.250 C 
HETATM   12  N1  UNL     1      -3.632   7.937  10.993  1.00  0.00    -0.225 N 
HETATM   13  C10 UNL     1      -4.039   6.861  11.529  1.00  0.00     0.677 C 
ATOM     14  H1  UNL     1      -2.850   8.400  11.456  1.00  0.00     0.177 HD
HETATM   15  N3  UNL     1      -5.113   6.165  10.949  1.00  0.00    -0.159 N 
ATOM     16  H3  UNL     1      -5.446   5.300  11.373  1.00  0.00     0.187 HD
HETATM   17  O4  UNL     1      -6.604   5.969   9.232  1.00  0.00    -0.272 OA
BRANCH  13  18
HETATM   18  N2  UNL     1      -3.366   6.422  12.705  1.00  0.00    -0.218 N 
ATOM     19  H2  UNL     1      -3.361   7.003  13.543  1.00  0.00     0.178 HD
BRANCH  18  20
HETATM   20  C11 UNL     1      -2.694   5.154  12.698  1.00  0.00     0.128 C 
HETATM   21  C12 UNL     1      -1.332   5.315  13.335  1.00  0.00     0.038 C 
BRANCH  20  22
HETATM   22  C13 UNL     1      -3.457   4.077  13.333  1.00  0.00    -0.030 A 
HETATM   23  C14 UNL     1      -3.693   2.860  12.739  1.00  0.00     0.049 A 
HETATM   24  C15 UNL     1      -4.421   1.884  13.396  1.00  0.00     0.104 A 
HETATM   25  C17 UNL     1      -4.918   2.137  14.669  1.00  0.00     0.135 A 
HETATM   26  C19 UNL     1      -4.687   3.354  15.274  1.00  0.00     0.104 A 
HETATM   27  C21 UNL     1      -3.964   4.294  14.595  1.00  0.00     0.049 A 
BRANCH  24  28
HETATM   28  O1  UNL     1      -4.684   0.659  12.849  1.00  0.00    -0.353 OA
HETATM   29  C16 UNL     1      -4.428   0.363  11.495  1.00  0.00     0.210 C 
ENDBRANCH  24  28
BRANCH  25  30
HETATM   30  O2  UNL     1      -5.648   1.204  15.369  1.00  0.00    -0.351 OA
HETATM   31  C18 UNL     1      -5.146   0.437  16.427  1.00  0.00     0.210 C 
ENDBRANCH  25  30
BRANCH  26  32
HETATM   32  O3  UNL     1      -5.183   3.629  16.564  1.00  0.00    -0.353 OA
HETATM   33  C20 UNL     1      -6.548   3.970  16.707  1.00  0.00     0.210 C 
ENDBRANCH  26  32
ENDBRANCH  20  22
ENDBRANCH  18  20
ENDBRANCH  13  18
ENDBRANCH   3   4
TORSDOF 7
ENDMDL
MODEL 4
REMARK VINA RESULT: -6.722479248      1.494      2.334
REMARK  7 active torsions:
REMARK  status: ('A' for Active; 'I' for Inactive)
REMARK    1  A    between atoms: C3_3  and  C4_4 
REMARK    2  A    between atoms: C10_13  and  N2_14 
REMARK    3  A    between atoms: N2_14  and  C11_16 
REMARK    4  A    between atoms: C11_16  and  C13_18 
REMARK    5  A    between atoms: C15_20  and  O1_21 
REMARK    6  A    between atoms: C17_23  and  O2_24 
REMARK    7  A    between atoms: C19_26  and  O3_27 
ROOT
HETATM    1  C1  UNL     1       2.855   6.379   9.943  1.00  0.00     0.112 C 
HETATM    2  C2  UNL     1       1.436   6.192   9.558  1.00  0.00    -0.109 C 
HETATM    3  C3  UNL     1       0.288   6.040   9.224  1.00  0.00    -0.078 C 
ENDROOT
BRANCH   3   4
HETATM    4  C4  UNL     1      -1.081   5.861   8.800  1.00  0.00     0.127 A 
HETATM    5 CL1  UNL     1      -2.166   7.199   9.251  1.00  0.00    -0.103 Cl
HETATM    6  C5  UNL     1      -1.382   5.161   7.518  1.00  0.00     0.007 A 
HETATM    7  C6  UNL     1      -2.479   5.701   6.650  1.00  0.00     0.019 C 
HETATM    8  C7  UNL     1      -0.134   4.745   6.741  1.00  0.00     0.019 C 
HETATM    9  C8  UNL     1      -1.672   4.444   8.780  1.00  0.00     0.101 A 
HETATM   10  C9  UNL     1      -0.773   3.296   9.098  1.00  0.00     0.161 C 
HETATM   11  C22 UNL     1      -3.009   4.369   9.357  1.00  0.00     0.250 C 
HETATM   12  N1  UNL     1      -1.245   2.400  10.095  1.00  0.00    -0.225 N 
HETATM   13  C10 UNL     1      -2.373   2.406  10.676  1.00  0.00     0.677 C 
ATOM     14  H1  UNL     1      -0.600   1.663  10.379  1.00  0.00     0.177 HD
HETATM   15  N3  UNL     1      -3.317   3.390  10.338  1.00  0.00    -0.159 N 
ATOM     16  H3  UNL     1      -4.227   3.402  10.800  1.00  0.00     0.187 HD
HETATM   17  O4  UNL     1      -3.902   5.150   9.007  1.00  0.00    -0.272 OA
BRANCH  13  18
HETATM   18  N2  UNL     1      -2.612   1.394  11.650  1.00  0.00    -0.218 N 
ATOM     19  H2  UNL     1      -1.832   0.892  12.073  1.00  0.00     0.178 HD
BRANCH  18  20
HETATM   20  C11 UNL     1      -3.963   1.089  12.029  1.00  0.00     0.128 C 
HETATM   21  C12 UNL     1      -4.180  -0.404  11.916  1.00  0.00     0.038 C 
BRANCH  20  22
HETATM   22  C13 UNL     1      -4.329   1.583  13.359  1.00  0.00    -0.030 A 
HETATM   23  C14 UNL     1      -4.474   0.770  14.458  1.00  0.00     0.049 A 
HETATM   24  C15 UNL     1      -4.821   1.302  15.687  1.00  0.00     0.104 A 
HETATM   25  C17 UNL     1      -5.024   2.670  15.812  1.00  0.00     0.135 A 
HETATM   26  C19 UNL     1      -4.883   3.495  14.715  1.00  0.00     0.104 A 
HETATM   27  C21 UNL     1      -4.539   2.934  13.517  1.00  0.00     0.049 A 
BRANCH  24  28
HETATM   28  O1  UNL     1      -4.977   0.536  16.810  1.00  0.00    -0.353 OA
HETATM   29  C16 UNL     1      -6.243   0.170  17.307  1.00  0.00     0.210 C 
ENDBRANCH  24  28
BRANCH  25  30
HETATM   30  O2  UNL     1      -5.371   3.253  17.009  1.00  0.00    -0.351 OA
HETATM   31  C18 UNL     1      -6.674   3.629  17.358  1.00  0.00     0.210 C 
ENDBRANCH  25  30
BRANCH  26  32
HETATM   32  O3  UNL     1      -5.085   4.885  14.822  1.00  0.00    -0.353 OA
HETATM   33  C20 UNL     1      -3.968   5.744  14.703  1.00  0.00     0.210 C 
ENDBRANCH  26  32
ENDBRANCH  20  22
ENDBRANCH  18  20
ENDBRANCH  13  18
ENDBRANCH   3   4
TORSDOF 7
ENDMDL
MODEL 5
REMARK VINA RESULT: -6.620488029      4.092      6.068
REMARK  7 active torsions:
REMARK  status: ('A' for Active; 'I' for Inactive)
REMARK    1  A    between atoms: C3_3  and  C4_4 
REMARK    2  A    between atoms: C10_13  and  N2_14 
REMARK    3  A    between atoms: N2_14  and  C11_16 
REMARK    4  A    between atoms: C11_16  and  C13_18 
REMARK    5  A    between atoms: C15_20  and  O1_21 
REMARK    6  A    between atoms: C17_23  and  O2_24 
REMARK    7  A    between atoms: C19_26  and  O3_27 
ROOT
HETATM    1  C1  UNL     1      -5.280  12.721  10.530  1.00  0.00     0.112 C 
HETATM    2  C2  UNL     1      -5.696  11.322  10.279  1.00  0.00    -0.109 C 
HETATM    3  C3  UNL     1      -6.055  10.188  10.082  1.00  0.00    -0.078 C 
ENDROOT
BRANCH   3   4
HETATM    4  C4  UNL     1      -6.506   8.834   9.857  1.00  0.00     0.127 A 
HETATM    5 CL1  UNL     1      -7.156   8.032  11.308  1.00  0.00    -0.103 Cl
HETATM    6  C5  UNL     1      -7.122   8.457   8.553  1.00  0.00     0.007 A 
HETATM    7  C6  UNL     1      -8.309   7.542   8.562  1.00  0.00     0.019 C 
HETATM    8  C7  UNL     1      -7.258   9.627   7.580  1.00  0.00     0.019 C 
HETATM    9  C8  UNL     1      -5.757   7.962   8.839  1.00  0.00     0.101 A 
HETATM   10  C9  UNL     1      -4.658   8.584   8.044  1.00  0.00     0.161 C 
HETATM   11  C22 UNL     1      -5.491   6.612   9.322  1.00  0.00     0.250 C 
HETATM   12  N1  UNL     1      -3.419   7.887   8.051  1.00  0.00    -0.225 N 
HETATM   13  C10 UNL     1      -3.165   6.758   8.571  1.00  0.00     0.677 C 
ATOM     14  H1  UNL     1      -2.641   8.349   7.582  1.00  0.00     0.177 HD
HETATM   15  N3  UNL     1      -4.187   6.058   9.235  1.00  0.00    -0.159 N 
ATOM     16  H3  UNL     1      -3.991   5.150   9.655  1.00  0.00     0.187 HD
HETATM   17  O4  UNL     1      -6.390   5.920   9.816  1.00  0.00    -0.272 OA
BRANCH  13  18
HETATM   18  N2  UNL     1      -1.834   6.265   8.444  1.00  0.00    -0.218 N 
ATOM     19  H2  UNL     1      -1.524   5.837   7.572  1.00  0.00     0.178 HD
BRANCH  18  20
HETATM   20  C11 UNL     1      -0.934   6.377   9.557  1.00  0.00     0.128 C 
HETATM   21  C12 UNL     1      -0.669   7.841   9.829  1.00  0.00     0.038 C 
BRANCH  20  22
HETATM   22  C13 UNL     1      -1.396   5.684  10.762  1.00  0.00    -0.030 A 
HETATM   23  C14 UNL     1      -1.548   4.320  10.844  1.00  0.00     0.049 A 
HETATM   24  C15 UNL     1      -1.987   3.729  12.015  1.00  0.00     0.104 A 
HETATM   25  C17 UNL     1      -2.277   4.521  13.119  1.00  0.00     0.135 A 
HETATM   26  C19 UNL     1      -2.128   5.890  13.048  1.00  0.00     0.104 A 
HETATM   27  C21 UNL     1      -1.693   6.439  11.875  1.00  0.00     0.049 A 
BRANCH  24  28
HETATM   28  O1  UNL     1      -2.154   2.378  12.147  1.00  0.00    -0.353 OA
HETATM   29  C16 UNL     1      -1.585   1.453  11.249  1.00  0.00     0.210 C 
ENDBRANCH  24  28
BRANCH  25  30
HETATM   30  O2  UNL     1      -2.717   3.987  14.308  1.00  0.00    -0.351 OA
HETATM   31  C18 UNL     1      -4.064   3.785  14.635  1.00  0.00     0.210 C 
ENDBRANCH  25  30
BRANCH  26  32
HETATM   32  O3  UNL     1      -2.418   6.709  14.157  1.00  0.00    -0.353 OA
HETATM   33  C20 UNL     1      -1.658   7.887  14.347  1.00  0.00     0.210 C 
ENDBRANCH  26  32
ENDBRANCH  20  22
ENDBRANCH  18  20
ENDBRANCH  13  18
ENDBRANCH   3   4
TORSDOF 7
ENDMDL
