MODEL 1
REMARK VINA RESULT: -7.566512466      0.000      0.000
REMARK  8 active torsions:
REMARK  status: ('A' for Active; 'I' for Inactive)
REMARK    1  A    between atoms: C7_7  and  C8_8 
REMARK    2  A    between atoms: C8_8  and  C11_11 
REMARK    3  A    between atoms: C11_11  and  O2_13 
REMARK    4  A    between atoms: O2_13  and  C12_14 
REMARK    5  A    between atoms: C12_14  and  C13_15 
REMARK    6  A    between atoms: C12_14  and  C14_18 
REMARK    7  A    between atoms: C19_24  and  O5_26 
REMARK    8  A    between atoms: C21_28  and  O6_29 
ROOT
HETATM    1  C12 UNL     1      -4.181   1.960  11.704  1.00  0.00     0.222 C 
ENDROOT
BRANCH   1   2
HETATM    2  O2  UNL     1      -4.332   2.008  13.113  1.00  0.00    -0.306 OA
BRANCH   2   3
HETATM    3  C11 UNL     1      -5.158   2.940  13.711  1.00  0.00     0.272 C 
HETATM    4  O1  UNL     1      -6.391   2.710  13.633  1.00  0.00    -0.264 OA
BRANCH   3   5
HETATM    5  C8  UNL     1      -4.723   4.159  14.418  1.00  0.00     0.068 C 
HETATM    6  C9  UNL     1      -5.909   4.753  15.168  1.00  0.00     0.031 C 
HETATM    7  C10 UNL     1      -3.739   3.738  15.507  1.00  0.00     0.031 C 
BRANCH   5   8
HETATM    8  C7  UNL     1      -4.175   5.218  13.574  1.00  0.00    -0.039 A 
HETATM    9  C6  UNL     1      -2.946   5.787  13.779  1.00  0.00     0.015 A 
HETATM   10  C4  UNL     1      -2.439   6.798  12.964  1.00  0.00    -0.061 A 
HETATM   11  C3  UNL     1      -3.217   7.233  11.915  1.00  0.00     0.013 A 
HETATM   12  C5  UNL     1      -1.084   7.366  13.257  1.00  0.00     0.048 C 
HETATM   13  C2  UNL     1      -4.458   6.689  11.673  1.00  0.00    -0.061 A 
HETATM   14  C1  UNL     1      -5.280   7.182  10.526  1.00  0.00     0.048 C 
HETATM   15  C23 UNL     1      -4.910   5.699  12.502  1.00  0.00     0.015 A 
ENDBRANCH   5   8
ENDBRANCH   3   5
ENDBRANCH   2   3
ENDBRANCH   1   2
BRANCH   1  16
HETATM   16  C13 UNL     1      -4.256   0.589  11.146  1.00  0.00     0.248 C 
HETATM   17  O3  UNL     1      -4.476   0.396   9.945  1.00  0.00    -0.277 OA
HETATM   18 CL1  UNL     1      -4.049  -0.869  12.097  1.00  0.00    -0.041 Cl
ENDBRANCH   1  16
BRANCH   1  19
HETATM   19  C14 UNL     1      -2.929   2.680  11.270  1.00  0.00     0.026 C 
HETATM   20  C15 UNL     1      -1.673   1.887  11.372  1.00  0.00     0.011 C 
HETATM   21  C16 UNL     1      -0.546   2.782  11.734  1.00  0.00     0.044 C 
HETATM   22  C17 UNL     1       0.013   3.645  10.671  1.00  0.00     0.115 A 
HETATM   23  C18 UNL     1       0.793   4.854  11.208  1.00  0.00     0.210 A 
HETATM   24  O4  UNL     1       1.391   3.812  10.545  1.00  0.00    -0.372 OA
HETATM   25  C19 UNL     1      -0.868   3.960   9.512  1.00  0.00     0.113 C 
HETATM   26  C20 UNL     1      -0.163   5.066   8.710  1.00  0.00     0.052 C 
HETATM   27  C21 UNL     1      -2.221   4.511   9.869  1.00  0.00     0.155 C 
HETATM   28  C22 UNL     1      -3.164   3.319   9.939  1.00  0.00     0.042 C 
BRANCH  25  29
HETATM   29  O5  UNL     1      -0.958   2.878   8.606  1.00  0.00    -0.384 OA
ATOM     30  H5  UNL     1      -0.340   2.187   8.814  1.00  0.00     0.210 HD
ENDBRANCH  25  29
BRANCH  27  31
HETATM   31  O6  UNL     1      -2.643   5.378   8.877  1.00  0.00    -0.392 OA
ATOM     32  H6  UNL     1      -1.892   5.821   8.501  1.00  0.00     0.210 HD
ENDBRANCH  27  31
ENDBRANCH   1  19
TORSDOF 8
ENDMDL
MODEL 2
REMARK VINA RESULT: -7.558554954      0.045      1.557
REMARK  8 active torsions:
REMARK  status: ('A' for Active; 'I' for Inactive)
REMARK    1  A    between atoms: C7_7  and  C8_8 
REMARK    2  A    between atoms: C8_8  and  C11_11 
REMARK    3  A    between atoms: C11_11  and  O2_13 
REMARK    4  A    between atoms: O2_13  and  C12_14 
REMARK    5  A    between atoms: C12_14  and  C13_15 
REMARK    6  A    between atoms: C12_14  and  C14_18 
REMARK    7  A    between atoms: C19_24  and  O5_26 
REMARK    8  A    between atoms: C21_28  and  O6_29 
ROOT
HETATM    1  C12 UNL     1      -4.176   1.965  11.703  1.00  0.00     0.222 C 
ENDROOT
BRANCH   1   2
HETATM    2  O2  UNL     1      -4.333   2.019  13.111  1.00  0.00    -0.306 OA
BRANCH   2   3
HETATM    3  C11 UNL     1      -5.153   2.961  13.702  1.00  0.00     0.272 C 
HETATM    4  O1  UNL     1      -6.387   2.727  13.644  1.00  0.00    -0.264 OA
BRANCH   3   5
HETATM    5  C8  UNL     1      -4.712   4.194  14.381  1.00  0.00     0.068 C 
HETATM    6  C9  UNL     1      -5.877   4.776  15.170  1.00  0.00     0.031 C 
HETATM    7  C10 UNL     1      -3.680   3.799  15.435  1.00  0.00     0.031 C 
BRANCH   5   8
HETATM    8  C7  UNL     1      -4.214   5.253  13.507  1.00  0.00    -0.039 A 
HETATM    9  C6  UNL     1      -4.922   5.750  12.443  1.00  0.00     0.015 A 
HETATM   10  C4  UNL     1      -4.430   6.761  11.619  1.00  0.00    -0.061 A 
HETATM   11  C3  UNL     1      -3.181   7.270  11.896  1.00  0.00     0.013 A 
HETATM   12  C5  UNL     1      -5.269   7.248  10.477  1.00  0.00     0.048 C 
HETATM   13  C2  UNL     1      -2.437   6.800  12.953  1.00  0.00    -0.061 A 
HETATM   14  C1  UNL     1      -1.084   7.373  13.229  1.00  0.00     0.048 C 
HETATM   15  C23 UNL     1      -2.964   5.807  13.732  1.00  0.00     0.015 A 
ENDBRANCH   5   8
ENDBRANCH   3   5
ENDBRANCH   2   3
ENDBRANCH   1   2
BRANCH   1  16
HETATM   16  C13 UNL     1      -4.254   0.591  11.151  1.00  0.00     0.248 C 
HETATM   17  O3  UNL     1      -4.472   0.395   9.950  1.00  0.00    -0.277 OA
HETATM   18 CL1  UNL     1      -4.055  -0.863  12.108  1.00  0.00    -0.041 Cl
ENDBRANCH   1  16
BRANCH   1  19
HETATM   19  C14 UNL     1      -2.920   2.678  11.271  1.00  0.00     0.026 C 
HETATM   20  C15 UNL     1      -1.668   1.877  11.372  1.00  0.00     0.011 C 
HETATM   21  C16 UNL     1      -0.537   2.765  11.737  1.00  0.00     0.044 C 
HETATM   22  C17 UNL     1       0.028   3.626  10.676  1.00  0.00     0.115 A 
HETATM   23  C18 UNL     1       0.815   4.829  11.216  1.00  0.00     0.210 A 
HETATM   24  O4  UNL     1       1.407   3.785  10.550  1.00  0.00    -0.372 OA
HETATM   25  C19 UNL     1      -0.850   3.949   9.517  1.00  0.00     0.113 C 
HETATM   26  C20 UNL     1      -0.138   5.052   8.717  1.00  0.00     0.052 C 
HETATM   27  C21 UNL     1      -2.200   4.508   9.874  1.00  0.00     0.155 C 
HETATM   28  C22 UNL     1      -3.151   3.321   9.942  1.00  0.00     0.042 C 
BRANCH  25  29
HETATM   29  O5  UNL     1      -0.947   2.869   8.609  1.00  0.00    -0.384 OA
ATOM     30  H5  UNL     1      -1.666   2.981   7.998  1.00  0.00     0.210 HD
ENDBRANCH  25  29
BRANCH  27  31
HETATM   31  O6  UNL     1      -2.617   5.379   8.883  1.00  0.00    -0.392 OA
ATOM     32  H6  UNL     1      -2.282   6.249   9.065  1.00  0.00     0.210 HD
ENDBRANCH  27  31
ENDBRANCH   1  19
TORSDOF 8
ENDMDL
MODEL 3
REMARK VINA RESULT: -7.180532841      1.108      1.869
REMARK  8 active torsions:
REMARK  status: ('A' for Active; 'I' for Inactive)
REMARK    1  A    between atoms: C7_7  and  C8_8 
REMARK    2  A    between atoms: C8_8  and  C11_11 
REMARK    3  A    between atoms: C11_11  and  O2_13 
REMARK    4  A    between atoms: O2_13  and  C12_14 
REMARK    5  A    between atoms: C12_14  and  C13_15 
REMARK    6  A    between atoms: C12_14  and  C14_18 
REMARK    7  A    between atoms: C19_24  and  O5_26 
REMARK    8  A    between atoms: C21_28  and  O6_29 
ROOT
HETATM    1  C12 UNL     1      -3.553   2.165  11.424  1.00  0.00     0.222 C 
ENDROOT
BRANCH   1   2
HETATM    2  O2  UNL     1      -3.753   2.156  12.828  1.00  0.00    -0.306 OA
BRANCH   2   3
HETATM    3  C11 UNL     1      -4.835   2.796  13.400  1.00  0.00     0.272 C 
HETATM    4  O1  UNL     1      -5.960   2.288  13.163  1.00  0.00    -0.264 OA
BRANCH   3   5
HETATM    5  C8  UNL     1      -4.783   4.002  14.247  1.00  0.00     0.068 C 
HETATM    6  C9  UNL     1      -6.201   4.417  14.616  1.00  0.00     0.031 C 
HETATM    7  C10 UNL     1      -4.130   3.611  15.571  1.00  0.00     0.031 C 
BRANCH   5   8
HETATM    8  C7  UNL     1      -4.136   5.167  13.648  1.00  0.00    -0.039 A 
HETATM    9  C6  UNL     1      -4.406   5.613  12.381  1.00  0.00     0.015 A 
HETATM   10  C4  UNL     1      -3.778   6.727  11.826  1.00  0.00    -0.061 A 
HETATM   11  C3  UNL     1      -2.851   7.396  12.593  1.00  0.00     0.013 A 
HETATM   12  C5  UNL     1      -4.132   7.149  10.433  1.00  0.00     0.048 C 
HETATM   13  C2  UNL     1      -2.550   6.982  13.871  1.00  0.00    -0.061 A 
HETATM   14  C1  UNL     1      -1.539   7.728  14.680  1.00  0.00     0.048 C 
HETATM   15  C23 UNL     1      -3.194   5.883  14.370  1.00  0.00     0.015 A 
ENDBRANCH   5   8
ENDBRANCH   3   5
ENDBRANCH   2   3
ENDBRANCH   1   2
BRANCH   1  16
HETATM   16  C13 UNL     1      -3.343   0.817  10.846  1.00  0.00     0.248 C 
HETATM   17  O3  UNL     1      -4.197   0.287  10.126  1.00  0.00    -0.277 OA
HETATM   18 CL1  UNL     1      -1.904  -0.149  11.110  1.00  0.00    -0.041 Cl
ENDBRANCH   1  16
BRANCH   1  19
HETATM   19  C14 UNL     1      -2.454   3.123  11.041  1.00  0.00     0.026 C 
HETATM   20  C15 UNL     1      -1.257   3.104  11.927  1.00  0.00     0.011 C 
HETATM   21  C16 UNL     1      -0.688   4.471  12.026  1.00  0.00     0.044 C 
HETATM   22  C17 UNL     1       0.095   4.972  10.876  1.00  0.00     0.115 A 
HETATM   23  C18 UNL     1       0.214   6.503  10.835  1.00  0.00     0.210 A 
HETATM   24  O4  UNL     1       1.282   5.675  11.079  1.00  0.00    -0.372 OA
HETATM   25  C19 UNL     1      -0.164   4.350   9.548  1.00  0.00     0.113 C 
HETATM   26  C20 UNL     1       0.561   5.216   8.505  1.00  0.00     0.052 C 
HETATM   27  C21 UNL     1      -1.607   4.321   9.126  1.00  0.00     0.155 C 
HETATM   28  C22 UNL     1      -2.161   2.979   9.582  1.00  0.00     0.042 C 
BRANCH  25  29
HETATM   29  O5  UNL     1       0.448   3.080   9.430  1.00  0.00    -0.384 OA
ATOM     30  H5  UNL     1       0.312   2.699   8.570  1.00  0.00     0.210 HD
ENDBRANCH  25  29
BRANCH  27  31
HETATM   31  O6  UNL     1      -1.688   4.411   7.748  1.00  0.00    -0.392 OA
ATOM     32  H6  UNL     1      -1.966   5.286   7.503  1.00  0.00     0.210 HD
ENDBRANCH  27  31
ENDBRANCH   1  19
TORSDOF 8
ENDMDL
MODEL 4
REMARK VINA RESULT: -7.112079196      2.253      5.821
REMARK  8 active torsions:
REMARK  status: ('A' for Active; 'I' for Inactive)
REMARK    1  A    between atoms: C7_7  and  C8_8 
REMARK    2  A    between atoms: C8_8  and  C11_11 
REMARK    3  A    between atoms: C11_11  and  O2_13 
REMARK    4  A    between atoms: O2_13  and  C12_14 
REMARK    5  A    between atoms: C12_14  and  C13_15 
REMARK    6  A    between atoms: C12_14  and  C14_18 
REMARK    7  A    between atoms: C19_24  and  O5_26 
REMARK    8  A    between atoms: C21_28  and  O6_29 
ROOT
HETATM    1  C12 UNL     1      -3.915   2.047  12.467  1.00  0.00     0.222 C 
ENDROOT
BRANCH   1   2
HETATM    2  O2  UNL     1      -3.616   3.255  11.787  1.00  0.00    -0.306 OA
BRANCH   2   3
HETATM    3  C11 UNL     1      -2.693   4.149  12.292  1.00  0.00     0.272 C 
HETATM    4  O1  UNL     1      -1.645   3.644  12.769  1.00  0.00    -0.264 OA
BRANCH   3   5
HETATM    5  C8  UNL     1      -2.831   5.617  12.322  1.00  0.00     0.068 C 
HETATM    6  C9  UNL     1      -3.189   6.058  13.735  1.00  0.00     0.031 C 
HETATM    7  C10 UNL     1      -1.452   6.218  12.059  1.00  0.00     0.031 C 
BRANCH   5   8
HETATM    8  C7  UNL     1      -3.843   6.175  11.428  1.00  0.00    -0.039 A 
HETATM    9  C6  UNL     1      -5.078   6.592  11.852  1.00  0.00     0.015 A 
HETATM   10  C4  UNL     1      -6.032   7.121  10.985  1.00  0.00    -0.061 A 
HETATM   11  C3  UNL     1      -5.706   7.223   9.651  1.00  0.00     0.013 A 
HETATM   12  C5  UNL     1      -7.358   7.554  11.530  1.00  0.00     0.048 C 
HETATM   13  C2  UNL     1      -4.478   6.816   9.183  1.00  0.00    -0.061 A 
HETATM   14  C1  UNL     1      -4.154   6.939   7.728  1.00  0.00     0.048 C 
HETATM   15  C23 UNL     1      -3.576   6.304  10.075  1.00  0.00     0.015 A 
ENDBRANCH   5   8
ENDBRANCH   3   5
ENDBRANCH   2   3
ENDBRANCH   1   2
BRANCH   1  16
HETATM   16  C13 UNL     1      -4.708   1.092  11.658  1.00  0.00     0.248 C 
HETATM   17  O3  UNL     1      -5.703   1.460  11.022  1.00  0.00    -0.277 OA
HETATM   18 CL1  UNL     1      -4.339  -0.616  11.516  1.00  0.00    -0.041 Cl
ENDBRANCH   1  16
BRANCH   1  19
HETATM   19  C14 UNL     1      -4.555   2.323  13.804  1.00  0.00     0.026 C 
HETATM   20  C15 UNL     1      -5.861   3.038  13.747  1.00  0.00     0.011 C 
HETATM   21  C16 UNL     1      -5.987   3.939  14.920  1.00  0.00     0.044 C 
HETATM   22  C17 UNL     1      -6.311   3.324  16.225  1.00  0.00     0.115 A 
HETATM   23  C18 UNL     1      -5.940   4.203  17.428  1.00  0.00     0.210 A 
HETATM   24  O4  UNL     1      -7.237   3.920  17.080  1.00  0.00    -0.372 OA
HETATM   25  C19 UNL     1      -5.978   1.883  16.404  1.00  0.00     0.113 C 
HETATM   26  C20 UNL     1      -6.158   1.570  17.898  1.00  0.00     0.052 C 
HETATM   27  C21 UNL     1      -4.559   1.509  16.075  1.00  0.00     0.155 C 
HETATM   28  C22 UNL     1      -4.559   1.070  14.618  1.00  0.00     0.042 C 
BRANCH  25  29
HETATM   29  O5  UNL     1      -6.912   1.039  15.758  1.00  0.00    -0.384 OA
ATOM     30  H5  UNL     1      -7.602   0.757  16.346  1.00  0.00     0.210 HD
ENDBRANCH  25  29
BRANCH  27  31
HETATM   31  O6  UNL     1      -4.160   0.455  16.877  1.00  0.00    -0.392 OA
ATOM     32  H6  UNL     1      -4.167   0.729  17.786  1.00  0.00     0.210 HD
ENDBRANCH  27  31
ENDBRANCH   1  19
TORSDOF 8
ENDMDL
MODEL 5
REMARK VINA RESULT: -7.082511510      2.245      5.797
REMARK  8 active torsions:
REMARK  status: ('A' for Active; 'I' for Inactive)
REMARK    1  A    between atoms: C7_7  and  C8_8 
REMARK    2  A    between atoms: C8_8  and  C11_11 
REMARK    3  A    between atoms: C11_11  and  O2_13 
REMARK    4  A    between atoms: O2_13  and  C12_14 
REMARK    5  A    between atoms: C12_14  and  C13_15 
REMARK    6  A    between atoms: C12_14  and  C14_18 
REMARK    7  A    between atoms: C19_24  and  O5_26 
REMARK    8  A    between atoms: C21_28  and  O6_29 
ROOT
HETATM    1  C12 UNL     1      -3.896   2.067  12.447  1.00  0.00     0.222 C 
ENDROOT
BRANCH   1   2
HETATM    2  O2  UNL     1      -3.613   3.278  11.765  1.00  0.00    -0.306 OA
BRANCH   2   3
HETATM    3  C11 UNL     1      -2.700   4.184  12.267  1.00  0.00     0.272 C 
HETATM    4  O1  UNL     1      -1.661   3.690  12.775  1.00  0.00    -0.264 OA
BRANCH   3   5
HETATM    5  C8  UNL     1      -2.838   5.652  12.259  1.00  0.00     0.068 C 
HETATM    6  C9  UNL     1      -3.214   6.127  13.656  1.00  0.00     0.031 C 
HETATM    7  C10 UNL     1      -1.455   6.247  12.000  1.00  0.00     0.031 C 
BRANCH   5   8
HETATM    8  C7  UNL     1      -3.838   6.188  11.339  1.00  0.00    -0.039 A 
HETATM    9  C6  UNL     1      -3.633   6.315   9.990  1.00  0.00     0.015 A 
HETATM   10  C4  UNL     1      -4.599   6.830   9.128  1.00  0.00    -0.061 A 
HETATM   11  C3  UNL     1      -5.803   7.225   9.667  1.00  0.00     0.013 A 
HETATM   12  C5  UNL     1      -4.294   6.934   7.664  1.00  0.00     0.048 C 
HETATM   13  C2  UNL     1      -6.050   7.116  11.016  1.00  0.00    -0.061 A 
HETATM   14  C1  UNL     1      -7.367   7.552  11.572  1.00  0.00     0.048 C 
HETATM   15  C23 UNL     1      -5.070   6.603  11.820  1.00  0.00     0.015 A 
ENDBRANCH   5   8
ENDBRANCH   3   5
ENDBRANCH   2   3
ENDBRANCH   1   2
BRANCH   1  16
HETATM   16  C13 UNL     1      -4.681   1.102  11.641  1.00  0.00     0.248 C 
HETATM   17  O3  UNL     1      -5.656   1.467  10.974  1.00  0.00    -0.277 OA
HETATM   18 CL1  UNL     1      -4.329  -0.612  11.548  1.00  0.00    -0.041 Cl
ENDBRANCH   1  16
BRANCH   1  19
HETATM   19  C14 UNL     1      -4.535   2.338  13.786  1.00  0.00     0.026 C 
HETATM   20  C15 UNL     1      -5.838   3.057  13.734  1.00  0.00     0.011 C 
HETATM   21  C16 UNL     1      -5.960   3.951  14.913  1.00  0.00     0.044 C 
HETATM   22  C17 UNL     1      -6.286   3.329  16.214  1.00  0.00     0.115 A 
HETATM   23  C18 UNL     1      -5.911   4.201  17.422  1.00  0.00     0.210 A 
HETATM   24  O4  UNL     1      -7.209   3.923  17.073  1.00  0.00    -0.372 OA
HETATM   25  C19 UNL     1      -5.958   1.887  16.384  1.00  0.00     0.113 C 
HETATM   26  C20 UNL     1      -6.138   1.566  17.877  1.00  0.00     0.052 C 
HETATM   27  C21 UNL     1      -4.540   1.510  16.052  1.00  0.00     0.155 C 
HETATM   28  C22 UNL     1      -4.542   1.079  14.592  1.00  0.00     0.042 C 
BRANCH  25  29
HETATM   29  O5  UNL     1      -6.894   1.050  15.734  1.00  0.00    -0.384 OA
ATOM     30  H5  UNL     1      -6.668   0.131  15.817  1.00  0.00     0.210 HD
ENDBRANCH  25  29
BRANCH  27  31
HETATM   31  O6  UNL     1      -4.144   0.450  16.847  1.00  0.00    -0.392 OA
ATOM     32  H6  UNL     1      -3.842  -0.264  16.298  1.00  0.00     0.210 HD
ENDBRANCH  27  31
ENDBRANCH   1  19
TORSDOF 8
ENDMDL
