MODEL 1
REMARK VINA RESULT: -8.859952569      0.000      0.000
REMARK  8 active torsions:
REMARK  status: ('A' for Active; 'I' for Inactive)
REMARK    1  A    between atoms: C2_2  and  C3_3 
REMARK    2  A    between atoms: C2_2  and  N1_6 
REMARK    3  A    between atoms: C3_3  and  O1_4 
REMARK    4  A    between atoms: N1_6  and  C5_8 
REMARK    5  A    between atoms: C8_11  and  N2_12 
REMARK    6  A    between atoms: C10_16  and  N4_17 
REMARK    7  A    between atoms: N4_17  and  C11_19 
REMARK    8  A    between atoms: C16_25  and  C17_26 
ROOT
HETATM    1  C5  UNL     1       0.294   3.797   9.403  1.00  0.00     0.224 C 
HETATM    2  C6  UNL     1       0.371   3.812  10.902  1.00  0.00     0.038 C 
HETATM    3  C7  UNL     1      -0.566   2.839  11.549  1.00  0.00     0.032 C 
HETATM    4  C8  UNL     1      -1.665   2.378  10.622  1.00  0.00     0.144 C 
HETATM    5  C21 UNL     1      -2.165   3.499   9.763  1.00  0.00     0.121 C 
HETATM    6  C22 UNL     1      -2.665   4.552  10.649  1.00  0.00     0.066 C 
HETATM    7  N6  UNL     1      -3.074   5.392  11.346  1.00  0.00    -0.197 NA
HETATM    8  C23 UNL     1      -1.072   4.004   8.844  1.00  0.00     0.057 C 
ENDROOT
BRANCH   4   9
HETATM    9  N2  UNL     1      -2.793   1.849  11.380  1.00  0.00    -0.227 N 
HETATM   10  N3  UNL     1      -3.689   0.956  11.008  1.00  0.00    -0.291 N 
HETATM   11  C9  UNL     1      -4.579   0.714  11.974  1.00  0.00     0.158 A 
ATOM     12  H3  UNL     1      -3.700   0.504  10.093  1.00  0.00     0.188 HD
HETATM   13  C10 UNL     1      -4.204   1.532  13.047  1.00  0.00     0.139 A 
HETATM   14  N5  UNL     1      -3.119   2.196  12.636  1.00  0.00    -0.267 N 
ATOM     15  H5  UNL     1      -2.607   2.875  13.200  1.00  0.00     0.190 HD
BRANCH  13  16
HETATM   16  N4  UNL     1      -4.804   1.595  14.186  1.00  0.00    -0.340 N 
ATOM     17  H4  UNL     1      -4.955   0.739  14.719  1.00  0.00     0.167 HD
BRANCH  16  18
HETATM   18  C11 UNL     1      -5.250   2.811  14.705  1.00  0.00     0.043 A 
HETATM   19  C12 UNL     1      -5.081   3.977  13.995  1.00  0.00     0.030 A 
HETATM   20  C13 UNL     1      -5.533   5.195  14.496  1.00  0.00     0.005 A 
HETATM   21  C14 UNL     1      -6.156   5.214  15.722  1.00  0.00     0.043 A 
HETATM   22  C15 UNL     1      -6.327   4.018  16.442  1.00  0.00     0.125 A 
HETATM   23  F1  UNL     1      -6.955   4.202  17.624  1.00  0.00    -0.205 F 
HETATM   24  C16 UNL     1      -5.878   2.816  15.943  1.00  0.00     0.015 A 
BRANCH  24  25
HETATM   25  C17 UNL     1      -6.066   1.596  16.690  1.00  0.00    -0.019 C 
HETATM   26  C18 UNL     1      -5.169   0.434  16.333  1.00  0.00     0.019 C 
HETATM   27  C19 UNL     1      -5.720   1.941  18.153  1.00  0.00     0.019 C 
HETATM   28  C20 UNL     1      -7.467   1.058  16.735  1.00  0.00     0.019 C 
ENDBRANCH  24  25
ENDBRANCH  16  18
ENDBRANCH  13  16
ENDBRANCH   4   9
BRANCH   1  29
HETATM   29  N1  UNL     1       1.203   4.755   8.868  1.00  0.00     0.095 N 
HETATM   30  C4  UNL     1       0.873   6.131   9.196  1.00  0.00     0.310 C 
BRANCH  29  31
HETATM   31  C2  UNL     1       2.574   4.545   9.296  1.00  0.00     0.242 C 
HETATM   32  C1  UNL     1       3.131   5.890   9.716  1.00  0.00     0.045 C 
BRANCH  31  33
HETATM   33  C3  UNL     1       3.464   3.975   8.241  1.00  0.00     0.199 C 
BRANCH  33  34
HETATM   34  O1  UNL     1       4.430   3.134   8.808  1.00  0.00    -0.399 OA
ATOM     35  H1  UNL     1       4.022   2.381   9.221  1.00  0.00     0.209 HD
ENDBRANCH  33  34
ENDBRANCH  31  33
ENDBRANCH  29  31
ENDBRANCH   1  29
TORSDOF 8
ENDMDL
MODEL 2
REMARK VINA RESULT: -8.705517614      0.999      1.287
REMARK  8 active torsions:
REMARK  status: ('A' for Active; 'I' for Inactive)
REMARK    1  A    between atoms: C2_2  and  C3_3 
REMARK    2  A    between atoms: C2_2  and  N1_6 
REMARK    3  A    between atoms: C3_3  and  O1_4 
REMARK    4  A    between atoms: N1_6  and  C5_8 
REMARK    5  A    between atoms: C8_11  and  N2_12 
REMARK    6  A    between atoms: C10_16  and  N4_17 
REMARK    7  A    between atoms: N4_17  and  C11_19 
REMARK    8  A    between atoms: C16_25  and  C17_26 
ROOT
HETATM    1  C5  UNL     1       0.218   3.846   9.390  1.00  0.00     0.224 C 
HETATM    2  C6  UNL     1       0.318   3.865  10.887  1.00  0.00     0.038 C 
HETATM    3  C7  UNL     1      -0.600   2.885  11.551  1.00  0.00     0.032 C 
HETATM    4  C8  UNL     1      -1.710   2.413  10.641  1.00  0.00     0.144 C 
HETATM    5  C21 UNL     1      -2.232   3.529   9.789  1.00  0.00     0.121 C 
HETATM    6  C22 UNL     1      -2.727   4.580  10.680  1.00  0.00     0.066 C 
HETATM    7  N6  UNL     1      -3.132   5.417  11.382  1.00  0.00    -0.197 NA
HETATM    8  C23 UNL     1      -1.158   4.041   8.851  1.00  0.00     0.057 C 
ENDROOT
BRANCH   4   9
HETATM    9  N2  UNL     1      -2.820   1.877  11.419  1.00  0.00    -0.227 N 
HETATM   10  N3  UNL     1      -3.714   0.974  11.063  1.00  0.00    -0.291 N 
HETATM   11  C9  UNL     1      -4.587   0.727  12.043  1.00  0.00     0.158 A 
ATOM     12  H3  UNL     1      -3.735   0.520  10.150  1.00  0.00     0.188 HD
HETATM   13  C10 UNL     1      -4.203   1.552  13.108  1.00  0.00     0.139 A 
HETATM   14  N5  UNL     1      -3.131   2.224  12.679  1.00  0.00    -0.267 N 
ATOM     15  H5  UNL     1      -2.616   2.910  13.233  1.00  0.00     0.190 HD
BRANCH  13  16
HETATM   16  N4  UNL     1      -4.786   1.613  14.256  1.00  0.00    -0.340 N 
ATOM     17  H4  UNL     1      -4.884   0.764  14.812  1.00  0.00     0.167 HD
BRANCH  16  18
HETATM   18  C11 UNL     1      -5.285   2.817  14.753  1.00  0.00     0.043 A 
HETATM   19  C12 UNL     1      -5.212   3.967  14.001  1.00  0.00     0.030 A 
HETATM   20  C13 UNL     1      -5.718   5.172  14.481  1.00  0.00     0.005 A 
HETATM   21  C14 UNL     1      -6.295   5.196  15.728  1.00  0.00     0.043 A 
HETATM   22  C15 UNL     1      -6.367   4.017  16.492  1.00  0.00     0.125 A 
HETATM   23  F1  UNL     1      -6.961   4.203  17.691  1.00  0.00    -0.205 F 
HETATM   24  C16 UNL     1      -5.866   2.827  16.014  1.00  0.00     0.015 A 
BRANCH  24  25
HETATM   25  C17 UNL     1      -5.953   1.625  16.806  1.00  0.00    -0.019 C 
HETATM   26  C18 UNL     1      -5.732   1.773  18.294  1.00  0.00     0.019 C 
HETATM   27  C19 UNL     1      -7.406   1.128  16.660  1.00  0.00     0.019 C 
HETATM   28  C20 UNL     1      -5.098   0.475  16.359  1.00  0.00     0.019 C 
ENDBRANCH  24  25
ENDBRANCH  16  18
ENDBRANCH  13  16
ENDBRANCH   4   9
BRANCH   1  29
HETATM   29  N1  UNL     1       1.111   4.811   8.838  1.00  0.00     0.095 N 
HETATM   30  C4  UNL     1       1.872   5.547   9.832  1.00  0.00     0.310 C 
BRANCH  29  31
HETATM   31  C2  UNL     1       2.076   4.238   7.918  1.00  0.00     0.242 C 
HETATM   32  C1  UNL     1       3.415   4.888   8.200  1.00  0.00     0.045 C 
BRANCH  31  33
HETATM   33  C3  UNL     1       1.746   4.445   6.477  1.00  0.00     0.199 C 
BRANCH  33  34
HETATM   34  O1  UNL     1       1.020   3.358   5.972  1.00  0.00    -0.399 OA
ATOM     35  H1  UNL     1       1.282   2.550   6.398  1.00  0.00     0.209 HD
ENDBRANCH  33  34
ENDBRANCH  31  33
ENDBRANCH  29  31
ENDBRANCH   1  29
TORSDOF 8
ENDMDL
MODEL 3
REMARK VINA RESULT: -8.516617346      1.315      1.609
REMARK  8 active torsions:
REMARK  status: ('A' for Active; 'I' for Inactive)
REMARK    1  A    between atoms: C2_2  and  C3_3 
REMARK    2  A    between atoms: C2_2  and  N1_6 
REMARK    3  A    between atoms: C3_3  and  O1_4 
REMARK    4  A    between atoms: N1_6  and  C5_8 
REMARK    5  A    between atoms: C8_11  and  N2_12 
REMARK    6  A    between atoms: C10_16  and  N4_17 
REMARK    7  A    between atoms: N4_17  and  C11_19 
REMARK    8  A    between atoms: C16_25  and  C17_26 
ROOT
HETATM    1  C5  UNL     1       0.229   3.696   9.188  1.00  0.00     0.224 C 
HETATM    2  C6  UNL     1       0.426   3.605  10.673  1.00  0.00     0.038 C 
HETATM    3  C7  UNL     1      -0.559   2.697  11.343  1.00  0.00     0.032 C 
HETATM    4  C8  UNL     1      -1.772   2.415  10.488  1.00  0.00     0.144 C 
HETATM    5  C21 UNL     1      -2.211   3.636   9.739  1.00  0.00     0.121 C 
HETATM    6  C22 UNL     1      -2.520   4.677  10.722  1.00  0.00     0.066 C 
HETATM    7  N6  UNL     1      -2.778   5.508  11.497  1.00  0.00    -0.197 NA
HETATM    8  C23 UNL     1      -1.145   4.082   8.759  1.00  0.00     0.057 C 
ENDROOT
BRANCH   4   9
HETATM    9  N2  UNL     1      -2.887   1.960  11.310  1.00  0.00    -0.227 N 
HETATM   10  N3  UNL     1      -3.910   1.203  10.962  1.00  0.00    -0.291 N 
HETATM   11  C9  UNL     1      -4.740   0.990  11.988  1.00  0.00     0.158 A 
ATOM     12  H3  UNL     1      -4.050   0.826  10.025  1.00  0.00     0.188 HD
HETATM   13  C10 UNL     1      -4.183   1.678  13.074  1.00  0.00     0.139 A 
HETATM   14  N5  UNL     1      -3.066   2.245  12.610  1.00  0.00    -0.267 N 
ATOM     15  H5  UNL     1      -2.433   2.819  13.169  1.00  0.00     0.190 HD
BRANCH  13  16
HETATM   16  N4  UNL     1      -4.676   1.722  14.264  1.00  0.00    -0.340 N 
ATOM     17  H4  UNL     1      -4.687   0.874  14.831  1.00  0.00     0.167 HD
BRANCH  16  18
HETATM   18  C11 UNL     1      -5.193   2.905  14.793  1.00  0.00     0.043 A 
HETATM   19  C12 UNL     1      -5.047   4.094  14.116  1.00  0.00     0.030 A 
HETATM   20  C13 UNL     1      -5.569   5.279  14.627  1.00  0.00     0.005 A 
HETATM   21  C14 UNL     1      -6.237   5.243  15.827  1.00  0.00     0.043 A 
HETATM   22  C15 UNL     1      -6.384   4.024  16.513  1.00  0.00     0.125 A 
HETATM   23  F1  UNL     1      -7.062   4.153  17.674  1.00  0.00    -0.205 F 
HETATM   24  C16 UNL     1      -5.865   2.854  16.005  1.00  0.00     0.015 A 
BRANCH  24  25
HETATM   25  C17 UNL     1      -6.029   1.610  16.717  1.00  0.00    -0.019 C 
HETATM   26  C18 UNL     1      -5.093   0.484  16.343  1.00  0.00     0.019 C 
HETATM   27  C19 UNL     1      -5.714   1.925  18.194  1.00  0.00     0.019 C 
HETATM   28  C20 UNL     1      -7.414   1.030  16.726  1.00  0.00     0.019 C 
ENDBRANCH  24  25
ENDBRANCH  16  18
ENDBRANCH  13  16
ENDBRANCH   4   9
BRANCH   1  29
HETATM   29  N1  UNL     1       1.194   4.585   8.631  1.00  0.00     0.095 N 
HETATM   30  C4  UNL     1       1.753   4.135   7.369  1.00  0.00     0.310 C 
BRANCH  29  31
HETATM   31  C2  UNL     1       0.675   5.921   8.401  1.00  0.00     0.242 C 
HETATM   32  C1  UNL     1       1.255   6.415   7.091  1.00  0.00     0.045 C 
BRANCH  31  33
HETATM   33  C3  UNL     1       1.020   6.905   9.470  1.00  0.00     0.199 C 
BRANCH  33  34
HETATM   34  O1  UNL     1      -0.056   7.082  10.349  1.00  0.00    -0.399 OA
ATOM     35  H1  UNL     1       0.214   6.935  11.248  1.00  0.00     0.209 HD
ENDBRANCH  33  34
ENDBRANCH  31  33
ENDBRANCH  29  31
ENDBRANCH   1  29
TORSDOF 8
ENDMDL
MODEL 4
REMARK VINA RESULT: -7.865883942      1.575      2.836
REMARK  8 active torsions:
REMARK  status: ('A' for Active; 'I' for Inactive)
REMARK    1  A    between atoms: C2_2  and  C3_3 
REMARK    2  A    between atoms: C2_2  and  N1_6 
REMARK    3  A    between atoms: C3_3  and  O1_4 
REMARK    4  A    between atoms: N1_6  and  C5_8 
REMARK    5  A    between atoms: C8_11  and  N2_12 
REMARK    6  A    between atoms: C10_16  and  N4_17 
REMARK    7  A    between atoms: N4_17  and  C11_19 
REMARK    8  A    between atoms: C16_25  and  C17_26 
ROOT
HETATM    1  C5  UNL     1       1.645   5.024  10.637  1.00  0.00     0.224 C 
HETATM    2  C6  UNL     1       0.441   5.844  10.999  1.00  0.00     0.038 C 
HETATM    3  C7  UNL     1      -0.608   5.060  11.726  1.00  0.00     0.032 C 
HETATM    4  C8  UNL     1      -0.442   3.567  11.564  1.00  0.00     0.144 C 
HETATM    5  C21 UNL     1      -0.016   3.211  10.173  1.00  0.00     0.121 C 
HETATM    6  C22 UNL     1      -1.040   3.704   9.250  1.00  0.00     0.066 C 
HETATM    7  N6  UNL     1      -1.855   4.085   8.509  1.00  0.00    -0.197 NA
HETATM    8  C23 UNL     1       1.351   3.786   9.862  1.00  0.00     0.057 C 
ENDROOT
BRANCH   4   9
HETATM    9  N2  UNL     1      -1.694   2.875  11.848  1.00  0.00    -0.227 N 
HETATM   10  N3  UNL     1      -2.062   1.660  11.491  1.00  0.00    -0.291 N 
HETATM   11  C9  UNL     1      -3.286   1.362  11.934  1.00  0.00     0.158 A 
ATOM     12  H3  UNL     1      -1.481   1.025  10.943  1.00  0.00     0.188 HD
HETATM   13  C10 UNL     1      -3.722   2.496  12.631  1.00  0.00     0.139 A 
HETATM   14  N5  UNL     1      -2.723   3.380  12.549  1.00  0.00    -0.267 N 
ATOM     15  H5  UNL     1      -2.739   4.312  12.963  1.00  0.00     0.190 HD
BRANCH  13  16
HETATM   16  N4  UNL     1      -4.859   2.619  13.226  1.00  0.00    -0.340 N 
ATOM     17  H4  UNL     1      -5.646   3.024  12.721  1.00  0.00     0.167 HD
BRANCH  16  18
HETATM   18  C11 UNL     1      -5.035   2.207  14.547  1.00  0.00     0.043 A 
HETATM   19  C12 UNL     1      -4.848   0.890  14.899  1.00  0.00     0.030 A 
HETATM   20  C13 UNL     1      -5.007   0.468  16.216  1.00  0.00     0.005 A 
HETATM   21  C14 UNL     1      -5.358   1.396  17.168  1.00  0.00     0.043 A 
HETATM   22  C15 UNL     1      -5.547   2.741  16.802  1.00  0.00     0.125 A 
HETATM   23  F1  UNL     1      -5.888   3.527  17.847  1.00  0.00    -0.205 F 
HETATM   24  C16 UNL     1      -5.388   3.153  15.498  1.00  0.00     0.015 A 
BRANCH  24  25
HETATM   25  C17 UNL     1      -5.579   4.538  15.139  1.00  0.00    -0.019 C 
HETATM   26  C18 UNL     1      -6.380   4.812  13.887  1.00  0.00     0.019 C 
HETATM   27  C19 UNL     1      -6.398   5.162  16.288  1.00  0.00     0.019 C 
HETATM   28  C20 UNL     1      -4.336   5.374  15.044  1.00  0.00     0.019 C 
ENDBRANCH  24  25
ENDBRANCH  16  18
ENDBRANCH  13  16
ENDBRANCH   4   9
BRANCH   1  29
HETATM   29  N1  UNL     1       2.586   5.837   9.941  1.00  0.00     0.095 N 
HETATM   30  C4  UNL     1       2.119   7.187   9.677  1.00  0.00     0.310 C 
BRANCH  29  31
HETATM   31  C2  UNL     1       3.855   5.965  10.633  1.00  0.00     0.242 C 
HETATM   32  C1  UNL     1       4.859   5.094   9.907  1.00  0.00     0.045 C 
BRANCH  31  33
HETATM   33  C3  UNL     1       3.817   5.549  12.066  1.00  0.00     0.199 C 
BRANCH  33  34
HETATM   34  O1  UNL     1       4.874   4.678  12.359  1.00  0.00    -0.399 OA
ATOM     35  H1  UNL     1       4.728   3.825  11.966  1.00  0.00     0.209 HD
ENDBRANCH  33  34
ENDBRANCH  31  33
ENDBRANCH  29  31
ENDBRANCH   1  29
TORSDOF 8
ENDMDL
MODEL 5
REMARK VINA RESULT: -7.837302098      4.999      8.797
REMARK  8 active torsions:
REMARK  status: ('A' for Active; 'I' for Inactive)
REMARK    1  A    between atoms: C2_2  and  C3_3 
REMARK    2  A    between atoms: C2_2  and  N1_6 
REMARK    3  A    between atoms: C3_3  and  O1_4 
REMARK    4  A    between atoms: N1_6  and  C5_8 
REMARK    5  A    between atoms: C8_11  and  N2_12 
REMARK    6  A    between atoms: C10_16  and  N4_17 
REMARK    7  A    between atoms: N4_17  and  C11_19 
REMARK    8  A    between atoms: C16_25  and  C17_26 
ROOT
HETATM    1  C5  UNL     1      -5.354   3.745  15.533  1.00  0.00     0.224 C 
HETATM    2  C6  UNL     1      -3.938   4.239  15.459  1.00  0.00     0.038 C 
HETATM    3  C7  UNL     1      -3.722   5.244  14.370  1.00  0.00     0.032 C 
HETATM    4  C8  UNL     1      -4.818   5.227  13.331  1.00  0.00     0.144 C 
HETATM    5  C21 UNL     1      -5.271   3.831  13.034  1.00  0.00     0.121 C 
HETATM    6  C22 UNL     1      -4.112   3.077  12.552  1.00  0.00     0.066 C 
HETATM    7  N6  UNL     1      -3.196   2.472  12.160  1.00  0.00    -0.197 NA
HETATM    8  C23 UNL     1      -5.892   3.192  14.259  1.00  0.00     0.057 C 
ENDROOT
BRANCH   4   9
HETATM    9  N2  UNL     1      -4.357   5.831  12.086  1.00  0.00    -0.227 N 
HETATM   10  N3  UNL     1      -3.149   5.808  11.558  1.00  0.00    -0.291 N 
HETATM   11  C9  UNL     1      -3.100   6.472  10.400  1.00  0.00     0.158 A 
ATOM     12  H3  UNL     1      -2.348   5.339  11.983  1.00  0.00     0.188 HD
HETATM   13  C10 UNL     1      -4.398   6.954  10.187  1.00  0.00     0.139 A 
HETATM   14  N5  UNL     1      -5.117   6.538  11.234  1.00  0.00    -0.267 N 
ATOM     15  H5  UNL     1      -6.110   6.731  11.368  1.00  0.00     0.190 HD
BRANCH  13  16
HETATM   16  N4  UNL     1      -4.782   7.646   9.169  1.00  0.00    -0.340 N 
ATOM     17  H4  UNL     1      -4.729   7.235   8.237  1.00  0.00     0.167 HD
BRANCH  16  18
HETATM   18  C11 UNL     1      -5.269   8.944   9.317  1.00  0.00     0.043 A 
HETATM   19  C12 UNL     1      -4.584   9.865  10.077  1.00  0.00     0.030 A 
HETATM   20  C13 UNL     1      -5.052  11.167  10.222  1.00  0.00     0.005 A 
HETATM   21  C14 UNL     1      -6.220  11.523   9.589  1.00  0.00     0.043 A 
HETATM   22  C15 UNL     1      -6.915  10.578   8.813  1.00  0.00     0.125 A 
HETATM   23  F1  UNL     1      -8.040  11.079   8.258  1.00  0.00    -0.205 F 
HETATM   24  C16 UNL     1      -6.448   9.291   8.673  1.00  0.00     0.015 A 
BRANCH  24  25
HETATM   25  C17 UNL     1      -7.169   8.334   7.868  1.00  0.00    -0.019 C 
HETATM   26  C18 UNL     1      -6.346   7.274   7.172  1.00  0.00     0.019 C 
HETATM   27  C19 UNL     1      -8.080   7.563   8.844  1.00  0.00     0.019 C 
HETATM   28  C20 UNL     1      -8.095   8.905   6.833  1.00  0.00     0.019 C 
ENDBRANCH  24  25
ENDBRANCH  16  18
ENDBRANCH  13  16
ENDBRANCH   4   9
BRANCH   1  29
HETATM   29  N1  UNL     1      -5.472   2.787  16.582  1.00  0.00     0.095 N 
HETATM   30  C4  UNL     1      -6.352   3.198  17.662  1.00  0.00     0.310 C 
BRANCH  29  31
HETATM   31  C2  UNL     1      -5.952   1.495  16.127  1.00  0.00     0.242 C 
HETATM   32  C1  UNL     1      -7.041   1.051  17.082  1.00  0.00     0.045 C 
BRANCH  31  33
HETATM   33  C3  UNL     1      -4.903   0.434  16.081  1.00  0.00     0.199 C 
BRANCH  33  34
HETATM   34  O1  UNL     1      -3.659   0.946  16.471  1.00  0.00    -0.399 OA
ATOM     35  H1  UNL     1      -3.020   0.849  15.774  1.00  0.00     0.209 HD
ENDBRANCH  33  34
ENDBRANCH  31  33
ENDBRANCH  29  31
ENDBRANCH   1  29
TORSDOF 8
ENDMDL
