MODEL 1
REMARK VINA RESULT: -5.768195348      0.000      0.000
REMARK  10 active torsions:
REMARK  status: ('A' for Active; 'I' for Inactive)
REMARK    1  A    between atoms: C2_2  and  C3_3 
REMARK    2  A    between atoms: C3_3  and  O1_4 
REMARK    3  A    between atoms: C3_3  and  C4_6 
REMARK    4  A    between atoms: C4_6  and  C5_7 
REMARK    5  A    between atoms: C4_6  and  C7_9 
REMARK    6  A    between atoms: C4_6  and  O2_11 
REMARK    7  A    between atoms: O2_11  and  C9_12 
REMARK    8  A    between atoms: C9_12  and  C10_13 
REMARK    9  A    between atoms: N1_16  and  C13_17 
REMARK   10  A    between atoms: C13_17  and  C14_18 
ROOT
HETATM    1  C9  UNL     1       0.581  41.527   2.124  1.00  0.00     0.174 C 
ENDROOT
BRANCH   1   2
HETATM    2  O2  UNL     1      -0.187  41.793   1.132  1.00  0.00    -0.377 OA
BRANCH   2   3
HETATM    3  C4  UNL     1      -0.235  42.775   0.227  1.00  0.00     0.086 C 
BRANCH   3   4
HETATM    4  C3  UNL     1      -1.172  42.425  -0.922  1.00  0.00     0.152 C 
BRANCH   4   5
HETATM    5  C2  UNL     1      -1.767  41.089  -0.958  1.00  0.00     0.030 C 
HETATM    6  C1  UNL     1      -3.157  40.935  -0.391  1.00  0.00     0.007 C 
ENDBRANCH   4   5
BRANCH   4   7
HETATM    7  O1  UNL     1      -0.657  42.772  -2.150  1.00  0.00    -0.393 OA
ATOM      8  H1  UNL     1      -1.220  43.396  -2.594  1.00  0.00     0.210 HD
ENDBRANCH   4   7
ENDBRANCH   3   4
BRANCH   3   9
HETATM    9  C5  UNL     1      -0.750  44.090   0.735  1.00  0.00     0.036 C 
HETATM   10  C6  UNL     1      -2.095  44.115   1.345  1.00  0.00     0.008 C 
ENDBRANCH   3   9
BRANCH   3  11
HETATM   11  C7  UNL     1       1.207  42.978  -0.214  1.00  0.00     0.036 C 
HETATM   12  C8  UNL     1       1.836  44.272   0.099  1.00  0.00     0.008 C 
ENDBRANCH   3  11
ENDBRANCH   2   3
ENDBRANCH   1   2
BRANCH   1  13
HETATM   13  C10 UNL     1       1.069  40.181   2.467  1.00  0.00     0.016 C 
HETATM   14  C11 UNL     1       2.405  39.783   1.862  1.00  0.00     0.027 C 
HETATM   15  C12 UNL     1       2.861  38.566   2.643  1.00  0.00     0.122 C 
HETATM   16  N1  UNL     1       1.917  37.494   2.592  1.00  0.00    -0.389 N 
HETATM   17  C16 UNL     1       0.555  37.824   2.722  1.00  0.00     0.059 C 
HETATM   18  C17 UNL     1       0.116  39.070   1.998  1.00  0.00     0.051 C 
BRANCH  16  19
HETATM   19  C13 UNL     1       2.234  36.468   1.659  1.00  0.00     0.166 C 
BRANCH  19  20
HETATM   20  C14 UNL     1       2.479  35.142   2.294  1.00  0.00     0.074 C 
HETATM   21  N2  UNL     1       3.405  35.019   3.163  1.00  0.00    -0.405 N 
HETATM   22  C15 UNL     1       3.677  33.777   3.797  1.00  0.00     0.145 C 
ATOM     23  H2  UNL     1       3.966  35.834   3.409  1.00  0.00     0.158 HD
ENDBRANCH  19  20
ENDBRANCH  16  19
ENDBRANCH   1  13
TORSDOF 10
ENDMDL
MODEL 2
REMARK VINA RESULT: -5.494446100      0.744      2.378
REMARK  10 active torsions:
REMARK  status: ('A' for Active; 'I' for Inactive)
REMARK    1  A    between atoms: C2_2  and  C3_3 
REMARK    2  A    between atoms: C3_3  and  O1_4 
REMARK    3  A    between atoms: C3_3  and  C4_6 
REMARK    4  A    between atoms: C4_6  and  C5_7 
REMARK    5  A    between atoms: C4_6  and  C7_9 
REMARK    6  A    between atoms: C4_6  and  O2_11 
REMARK    7  A    between atoms: O2_11  and  C9_12 
REMARK    8  A    between atoms: C9_12  and  C10_13 
REMARK    9  A    between atoms: N1_16  and  C13_17 
REMARK   10  A    between atoms: C13_17  and  C14_18 
ROOT
HETATM    1  C9  UNL     1       0.817  41.383   1.617  1.00  0.00     0.174 C 
ENDROOT
BRANCH   1   2
HETATM    2  O2  UNL     1       0.370  41.563   0.429  1.00  0.00    -0.377 OA
BRANCH   2   3
HETATM    3  C4  UNL     1      -0.335  42.530  -0.165  1.00  0.00     0.086 C 
BRANCH   3   4
HETATM    4  C3  UNL     1       0.443  43.157  -1.315  1.00  0.00     0.152 C 
BRANCH   4   5
HETATM    5  C2  UNL     1       1.188  44.391  -1.065  1.00  0.00     0.030 C 
HETATM    6  C1  UNL     1       2.599  44.255  -0.548  1.00  0.00     0.007 C 
ENDBRANCH   4   5
BRANCH   4   7
HETATM    7  O1  UNL     1      -0.301  43.252  -2.469  1.00  0.00    -0.393 OA
ATOM      8  H1  UNL     1      -0.784  42.450  -2.632  1.00  0.00     0.210 HD
ENDBRANCH   4   7
ENDBRANCH   3   4
BRANCH   3   9
HETATM    9  C5  UNL     1      -1.627  42.091  -0.791  1.00  0.00     0.036 C 
HETATM   10  C6  UNL     1      -1.905  40.642  -0.852  1.00  0.00     0.008 C 
ENDBRANCH   3   9
BRANCH   3  11
HETATM   11  C7  UNL     1      -0.667  43.518   0.945  1.00  0.00     0.036 C 
HETATM   12  C8  UNL     1      -2.084  43.869   1.138  1.00  0.00     0.008 C 
ENDBRANCH   3  11
ENDBRANCH   2   3
ENDBRANCH   1   2
BRANCH   1  13
HETATM   13  C10 UNL     1       1.201  40.078   2.179  1.00  0.00     0.016 C 
HETATM   14  C11 UNL     1       2.552  39.537   1.741  1.00  0.00     0.027 C 
HETATM   15  C12 UNL     1       2.880  38.422   2.715  1.00  0.00     0.122 C 
HETATM   16  N1  UNL     1       1.882  37.399   2.735  1.00  0.00    -0.389 N 
HETATM   17  C16 UNL     1       0.536  37.806   2.712  1.00  0.00     0.059 C 
HETATM   18  C17 UNL     1       0.222  38.957   1.791  1.00  0.00     0.051 C 
BRANCH  16  19
HETATM   19  C13 UNL     1       2.207  36.238   1.979  1.00  0.00     0.166 C 
BRANCH  19  20
HETATM   20  C14 UNL     1       2.927  35.198   2.767  1.00  0.00     0.074 C 
HETATM   21  N2  UNL     1       2.626  33.967   2.613  1.00  0.00    -0.405 N 
HETATM   22  C15 UNL     1       3.283  32.938   3.340  1.00  0.00     0.145 C 
ATOM     23  H2  UNL     1       1.893  33.716   1.950  1.00  0.00     0.158 HD
ENDBRANCH  19  20
ENDBRANCH  16  19
ENDBRANCH   1  13
TORSDOF 10
ENDMDL
MODEL 3
REMARK VINA RESULT: -5.416464181      0.766      1.176
REMARK  10 active torsions:
REMARK  status: ('A' for Active; 'I' for Inactive)
REMARK    1  A    between atoms: C2_2  and  C3_3 
REMARK    2  A    between atoms: C3_3  and  O1_4 
REMARK    3  A    between atoms: C3_3  and  C4_6 
REMARK    4  A    between atoms: C4_6  and  C5_7 
REMARK    5  A    between atoms: C4_6  and  C7_9 
REMARK    6  A    between atoms: C4_6  and  O2_11 
REMARK    7  A    between atoms: O2_11  and  C9_12 
REMARK    8  A    between atoms: C9_12  and  C10_13 
REMARK    9  A    between atoms: N1_16  and  C13_17 
REMARK   10  A    between atoms: C13_17  and  C14_18 
ROOT
HETATM    1  C9  UNL     1       0.961  41.835   1.551  1.00  0.00     0.174 C 
ENDROOT
BRANCH   1   2
HETATM    2  O2  UNL     1      -0.048  42.219   0.858  1.00  0.00    -0.377 OA
BRANCH   2   3
HETATM    3  C4  UNL     1      -0.223  43.117  -0.116  1.00  0.00     0.086 C 
BRANCH   3   4
HETATM    4  C3  UNL     1      -1.187  42.602  -1.178  1.00  0.00     0.152 C 
BRANCH   4   5
HETATM    5  C2  UNL     1      -1.762  41.268  -1.013  1.00  0.00     0.030 C 
HETATM    6  C1  UNL     1      -3.172  41.183  -0.478  1.00  0.00     0.007 C 
ENDBRANCH   4   5
BRANCH   4   7
HETATM    7  O1  UNL     1      -0.712  42.783  -2.457  1.00  0.00    -0.393 OA
ATOM      8  H1  UNL     1      -0.616  43.706  -2.660  1.00  0.00     0.210 HD
ENDBRANCH   4   7
ENDBRANCH   3   4
BRANCH   3   9
HETATM    9  C5  UNL     1      -0.816  44.426   0.317  1.00  0.00     0.036 C 
HETATM   10  C6  UNL     1      -1.929  44.391   1.288  1.00  0.00     0.008 C 
ENDBRANCH   3   9
BRANCH   3  11
HETATM   11  C7  UNL     1       1.173  43.393  -0.655  1.00  0.00     0.036 C 
HETATM   12  C8  UNL     1       1.679  44.772  -0.553  1.00  0.00     0.008 C 
ENDBRANCH   3  11
ENDBRANCH   2   3
ENDBRANCH   1   2
BRANCH   1  13
HETATM   13  C10 UNL     1       1.510  40.470   1.545  1.00  0.00     0.016 C 
HETATM   14  C11 UNL     1       0.512  39.353   1.292  1.00  0.00     0.027 C 
HETATM   15  C12 UNL     1       1.344  38.130   0.957  1.00  0.00     0.122 C 
HETATM   16  N1  UNL     1       2.265  37.790   1.995  1.00  0.00    -0.389 N 
HETATM   17  C16 UNL     1       2.960  38.845   2.616  1.00  0.00     0.059 C 
HETATM   18  C17 UNL     1       2.148  40.085   2.890  1.00  0.00     0.051 C 
BRANCH  16  19
HETATM   19  C13 UNL     1       1.841  36.727   2.840  1.00  0.00     0.166 C 
BRANCH  19  20
HETATM   20  C14 UNL     1       2.530  35.435   2.560  1.00  0.00     0.074 C 
HETATM   21  N2  UNL     1       3.269  34.906   3.456  1.00  0.00    -0.405 N 
HETATM   22  C15 UNL     1       3.946  33.676   3.238  1.00  0.00     0.145 C 
ATOM     23  H2  UNL     1       3.376  35.378   4.353  1.00  0.00     0.158 HD
ENDBRANCH  19  20
ENDBRANCH  16  19
ENDBRANCH   1  13
TORSDOF 10
ENDMDL
MODEL 4
REMARK VINA RESULT: -5.379516977      1.007      1.188
REMARK  10 active torsions:
REMARK  status: ('A' for Active; 'I' for Inactive)
REMARK    1  A    between atoms: C2_2  and  C3_3 
REMARK    2  A    between atoms: C3_3  and  O1_4 
REMARK    3  A    between atoms: C3_3  and  C4_6 
REMARK    4  A    between atoms: C4_6  and  C5_7 
REMARK    5  A    between atoms: C4_6  and  C7_9 
REMARK    6  A    between atoms: C4_6  and  O2_11 
REMARK    7  A    between atoms: O2_11  and  C9_12 
REMARK    8  A    between atoms: C9_12  and  C10_13 
REMARK    9  A    between atoms: N1_16  and  C13_17 
REMARK   10  A    between atoms: C13_17  and  C14_18 
ROOT
HETATM    1  C9  UNL     1       0.318  41.504   2.569  1.00  0.00     0.174 C 
ENDROOT
BRANCH   1   2
HETATM    2  O2  UNL     1       0.823  42.443   1.857  1.00  0.00    -0.377 OA
BRANCH   2   3
HETATM    3  C4  UNL     1       0.363  43.212   0.866  1.00  0.00     0.086 C 
BRANCH   3   4
HETATM    4  C3  UNL     1      -1.037  42.789   0.440  1.00  0.00     0.152 C 
BRANCH   4   5
HETATM    5  C2  UNL     1      -1.186  41.977  -0.767  1.00  0.00     0.030 C 
HETATM    6  C1  UNL     1      -1.812  40.613  -0.610  1.00  0.00     0.007 C 
ENDBRANCH   4   5
BRANCH   4   7
HETATM    7  O1  UNL     1      -1.932  43.835   0.449  1.00  0.00    -0.393 OA
ATOM      8  H1  UNL     1      -2.825  43.520   0.523  1.00  0.00     0.210 HD
ENDBRANCH   4   7
ENDBRANCH   3   4
BRANCH   3   9
HETATM    9  C5  UNL     1       0.225  44.669   1.195  1.00  0.00     0.036 C 
HETATM   10  C6  UNL     1       0.498  45.091   2.584  1.00  0.00     0.008 C 
ENDBRANCH   3   9
BRANCH   3  11
HETATM   11  C7  UNL     1       1.394  43.082  -0.247  1.00  0.00     0.036 C 
HETATM   12  C8  UNL     1       2.356  44.184  -0.413  1.00  0.00     0.008 C 
ENDBRANCH   3  11
ENDBRANCH   2   3
ENDBRANCH   1   2
BRANCH   1  13
HETATM   13  C10 UNL     1       0.938  40.185   2.777  1.00  0.00     0.016 C 
HETATM   14  C11 UNL     1       2.205  39.913   1.984  1.00  0.00     0.027 C 
HETATM   15  C12 UNL     1       2.843  38.701   2.636  1.00  0.00     0.122 C 
HETATM   16  N1  UNL     1       1.975  37.565   2.652  1.00  0.00    -0.389 N 
HETATM   17  C16 UNL     1       0.623  37.787   2.974  1.00  0.00     0.059 C 
HETATM   18  C17 UNL     1       0.008  39.027   2.378  1.00  0.00     0.051 C 
BRANCH  16  19
HETATM   19  C13 UNL     1       2.235  36.606   1.634  1.00  0.00     0.166 C 
BRANCH  19  20
HETATM   20  C14 UNL     1       2.508  35.239   2.161  1.00  0.00     0.074 C 
HETATM   21  N2  UNL     1       3.358  35.082   3.100  1.00  0.00    -0.405 N 
HETATM   22  C15 UNL     1       3.653  33.800   3.637  1.00  0.00     0.145 C 
ATOM     23  H2  UNL     1       3.839  35.899   3.475  1.00  0.00     0.158 HD
ENDBRANCH  19  20
ENDBRANCH  16  19
ENDBRANCH   1  13
TORSDOF 10
ENDMDL
MODEL 5
REMARK VINA RESULT: -5.372878757      1.293      2.241
REMARK  10 active torsions:
REMARK  status: ('A' for Active; 'I' for Inactive)
REMARK    1  A    between atoms: C2_2  and  C3_3 
REMARK    2  A    between atoms: C3_3  and  O1_4 
REMARK    3  A    between atoms: C3_3  and  C4_6 
REMARK    4  A    between atoms: C4_6  and  C5_7 
REMARK    5  A    between atoms: C4_6  and  C7_9 
REMARK    6  A    between atoms: C4_6  and  O2_11 
REMARK    7  A    between atoms: O2_11  and  C9_12 
REMARK    8  A    between atoms: C9_12  and  C10_13 
REMARK    9  A    between atoms: N1_16  and  C13_17 
REMARK   10  A    between atoms: C13_17  and  C14_18 
ROOT
HETATM    1  C9  UNL     1       1.023  41.435   1.665  1.00  0.00     0.174 C 
ENDROOT
BRANCH   1   2
HETATM    2  O2  UNL     1       0.400  41.646   0.564  1.00  0.00    -0.377 OA
BRANCH   2   3
HETATM    3  C4  UNL     1      -0.714  42.307   0.236  1.00  0.00     0.086 C 
BRANCH   3   4
HETATM    4  C3  UNL     1      -1.408  42.872   1.469  1.00  0.00     0.152 C 
BRANCH   4   5
HETATM    5  C2  UNL     1      -2.613  42.206   1.961  1.00  0.00     0.030 C 
HETATM    6  C1  UNL     1      -2.441  41.190   3.064  1.00  0.00     0.007 C 
ENDBRANCH   4   5
BRANCH   4   7
HETATM    7  O1  UNL     1      -1.588  44.235   1.397  1.00  0.00    -0.393 OA
ATOM      8  H1  UNL     1      -0.815  44.665   1.049  1.00  0.00     0.210 HD
ENDBRANCH   4   7
ENDBRANCH   3   4
BRANCH   3   9
HETATM    9  C5  UNL     1      -0.515  43.499  -0.654  1.00  0.00     0.036 C 
HETATM   10  C6  UNL     1       0.812  43.678  -1.278  1.00  0.00     0.008 C 
ENDBRANCH   3   9
BRANCH   3  11
HETATM   11  C7  UNL     1      -1.565  41.297  -0.522  1.00  0.00     0.036 C 
HETATM   12  C8  UNL     1      -2.301  41.780  -1.702  1.00  0.00     0.008 C 
ENDBRANCH   3  11
ENDBRANCH   2   3
ENDBRANCH   1   2
BRANCH   1  13
HETATM   13  C10 UNL     1       1.328  40.103   2.212  1.00  0.00     0.016 C 
HETATM   14  C11 UNL     1       2.669  39.511   1.813  1.00  0.00     0.027 C 
HETATM   15  C12 UNL     1       2.912  38.363   2.774  1.00  0.00     0.122 C 
HETATM   16  N1  UNL     1       1.870  37.386   2.736  1.00  0.00    -0.389 N 
HETATM   17  C16 UNL     1       0.544  37.853   2.672  1.00  0.00     0.059 C 
HETATM   18  C17 UNL     1       0.316  39.035   1.765  1.00  0.00     0.051 C 
BRANCH  16  19
HETATM   19  C13 UNL     1       2.171  36.227   1.968  1.00  0.00     0.166 C 
BRANCH  19  20
HETATM   20  C14 UNL     1       2.897  35.176   2.736  1.00  0.00     0.074 C 
HETATM   21  N2  UNL     1       2.586  33.949   2.577  1.00  0.00    -0.405 N 
HETATM   22  C15 UNL     1       3.248  32.910   3.286  1.00  0.00     0.145 C 
ATOM     23  H2  UNL     1       1.843  33.706   1.922  1.00  0.00     0.158 HD
ENDBRANCH  19  20
ENDBRANCH  16  19
ENDBRANCH   1  13
TORSDOF 10
ENDMDL
