MODEL 1
REMARK VINA RESULT: -5.659911210      0.000      0.000
REMARK  10 active torsions:
REMARK  status: ('A' for Active; 'I' for Inactive)
REMARK    1  A    between atoms: C2_2  and  C3_3 
REMARK    2  A    between atoms: C4_4  and  C5_5 
REMARK    3  A    between atoms: C6_6  and  C7_7 
REMARK    4  A    between atoms: C9_10  and  C10_11 
REMARK    5  A    between atoms: C10_11  and  O2_12 
REMARK    6  A    between atoms: O2_12  and  C11_13 
REMARK    7  A    between atoms: C11_13  and  C12_15 
REMARK    8  A    between atoms: C12_15  and  C13_16 
REMARK    9  A    between atoms: C12_15  and  N1_18 
REMARK   10  A    between atoms: N1_18  and  C15_21 
ROOT
HETATM    1  O2  UNL     1      -1.839  41.155   3.175  1.00  0.00    -0.317 OA
ENDROOT
BRANCH   1   2
HETATM    2  C10 UNL     1      -1.934  40.563   1.962  1.00  0.00     0.211 C 
BRANCH   2   3
HETATM    3  C9  UNL     1      -0.716  39.858   1.484  1.00  0.00     0.157 C 
HETATM    4  C3  UNL     1       0.525  40.240   2.203  1.00  0.00     0.071 C 
HETATM    5  C4  UNL     1       0.667  38.721   2.245  1.00  0.00     0.154 C 
HETATM    6  O1  UNL     1      -0.596  38.523   1.686  1.00  0.00    -0.373 OA
BRANCH   4   7
HETATM    7  C2  UNL     1       1.557  40.998   1.522  1.00  0.00    -0.027 C 
HETATM    8  C1  UNL     1       1.325  42.072   0.794  1.00  0.00     0.007 C 
ENDBRANCH   4   7
BRANCH   5   9
HETATM    9  C5  UNL     1       1.754  38.233   1.409  1.00  0.00     0.001 C 
HETATM   10  C6  UNL     1       2.491  37.192   1.635  1.00  0.00    -0.028 C 
BRANCH  10  11
HETATM   11  C7  UNL     1       2.362  36.296   2.791  1.00  0.00     0.022 C 
HETATM   12  C8  UNL     1       2.434  34.832   2.379  1.00  0.00     0.009 C 
ENDBRANCH  10  11
ENDBRANCH   5   9
ENDBRANCH   2   3
ENDBRANCH   1   2
BRANCH   1  13
HETATM   13  C11 UNL     1      -2.354  41.072   4.407  1.00  0.00     0.289 C 
HETATM   14  O3  UNL     1      -3.581  40.930   4.536  1.00  0.00    -0.263 OA
BRANCH  13  15
HETATM   15  C12 UNL     1      -1.501  41.148   5.652  1.00  0.00     0.284 C 
BRANCH  15  16
HETATM   16  C13 UNL     1      -0.303  41.966   5.292  1.00  0.00     0.039 C 
HETATM   17  C14 UNL     1       0.033  42.971   6.371  1.00  0.00     0.007 C 
ENDBRANCH  15  16
BRANCH  15  18
HETATM   18  N1  UNL     1      -1.312  39.871   6.215  1.00  0.00    -0.057 N 
ATOM     19  H12 UNL     1      -1.982  39.206   5.828  1.00  0.00     0.278 HD
ATOM     20  H11 UNL     1      -0.443  39.456   5.877  1.00  0.00     0.278 HD
BRANCH  18  21
HETATM   21  C15 UNL     1      -1.355  39.851   7.666  1.00  0.00     0.191 A 
HETATM   22  C16 UNL     1      -1.035  38.546   8.362  1.00  0.00     0.039 A 
HETATM   23  C17 UNL     1      -2.428  39.064   8.378  1.00  0.00     0.014 A 
HETATM   24  C18 UNL     1      -3.438  38.321   7.552  1.00  0.00     0.012 C 
ENDBRANCH  18  21
ENDBRANCH  15  18
ENDBRANCH  13  15
ENDBRANCH   1  13
TORSDOF 10
ENDMDL
MODEL 2
REMARK VINA RESULT: -5.616393503      4.574      7.207
REMARK  10 active torsions:
REMARK  status: ('A' for Active; 'I' for Inactive)
REMARK    1  A    between atoms: C2_2  and  C3_3 
REMARK    2  A    between atoms: C4_4  and  C5_5 
REMARK    3  A    between atoms: C6_6  and  C7_7 
REMARK    4  A    between atoms: C9_10  and  C10_11 
REMARK    5  A    between atoms: C10_11  and  O2_12 
REMARK    6  A    between atoms: O2_12  and  C11_13 
REMARK    7  A    between atoms: C11_13  and  C12_15 
REMARK    8  A    between atoms: C12_15  and  C13_16 
REMARK    9  A    between atoms: C12_15  and  N1_18 
REMARK   10  A    between atoms: N1_18  and  C15_21 
ROOT
HETATM    1  O2  UNL     1      -2.556  40.617  -0.370  1.00  0.00    -0.317 OA
ENDROOT
BRANCH   1   2
HETATM    2  C10 UNL     1      -2.008  40.436   0.854  1.00  0.00     0.211 C 
BRANCH   2   3
HETATM    3  C9  UNL     1      -0.619  39.909   0.874  1.00  0.00     0.157 C 
HETATM    4  C3  UNL     1       0.296  40.649   1.778  1.00  0.00     0.071 C 
HETATM    5  C4  UNL     1       0.628  39.220   2.197  1.00  0.00     0.154 C 
HETATM    6  O1  UNL     1      -0.378  38.682   1.395  1.00  0.00    -0.373 OA
BRANCH   4   7
HETATM    7  C2  UNL     1       1.365  41.461   1.230  1.00  0.00    -0.027 C 
HETATM    8  C1  UNL     1       1.173  42.496   0.436  1.00  0.00     0.007 C 
ENDBRANCH   4   7
BRANCH   5   9
HETATM    9  C5  UNL     1       1.968  38.812   1.798  1.00  0.00     0.001 C 
HETATM   10  C6  UNL     1       2.533  37.675   2.049  1.00  0.00    -0.028 C 
BRANCH  10  11
HETATM   11  C7  UNL     1       1.918  36.567   2.791  1.00  0.00     0.022 C 
HETATM   12  C8  UNL     1       2.522  35.224   2.401  1.00  0.00     0.009 C 
ENDBRANCH  10  11
ENDBRANCH   5   9
ENDBRANCH   2   3
ENDBRANCH   1   2
BRANCH   1  13
HETATM   13  C11 UNL     1      -2.642  41.539  -1.336  1.00  0.00     0.289 C 
HETATM   14  O3  UNL     1      -1.641  41.773  -2.032  1.00  0.00    -0.263 OA
BRANCH  13  15
HETATM   15  C12 UNL     1      -3.911  42.313  -1.610  1.00  0.00     0.284 C 
BRANCH  15  16
HETATM   16  C13 UNL     1      -5.029  41.507  -1.031  1.00  0.00     0.039 C 
HETATM   17  C14 UNL     1      -5.669  42.208   0.147  1.00  0.00     0.007 C 
ENDBRANCH  15  16
BRANCH  15  18
HETATM   18  N1  UNL     1      -3.982  42.706  -2.961  1.00  0.00    -0.057 N 
ATOM     19  H12 UNL     1      -3.623  43.654  -3.077  1.00  0.00     0.278 HD
ATOM     20  H11 UNL     1      -3.298  42.194  -3.519  1.00  0.00     0.278 HD
BRANCH  18  21
HETATM   21  C15 UNL     1      -5.306  42.588  -3.545  1.00  0.00     0.191 A 
HETATM   22  C16 UNL     1      -5.410  42.548  -5.053  1.00  0.00     0.039 A 
HETATM   23  C17 UNL     1      -5.895  43.743  -4.316  1.00  0.00     0.014 A 
HETATM   24  C18 UNL     1      -5.087  45.001  -4.453  1.00  0.00     0.012 C 
ENDBRANCH  18  21
ENDBRANCH  15  18
ENDBRANCH  13  15
ENDBRANCH   1  13
TORSDOF 10
ENDMDL
MODEL 3
REMARK VINA RESULT: -5.518041554      3.984      5.524
REMARK  10 active torsions:
REMARK  status: ('A' for Active; 'I' for Inactive)
REMARK    1  A    between atoms: C2_2  and  C3_3 
REMARK    2  A    between atoms: C4_4  and  C5_5 
REMARK    3  A    between atoms: C6_6  and  C7_7 
REMARK    4  A    between atoms: C9_10  and  C10_11 
REMARK    5  A    between atoms: C10_11  and  O2_12 
REMARK    6  A    between atoms: O2_12  and  C11_13 
REMARK    7  A    between atoms: C11_13  and  C12_15 
REMARK    8  A    between atoms: C12_15  and  C13_16 
REMARK    9  A    between atoms: C12_15  and  N1_18 
REMARK   10  A    between atoms: N1_18  and  C15_21 
ROOT
HETATM    1  O2  UNL     1      -2.339  40.643  -0.492  1.00  0.00    -0.317 OA
ENDROOT
BRANCH   1   2
HETATM    2  C10 UNL     1      -1.913  40.153   0.695  1.00  0.00     0.211 C 
BRANCH   2   3
HETATM    3  C9  UNL     1      -0.445  39.967   0.833  1.00  0.00     0.157 C 
HETATM    4  C3  UNL     1       0.172  40.802   1.894  1.00  0.00     0.071 C 
HETATM    5  C4  UNL     1       0.803  39.455   2.234  1.00  0.00     0.154 C 
HETATM    6  O1  UNL     1       0.038  38.783   1.280  1.00  0.00    -0.373 OA
BRANCH   4   7
HETATM    7  C2  UNL     1       1.057  41.895   1.540  1.00  0.00    -0.027 C 
HETATM    8  C1  UNL     1       1.011  42.538   0.390  1.00  0.00     0.007 C 
ENDBRANCH   4   7
BRANCH   5   9
HETATM    9  C5  UNL     1       2.233  39.417   1.962  1.00  0.00     0.001 C 
HETATM   10  C6  UNL     1       3.039  38.435   2.214  1.00  0.00    -0.028 C 
BRANCH  10  11
HETATM   11  C7  UNL     1       2.654  37.158   2.828  1.00  0.00     0.022 C 
HETATM   12  C8  UNL     1       2.324  36.106   1.777  1.00  0.00     0.009 C 
ENDBRANCH  10  11
ENDBRANCH   5   9
ENDBRANCH   2   3
ENDBRANCH   1   2
BRANCH   1  13
HETATM   13  C11 UNL     1      -2.353  41.784  -1.192  1.00  0.00     0.289 C 
HETATM   14  O3  UNL     1      -1.619  41.886  -2.188  1.00  0.00    -0.263 OA
BRANCH  13  15
HETATM   15  C12 UNL     1      -3.228  42.958  -0.814  1.00  0.00     0.284 C 
BRANCH  15  16
HETATM   16  C13 UNL     1      -2.356  43.904  -0.053  1.00  0.00     0.039 C 
HETATM   17  C14 UNL     1      -2.516  43.731   1.440  1.00  0.00     0.007 C 
ENDBRANCH  15  16
BRANCH  15  18
HETATM   18  N1  UNL     1      -4.435  42.523  -0.233  1.00  0.00    -0.057 N 
ATOM     19  H12 UNL     1      -4.253  41.848   0.510  1.00  0.00     0.278 HD
ATOM     20  H11 UNL     1      -4.859  43.272   0.314  1.00  0.00     0.278 HD
BRANCH  18  21
HETATM   21  C15 UNL     1      -5.390  41.984  -1.185  1.00  0.00     0.191 A 
HETATM   22  C16 UNL     1      -6.830  41.855  -0.740  1.00  0.00     0.039 A 
HETATM   23  C17 UNL     1      -6.013  40.631  -0.945  1.00  0.00     0.014 A 
HETATM   24  C18 UNL     1      -5.614  39.867   0.284  1.00  0.00     0.012 C 
ENDBRANCH  18  21
ENDBRANCH  15  18
ENDBRANCH  13  15
ENDBRANCH   1  13
TORSDOF 10
ENDMDL
MODEL 4
REMARK VINA RESULT: -5.469106238      3.158      6.165
REMARK  10 active torsions:
REMARK  status: ('A' for Active; 'I' for Inactive)
REMARK    1  A    between atoms: C2_2  and  C3_3 
REMARK    2  A    between atoms: C4_4  and  C5_5 
REMARK    3  A    between atoms: C6_6  and  C7_7 
REMARK    4  A    between atoms: C9_10  and  C10_11 
REMARK    5  A    between atoms: C10_11  and  O2_12 
REMARK    6  A    between atoms: O2_12  and  C11_13 
REMARK    7  A    between atoms: C11_13  and  C12_15 
REMARK    8  A    between atoms: C12_15  and  C13_16 
REMARK    9  A    between atoms: C12_15  and  N1_18 
REMARK   10  A    between atoms: N1_18  and  C15_21 
ROOT
HETATM    1  O2  UNL     1      -2.638  41.345   0.514  1.00  0.00    -0.317 OA
ENDROOT
BRANCH   1   2
HETATM    2  C10 UNL     1      -2.077  40.117   0.606  1.00  0.00     0.211 C 
BRANCH   2   3
HETATM    3  C9  UNL     1      -0.668  40.079   1.075  1.00  0.00     0.157 C 
HETATM    4  C3  UNL     1      -0.523  40.038   2.552  1.00  0.00     0.071 C 
HETATM    5  C4  UNL     1       0.441  38.917   2.173  1.00  0.00     0.154 C 
HETATM    6  O1  UNL     1       0.089  38.984   0.825  1.00  0.00    -0.373 OA
BRANCH   4   7
HETATM    7  C2  UNL     1       0.014  41.182   3.264  1.00  0.00    -0.027 C 
HETATM    8  C1  UNL     1      -0.387  41.562   4.460  1.00  0.00     0.007 C 
ENDBRANCH   4   7
BRANCH   5   9
HETATM    9  C5  UNL     1       1.833  39.260   2.427  1.00  0.00     0.001 C 
HETATM   10  C6  UNL     1       2.859  38.491   2.252  1.00  0.00    -0.028 C 
BRANCH  10  11
HETATM   11  C7  UNL     1       2.810  37.110   1.755  1.00  0.00     0.022 C 
HETATM   12  C8  UNL     1       2.555  36.116   2.881  1.00  0.00     0.009 C 
ENDBRANCH  10  11
ENDBRANCH   5   9
ENDBRANCH   2   3
ENDBRANCH   1   2
BRANCH   1  13
HETATM   13  C11 UNL     1      -2.329  42.596   0.153  1.00  0.00     0.289 C 
HETATM   14  O3  UNL     1      -2.143  43.447   1.038  1.00  0.00    -0.263 OA
BRANCH  13  15
HETATM   15  C12 UNL     1      -2.203  43.016  -1.293  1.00  0.00     0.284 C 
BRANCH  15  16
HETATM   16  C13 UNL     1      -3.356  42.397  -2.014  1.00  0.00     0.039 C 
HETATM   17  C14 UNL     1      -4.618  43.214  -1.854  1.00  0.00     0.007 C 
ENDBRANCH  15  16
BRANCH  15  18
HETATM   18  N1  UNL     1      -0.897  42.792  -1.773  1.00  0.00    -0.057 N 
ATOM     19  H12 UNL     1      -0.450  42.035  -1.254  1.00  0.00     0.278 HD
ATOM     20  H11 UNL     1      -0.925  42.371  -2.702  1.00  0.00     0.278 HD
BRANCH  18  21
HETATM   21  C15 UNL     1      -0.055  43.974  -1.773  1.00  0.00     0.191 A 
HETATM   22  C16 UNL     1       1.373  43.821  -2.249  1.00  0.00     0.039 A 
HETATM   23  C17 UNL     1       1.103  44.076  -0.811  1.00  0.00     0.014 A 
HETATM   24  C18 UNL     1       1.347  42.939   0.138  1.00  0.00     0.012 C 
ENDBRANCH  18  21
ENDBRANCH  15  18
ENDBRANCH  13  15
ENDBRANCH   1  13
TORSDOF 10
ENDMDL
MODEL 5
REMARK VINA RESULT: -5.412628572      3.592      5.915
REMARK  10 active torsions:
REMARK  status: ('A' for Active; 'I' for Inactive)
REMARK    1  A    between atoms: C2_2  and  C3_3 
REMARK    2  A    between atoms: C4_4  and  C5_5 
REMARK    3  A    between atoms: C6_6  and  C7_7 
REMARK    4  A    between atoms: C9_10  and  C10_11 
REMARK    5  A    between atoms: C10_11  and  O2_12 
REMARK    6  A    between atoms: O2_12  and  C11_13 
REMARK    7  A    between atoms: C11_13  and  C12_15 
REMARK    8  A    between atoms: C12_15  and  C13_16 
REMARK    9  A    between atoms: C12_15  and  N1_18 
REMARK   10  A    between atoms: N1_18  and  C15_21 
ROOT
HETATM    1  O2  UNL     1      -0.899  42.349  -0.183  1.00  0.00    -0.317 OA
ENDROOT
BRANCH   1   2
HETATM    2  C10 UNL     1      -0.468  42.794   1.020  1.00  0.00     0.211 C 
BRANCH   2   3
HETATM    3  C9  UNL     1       0.556  41.955   1.696  1.00  0.00     0.157 C 
HETATM    4  C3  UNL     1       0.044  40.647   2.176  1.00  0.00     0.071 C 
HETATM    5  C4  UNL     1       1.318  40.179   1.478  1.00  0.00     0.154 C 
HETATM    6  O1  UNL     1       1.588  41.452   0.977  1.00  0.00    -0.373 OA
BRANCH   4   7
HETATM    7  C2  UNL     1      -0.082  40.391   3.598  1.00  0.00    -0.027 C 
HETATM    8  C1  UNL     1      -0.536  41.270   4.469  1.00  0.00     0.007 C 
ENDBRANCH   4   7
BRANCH   5   9
HETATM    9  C5  UNL     1       2.327  39.696   2.410  1.00  0.00     0.001 C 
HETATM   10  C6  UNL     1       2.761  38.480   2.511  1.00  0.00    -0.028 C 
BRANCH  10  11
HETATM   11  C7  UNL     1       2.312  37.347   1.692  1.00  0.00     0.022 C 
HETATM   12  C8  UNL     1       2.355  36.038   2.470  1.00  0.00     0.009 C 
ENDBRANCH  10  11
ENDBRANCH   5   9
ENDBRANCH   2   3
ENDBRANCH   1   2
BRANCH   1  13
HETATM   13  C11 UNL     1      -1.956  41.750  -0.743  1.00  0.00     0.289 C 
HETATM   14  O3  UNL     1      -1.796  41.111  -1.796  1.00  0.00    -0.263 OA
BRANCH  13  15
HETATM   15  C12 UNL     1      -3.343  41.824  -0.145  1.00  0.00     0.284 C 
BRANCH  15  16
HETATM   16  C13 UNL     1      -3.479  40.636   0.751  1.00  0.00     0.039 C 
HETATM   17  C14 UNL     1      -3.665  41.045   2.195  1.00  0.00     0.007 C 
ENDBRANCH  15  16
BRANCH  15  18
HETATM   18  N1  UNL     1      -4.313  42.042  -1.144  1.00  0.00    -0.057 N 
ATOM     19  H12 UNL     1      -4.609  43.019  -1.148  1.00  0.00     0.278 HD
ATOM     20  H11 UNL     1      -3.891  41.985  -2.071  1.00  0.00     0.278 HD
BRANCH  18  21
HETATM   21  C15 UNL     1      -5.464  41.162  -1.053  1.00  0.00     0.191 A 
HETATM   22  C16 UNL     1      -6.576  41.353  -2.060  1.00  0.00     0.039 A 
HETATM   23  C17 UNL     1      -6.805  41.715  -0.638  1.00  0.00     0.014 A 
HETATM   24  C18 UNL     1      -6.908  43.178  -0.317  1.00  0.00     0.012 C 
ENDBRANCH  18  21
ENDBRANCH  15  18
ENDBRANCH  13  15
ENDBRANCH   1  13
TORSDOF 10
ENDMDL
