MODEL 1
REMARK VINA RESULT: -5.703671156      0.000      0.000
REMARK  9 active torsions:
REMARK  status: ('A' for Active; 'I' for Inactive)
REMARK    1  A    between atoms: C4_5  and  C5_6 
REMARK    2  A    between atoms: C5_6  and  C6_7 
REMARK    3  A    between atoms: C6_7  and  O1_8 
REMARK    4  A    between atoms: O1_8  and  C7_9 
REMARK    5  A    between atoms: C7_9  and  C8_10 
REMARK    6  A    between atoms: C8_10  and  O2_11 
REMARK    7  A    between atoms: C8_10  and  C9_13 
REMARK    8  A    between atoms: C9_13  and  O3_14 
REMARK    9  A    between atoms: O3_14  and  C10_15 
ROOT
HETATM    1  C7  UNL     1      -2.293  41.340  -0.776  1.00  0.00     0.201 C 
ENDROOT
BRANCH   1   2
HETATM    2  O1  UNL     1      -1.472  41.878  -1.712  1.00  0.00    -0.389 OA
BRANCH   2   3
HETATM    3  C6  UNL     1      -0.993  43.132  -1.399  1.00  0.00     0.168 C 
BRANCH   3   4
HETATM    4  C5  UNL     1       0.113  43.100  -0.340  1.00  0.00     0.031 C 
BRANCH   4   5
HETATM    5  C4  UNL     1       1.425  43.431  -1.015  1.00  0.00    -0.009 C 
HETATM    6  C3  UNL     1       1.246  43.834  -2.462  1.00  0.00     0.035 C 
HETATM    7  C2  UNL     1       2.223  44.914  -2.865  1.00  0.00     0.272 C 
HETATM    8  N1  UNL     1       3.513  44.763  -2.282  1.00  0.00     0.084 N 
HETATM    9  C1  UNL     1       4.318  45.917  -2.640  1.00  0.00     0.309 C 
HETATM   10  C17 UNL     1       3.571  44.567  -0.877  1.00  0.00     0.272 C 
HETATM   11  C16 UNL     1       2.192  44.491  -0.259  1.00  0.00     0.035 C 
ENDBRANCH   4   5
ENDBRANCH   3   4
ENDBRANCH   2   3
ENDBRANCH   1   2
BRANCH   1  12
HETATM   12  C8  UNL     1      -1.960  39.930  -0.335  1.00  0.00     0.165 C 
BRANCH  12  13
HETATM   13  O2  UNL     1      -1.214  39.341  -1.317  1.00  0.00    -0.391 OA
ATOM     14  H2  UNL     1      -1.776  38.747  -1.801  1.00  0.00     0.210 HD
ENDBRANCH  12  13
BRANCH  12  15
HETATM   15  C9  UNL     1      -1.318  39.965   1.032  1.00  0.00     0.202 C 
BRANCH  15  16
HETATM   16  O3  UNL     1      -0.445  38.995   1.335  1.00  0.00    -0.383 OA
BRANCH  16  17
HETATM   17  C10 UNL     1       0.046  38.836   2.577  1.00  0.00     0.121 C 
HETATM   18  C11 UNL     1       0.819  37.551   2.793  1.00  0.00     0.032 C 
HETATM   19  C12 UNL     1       1.939  37.391   1.808  1.00  0.00     0.002 C 
HETATM   20  C13 UNL     1       2.963  38.485   2.125  1.00  0.00     0.000 C 
HETATM   21  C14 UNL     1       2.266  39.801   1.933  1.00  0.00     0.002 C 
HETATM   22  C15 UNL     1       1.056  39.963   2.822  1.00  0.00     0.032 C 
ENDBRANCH  16  17
ENDBRANCH  15  16
ENDBRANCH  12  15
ENDBRANCH   1  12
TORSDOF 9
ENDMDL
MODEL 2
REMARK VINA RESULT: -5.604888869      1.322      1.606
REMARK  9 active torsions:
REMARK  status: ('A' for Active; 'I' for Inactive)
REMARK    1  A    between atoms: C4_5  and  C5_6 
REMARK    2  A    between atoms: C5_6  and  C6_7 
REMARK    3  A    between atoms: C6_7  and  O1_8 
REMARK    4  A    between atoms: O1_8  and  C7_9 
REMARK    5  A    between atoms: C7_9  and  C8_10 
REMARK    6  A    between atoms: C8_10  and  O2_11 
REMARK    7  A    between atoms: C8_10  and  C9_13 
REMARK    8  A    between atoms: C9_13  and  O3_14 
REMARK    9  A    between atoms: O3_14  and  C10_15 
ROOT
HETATM    1  C7  UNL     1      -2.332  41.307  -0.796  1.00  0.00     0.201 C 
ENDROOT
BRANCH   1   2
HETATM    2  O1  UNL     1      -1.622  41.796  -1.844  1.00  0.00    -0.389 OA
BRANCH   2   3
HETATM    3  C6  UNL     1      -0.842  42.893  -1.543  1.00  0.00     0.168 C 
BRANCH   3   4
HETATM    4  C5  UNL     1      -1.119  43.454  -0.145  1.00  0.00     0.031 C 
BRANCH   4   5
HETATM    5  C4  UNL     1       0.192  43.925   0.444  1.00  0.00    -0.009 C 
HETATM    6  C3  UNL     1       1.391  43.319  -0.251  1.00  0.00     0.035 C 
HETATM    7  C2  UNL     1       2.537  44.298  -0.341  1.00  0.00     0.272 C 
HETATM    8  N1  UNL     1       2.676  45.122   0.812  1.00  0.00     0.084 N 
HETATM    9  C1  UNL     1       3.722  46.096   0.559  1.00  0.00     0.309 C 
HETATM   10  C17 UNL     1       1.512  45.791   1.275  1.00  0.00     0.272 C 
HETATM   11  C16 UNL     1       0.291  45.433   0.457  1.00  0.00     0.035 C 
ENDBRANCH   4   5
ENDBRANCH   3   4
ENDBRANCH   2   3
ENDBRANCH   1   2
BRANCH   1  12
HETATM   12  C8  UNL     1      -1.978  39.902  -0.357  1.00  0.00     0.165 C 
BRANCH  12  13
HETATM   13  O2  UNL     1      -1.213  39.329  -1.334  1.00  0.00    -0.391 OA
ATOM     14  H2  UNL     1      -0.309  39.328  -1.040  1.00  0.00     0.210 HD
ENDBRANCH  12  13
BRANCH  12  15
HETATM   15  C9  UNL     1      -1.349  39.943   1.016  1.00  0.00     0.202 C 
BRANCH  15  16
HETATM   16  O3  UNL     1      -0.423  39.018   1.305  1.00  0.00    -0.383 OA
BRANCH  16  17
HETATM   17  C10 UNL     1       0.040  38.836   2.554  1.00  0.00     0.121 C 
HETATM   18  C11 UNL     1       0.831  37.559   2.756  1.00  0.00     0.032 C 
HETATM   19  C12 UNL     1       1.976  37.443   1.794  1.00  0.00     0.002 C 
HETATM   20  C13 UNL     1       2.973  38.545   2.164  1.00  0.00     0.000 C 
HETATM   21  C14 UNL     1       2.258  39.855   1.989  1.00  0.00     0.002 C 
HETATM   22  C15 UNL     1       1.024  39.973   2.852  1.00  0.00     0.032 C 
ENDBRANCH  16  17
ENDBRANCH  15  16
ENDBRANCH  12  15
ENDBRANCH   1  12
TORSDOF 9
ENDMDL
MODEL 3
REMARK VINA RESULT: -5.588276251      2.176      3.046
REMARK  9 active torsions:
REMARK  status: ('A' for Active; 'I' for Inactive)
REMARK    1  A    between atoms: C4_5  and  C5_6 
REMARK    2  A    between atoms: C5_6  and  C6_7 
REMARK    3  A    between atoms: C6_7  and  O1_8 
REMARK    4  A    between atoms: O1_8  and  C7_9 
REMARK    5  A    between atoms: C7_9  and  C8_10 
REMARK    6  A    between atoms: C8_10  and  O2_11 
REMARK    7  A    between atoms: C8_10  and  C9_13 
REMARK    8  A    between atoms: C9_13  and  O3_14 
REMARK    9  A    between atoms: O3_14  and  C10_15 
ROOT
HETATM    1  C7  UNL     1      -2.208  41.400  -0.803  1.00  0.00     0.201 C 
ENDROOT
BRANCH   1   2
HETATM    2  O1  UNL     1      -1.225  41.963  -1.549  1.00  0.00    -0.389 OA
BRANCH   2   3
HETATM    3  C6  UNL     1      -0.609  43.046  -0.958  1.00  0.00     0.168 C 
BRANCH   3   4
HETATM    4  C5  UNL     1       0.666  42.664  -0.199  1.00  0.00     0.031 C 
BRANCH   4   5
HETATM    5  C4  UNL     1       0.678  43.414   1.113  1.00  0.00    -0.009 C 
HETATM    6  C3  UNL     1       1.399  44.741   1.015  1.00  0.00     0.035 C 
HETATM    7  C2  UNL     1       0.743  45.797   1.874  1.00  0.00     0.272 C 
HETATM    8  N1  UNL     1       0.251  45.300   3.114  1.00  0.00     0.084 N 
HETATM    9  C1  UNL     1      -0.461  46.370   3.789  1.00  0.00     0.309 C 
HETATM   10  C17 UNL     1      -0.570  44.143   3.069  1.00  0.00     0.272 C 
HETATM   11  C16 UNL     1      -0.717  43.607   1.663  1.00  0.00     0.035 C 
ENDBRANCH   4   5
ENDBRANCH   3   4
ENDBRANCH   2   3
ENDBRANCH   1   2
BRANCH   1  12
HETATM   12  C8  UNL     1      -1.971  39.970  -0.367  1.00  0.00     0.165 C 
BRANCH  12  13
HETATM   13  O2  UNL     1      -1.193  39.359  -1.311  1.00  0.00    -0.391 OA
ATOM     14  H2  UNL     1      -0.560  38.810  -0.863  1.00  0.00     0.210 HD
ENDBRANCH  12  13
BRANCH  12  15
HETATM   15  C9  UNL     1      -1.414  39.954   1.037  1.00  0.00     0.202 C 
BRANCH  15  16
HETATM   16  O3  UNL     1      -0.510  39.011   1.338  1.00  0.00    -0.383 OA
BRANCH  16  17
HETATM   17  C10 UNL     1      -0.014  38.866   2.580  1.00  0.00     0.121 C 
HETATM   18  C11 UNL     1       0.821  37.619   2.787  1.00  0.00     0.032 C 
HETATM   19  C12 UNL     1       1.948  37.522   1.802  1.00  0.00     0.002 C 
HETATM   20  C13 UNL     1       2.917  38.662   2.130  1.00  0.00     0.000 C 
HETATM   21  C14 UNL     1       2.157  39.944   1.948  1.00  0.00     0.002 C 
HETATM   22  C15 UNL     1       0.939  40.040   2.836  1.00  0.00     0.032 C 
ENDBRANCH  16  17
ENDBRANCH  15  16
ENDBRANCH  12  15
ENDBRANCH   1  12
TORSDOF 9
ENDMDL
MODEL 4
REMARK VINA RESULT: -5.550198770      3.992      5.558
REMARK  9 active torsions:
REMARK  status: ('A' for Active; 'I' for Inactive)
REMARK    1  A    between atoms: C4_5  and  C5_6 
REMARK    2  A    between atoms: C5_6  and  C6_7 
REMARK    3  A    between atoms: C6_7  and  O1_8 
REMARK    4  A    between atoms: O1_8  and  C7_9 
REMARK    5  A    between atoms: C7_9  and  C8_10 
REMARK    6  A    between atoms: C8_10  and  O2_11 
REMARK    7  A    between atoms: C8_10  and  C9_13 
REMARK    8  A    between atoms: C9_13  and  O3_14 
REMARK    9  A    between atoms: O3_14  and  C10_15 
ROOT
HETATM    1  C7  UNL     1      -2.982  40.457   0.631  1.00  0.00     0.201 C 
ENDROOT
BRANCH   1   2
HETATM    2  O1  UNL     1      -4.220  40.072   0.233  1.00  0.00    -0.389 OA
BRANCH   2   3
HETATM    3  C6  UNL     1      -5.253  40.648   0.942  1.00  0.00     0.168 C 
BRANCH   3   4
HETATM    4  C5  UNL     1      -6.401  41.117   0.044  1.00  0.00     0.031 C 
BRANCH   4   5
HETATM    5  C4  UNL     1      -5.850  41.357  -1.343  1.00  0.00    -0.009 C 
HETATM    6  C3  UNL     1      -6.850  41.025  -2.429  1.00  0.00     0.035 C 
HETATM    7  C2  UNL     1      -6.740  41.975  -3.598  1.00  0.00     0.272 C 
HETATM    8  N1  UNL     1      -5.402  42.356  -3.901  1.00  0.00     0.084 N 
HETATM    9  C1  UNL     1      -5.434  43.357  -4.951  1.00  0.00     0.309 C 
HETATM   10  C17 UNL     1      -4.602  42.827  -2.827  1.00  0.00     0.272 C 
HETATM   11  C16 UNL     1      -5.339  42.770  -1.507  1.00  0.00     0.035 C 
ENDBRANCH   4   5
ENDBRANCH   3   4
ENDBRANCH   2   3
ENDBRANCH   1   2
BRANCH   1  12
HETATM   12  C8  UNL     1      -1.836  40.021  -0.257  1.00  0.00     0.165 C 
BRANCH  12  13
HETATM   13  O2  UNL     1      -1.876  40.767  -1.402  1.00  0.00    -0.391 OA
ATOM     14  H2  UNL     1      -2.787  40.926  -1.621  1.00  0.00     0.210 HD
ENDBRANCH  12  13
BRANCH  12  15
HETATM   15  C9  UNL     1      -0.540  40.093   0.516  1.00  0.00     0.202 C 
BRANCH  15  16
HETATM   16  O3  UNL     1      -0.061  38.956   1.036  1.00  0.00    -0.383 OA
BRANCH  16  17
HETATM   17  C10 UNL     1       0.196  38.822   2.350  1.00  0.00     0.121 C 
HETATM   18  C11 UNL     1       0.712  37.457   2.759  1.00  0.00     0.032 C 
HETATM   19  C12 UNL     1       1.933  37.058   1.985  1.00  0.00     0.002 C 
HETATM   20  C13 UNL     1       3.054  38.009   2.413  1.00  0.00     0.000 C 
HETATM   21  C14 UNL     1       2.615  39.395   2.039  1.00  0.00     0.002 C 
HETATM   22  C15 UNL     1       1.321  39.803   2.702  1.00  0.00     0.032 C 
ENDBRANCH  16  17
ENDBRANCH  15  16
ENDBRANCH  12  15
ENDBRANCH   1  12
TORSDOF 9
ENDMDL
MODEL 5
REMARK VINA RESULT: -5.533235749      3.894      5.962
REMARK  9 active torsions:
REMARK  status: ('A' for Active; 'I' for Inactive)
REMARK    1  A    between atoms: C4_5  and  C5_6 
REMARK    2  A    between atoms: C5_6  and  C6_7 
REMARK    3  A    between atoms: C6_7  and  O1_8 
REMARK    4  A    between atoms: O1_8  and  C7_9 
REMARK    5  A    between atoms: C7_9  and  C8_10 
REMARK    6  A    between atoms: C8_10  and  O2_11 
REMARK    7  A    between atoms: C8_10  and  C9_13 
REMARK    8  A    between atoms: C9_13  and  O3_14 
REMARK    9  A    between atoms: O3_14  and  C10_15 
ROOT
HETATM    1  C7  UNL     1      -1.139  42.047  -0.601  1.00  0.00     0.201 C 
ENDROOT
BRANCH   1   2
HETATM    2  O1  UNL     1      -1.876  41.459  -1.576  1.00  0.00    -0.389 OA
BRANCH   2   3
HETATM    3  C6  UNL     1      -2.919  42.229  -2.047  1.00  0.00     0.168 C 
BRANCH   3   4
HETATM    4  C5  UNL     1      -4.257  41.886  -1.386  1.00  0.00     0.031 C 
BRANCH   4   5
HETATM    5  C4  UNL     1      -5.369  42.329  -2.309  1.00  0.00    -0.009 C 
HETATM    6  C3  UNL     1      -4.879  42.613  -3.712  1.00  0.00     0.035 C 
HETATM    7  C2  UNL     1      -5.896  42.206  -4.752  1.00  0.00     0.272 C 
HETATM    8  N1  UNL     1      -7.242  42.457  -4.362  1.00  0.00     0.084 N 
HETATM    9  C1  UNL     1      -8.125  41.915  -5.379  1.00  0.00     0.309 C 
HETATM   10  C17 UNL     1      -7.648  41.983  -3.087  1.00  0.00     0.272 C 
HETATM   11  C16 UNL     1      -6.507  41.334  -2.336  1.00  0.00     0.035 C 
ENDBRANCH   4   5
ENDBRANCH   3   4
ENDBRANCH   2   3
ENDBRANCH   1   2
BRANCH   1  12
HETATM   12  C8  UNL     1      -1.120  41.335   0.735  1.00  0.00     0.165 C 
BRANCH  12  13
HETATM   13  O2  UNL     1      -2.170  41.794   1.479  1.00  0.00    -0.391 OA
ATOM     14  H2  UNL     1      -2.597  41.048   1.882  1.00  0.00     0.210 HD
ENDBRANCH  12  13
BRANCH  12  15
HETATM   15  C9  UNL     1      -1.091  39.841   0.512  1.00  0.00     0.202 C 
BRANCH  15  16
HETATM   16  O3  UNL     1      -0.033  39.162   0.975  1.00  0.00    -0.383 OA
BRANCH  16  17
HETATM   17  C10 UNL     1       0.195  39.003   2.292  1.00  0.00     0.121 C 
HETATM   18  C11 UNL     1       0.628  37.608   2.695  1.00  0.00     0.032 C 
HETATM   19  C12 UNL     1       1.838  37.149   1.937  1.00  0.00     0.002 C 
HETATM   20  C13 UNL     1       3.003  38.032   2.391  1.00  0.00     0.000 C 
HETATM   21  C14 UNL     1       2.646  39.444   2.024  1.00  0.00     0.002 C 
HETATM   22  C15 UNL     1       1.366  39.917   2.671  1.00  0.00     0.032 C 
ENDBRANCH  16  17
ENDBRANCH  15  16
ENDBRANCH  12  15
ENDBRANCH   1  12
TORSDOF 9
ENDMDL
