MODEL 1
REMARK VINA RESULT: -6.709786242      0.000      0.000
REMARK  5 active torsions:
REMARK  status: ('A' for Active; 'I' for Inactive)
REMARK    1  A    between atoms: C3_5  and  N2_6 
REMARK       I    between atoms: N2_6  and  C4_8 
REMARK       I    between atoms: C4_8  and  N4_12 
REMARK    2  A    between atoms: N4_12  and  C5_14 
REMARK    3  A    between atoms: C5_14  and  C6_15 
REMARK    4  A    between atoms: C6_15  and  N5_16 
REMARK    5  A    between atoms: C9_20  and  C10_21 
ROOT
HETATM    1  N2  UNL     1      -2.525   2.958  13.666  1.00  0.00    -0.171 N 
ATOM      2  H2  UNL     1      -1.567   2.745  13.945  1.00  0.00     0.186 HD
HETATM    3  C4  UNL     1      -2.852   3.405  12.353  1.00  0.00     0.673 C 
HETATM    4  N3  UNL     1      -2.947   4.673  12.083  1.00  0.00    -0.235 N 
ATOM      5  H31 UNL     1      -3.181   4.993  11.143  1.00  0.00     0.174 HD
ATOM      6  H32 UNL     1      -2.778   5.325  12.848  1.00  0.00     0.174 HD
HETATM    7  N4  UNL     1      -3.088   2.497  11.289  1.00  0.00    -0.225 N 
ATOM      8  H4  UNL     1      -3.650   2.764  10.480  1.00  0.00     0.177 HD
ENDROOT
BRANCH   1   9
HETATM    9  C3  UNL     1      -3.542   2.837  14.496  1.00  0.00     0.164 A 
HETATM   10  N1  UNL     1      -4.538   3.708  14.685  1.00  0.00    -0.339 N 
HETATM   11  C2  UNL     1      -5.467   3.402  15.565  1.00  0.00     0.021 A 
ATOM     12  H1  UNL     1      -4.576   4.584  14.163  1.00  0.00     0.168 HD
HETATM   13  C1  UNL     1      -6.632   4.341  15.840  1.00  0.00     0.069 C 
HETATM   14  C9  UNL     1      -5.351   2.216  16.225  1.00  0.00     0.016 A 
HETATM   15  S1  UNL     1      -3.921   1.569  15.571  1.00  0.00    -0.055 SA
BRANCH  14  16
HETATM   16  C10 UNL     1      -6.260   1.620  17.270  1.00  0.00    -0.016 C 
HETATM   17  C11 UNL     1      -7.654   1.438  16.743  1.00  0.00     0.020 C 
HETATM   18  C12 UNL     1      -6.204   2.378  18.560  1.00  0.00     0.020 C 
HETATM   19  C13 UNL     1      -5.704   0.229  17.552  1.00  0.00     0.020 C 
ENDBRANCH  14  16
ENDBRANCH   1   9
BRANCH   7  20
HETATM   20  C5  UNL     1      -2.498   1.170  11.390  1.00  0.00     0.168 C 
BRANCH  20  21
HETATM   21  C6  UNL     1      -3.237   0.192  10.492  1.00  0.00     0.291 C 
BRANCH  21  22
HETATM   22  N5  UNL     1      -3.823  -0.888  11.267  1.00  0.00     0.081 N 
HETATM   23  C7  UNL     1      -2.817  -1.913  11.427  1.00  0.00     0.309 C 
HETATM   24  C8  UNL     1      -4.186  -0.413  12.598  1.00  0.00     0.309 C 
ENDBRANCH  21  22
ENDBRANCH  20  21
ENDBRANCH   7  20
TORSDOF 5
ENDMDL
MODEL 2
REMARK VINA RESULT: -6.423910671      1.935      2.769
REMARK  5 active torsions:
REMARK  status: ('A' for Active; 'I' for Inactive)
REMARK    1  A    between atoms: C3_5  and  N2_6 
REMARK       I    between atoms: N2_6  and  C4_8 
REMARK       I    between atoms: C4_8  and  N4_12 
REMARK    2  A    between atoms: N4_12  and  C5_14 
REMARK    3  A    between atoms: C5_14  and  C6_15 
REMARK    4  A    between atoms: C6_15  and  N5_16 
REMARK    5  A    between atoms: C9_20  and  C10_21 
ROOT
HETATM    1  N2  UNL     1      -2.715   2.618  13.379  1.00  0.00    -0.171 N 
ATOM      2  H2  UNL     1      -2.405   1.794  12.865  1.00  0.00     0.186 HD
HETATM    3  C4  UNL     1      -2.133   3.903  13.177  1.00  0.00     0.673 C 
HETATM    4  N3  UNL     1      -1.164   4.324  13.933  1.00  0.00    -0.235 N 
ATOM      5  H31 UNL     1      -0.747   5.244  13.789  1.00  0.00     0.174 HD
ATOM      6  H32 UNL     1      -0.844   3.697  14.671  1.00  0.00     0.174 HD
HETATM    7  N4  UNL     1      -2.579   4.775  12.150  1.00  0.00    -0.225 N 
ATOM      8  H4  UNL     1      -2.438   5.784  12.215  1.00  0.00     0.177 HD
ENDROOT
BRANCH   1   9
HETATM    9  C3  UNL     1      -3.682   2.566  14.275  1.00  0.00     0.164 A 
HETATM   10  N1  UNL     1      -4.596   3.506  14.530  1.00  0.00    -0.339 N 
HETATM   11  C2  UNL     1      -5.485   3.263  15.470  1.00  0.00     0.021 A 
ATOM     12  H1  UNL     1      -4.606   4.385  14.013  1.00  0.00     0.168 HD
HETATM   13  C1  UNL     1      -6.559   4.281  15.823  1.00  0.00     0.069 C 
HETATM   14  C9  UNL     1      -5.412   2.067  16.119  1.00  0.00     0.016 A 
HETATM   15  S1  UNL     1      -4.078   1.323  15.371  1.00  0.00    -0.055 SA
BRANCH  14  16
HETATM   16  C10 UNL     1      -6.290   1.533  17.223  1.00  0.00    -0.016 C 
HETATM   17  C11 UNL     1      -7.703   1.343  16.752  1.00  0.00     0.020 C 
HETATM   18  C12 UNL     1      -6.182   2.351  18.472  1.00  0.00     0.020 C 
HETATM   19  C13 UNL     1      -5.739   0.151  17.552  1.00  0.00     0.020 C 
ENDBRANCH  14  16
ENDBRANCH   1   9
BRANCH   7  20
HETATM   20  C5  UNL     1      -3.245   4.180  11.001  1.00  0.00     0.168 C 
BRANCH  20  21
HETATM   21  C6  UNL     1      -2.457   4.457   9.731  1.00  0.00     0.291 C 
BRANCH  21  22
HETATM   22  N5  UNL     1      -1.195   3.738   9.733  1.00  0.00     0.081 N 
HETATM   23  C7  UNL     1      -1.483   2.340   9.957  1.00  0.00     0.309 C 
HETATM   24  C8  UNL     1      -0.548   3.853   8.430  1.00  0.00     0.309 C 
ENDBRANCH  21  22
ENDBRANCH  20  21
ENDBRANCH   7  20
TORSDOF 5
ENDMDL
MODEL 3
REMARK VINA RESULT: -6.253290307      2.247      3.665
REMARK  5 active torsions:
REMARK  status: ('A' for Active; 'I' for Inactive)
REMARK    1  A    between atoms: C3_5  and  N2_6 
REMARK       I    between atoms: N2_6  and  C4_8 
REMARK       I    between atoms: C4_8  and  N4_12 
REMARK    2  A    between atoms: N4_12  and  C5_14 
REMARK    3  A    between atoms: C5_14  and  C6_15 
REMARK    4  A    between atoms: C6_15  and  N5_16 
REMARK    5  A    between atoms: C9_20  and  C10_21 
ROOT
HETATM    1  N2  UNL     1      -2.765   2.693  13.286  1.00  0.00    -0.171 N 
ATOM      2  H2  UNL     1      -2.526   1.899  12.694  1.00  0.00     0.186 HD
HETATM    3  C4  UNL     1      -2.096   3.947  13.183  1.00  0.00     0.673 C 
HETATM    4  N3  UNL     1      -1.083   4.230  13.946  1.00  0.00    -0.235 N 
ATOM      5  H31 UNL     1      -0.604   5.127  13.871  1.00  0.00     0.174 HD
ATOM      6  H32 UNL     1      -0.794   3.518  14.617  1.00  0.00     0.174 HD
HETATM    7  N4  UNL     1      -2.500   4.937  12.249  1.00  0.00    -0.225 N 
ATOM      8  H4  UNL     1      -2.285   5.923  12.399  1.00  0.00     0.177 HD
ENDROOT
BRANCH   1   9
HETATM    9  C3  UNL     1      -3.714   2.629  14.201  1.00  0.00     0.164 A 
HETATM   10  N1  UNL     1      -4.609   3.574  14.502  1.00  0.00    -0.339 N 
HETATM   11  C2  UNL     1      -5.482   3.316  15.453  1.00  0.00     0.021 A 
ATOM     12  H1  UNL     1      -4.617   4.468  14.010  1.00  0.00     0.168 HD
HETATM   13  C1  UNL     1      -6.533   4.338  15.857  1.00  0.00     0.069 C 
HETATM   14  C9  UNL     1      -5.412   2.101  16.066  1.00  0.00     0.016 A 
HETATM   15  S1  UNL     1      -4.105   1.360  15.270  1.00  0.00    -0.055 SA
BRANCH  14  16
HETATM   16  C10 UNL     1      -6.275   1.548  17.172  1.00  0.00    -0.016 C 
HETATM   17  C11 UNL     1      -7.692   1.352  16.714  1.00  0.00     0.020 C 
HETATM   18  C12 UNL     1      -6.160   2.352  18.430  1.00  0.00     0.020 C 
HETATM   19  C13 UNL     1      -5.711   0.166  17.479  1.00  0.00     0.020 C 
ENDBRANCH  14  16
ENDBRANCH   1   9
BRANCH   7  20
HETATM   20  C5  UNL     1      -3.231   4.496  11.071  1.00  0.00     0.168 C 
BRANCH  20  21
HETATM   21  C6  UNL     1      -4.608   5.138  11.031  1.00  0.00     0.291 C 
BRANCH  21  22
HETATM   22  N5  UNL     1      -4.518   6.542  10.669  1.00  0.00     0.081 N 
HETATM   23  C7  UNL     1      -4.573   6.631   9.228  1.00  0.00     0.309 C 
HETATM   24  C8  UNL     1      -5.663   7.273  11.202  1.00  0.00     0.309 C 
ENDBRANCH  21  22
ENDBRANCH  20  21
ENDBRANCH   7  20
TORSDOF 5
ENDMDL
MODEL 4
REMARK VINA RESULT: -6.247735868      1.160      2.087
REMARK  5 active torsions:
REMARK  status: ('A' for Active; 'I' for Inactive)
REMARK    1  A    between atoms: C3_5  and  N2_6 
REMARK       I    between atoms: N2_6  and  C4_8 
REMARK       I    between atoms: C4_8  and  N4_12 
REMARK    2  A    between atoms: N4_12  and  C5_14 
REMARK    3  A    between atoms: C5_14  and  C6_15 
REMARK    4  A    between atoms: C6_15  and  N5_16 
REMARK    5  A    between atoms: C9_20  and  C10_21 
ROOT
HETATM    1  N2  UNL     1      -2.551   3.529  13.430  1.00  0.00    -0.171 N 
ATOM      2  H2  UNL     1      -1.566   3.658  13.657  1.00  0.00     0.186 HD
HETATM    3  C4  UNL     1      -3.097   3.909  12.170  1.00  0.00     0.673 C 
HETATM    4  N3  UNL     1      -3.654   5.072  12.006  1.00  0.00    -0.235 N 
ATOM      5  H31 UNL     1      -4.044   5.344  11.104  1.00  0.00     0.174 HD
ATOM      6  H32 UNL     1      -3.682   5.692  12.815  1.00  0.00     0.174 HD
HETATM    7  N4  UNL     1      -3.059   3.045  11.045  1.00  0.00    -0.225 N 
ATOM      8  H4  UNL     1      -3.728   3.142  10.281  1.00  0.00     0.177 HD
ENDROOT
BRANCH   1   9
HETATM    9  C3  UNL     1      -3.406   2.998  14.283  1.00  0.00     0.164 A 
HETATM   10  N1  UNL     1      -3.510   1.711  14.627  1.00  0.00    -0.339 N 
HETATM   11  C2  UNL     1      -4.434   1.378  15.502  1.00  0.00     0.021 A 
ATOM     12  H1  UNL     1      -2.891   1.007  14.222  1.00  0.00     0.168 HD
HETATM   13  C1  UNL     1      -4.617  -0.066  15.945  1.00  0.00     0.069 C 
HETATM   14  C9  UNL     1      -5.223   2.370  16.001  1.00  0.00     0.016 A 
HETATM   15  S1  UNL     1      -4.625   3.750  15.207  1.00  0.00    -0.055 SA
BRANCH  14  16
HETATM   16  C10 UNL     1      -6.344   2.275  17.004  1.00  0.00    -0.016 C 
HETATM   17  C11 UNL     1      -5.820   2.013  18.387  1.00  0.00     0.020 C 
HETATM   18  C12 UNL     1      -7.402   1.306  16.574  1.00  0.00     0.020 C 
HETATM   19  C13 UNL     1      -6.993   3.654  17.026  1.00  0.00     0.020 C 
ENDBRANCH  14  16
ENDBRANCH   1   9
BRANCH   7  20
HETATM   20  C5  UNL     1      -2.030   2.016  11.019  1.00  0.00     0.168 C 
BRANCH  20  21
HETATM   21  C6  UNL     1      -2.608   0.702  10.519  1.00  0.00     0.291 C 
BRANCH  21  22
HETATM   22  N5  UNL     1      -3.286  -0.010  11.589  1.00  0.00     0.081 N 
HETATM   23  C7  UNL     1      -4.705   0.208  11.433  1.00  0.00     0.309 C 
HETATM   24  C8  UNL     1      -3.042  -1.444  11.472  1.00  0.00     0.309 C 
ENDBRANCH  21  22
ENDBRANCH  20  21
ENDBRANCH   7  20
TORSDOF 5
ENDMDL
MODEL 5
REMARK VINA RESULT: -6.015124980      1.862      2.613
REMARK  5 active torsions:
REMARK  status: ('A' for Active; 'I' for Inactive)
REMARK    1  A    between atoms: C3_5  and  N2_6 
REMARK       I    between atoms: N2_6  and  C4_8 
REMARK       I    between atoms: C4_8  and  N4_12 
REMARK    2  A    between atoms: N4_12  and  C5_14 
REMARK    3  A    between atoms: C5_14  and  C6_15 
REMARK    4  A    between atoms: C6_15  and  N5_16 
REMARK    5  A    between atoms: C9_20  and  C10_21 
ROOT
HETATM    1  N2  UNL     1      -2.436   3.200  13.830  1.00  0.00    -0.171 N 
ATOM      2  H2  UNL     1      -1.784   2.460  13.574  1.00  0.00     0.186 HD
HETATM    3  C4  UNL     1      -2.305   4.531  13.340  1.00  0.00     0.673 C 
HETATM    4  N3  UNL     1      -1.674   5.438  14.025  1.00  0.00    -0.235 N 
ATOM      5  H31 UNL     1      -1.580   6.391  13.673  1.00  0.00     0.174 HD
ATOM      6  H32 UNL     1      -1.282   5.153  14.922  1.00  0.00     0.174 HD
HETATM    7  N4  UNL     1      -2.852   4.927  12.091  1.00  0.00    -0.225 N 
ATOM      8  H4  UNL     1      -3.077   5.904  11.899  1.00  0.00     0.177 HD
ENDROOT
BRANCH   1   9
HETATM    9  C3  UNL     1      -3.457   2.990  14.638  1.00  0.00     0.164 A 
HETATM   10  N1  UNL     1      -4.503   3.796  14.844  1.00  0.00    -0.339 N 
HETATM   11  C2  UNL     1      -5.426   3.404  15.696  1.00  0.00     0.021 A 
ATOM     12  H1  UNL     1      -4.584   4.688  14.354  1.00  0.00     0.168 HD
HETATM   13  C1  UNL     1      -6.647   4.264  15.987  1.00  0.00     0.069 C 
HETATM   14  C9  UNL     1      -5.252   2.201  16.312  1.00  0.00     0.016 A 
HETATM   15  S1  UNL     1      -3.778   1.662  15.658  1.00  0.00    -0.055 SA
BRANCH  14  16
HETATM   16  C10 UNL     1      -6.140   1.516  17.319  1.00  0.00    -0.016 C 
HETATM   17  C11 UNL     1      -6.234   2.306  18.593  1.00  0.00     0.020 C 
HETATM   18  C12 UNL     1      -5.750   0.087  17.532  1.00  0.00     0.020 C 
HETATM   19  C13 UNL     1      -7.532   1.504  16.697  1.00  0.00     0.020 C 
ENDBRANCH  14  16
ENDBRANCH   1   9
BRANCH   7  20
HETATM   20  C5  UNL     1      -3.079   3.891  11.094  1.00  0.00     0.168 C 
BRANCH  20  21
HETATM   21  C6  UNL     1      -2.072   4.015   9.963  1.00  0.00     0.291 C 
BRANCH  21  22
HETATM   22  N5  UNL     1      -1.179   2.869   9.932  1.00  0.00     0.081 N 
HETATM   23  C7  UNL     1      -0.002   3.206  10.699  1.00  0.00     0.309 C 
HETATM   24  C8  UNL     1      -1.811   1.721  10.572  1.00  0.00     0.309 C 
ENDBRANCH  21  22
ENDBRANCH  20  21
ENDBRANCH   7  20
TORSDOF 5
ENDMDL
