MODEL 1
REMARK VINA RESULT: -7.181828519      0.000      0.000
REMARK  3 active torsions:
REMARK  status: ('A' for Active; 'I' for Inactive)
REMARK       I    between atoms: N1_5  and  C4_6 
REMARK       I    between atoms: C4_6  and  N2_8 
REMARK    1  A    between atoms: N2_8  and  C5_10 
REMARK    2  A    between atoms: C5_10  and  C6_11 
REMARK    3  A    between atoms: C6_11  and  C7_12 
ROOT
HETATM    1  C1  UNL     1      -1.651   1.827  10.494  1.00  0.00     0.057 C 
HETATM    2  C2  UNL     1      -2.370   2.895  11.254  1.00  0.00     0.158 C 
HETATM    3  F1  UNL     1      -3.554   3.134  10.532  1.00  0.00    -0.238 F 
HETATM    4  C3  UNL     1      -2.831   2.284  12.560  1.00  0.00     0.176 C 
HETATM    5  N1  UNL     1      -3.653   3.194  13.322  1.00  0.00    -0.316 N 
HETATM    6  C4  UNL     1      -4.735   2.665  14.067  1.00  0.00     0.319 C 
HETATM    7  O1  UNL     1      -4.989   1.412  14.071  1.00  0.00    -0.247 OA
HETATM    8  N2  UNL     1      -5.598   3.487  14.846  1.00  0.00    -0.343 N 
ATOM      9  H2  UNL     1      -5.428   4.493  14.867  1.00  0.00     0.164 HD
HETATM   10  C8  UNL     1      -3.312   4.599  13.273  1.00  0.00     0.170 C 
HETATM   11  S1  UNL     1      -4.474   5.582  12.315  1.00  0.00    -0.069 SA
HETATM   12  C9  UNL     1      -1.906   4.694  12.820  1.00  0.00     0.079 C 
HETATM   13  C10 UNL     1      -1.357   6.112  12.793  1.00  0.00     0.092 C 
HETATM   14  S2  UNL     1       0.303   5.701  12.080  1.00  0.00    -0.113 SA
HETATM   15  C11 UNL     1      -0.223   4.211  11.237  1.00  0.00     0.084 C 
HETATM   16  N3  UNL     1       0.530   3.404  10.663  1.00  0.00    -0.394 N 
ATOM     17  H31 UNL     1       0.230   2.556  10.183  1.00  0.00     0.156 HD
ATOM     18  H32 UNL     1       1.544   3.415  10.556  1.00  0.00     0.156 HD
HETATM   19  C12 UNL     1      -1.685   4.196  11.392  1.00  0.00     0.195 C 
HETATM   20  F5  UNL     1      -2.187   5.137  10.494  1.00  0.00    -0.231 F 
ENDROOT
BRANCH   8  21
HETATM   21  C5  UNL     1      -6.694   2.961  15.600  1.00  0.00     0.133 C 
BRANCH  21  22
HETATM   22  C6  UNL     1      -6.619   3.302  17.061  1.00  0.00     0.137 C 
BRANCH  22  23
HETATM   23  C7  UNL     1      -6.279   2.083  17.877  1.00  0.00     0.389 C 
HETATM   24  F2  UNL     1      -6.274   2.403  19.216  1.00  0.00    -0.171 F 
HETATM   25  F3  UNL     1      -5.076   1.563  17.455  1.00  0.00    -0.171 F 
HETATM   26  F4  UNL     1      -7.291   1.152  17.675  1.00  0.00    -0.171 F 
ENDBRANCH  22  23
ENDBRANCH  21  22
ENDBRANCH   8  21
TORSDOF 3
ENDMDL
MODEL 2
REMARK VINA RESULT: -6.997797762      2.024      2.538
REMARK  3 active torsions:
REMARK  status: ('A' for Active; 'I' for Inactive)
REMARK       I    between atoms: N1_5  and  C4_6 
REMARK       I    between atoms: C4_6  and  N2_8 
REMARK    1  A    between atoms: N2_8  and  C5_10 
REMARK    2  A    between atoms: C5_10  and  C6_11 
REMARK    3  A    between atoms: C6_11  and  C7_12 
ROOT
HETATM    1  C1  UNL     1       0.264   4.796  11.406  1.00  0.00     0.057 C 
HETATM    2  C2  UNL     1      -1.173   4.398  11.508  1.00  0.00     0.158 C 
HETATM    3  F1  UNL     1      -1.193   3.008  11.282  1.00  0.00    -0.238 F 
HETATM    4  C3  UNL     1      -1.582   4.558  12.956  1.00  0.00     0.176 C 
HETATM    5  N1  UNL     1      -2.922   4.077  13.197  1.00  0.00    -0.316 N 
HETATM    6  C4  UNL     1      -3.199   3.435  14.429  1.00  0.00     0.319 C 
HETATM    7  O1  UNL     1      -2.292   3.280  15.315  1.00  0.00    -0.247 OA
HETATM    8  N2  UNL     1      -4.490   2.929  14.751  1.00  0.00    -0.343 N 
ATOM      9  H2  UNL     1      -5.241   3.034  14.068  1.00  0.00     0.164 HD
HETATM   10  C8  UNL     1      -3.901   4.284  12.152  1.00  0.00     0.170 C 
HETATM   11  S1  UNL     1      -4.349   2.774  11.284  1.00  0.00    -0.069 SA
HETATM   12  C9  UNL     1      -3.390   5.366  11.280  1.00  0.00     0.079 C 
HETATM   13  C10 UNL     1      -4.346   5.770  10.168  1.00  0.00     0.092 C 
HETATM   14  S2  UNL     1      -3.232   7.004   9.348  1.00  0.00    -0.113 SA
HETATM   15  C11 UNL     1      -1.698   6.261   9.899  1.00  0.00     0.084 C 
HETATM   16  N3  UNL     1      -0.566   6.753   9.747  1.00  0.00    -0.394 N 
ATOM     17  H31 UNL     1       0.308   6.330  10.061  1.00  0.00     0.156 HD
ATOM     18  H32 UNL     1      -0.282   7.628   9.306  1.00  0.00     0.156 HD
HETATM   19  C12 UNL     1      -2.106   5.001  10.535  1.00  0.00     0.195 C 
HETATM   20  F5  UNL     1      -2.410   4.116   9.501  1.00  0.00    -0.231 F 
ENDROOT
BRANCH   8  21
HETATM   21  C5  UNL     1      -4.779   2.280  15.992  1.00  0.00     0.133 C 
BRANCH  21  22
HETATM   22  C6  UNL     1      -6.195   2.484  16.447  1.00  0.00     0.137 C 
BRANCH  22  23
HETATM   23  C7  UNL     1      -6.532   1.551  17.580  1.00  0.00     0.389 C 
HETATM   24  F2  UNL     1      -7.738   0.934  17.334  1.00  0.00    -0.171 F 
HETATM   25  F3  UNL     1      -6.527   2.244  18.769  1.00  0.00    -0.171 F 
HETATM   26  F4  UNL     1      -5.556   0.562  17.607  1.00  0.00    -0.171 F 
ENDBRANCH  22  23
ENDBRANCH  21  22
ENDBRANCH   8  21
TORSDOF 3
ENDMDL
MODEL 3
REMARK VINA RESULT: -6.938756676      1.122      1.288
REMARK  3 active torsions:
REMARK  status: ('A' for Active; 'I' for Inactive)
REMARK       I    between atoms: N1_5  and  C4_6 
REMARK       I    between atoms: C4_6  and  N2_8 
REMARK    1  A    between atoms: N2_8  and  C5_10 
REMARK    2  A    between atoms: C5_10  and  C6_11 
REMARK    3  A    between atoms: C6_11  and  C7_12 
ROOT
HETATM    1  C1  UNL     1      -1.389   3.069   9.542  1.00  0.00     0.057 C 
HETATM    2  C2  UNL     1      -2.053   3.711  10.718  1.00  0.00     0.158 C 
HETATM    3  F1  UNL     1      -3.378   3.958  10.311  1.00  0.00    -0.238 F 
HETATM    4  C3  UNL     1      -2.172   2.656  11.797  1.00  0.00     0.176 C 
HETATM    5  N1  UNL     1      -2.918   3.131  12.938  1.00  0.00    -0.316 N 
HETATM    6  C4  UNL     1      -3.763   2.221  13.619  1.00  0.00     0.319 C 
HETATM    7  O1  UNL     1      -3.872   1.005  13.242  1.00  0.00    -0.247 OA
HETATM    8  N2  UNL     1      -4.536   2.602  14.753  1.00  0.00    -0.343 N 
ATOM      9  H2  UNL     1      -4.476   3.565  15.085  1.00  0.00     0.164 HD
HETATM   10  C8  UNL     1      -2.750   4.518  13.312  1.00  0.00     0.170 C 
HETATM   11  S1  UNL     1      -4.181   5.538  12.933  1.00  0.00    -0.069 SA
HETATM   12  C9  UNL     1      -1.483   4.986  12.706  1.00  0.00     0.079 C 
HETATM   13  C10 UNL     1      -1.109   6.414  13.074  1.00  0.00     0.092 C 
HETATM   14  S2  UNL     1       0.408   6.532  12.016  1.00  0.00    -0.113 SA
HETATM   15  C11 UNL     1      -0.112   5.311  10.813  1.00  0.00     0.084 C 
HETATM   16  N3  UNL     1       0.595   4.862   9.892  1.00  0.00    -0.394 N 
ATOM     17  H31 UNL     1       0.299   4.167   9.207  1.00  0.00     0.156 HD
ATOM     18  H32 UNL     1       1.559   5.077   9.639  1.00  0.00     0.156 HD
HETATM   19  C12 UNL     1      -1.501   5.001  11.178  1.00  0.00     0.195 C 
HETATM   20  F5  UNL     1      -2.274   6.075  10.737  1.00  0.00    -0.231 F 
ENDROOT
BRANCH   8  21
HETATM   21  C5  UNL     1      -5.392   1.690  15.447  1.00  0.00     0.133 C 
BRANCH  21  22
HETATM   22  C6  UNL     1      -5.232   1.753  16.939  1.00  0.00     0.137 C 
BRANCH  22  23
HETATM   23  C7  UNL     1      -6.525   2.158  17.597  1.00  0.00     0.389 C 
HETATM   24  F2  UNL     1      -7.065   3.240  16.939  1.00  0.00    -0.171 F 
HETATM   25  F3  UNL     1      -6.306   2.409  18.933  1.00  0.00    -0.171 F 
HETATM   26  F4  UNL     1      -7.413   1.098  17.457  1.00  0.00    -0.171 F 
ENDBRANCH  22  23
ENDBRANCH  21  22
ENDBRANCH   8  21
TORSDOF 3
ENDMDL
MODEL 4
REMARK VINA RESULT: -6.857014047      1.727      2.165
REMARK  3 active torsions:
REMARK  status: ('A' for Active; 'I' for Inactive)
REMARK       I    between atoms: N1_5  and  C4_6 
REMARK       I    between atoms: C4_6  and  N2_8 
REMARK    1  A    between atoms: N2_8  and  C5_10 
REMARK    2  A    between atoms: C5_10  and  C6_11 
REMARK    3  A    between atoms: C6_11  and  C7_12 
ROOT
HETATM    1  C1  UNL     1      -0.478   4.684  10.948  1.00  0.00     0.057 C 
HETATM    2  C2  UNL     1      -1.626   5.059  11.829  1.00  0.00     0.158 C 
HETATM    3  F1  UNL     1      -2.776   4.896  11.032  1.00  0.00    -0.238 F 
HETATM    4  C3  UNL     1      -1.742   3.992  12.896  1.00  0.00     0.176 C 
HETATM    5  N1  UNL     1      -2.904   4.184  13.730  1.00  0.00    -0.316 N 
HETATM    6  C4  UNL     1      -3.600   3.041  14.194  1.00  0.00     0.319 C 
HETATM    7  O1  UNL     1      -3.218   1.861  13.887  1.00  0.00    -0.247 OA
HETATM    8  N2  UNL     1      -4.756   3.136  15.020  1.00  0.00    -0.343 N 
ATOM      9  H2  UNL     1      -5.092   4.062  15.286  1.00  0.00     0.164 HD
HETATM   10  C8  UNL     1      -3.283   5.546  14.039  1.00  0.00     0.170 C 
HETATM   11  S1  UNL     1      -4.771   6.084  13.183  1.00  0.00    -0.069 SA
HETATM   12  C9  UNL     1      -2.096   6.397  13.802  1.00  0.00     0.079 C 
HETATM   13  C10 UNL     1      -2.299   7.860  14.162  1.00  0.00     0.092 C 
HETATM   14  S2  UNL     1      -0.643   8.468  13.593  1.00  0.00    -0.113 SA
HETATM   15  C11 UNL     1      -0.382   7.177  12.379  1.00  0.00     0.084 C 
HETATM   16  N3  UNL     1       0.670   6.992  11.741  1.00  0.00    -0.394 N 
ATOM     17  H31 UNL     1       0.819   6.257  11.050  1.00  0.00     0.156 HD
ATOM     18  H32 UNL     1       1.554   7.500  11.768  1.00  0.00     0.156 HD
HETATM   19  C12 UNL     1      -1.656   6.444  12.339  1.00  0.00     0.195 C 
HETATM   20  F5  UNL     1      -2.545   7.238  11.616  1.00  0.00    -0.231 F 
ENDROOT
BRANCH   8  21
HETATM   21  C5  UNL     1      -5.465   1.987  15.492  1.00  0.00     0.133 C 
BRANCH  21  22
HETATM   22  C6  UNL     1      -5.292   1.755  16.965  1.00  0.00     0.137 C 
BRANCH  22  23
HETATM   23  C7  UNL     1      -6.542   2.133  17.716  1.00  0.00     0.389 C 
HETATM   24  F2  UNL     1      -6.242   2.356  19.041  1.00  0.00    -0.171 F 
HETATM   25  F3  UNL     1      -7.497   1.155  17.549  1.00  0.00    -0.171 F 
HETATM   26  F4  UNL     1      -6.999   3.333  17.184  1.00  0.00    -0.171 F 
ENDBRANCH  22  23
ENDBRANCH  21  22
ENDBRANCH   8  21
TORSDOF 3
ENDMDL
MODEL 5
REMARK VINA RESULT: -6.788987512      1.580      1.884
REMARK  3 active torsions:
REMARK  status: ('A' for Active; 'I' for Inactive)
REMARK       I    between atoms: N1_5  and  C4_6 
REMARK       I    between atoms: C4_6  and  N2_8 
REMARK    1  A    between atoms: N2_8  and  C5_10 
REMARK    2  A    between atoms: C5_10  and  C6_11 
REMARK    3  A    between atoms: C6_11  and  C7_12 
ROOT
HETATM    1  C1  UNL     1      -2.131   4.196   9.746  1.00  0.00     0.057 C 
HETATM    2  C2  UNL     1      -2.483   4.665  11.121  1.00  0.00     0.158 C 
HETATM    3  F1  UNL     1      -3.872   4.891  11.094  1.00  0.00    -0.238 F 
HETATM    4  C3  UNL     1      -2.301   3.490  12.057  1.00  0.00     0.176 C 
HETATM    5  N1  UNL     1      -2.739   3.795  13.399  1.00  0.00    -0.316 N 
HETATM    6  C4  UNL     1      -3.364   2.772  14.154  1.00  0.00     0.319 C 
HETATM    7  O1  UNL     1      -3.543   1.603  13.670  1.00  0.00    -0.247 OA
HETATM    8  N2  UNL     1      -3.828   2.983  15.484  1.00  0.00    -0.343 N 
ATOM      9  H2  UNL     1      -3.703   3.904  15.905  1.00  0.00     0.164 HD
HETATM   10  C8  UNL     1      -2.508   5.137  13.886  1.00  0.00     0.170 C 
HETATM   11  S1  UNL     1      -4.008   6.121  14.007  1.00  0.00    -0.069 SA
HETATM   12  C9  UNL     1      -1.447   5.733  13.042  1.00  0.00     0.079 C 
HETATM   13  C10 UNL     1      -1.020   7.127  13.476  1.00  0.00     0.092 C 
HETATM   14  S2  UNL     1       0.174   7.440  12.092  1.00  0.00    -0.113 SA
HETATM   15  C11 UNL     1      -0.613   6.340  10.919  1.00  0.00     0.084 C 
HETATM   16  N3  UNL     1      -0.158   6.034   9.802  1.00  0.00    -0.394 N 
ATOM     17  H31 UNL     1      -0.606   5.408   9.134  1.00  0.00     0.156 HD
ATOM     18  H32 UNL     1       0.705   6.324   9.342  1.00  0.00     0.156 HD
HETATM   19  C12 UNL     1      -1.857   5.921  11.582  1.00  0.00     0.195 C 
HETATM   20  F5  UNL     1      -2.737   6.998  11.485  1.00  0.00    -0.231 F 
ENDROOT
BRANCH   8  21
HETATM   21  C5  UNL     1      -4.460   1.957  16.253  1.00  0.00     0.133 C 
BRANCH  21  22
HETATM   22  C6  UNL     1      -5.958   2.068  16.264  1.00  0.00     0.137 C 
BRANCH  22  23
HETATM   23  C7  UNL     1      -6.543   1.294  17.416  1.00  0.00     0.389 C 
HETATM   24  F2  UNL     1      -7.813   0.869  17.096  1.00  0.00    -0.171 F 
HETATM   25  F3  UNL     1      -6.517   2.068  18.554  1.00  0.00    -0.171 F 
HETATM   26  F4  UNL     1      -5.758   0.162  17.598  1.00  0.00    -0.171 F 
ENDBRANCH  22  23
ENDBRANCH  21  22
ENDBRANCH   8  21
TORSDOF 3
ENDMDL
