MODEL 1
REMARK VINA RESULT: -6.812114049      0.000      0.000
REMARK  7 active torsions:
REMARK  status: ('A' for Active; 'I' for Inactive)
REMARK    1  A    between atoms: C5_6  and  C6_7 
REMARK    2  A    between atoms: C6_7  and  N2_8 
REMARK    3  A    between atoms: N2_8  and  C7_10 
REMARK    4  A    between atoms: C7_10  and  O1_11 
REMARK    5  A    between atoms: C7_10  and  C8_13 
REMARK    6  A    between atoms: C7_10  and  C9_16 
REMARK    7  A    between atoms: C16_26  and  O2_27 
ROOT
HETATM    1  C1  UNL     1      -1.289   5.391   9.689  1.00  0.00     0.016 C 
HETATM    2  C2  UNL     1      -1.217   4.415  10.842  1.00  0.00    -0.035 C 
HETATM    3  C3  UNL     1      -2.568   3.734  10.924  1.00  0.00     0.040 C 
HETATM    4  C4  UNL     1      -3.645   4.613  11.468  1.00  0.00     0.274 C 
HETATM    5  N1  UNL     1      -3.213   5.162  12.732  1.00  0.00     0.099 N 
HETATM    6  C5  UNL     1      -4.138   6.113  13.281  1.00  0.00     0.240 C 
HETATM    7  C10 UNL     1      -3.300   6.732  14.404  1.00  0.00     0.040 C 
HETATM    8  C11 UNL     1      -1.871   6.576  13.919  1.00  0.00     0.038 C 
HETATM    9  C12 UNL     1      -2.040   6.027  12.514  1.00  0.00     0.228 C 
HETATM   10  C13 UNL     1      -0.904   5.109  12.149  1.00  0.00     0.027 C 
HETATM   11  C14 UNL     1       0.383   5.836  12.062  1.00  0.00     0.010 C 
HETATM   12  C15 UNL     1       1.443   5.185  11.258  1.00  0.00     0.032 C 
HETATM   13  C16 UNL     1       1.216   3.768  10.897  1.00  0.00     0.118 C 
HETATM   14  C17 UNL     1      -0.182   3.352  10.662  1.00  0.00     0.041 C 
ENDROOT
BRANCH   6  15
HETATM   15  C6  UNL     1      -5.370   5.457  13.889  1.00  0.00     0.153 C 
BRANCH  15  16
HETATM   16  N2  UNL     1      -4.927   4.784  15.071  1.00  0.00    -0.378 N 
ATOM     17  H2  UNL     1      -4.432   5.276  15.815  1.00  0.00     0.156 HD
BRANCH  16  18
HETATM   18  C7  UNL     1      -5.211   3.391  15.154  1.00  0.00     0.288 C 
BRANCH  18  19
HETATM   19  O1  UNL     1      -5.815   3.002  13.955  1.00  0.00    -0.360 OA
ATOM     20  H1  UNL     1      -6.132   2.113  14.061  1.00  0.00     0.213 HD
ENDBRANCH  18  19
BRANCH  18  21
HETATM   21  C8  UNL     1      -6.145   3.021  16.264  1.00  0.00     0.417 C 
HETATM   22  F1  UNL     1      -6.917   1.935  16.015  1.00  0.00    -0.209 F 
HETATM   23  F2  UNL     1      -6.980   4.104  16.511  1.00  0.00    -0.209 F 
ENDBRANCH  18  21
BRANCH  18  24
HETATM   24  C9  UNL     1      -3.892   2.658  15.222  1.00  0.00     0.443 C 
HETATM   25  F3  UNL     1      -3.854   1.718  16.220  1.00  0.00    -0.166 F 
HETATM   26  F4  UNL     1      -3.595   2.039  14.025  1.00  0.00    -0.166 F 
HETATM   27  F5  UNL     1      -2.886   3.576  15.466  1.00  0.00    -0.166 F 
ENDBRANCH  18  24
ENDBRANCH  16  18
ENDBRANCH  15  16
ENDBRANCH   6  15
BRANCH  13  28
HETATM   28  O2  UNL     1       1.939   3.510   9.709  1.00  0.00    -0.396 OA
ATOM     29  H2  UNL     1       2.273   2.622   9.763  1.00  0.00     0.210 HD
ENDBRANCH  13  28
TORSDOF 7
ENDMDL
MODEL 2
REMARK VINA RESULT: -6.806202452      1.586      2.390
REMARK  7 active torsions:
REMARK  status: ('A' for Active; 'I' for Inactive)
REMARK    1  A    between atoms: C5_6  and  C6_7 
REMARK    2  A    between atoms: C6_7  and  N2_8 
REMARK    3  A    between atoms: N2_8  and  C7_10 
REMARK    4  A    between atoms: C7_10  and  O1_11 
REMARK    5  A    between atoms: C7_10  and  C8_13 
REMARK    6  A    between atoms: C7_10  and  C9_16 
REMARK    7  A    between atoms: C16_26  and  O2_27 
ROOT
HETATM    1  C1  UNL     1      -2.036   4.590   9.790  1.00  0.00     0.016 C 
HETATM    2  C2  UNL     1      -1.543   3.712  10.917  1.00  0.00    -0.035 C 
HETATM    3  C3  UNL     1      -2.576   2.620  11.106  1.00  0.00     0.040 C 
HETATM    4  C4  UNL     1      -3.833   3.097  11.756  1.00  0.00     0.274 C 
HETATM    5  N1  UNL     1      -3.501   3.778  12.986  1.00  0.00     0.099 N 
HETATM    6  C5  UNL     1      -4.638   4.373  13.627  1.00  0.00     0.240 C 
HETATM    7  C10 UNL     1      -3.960   5.254  14.682  1.00  0.00     0.040 C 
HETATM    8  C11 UNL     1      -2.610   5.577  14.072  1.00  0.00     0.038 C 
HETATM    9  C12 UNL     1      -2.708   4.982  12.679  1.00  0.00     0.228 C 
HETATM   10  C13 UNL     1      -1.366   4.490  12.203  1.00  0.00     0.027 C 
HETATM   11  C14 UNL     1      -0.409   5.603  12.014  1.00  0.00     0.010 C 
HETATM   12  C15 UNL     1       0.733   5.332  11.111  1.00  0.00     0.032 C 
HETATM   13  C16 UNL     1       0.962   3.915  10.750  1.00  0.00     0.118 C 
HETATM   14  C17 UNL     1      -0.233   3.053  10.632  1.00  0.00     0.041 C 
ENDROOT
BRANCH   6  15
HETATM   15  C6  UNL     1      -5.522   3.353  14.331  1.00  0.00     0.153 C 
BRANCH  15  16
HETATM   16  N2  UNL     1      -4.909   3.092  15.596  1.00  0.00    -0.378 N 
ATOM     17  H2  UNL     1      -4.627   3.847  16.222  1.00  0.00     0.156 HD
BRANCH  16  18
HETATM   18  C7  UNL     1      -4.712   1.724  15.937  1.00  0.00     0.288 C 
BRANCH  18  19
HETATM   19  O1  UNL     1      -3.493   1.620  16.615  1.00  0.00    -0.360 OA
ATOM     20  H1  UNL     1      -2.848   1.276  16.008  1.00  0.00     0.213 HD
ENDBRANCH  18  19
BRANCH  18  21
HETATM   21  C8  UNL     1      -4.647   0.801  14.761  1.00  0.00     0.417 C 
HETATM   22  F1  UNL     1      -4.670  -0.517  15.074  1.00  0.00    -0.209 F 
HETATM   23  F2  UNL     1      -3.475   1.064  14.063  1.00  0.00    -0.209 F 
ENDBRANCH  18  21
BRANCH  18  24
HETATM   24  C9  UNL     1      -5.783   1.341  16.932  1.00  0.00     0.443 C 
HETATM   25  F3  UNL     1      -7.011   1.160  16.350  1.00  0.00    -0.166 F 
HETATM   26  F4  UNL     1      -5.449   0.193  17.619  1.00  0.00    -0.166 F 
HETATM   27  F5  UNL     1      -5.903   2.355  17.866  1.00  0.00    -0.166 F 
ENDBRANCH  18  24
ENDBRANCH  16  18
ENDBRANCH  15  16
ENDBRANCH   6  15
BRANCH  13  28
HETATM   28  O2  UNL     1       1.623   3.896   9.499  1.00  0.00    -0.396 OA
ATOM     29  H2  UNL     1       1.907   3.003   9.339  1.00  0.00     0.210 HD
ENDBRANCH  13  28
TORSDOF 7
ENDMDL
MODEL 3
REMARK VINA RESULT: -6.744029293      2.610      4.198
REMARK  7 active torsions:
REMARK  status: ('A' for Active; 'I' for Inactive)
REMARK    1  A    between atoms: C5_6  and  C6_7 
REMARK    2  A    between atoms: C6_7  and  N2_8 
REMARK    3  A    between atoms: N2_8  and  C7_10 
REMARK    4  A    between atoms: C7_10  and  O1_11 
REMARK    5  A    between atoms: C7_10  and  C8_13 
REMARK    6  A    between atoms: C7_10  and  C9_16 
REMARK    7  A    between atoms: C16_26  and  O2_27 
ROOT
HETATM    1  C1  UNL     1      -1.708   5.531  11.899  1.00  0.00     0.016 C 
HETATM    2  C2  UNL     1      -3.078   5.636  12.530  1.00  0.00    -0.035 C 
HETATM    3  C3  UNL     1      -2.936   5.172  13.966  1.00  0.00     0.040 C 
HETATM    4  C4  UNL     1      -2.763   3.696  14.100  1.00  0.00     0.274 C 
HETATM    5  N1  UNL     1      -3.832   3.028  13.396  1.00  0.00     0.099 N 
HETATM    6  C5  UNL     1      -3.688   1.600  13.372  1.00  0.00     0.240 C 
HETATM    7  C10 UNL     1      -4.744   1.210  12.332  1.00  0.00     0.040 C 
HETATM    8  C11 UNL     1      -4.840   2.431  11.437  1.00  0.00     0.038 C 
HETATM    9  C12 UNL     1      -3.733   3.330  11.957  1.00  0.00     0.228 C 
HETATM   10  C13 UNL     1      -4.097   4.783  11.807  1.00  0.00     0.027 C 
HETATM   11  C14 UNL     1      -4.198   5.180  10.384  1.00  0.00     0.010 C 
HETATM   12  C15 UNL     1      -4.060   6.628  10.102  1.00  0.00     0.032 C 
HETATM   13  C16 UNL     1      -4.148   7.535  11.268  1.00  0.00     0.118 C 
HETATM   14  C17 UNL     1      -3.621   7.027  12.553  1.00  0.00     0.041 C 
ENDROOT
BRANCH   6  15
HETATM   15  C6  UNL     1      -4.041   0.948  14.701  1.00  0.00     0.153 C 
BRANCH  15  16
HETATM   16  N2  UNL     1      -5.403   1.289  14.970  1.00  0.00    -0.378 N 
ATOM     17  H2  UNL     1      -6.146   1.103  14.296  1.00  0.00     0.156 HD
BRANCH  16  18
HETATM   18  C7  UNL     1      -5.669   1.904  16.226  1.00  0.00     0.288 C 
BRANCH  18  19
HETATM   19  O1  UNL     1      -4.446   2.125  16.866  1.00  0.00    -0.360 OA
ATOM     20  H1  UNL     1      -4.624   2.521  17.711  1.00  0.00     0.213 HD
ENDBRANCH  18  19
BRANCH  18  21
HETATM   21  C8  UNL     1      -6.510   1.077  17.148  1.00  0.00     0.417 C 
HETATM   22  F1  UNL     1      -6.001  -0.146  17.434  1.00  0.00    -0.209 F 
HETATM   23  F2  UNL     1      -7.759   0.905  16.564  1.00  0.00    -0.209 F 
ENDBRANCH  18  21
BRANCH  18  24
HETATM   24  C9  UNL     1      -6.257   3.269  15.953  1.00  0.00     0.443 C 
HETATM   25  F3  UNL     1      -7.247   3.611  16.839  1.00  0.00    -0.166 F 
HETATM   26  F4  UNL     1      -5.289   4.251  15.976  1.00  0.00    -0.166 F 
HETATM   27  F5  UNL     1      -6.807   3.268  14.684  1.00  0.00    -0.166 F 
ENDBRANCH  18  24
ENDBRANCH  16  18
ENDBRANCH  15  16
ENDBRANCH   6  15
BRANCH  13  28
HETATM   28  O2  UNL     1      -3.427   8.709  10.950  1.00  0.00    -0.396 OA
ATOM     29  H2  UNL     1      -3.700   8.986  10.082  1.00  0.00     0.210 HD
ENDBRANCH  13  28
TORSDOF 7
ENDMDL
MODEL 4
REMARK VINA RESULT: -6.676245624      4.586      7.094
REMARK  7 active torsions:
REMARK  status: ('A' for Active; 'I' for Inactive)
REMARK    1  A    between atoms: C5_6  and  C6_7 
REMARK    2  A    between atoms: C6_7  and  N2_8 
REMARK    3  A    between atoms: N2_8  and  C7_10 
REMARK    4  A    between atoms: C7_10  and  O1_11 
REMARK    5  A    between atoms: C7_10  and  C8_13 
REMARK    6  A    between atoms: C7_10  and  C9_16 
REMARK    7  A    between atoms: C16_26  and  O2_27 
ROOT
HETATM    1  C1  UNL     1      -3.466   2.064  16.104  1.00  0.00     0.016 C 
HETATM    2  C2  UNL     1      -4.702   1.865  15.256  1.00  0.00    -0.035 C 
HETATM    3  C3  UNL     1      -4.241   1.822  13.813  1.00  0.00     0.040 C 
HETATM    4  C4  UNL     1      -3.839   3.156  13.277  1.00  0.00     0.274 C 
HETATM    5  N1  UNL     1      -4.912   4.098  13.498  1.00  0.00     0.099 N 
HETATM    6  C5  UNL     1      -4.573   5.439  13.118  1.00  0.00     0.240 C 
HETATM    7  C10 UNL     1      -5.733   6.228  13.738  1.00  0.00     0.040 C 
HETATM    8  C11 UNL     1      -6.159   5.376  14.918  1.00  0.00     0.038 C 
HETATM    9  C12 UNL     1      -5.116   4.275  14.947  1.00  0.00     0.228 C 
HETATM   10  C13 UNL     1      -5.704   2.983  15.449  1.00  0.00     0.027 C 
HETATM   11  C14 UNL     1      -6.113   3.080  16.869  1.00  0.00     0.010 C 
HETATM   12  C15 UNL     1      -6.233   1.797  17.599  1.00  0.00     0.032 C 
HETATM   13  C16 UNL     1      -6.239   0.569  16.773  1.00  0.00     0.118 C 
HETATM   14  C17 UNL     1      -5.424   0.588  15.540  1.00  0.00     0.041 C 
ENDROOT
BRANCH   6  15
HETATM   15  C6  UNL     1      -4.586   5.648  11.610  1.00  0.00     0.153 C 
BRANCH  15  16
HETATM   16  N2  UNL     1      -5.059   6.980  11.391  1.00  0.00    -0.378 N 
ATOM     17  H2  UNL     1      -4.836   7.741  12.033  1.00  0.00     0.156 HD
BRANCH  16  18
HETATM   18  C7  UNL     1      -5.856   7.190  10.230  1.00  0.00     0.288 C 
BRANCH  18  19
HETATM   19  O1  UNL     1      -6.356   5.950   9.821  1.00  0.00    -0.360 OA
ATOM     20  H1  UNL     1      -6.000   5.759   8.962  1.00  0.00     0.213 HD
ENDBRANCH  18  19
BRANCH  18  21
HETATM   21  C8  UNL     1      -5.110   7.773   9.071  1.00  0.00     0.417 C 
HETATM   22  F1  UNL     1      -5.871   8.020   7.976  1.00  0.00    -0.209 F 
HETATM   23  F2  UNL     1      -4.100   6.890   8.712  1.00  0.00    -0.209 F 
ENDBRANCH  18  21
BRANCH  18  24
HETATM   24  C9  UNL     1      -7.053   8.015  10.640  1.00  0.00     0.443 C 
HETATM   25  F3  UNL     1      -6.762   9.348  10.774  1.00  0.00    -0.166 F 
HETATM   26  F4  UNL     1      -8.092   7.881   9.742  1.00  0.00    -0.166 F 
HETATM   27  F5  UNL     1      -7.510   7.557  11.862  1.00  0.00    -0.166 F 
ENDBRANCH  18  24
ENDBRANCH  16  18
ENDBRANCH  15  16
ENDBRANCH   6  15
BRANCH  13  28
HETATM   28  O2  UNL     1      -5.760  -0.489  17.581  1.00  0.00    -0.396 OA
ATOM     29  H2  UNL     1      -6.472  -1.108  17.693  1.00  0.00     0.210 HD
ENDBRANCH  13  28
TORSDOF 7
ENDMDL
MODEL 5
REMARK VINA RESULT: -6.612842081      2.781      4.202
REMARK  7 active torsions:
REMARK  status: ('A' for Active; 'I' for Inactive)
REMARK    1  A    between atoms: C5_6  and  C6_7 
REMARK    2  A    between atoms: C6_7  and  N2_8 
REMARK    3  A    between atoms: N2_8  and  C7_10 
REMARK    4  A    between atoms: C7_10  and  O1_11 
REMARK    5  A    between atoms: C7_10  and  C8_13 
REMARK    6  A    between atoms: C7_10  and  C9_16 
REMARK    7  A    between atoms: C16_26  and  O2_27 
ROOT
HETATM    1  C1  UNL     1      -2.463   9.033  12.204  1.00  0.00     0.016 C 
HETATM    2  C2  UNL     1      -1.610   7.914  12.756  1.00  0.00    -0.035 C 
HETATM    3  C3  UNL     1      -1.481   6.879  11.658  1.00  0.00     0.040 C 
HETATM    4  C4  UNL     1      -2.728   6.091  11.433  1.00  0.00     0.274 C 
HETATM    5  N1  UNL     1      -3.165   5.528  12.689  1.00  0.00     0.099 N 
HETATM    6  C5  UNL     1      -4.424   4.845  12.595  1.00  0.00     0.240 C 
HETATM    7  C10 UNL     1      -4.767   4.644  14.075  1.00  0.00     0.040 C 
HETATM    8  C11 UNL     1      -4.064   5.794  14.770  1.00  0.00     0.038 C 
HETATM    9  C12 UNL     1      -3.521   6.617  13.615  1.00  0.00     0.228 C 
HETATM   10  C13 UNL     1      -2.228   7.290  13.989  1.00  0.00     0.027 C 
HETATM   11  C14 UNL     1      -2.422   8.306  15.048  1.00  0.00     0.010 C 
HETATM   12  C15 UNL     1      -1.374   9.347  15.150  1.00  0.00     0.032 C 
HETATM   13  C16 UNL     1      -0.119   9.090  14.411  1.00  0.00     0.118 C 
HETATM   14  C17 UNL     1      -0.232   8.346  13.139  1.00  0.00     0.041 C 
ENDROOT
BRANCH   6  15
HETATM   15  C6  UNL     1      -4.309   3.482  11.926  1.00  0.00     0.153 C 
BRANCH  15  16
HETATM   16  N2  UNL     1      -4.909   2.541  12.821  1.00  0.00    -0.378 N 
ATOM     17  H2  UNL     1      -5.840   2.689  13.210  1.00  0.00     0.156 HD
BRANCH  16  18
HETATM   18  C7  UNL     1      -4.138   1.388  13.140  1.00  0.00     0.288 C 
BRANCH  18  19
HETATM   19  O1  UNL     1      -2.787   1.720  13.004  1.00  0.00    -0.360 OA
ATOM     20  H1  UNL     1      -2.412   1.157  12.338  1.00  0.00     0.213 HD
ENDBRANCH  18  19
BRANCH  18  21
HETATM   21  C8  UNL     1      -4.398   0.211  12.253  1.00  0.00     0.417 C 
HETATM   22  F1  UNL     1      -3.296  -0.299  11.651  1.00  0.00    -0.209 F 
HETATM   23  F2  UNL     1      -5.296   0.598  11.265  1.00  0.00    -0.209 F 
ENDBRANCH  18  21
BRANCH  18  24
HETATM   24  C9  UNL     1      -4.355   1.084  14.605  1.00  0.00     0.443 C 
HETATM   25  F3  UNL     1      -3.343   1.553  15.402  1.00  0.00    -0.166 F 
HETATM   26  F4  UNL     1      -5.550   1.603  15.059  1.00  0.00    -0.166 F 
HETATM   27  F5  UNL     1      -4.420  -0.288  14.767  1.00  0.00    -0.166 F 
ENDBRANCH  18  24
ENDBRANCH  16  18
ENDBRANCH  15  16
ENDBRANCH   6  15
BRANCH  13  28
HETATM   28  O2  UNL     1       0.466  10.344  14.116  1.00  0.00    -0.396 OA
ATOM     29  H2  UNL     1       0.337  10.509  13.189  1.00  0.00     0.210 HD
ENDBRANCH  13  28
TORSDOF 7
ENDMDL
