MODEL 1
REMARK VINA RESULT: -6.696322843      0.000      0.000
REMARK  4 active torsions:
REMARK  status: ('A' for Active; 'I' for Inactive)
REMARK    1  A    between atoms: C1_2  and  N2_4 
REMARK    2  A    between atoms: N2_4  and  N3_6 
REMARK    3  A    between atoms: C2_8  and  C3_9 
REMARK    4  A    between atoms: C2_8  and  C8_19 
ROOT
HETATM    1  N3  UNL     1      -2.452   2.939  12.830  1.00  0.00    -0.298 N 
ATOM      2  H3  UNL     1      -2.480   3.665  13.544  1.00  0.00     0.187 HD
HETATM    3  C2  UNL     1      -3.419   2.149  12.922  1.00  0.00     0.095 C 
ENDROOT
BRANCH   3   4
HETATM    4  C3  UNL     1      -4.374   2.422  14.009  1.00  0.00     0.062 A 
HETATM    5  C4  UNL     1      -4.462   1.610  15.101  1.00  0.00     0.046 A 
HETATM    6  C5  UNL     1      -5.387   1.923  16.103  1.00  0.00     0.073 A 
HETATM    7 CL1  UNL     1      -5.448   0.840  17.479  1.00  0.00    -0.081 Cl
HETATM    8  C6  UNL     1      -6.213   3.031  16.015  1.00  0.00     0.128 A 
HETATM    9 CL2  UNL     1      -7.340   3.342  17.318  1.00  0.00    -0.062 Cl
HETATM   10  N4  UNL     1      -6.104   3.811  14.928  1.00  0.00    -0.312 N 
HETATM   11  C7  UNL     1      -5.222   3.534  13.950  1.00  0.00     0.259 A 
ATOM     12  H4  UNL     1      -6.703   4.633  14.842  1.00  0.00     0.170 HD
HETATM   13  O1  UNL     1      -5.130   4.274  12.937  1.00  0.00    -0.267 OA
ENDBRANCH   3   4
BRANCH   3  14
HETATM   14  C8  UNL     1      -3.608   1.023  12.013  1.00  0.00     0.233 C 
HETATM   15 CL3  UNL     1      -2.058   0.433  11.305  1.00  0.00    -0.077 Cl
HETATM   16 CL4  UNL     1      -4.787   1.401  10.700  1.00  0.00    -0.077 Cl
HETATM   17 CL5  UNL     1      -4.310  -0.387  12.844  1.00  0.00    -0.077 Cl
ENDBRANCH   3  14
BRANCH   1  18
HETATM   18  N2  UNL     1      -1.381   3.065  12.018  1.00  0.00    -0.278 N 
ATOM     19  H2  UNL     1      -0.530   2.539  12.222  1.00  0.00     0.189 HD
BRANCH  18  20
HETATM   20  C1  UNL     1      -1.420   3.920  10.882  1.00  0.00     0.199 C 
HETATM   21  N1  UNL     1      -2.130   3.585   9.694  1.00  0.00    -0.068 NA
HETATM   22  S1  UNL     1      -0.638   5.371  10.868  1.00  0.00    -0.043 SA
ENDBRANCH  18  20
ENDBRANCH   1  18
TORSDOF 4
ENDMDL
MODEL 2
REMARK VINA RESULT: -6.680251896      1.382      1.574
REMARK  4 active torsions:
REMARK  status: ('A' for Active; 'I' for Inactive)
REMARK    1  A    between atoms: C1_2  and  N2_4 
REMARK    2  A    between atoms: N2_4  and  N3_6 
REMARK    3  A    between atoms: C2_8  and  C3_9 
REMARK    4  A    between atoms: C2_8  and  C8_19 
ROOT
HETATM    1  N3  UNL     1      -2.162   3.550  13.351  1.00  0.00    -0.298 N 
ATOM      2  H3  UNL     1      -2.194   3.878  14.316  1.00  0.00     0.187 HD
HETATM    3  C2  UNL     1      -3.220   2.972  13.014  1.00  0.00     0.095 C 
ENDROOT
BRANCH   3   4
HETATM    4  C3  UNL     1      -4.266   2.888  14.047  1.00  0.00     0.062 A 
HETATM    5  C4  UNL     1      -4.338   1.829  14.904  1.00  0.00     0.046 A 
HETATM    6  C5  UNL     1      -5.354   1.807  15.865  1.00  0.00     0.073 A 
HETATM    7 CL1  UNL     1      -5.389   0.419  16.935  1.00  0.00    -0.081 Cl
HETATM    8  C6  UNL     1      -6.284   2.827  15.971  1.00  0.00     0.128 A 
HETATM    9 CL2  UNL     1      -7.519   2.711  17.206  1.00  0.00    -0.062 Cl
HETATM   10  N4  UNL     1      -6.188   3.855  15.113  1.00  0.00    -0.312 N 
HETATM   11  C7  UNL     1      -5.221   3.903  14.178  1.00  0.00     0.259 A 
ATOM     12  H4  UNL     1      -6.863   4.618  15.172  1.00  0.00     0.170 HD
HETATM   13  O1  UNL     1      -5.142   4.872  13.381  1.00  0.00    -0.267 OA
ENDBRANCH   3   4
BRANCH   3  14
HETATM   14  C8  UNL     1      -3.425   2.414  11.681  1.00  0.00     0.233 C 
HETATM   15 CL3  UNL     1      -2.276   1.077  11.304  1.00  0.00    -0.077 Cl
HETATM   16 CL4  UNL     1      -3.350   3.679  10.396  1.00  0.00    -0.077 Cl
HETATM   17 CL5  UNL     1      -5.048   1.701  11.504  1.00  0.00    -0.077 Cl
ENDBRANCH   3  14
BRANCH   1  18
HETATM   18  N2  UNL     1      -0.988   3.845  12.751  1.00  0.00    -0.278 N 
ATOM     19  H2  UNL     1      -0.333   3.094  12.532  1.00  0.00     0.189 HD
BRANCH  18  20
HETATM   20  C1  UNL     1      -0.652   5.187  12.421  1.00  0.00     0.199 C 
HETATM   21  N1  UNL     1       0.535   5.528  11.713  1.00  0.00    -0.068 NA
HETATM   22  S1  UNL     1      -1.627   6.448  12.842  1.00  0.00    -0.043 SA
ENDBRANCH  18  20
ENDBRANCH   1  18
TORSDOF 4
ENDMDL
MODEL 3
REMARK VINA RESULT: -6.656960715      3.082      3.584
REMARK  4 active torsions:
REMARK  status: ('A' for Active; 'I' for Inactive)
REMARK    1  A    between atoms: C1_2  and  N2_4 
REMARK    2  A    between atoms: N2_4  and  N3_6 
REMARK    3  A    between atoms: C2_8  and  C3_9 
REMARK    4  A    between atoms: C2_8  and  C8_19 
ROOT
HETATM    1  N3  UNL     1      -4.288   3.948  11.695  1.00  0.00    -0.298 N 
ATOM      2  H3  UNL     1      -5.064   3.286  11.680  1.00  0.00     0.187 HD
HETATM    3  C2  UNL     1      -3.778   4.050  12.833  1.00  0.00     0.095 C 
ENDROOT
BRANCH   3   4
HETATM    4  C3  UNL     1      -4.382   3.219  13.888  1.00  0.00     0.062 A 
HETATM    5  C4  UNL     1      -5.276   3.734  14.779  1.00  0.00     0.046 A 
HETATM    6  C5  UNL     1      -5.817   2.893  15.757  1.00  0.00     0.073 A 
HETATM    7 CL1  UNL     1      -6.960   3.619  16.869  1.00  0.00    -0.081 Cl
HETATM    8  C6  UNL     1      -5.469   1.556  15.846  1.00  0.00     0.128 A 
HETATM    9 CL2  UNL     1      -6.198   0.581  17.103  1.00  0.00    -0.062 Cl
HETATM   10  N4  UNL     1      -4.586   1.076  14.955  1.00  0.00    -0.312 N 
HETATM   11  C7  UNL     1      -4.050   1.863  14.003  1.00  0.00     0.259 A 
ATOM     12  H4  UNL     1      -4.315   0.094  15.001  1.00  0.00     0.170 HD
HETATM   13  O1  UNL     1      -3.225   1.401  13.175  1.00  0.00    -0.267 OA
ENDBRANCH   3   4
BRANCH   3  14
HETATM   14  C8  UNL     1      -2.650   4.932  13.117  1.00  0.00     0.233 C 
HETATM   15 CL3  UNL     1      -3.148   6.652  13.325  1.00  0.00    -0.077 Cl
HETATM   16 CL4  UNL     1      -1.359   4.806  11.863  1.00  0.00    -0.077 Cl
HETATM   17 CL5  UNL     1      -1.833   4.493  14.637  1.00  0.00    -0.077 Cl
ENDBRANCH   3  14
BRANCH   1  18
HETATM   18  N2  UNL     1      -4.065   4.498  10.482  1.00  0.00    -0.278 N 
ATOM     19  H2  UNL     1      -3.499   3.995   9.798  1.00  0.00     0.189 HD
BRANCH  18  20
HETATM   20  C1  UNL     1      -4.607   5.769  10.144  1.00  0.00     0.199 C 
HETATM   21  N1  UNL     1      -6.004   6.042  10.188  1.00  0.00    -0.068 NA
HETATM   22  S1  UNL     1      -3.643   7.021   9.677  1.00  0.00    -0.043 SA
ENDBRANCH  18  20
ENDBRANCH   1  18
TORSDOF 4
ENDMDL
MODEL 4
REMARK VINA RESULT: -6.640627891      1.924      2.510
REMARK  4 active torsions:
REMARK  status: ('A' for Active; 'I' for Inactive)
REMARK    1  A    between atoms: C1_2  and  N2_4 
REMARK    2  A    between atoms: N2_4  and  N3_6 
REMARK    3  A    between atoms: C2_8  and  C3_9 
REMARK    4  A    between atoms: C2_8  and  C8_19 
ROOT
HETATM    1  N3  UNL     1      -1.698   3.424  12.896  1.00  0.00    -0.298 N 
ATOM      2  H3  UNL     1      -1.640   3.622  13.895  1.00  0.00     0.187 HD
HETATM    3  C2  UNL     1      -2.851   3.085  12.548  1.00  0.00     0.095 C 
ENDROOT
BRANCH   3   4
HETATM    4  C3  UNL     1      -3.862   3.044  13.618  1.00  0.00     0.062 A 
HETATM    5  C4  UNL     1      -4.557   4.158  13.987  1.00  0.00     0.046 A 
HETATM    6  C5  UNL     1      -5.506   4.055  15.009  1.00  0.00     0.073 A 
HETATM    7 CL1  UNL     1      -6.363   5.524  15.432  1.00  0.00    -0.081 Cl
HETATM    8  C6  UNL     1      -5.759   2.857  15.654  1.00  0.00     0.128 A 
HETATM    9 CL2  UNL     1      -6.966   2.825  16.922  1.00  0.00    -0.062 Cl
HETATM   10  N4  UNL     1      -5.060   1.777  15.270  1.00  0.00    -0.312 N 
HETATM   11  C7  UNL     1      -4.140   1.847  14.290  1.00  0.00     0.259 A 
ATOM     12  H4  UNL     1      -5.229   0.883  15.732  1.00  0.00     0.170 HD
HETATM   13  O1  UNL     1      -3.492   0.828  13.939  1.00  0.00    -0.267 OA
ENDBRANCH   3   4
BRANCH   3  14
HETATM   14  C8  UNL     1      -3.194   2.751  11.169  1.00  0.00     0.233 C 
HETATM   15 CL3  UNL     1      -2.155   1.441  10.493  1.00  0.00    -0.077 Cl
HETATM   16 CL4  UNL     1      -3.154   4.197  10.091  1.00  0.00    -0.077 Cl
HETATM   17 CL5  UNL     1      -4.863   2.143  11.031  1.00  0.00    -0.077 Cl
ENDBRANCH   3  14
BRANCH   1  18
HETATM   18  N2  UNL     1      -0.510   3.591  12.275  1.00  0.00    -0.278 N 
ATOM     19  H2  UNL     1       0.116   2.793  12.165  1.00  0.00     0.189 HD
BRANCH  18  20
HETATM   20  C1  UNL     1      -0.120   4.863  11.772  1.00  0.00     0.199 C 
HETATM   21  N1  UNL     1      -0.271   6.063  12.523  1.00  0.00    -0.068 NA
HETATM   22  S1  UNL     1       0.540   5.031  10.271  1.00  0.00    -0.043 SA
ENDBRANCH  18  20
ENDBRANCH   1  18
TORSDOF 4
ENDMDL
MODEL 5
REMARK VINA RESULT: -6.638902956      3.836      5.415
REMARK  4 active torsions:
REMARK  status: ('A' for Active; 'I' for Inactive)
REMARK    1  A    between atoms: C1_2  and  N2_4 
REMARK    2  A    between atoms: N2_4  and  N3_6 
REMARK    3  A    between atoms: C2_8  and  C3_9 
REMARK    4  A    between atoms: C2_8  and  C8_19 
ROOT
HETATM    1  N3  UNL     1      -4.535   2.076  14.801  1.00  0.00    -0.298 N 
ATOM      2  H3  UNL     1      -4.522   2.832  15.485  1.00  0.00     0.187 HD
HETATM    3  C2  UNL     1      -4.125   2.449  13.679  1.00  0.00     0.095 C 
ENDROOT
BRANCH   3   4
HETATM    4  C3  UNL     1      -3.718   3.861  13.576  1.00  0.00     0.062 A 
HETATM    5  C4  UNL     1      -4.390   4.741  12.781  1.00  0.00     0.046 A 
HETATM    6  C5  UNL     1      -3.957   6.070  12.728  1.00  0.00     0.073 A 
HETATM    7 CL1  UNL     1      -4.865   7.149  11.688  1.00  0.00    -0.081 Cl
HETATM    8  C6  UNL     1      -2.867   6.514  13.458  1.00  0.00     0.128 A 
HETATM    9 CL2  UNL     1      -2.399   8.196  13.327  1.00  0.00    -0.062 Cl
HETATM   10  N4  UNL     1      -2.225   5.624  14.231  1.00  0.00    -0.312 N 
HETATM   11  C7  UNL     1      -2.621   4.340  14.302  1.00  0.00     0.259 A 
ATOM     12  H4  UNL     1      -1.420   5.929  14.778  1.00  0.00     0.170 HD
HETATM   13  O1  UNL     1      -2.010   3.517  15.031  1.00  0.00    -0.267 OA
ENDBRANCH   3   4
BRANCH   3  14
HETATM   14  C8  UNL     1      -4.044   1.552  12.530  1.00  0.00     0.233 C 
HETATM   15 CL3  UNL     1      -5.344   1.859  11.317  1.00  0.00    -0.077 Cl
HETATM   16 CL4  UNL     1      -4.049  -0.183  13.022  1.00  0.00    -0.077 Cl
HETATM   17 CL5  UNL     1      -2.515   1.755  11.639  1.00  0.00    -0.077 Cl
ENDBRANCH   3  14
BRANCH   1  18
HETATM   18  N2  UNL     1      -4.990   0.920  15.329  1.00  0.00    -0.278 N 
ATOM     19  H2  UNL     1      -4.761   0.035  14.875  1.00  0.00     0.189 HD
BRANCH  18  20
HETATM   20  C1  UNL     1      -5.785   0.917  16.509  1.00  0.00     0.199 C 
HETATM   21  N1  UNL     1      -5.911  -0.228  17.345  1.00  0.00    -0.068 NA
HETATM   22  S1  UNL     1      -6.619   2.255  16.989  1.00  0.00    -0.043 SA
ENDBRANCH  18  20
ENDBRANCH   1  18
TORSDOF 4
ENDMDL
