MODEL 1
REMARK VINA RESULT: -7.564644132      0.000      0.000
REMARK  6 active torsions:
REMARK  status: ('A' for Active; 'I' for Inactive)
REMARK    1  A    between atoms: C2_2  and  O1_3 
REMARK    2  A    between atoms: C2_2  and  N1_5 
REMARK    3  A    between atoms: N1_5  and  C3_7 
REMARK    4  A    between atoms: N4_13  and  C5_15 
REMARK    5  A    between atoms: C7_22  and  C8_23 
REMARK       I    between atoms: C8_23  and  N8_25 
REMARK    6  A    between atoms: N8_25  and  N9_27 
ROOT
HETATM    1  C3  UNL     1      39.684 -23.179  39.666  1.00  0.00     0.137 A 
HETATM    2  N2  UNL     1      39.299 -24.451  39.958  1.00  0.00    -0.283 N 
ATOM      3  H2  UNL     1      39.729 -25.285  39.558  1.00  0.00     0.188 HD
HETATM    4  N3  UNL     1      38.324 -24.474  40.803  1.00  0.00    -0.283 N 
ATOM      5  H3  UNL     1      37.875 -25.315  41.165  1.00  0.00     0.188 HD
HETATM    6  C4  UNL     1      37.995 -23.210  41.131  1.00  0.00     0.142 A 
HETATM    7  N4  UNL     1      37.048 -22.872  41.962  1.00  0.00    -0.311 N 
ATOM      8  H4  UNL     1      36.860 -21.888  42.156  1.00  0.00     0.170 HD
HETATM    9  C7  UNL     1      38.853 -22.373  40.414  1.00  0.00     0.124 A 
ENDROOT
BRANCH   7  10
HETATM   10  C5  UNL     1      36.283 -23.880  42.593  1.00  0.00     0.194 C 
HETATM   11  N5  UNL     1      35.346 -24.587  42.058  1.00  0.00    -0.346 N 
HETATM   12  C6  UNL     1      34.780 -25.523  42.997  1.00  0.00     0.259 C 
ATOM     13  H5  UNL     1      35.043 -24.497  41.089  1.00  0.00     0.163 HD
HETATM   14  N6  UNL     1      35.773 -25.579  44.048  1.00  0.00    -0.119 NA
HETATM   15  N7  UNL     1      36.382 -24.328  43.938  1.00  0.00    -0.274 N 
ATOM     16  H7  UNL     1      36.827 -23.817  44.701  1.00  0.00     0.185 HD
ENDBRANCH   7  10
BRANCH   9  17
HETATM   17  C8  UNL     1      38.862 -20.911  40.452  1.00  0.00     0.277 C 
HETATM   18  O2  UNL     1      37.757 -20.292  40.272  1.00  0.00    -0.266 OA
HETATM   19  N8  UNL     1      40.002 -20.127  40.672  1.00  0.00    -0.272 N 
ATOM     20  H8  UNL     1      40.910 -20.567  40.821  1.00  0.00     0.189 HD
BRANCH  19  21
HETATM   21  N9  UNL     1      39.875 -18.702  40.685  1.00  0.00    -0.342 N 
ATOM     22  H92 UNL     1      39.206 -18.252  40.061  1.00  0.00     0.176 HD
ATOM     23  H91 UNL     1      40.458 -18.158  41.321  1.00  0.00     0.176 HD
ENDBRANCH  19  21
ENDBRANCH   9  17
BRANCH   1  24
HETATM   24  N1  UNL     1      40.718 -22.833  38.781  1.00  0.00    -0.348 N 
ATOM     25  H1  UNL     1      40.548 -22.099  38.092  1.00  0.00     0.163 HD
BRANCH  24  26
HETATM   26  C2  UNL     1      42.020 -23.479  38.805  1.00  0.00     0.215 C 
HETATM   27  C1  UNL     1      42.197 -24.411  37.633  1.00  0.00     0.063 C 
BRANCH  26  28
HETATM   28  O1  UNL     1      42.299 -24.113  39.982  1.00  0.00    -0.377 OA
ATOM     29  H1  UNL     1      42.450 -23.486  40.679  1.00  0.00     0.212 HD
ENDBRANCH  26  28
ENDBRANCH  24  26
ENDBRANCH   1  24
TORSDOF 6
ENDMDL
MODEL 2
REMARK VINA RESULT: -7.370264850      2.638      6.010
REMARK  6 active torsions:
REMARK  status: ('A' for Active; 'I' for Inactive)
REMARK    1  A    between atoms: C2_2  and  O1_3 
REMARK    2  A    between atoms: C2_2  and  N1_5 
REMARK    3  A    between atoms: N1_5  and  C3_7 
REMARK    4  A    between atoms: N4_13  and  C5_15 
REMARK    5  A    between atoms: C7_22  and  C8_23 
REMARK       I    between atoms: C8_23  and  N8_25 
REMARK    6  A    between atoms: N8_25  and  N9_27 
ROOT
HETATM    1  C3  UNL     1      36.209 -23.930  41.137  1.00  0.00     0.137 A 
HETATM    2  N2  UNL     1      35.847 -22.657  41.451  1.00  0.00    -0.283 N 
ATOM      3  H2  UNL     1      34.886 -22.360  41.622  1.00  0.00     0.188 HD
HETATM    4  N3  UNL     1      36.868 -21.869  41.507  1.00  0.00    -0.283 N 
ATOM      5  H3  UNL     1      36.836 -20.873  41.725  1.00  0.00     0.188 HD
HETATM    6  C4  UNL     1      37.983 -22.573  41.232  1.00  0.00     0.142 A 
HETATM    7  N4  UNL     1      39.193 -22.083  41.203  1.00  0.00    -0.311 N 
ATOM      8  H4  UNL     1      39.986 -22.686  40.984  1.00  0.00     0.170 HD
HETATM    9  C7  UNL     1      37.579 -23.888  40.994  1.00  0.00     0.124 A 
ENDROOT
BRANCH   7  10
HETATM   10  C5  UNL     1      39.394 -20.711  41.476  1.00  0.00     0.194 C 
HETATM   11  N5  UNL     1      39.446 -19.751  40.616  1.00  0.00    -0.346 N 
HETATM   12  C6  UNL     1      39.667 -18.476  41.250  1.00  0.00     0.259 C 
ATOM     13  H5  UNL     1      39.344 -19.879  39.610  1.00  0.00     0.163 HD
HETATM   14  N6  UNL     1      39.327 -18.730  42.634  1.00  0.00    -0.119 NA
HETATM   15  N7  UNL     1      39.578 -20.099  42.746  1.00  0.00    -0.274 N 
ATOM     16  H7  UNL     1      39.851 -20.583  43.602  1.00  0.00     0.185 HD
ENDBRANCH   7  10
BRANCH   9  17
HETATM   17  C8  UNL     1      38.454 -25.010  40.654  1.00  0.00     0.277 C 
HETATM   18  O2  UNL     1      39.489 -25.214  41.377  1.00  0.00    -0.266 OA
HETATM   19  N8  UNL     1      38.243 -25.889  39.583  1.00  0.00    -0.272 N 
ATOM     20  H8  UNL     1      37.434 -25.774  38.973  1.00  0.00     0.189 HD
BRANCH  19  21
HETATM   21  N9  UNL     1      39.177 -26.949  39.358  1.00  0.00    -0.342 N 
ATOM     22  H92 UNL     1      38.958 -27.889  39.685  1.00  0.00     0.176 HD
ATOM     23  H91 UNL     1      40.050 -26.745  38.871  1.00  0.00     0.176 HD
ENDBRANCH  19  21
ENDBRANCH   9  17
BRANCH   1  24
HETATM   24  N1  UNL     1      35.321 -25.010  41.002  1.00  0.00    -0.348 N 
ATOM     25  H1  UNL     1      34.959 -25.235  40.075  1.00  0.00     0.163 HD
BRANCH  24  26
HETATM   26  C2  UNL     1      34.897 -25.821  42.132  1.00  0.00     0.215 C 
HETATM   27  C1  UNL     1      35.524 -25.346  43.419  1.00  0.00     0.063 C 
BRANCH  26  28
HETATM   28  O1  UNL     1      35.096 -27.160  41.955  1.00  0.00    -0.377 OA
ATOM     29  H1  UNL     1      34.829 -27.432  41.085  1.00  0.00     0.212 HD
ENDBRANCH  26  28
ENDBRANCH  24  26
ENDBRANCH   1  24
TORSDOF 6
ENDMDL
MODEL 3
REMARK VINA RESULT: -7.259831508      2.965      5.407
REMARK  6 active torsions:
REMARK  status: ('A' for Active; 'I' for Inactive)
REMARK    1  A    between atoms: C2_2  and  O1_3 
REMARK    2  A    between atoms: C2_2  and  N1_5 
REMARK    3  A    between atoms: N1_5  and  C3_7 
REMARK    4  A    between atoms: N4_13  and  C5_15 
REMARK    5  A    between atoms: C7_22  and  C8_23 
REMARK       I    between atoms: C8_23  and  N8_25 
REMARK    6  A    between atoms: N8_25  and  N9_27 
ROOT
HETATM    1  C3  UNL     1      37.538 -24.551  40.218  1.00  0.00     0.137 A 
HETATM    2  N2  UNL     1      38.403 -23.663  39.657  1.00  0.00    -0.283 N 
ATOM      3  H2  UNL     1      38.919 -23.835  38.795  1.00  0.00     0.188 HD
HETATM    4  N3  UNL     1      38.491 -22.578  40.350  1.00  0.00    -0.283 N 
ATOM      5  H3  UNL     1      39.078 -21.776  40.120  1.00  0.00     0.188 HD
HETATM    6  C4  UNL     1      37.684 -22.674  41.424  1.00  0.00     0.142 A 
HETATM    7  N4  UNL     1      37.533 -21.751  42.335  1.00  0.00    -0.311 N 
ATOM      8  H4  UNL     1      36.901 -21.903  43.121  1.00  0.00     0.170 HD
HETATM    9  C7  UNL     1      37.070 -23.926  41.354  1.00  0.00     0.124 A 
ENDROOT
BRANCH   7  10
HETATM   10  C5  UNL     1      38.253 -20.539  42.224  1.00  0.00     0.194 C 
HETATM   11  N5  UNL     1      38.008 -19.568  41.410  1.00  0.00    -0.346 N 
HETATM   12  C6  UNL     1      38.947 -18.486  41.572  1.00  0.00     0.259 C 
ATOM     13  H5  UNL     1      37.244 -19.565  40.736  1.00  0.00     0.163 HD
HETATM   14  N6  UNL     1      39.536 -18.749  42.868  1.00  0.00    -0.119 NA
HETATM   15  N7  UNL     1      39.387 -20.133  42.977  1.00  0.00    -0.274 N 
ATOM     16  H7  UNL     1      39.994 -20.753  43.513  1.00  0.00     0.185 HD
ENDBRANCH   7  10
BRANCH   9  17
HETATM   17  C8  UNL     1      36.109 -24.469  42.314  1.00  0.00     0.277 C 
HETATM   18  O2  UNL     1      34.962 -24.836  41.883  1.00  0.00    -0.266 OA
HETATM   19  N8  UNL     1      36.351 -24.618  43.685  1.00  0.00    -0.272 N 
ATOM     20  H8  UNL     1      37.248 -24.342  44.085  1.00  0.00     0.189 HD
BRANCH  19  21
HETATM   21  N9  UNL     1      35.324 -25.164  44.519  1.00  0.00    -0.342 N 
ATOM     22  H92 UNL     1      34.379 -24.783  44.465  1.00  0.00     0.176 HD
ATOM     23  H91 UNL     1      35.554 -25.928  45.154  1.00  0.00     0.176 HD
ENDBRANCH  19  21
ENDBRANCH   9  17
BRANCH   1  24
HETATM   24  N1  UNL     1      37.234 -25.819  39.697  1.00  0.00    -0.348 N 
ATOM     25  H1  UNL     1      37.487 -26.646  40.240  1.00  0.00     0.163 HD
BRANCH  24  26
HETATM   26  C2  UNL     1      36.573 -26.001  38.416  1.00  0.00     0.215 C 
HETATM   27  C1  UNL     1      35.078 -26.122  38.577  1.00  0.00     0.063 C 
BRANCH  26  28
HETATM   28  O1  UNL     1      37.071 -27.038  37.680  1.00  0.00    -0.377 OA
ATOM     29  H1  UNL     1      37.981 -27.201  37.895  1.00  0.00     0.212 HD
ENDBRANCH  26  28
ENDBRANCH  24  26
ENDBRANCH   1  24
TORSDOF 6
ENDMDL
MODEL 4
REMARK VINA RESULT: -7.221174584      1.944      3.715
REMARK  6 active torsions:
REMARK  status: ('A' for Active; 'I' for Inactive)
REMARK    1  A    between atoms: C2_2  and  O1_3 
REMARK    2  A    between atoms: C2_2  and  N1_5 
REMARK    3  A    between atoms: N1_5  and  C3_7 
REMARK    4  A    between atoms: N4_13  and  C5_15 
REMARK    5  A    between atoms: C7_22  and  C8_23 
REMARK       I    between atoms: C8_23  and  N8_25 
REMARK    6  A    between atoms: N8_25  and  N9_27 
ROOT
HETATM    1  C3  UNL     1      38.000 -21.039  41.063  1.00  0.00     0.137 A 
HETATM    2  N2  UNL     1      36.765 -21.056  41.635  1.00  0.00    -0.283 N 
ATOM      3  H2  UNL     1      36.161 -20.239  41.717  1.00  0.00     0.188 HD
HETATM    4  N3  UNL     1      36.451 -22.234  42.059  1.00  0.00    -0.283 N 
ATOM      5  H3  UNL     1      35.577 -22.482  42.521  1.00  0.00     0.188 HD
HETATM    6  C4  UNL     1      37.464 -23.082  41.796  1.00  0.00     0.142 A 
HETATM    7  N4  UNL     1      37.476 -24.353  42.093  1.00  0.00    -0.311 N 
ATOM      8  H4  UNL     1      38.286 -24.928  41.859  1.00  0.00     0.170 HD
HETATM    9  C7  UNL     1      38.458 -22.335  41.161  1.00  0.00     0.124 A 
ENDROOT
BRANCH   7  10
HETATM   10  C5  UNL     1      36.359 -24.926  42.742  1.00  0.00     0.194 C 
HETATM   11  N5  UNL     1      35.350 -25.501  42.180  1.00  0.00    -0.346 N 
HETATM   12  C6  UNL     1      34.393 -25.970  43.150  1.00  0.00     0.259 C 
ATOM     13  H5  UNL     1      35.242 -25.610  41.172  1.00  0.00     0.163 HD
HETATM   14  N6  UNL     1      35.148 -25.977  44.385  1.00  0.00    -0.119 NA
HETATM   15  N7  UNL     1      36.110 -24.995  44.140  1.00  0.00    -0.274 N 
ATOM     16  H7  UNL     1      36.562 -24.419  44.850  1.00  0.00     0.185 HD
ENDBRANCH   7  10
BRANCH   9  17
HETATM   17  C8  UNL     1      39.748 -22.840  40.690  1.00  0.00     0.277 C 
HETATM   18  O2  UNL     1      40.127 -22.530  39.509  1.00  0.00    -0.266 OA
HETATM   19  N8  UNL     1      40.608 -23.650  41.443  1.00  0.00    -0.272 N 
ATOM     20  H8  UNL     1      40.357 -23.929  42.391  1.00  0.00     0.189 HD
BRANCH  19  21
HETATM   21  N9  UNL     1      41.845 -24.079  40.864  1.00  0.00    -0.342 N 
ATOM     22  H92 UNL     1      42.349 -24.861  41.280  1.00  0.00     0.176 HD
ATOM     23  H91 UNL     1      42.202 -23.593  40.041  1.00  0.00     0.176 HD
ENDBRANCH  19  21
ENDBRANCH   9  17
BRANCH   1  24
HETATM   24  N1  UNL     1      38.616 -19.904  40.511  1.00  0.00    -0.348 N 
ATOM     25  H1  UNL     1      38.323 -19.589  39.585  1.00  0.00     0.163 HD
BRANCH  24  26
HETATM   26  C2  UNL     1      39.656 -19.161  41.204  1.00  0.00     0.215 C 
HETATM   27  C1  UNL     1      39.362 -19.047  42.679  1.00  0.00     0.063 C 
BRANCH  26  28
HETATM   28  O1  UNL     1      39.915 -17.936  40.660  1.00  0.00    -0.377 OA
ATOM     29  H1  UNL     1      40.496 -17.433  41.218  1.00  0.00     0.212 HD
ENDBRANCH  26  28
ENDBRANCH  24  26
ENDBRANCH   1  24
TORSDOF 6
ENDMDL
MODEL 5
REMARK VINA RESULT: -7.120154464      2.586      5.009
REMARK  6 active torsions:
REMARK  status: ('A' for Active; 'I' for Inactive)
REMARK    1  A    between atoms: C2_2  and  O1_3 
REMARK    2  A    between atoms: C2_2  and  N1_5 
REMARK    3  A    between atoms: N1_5  and  C3_7 
REMARK    4  A    between atoms: N4_13  and  C5_15 
REMARK    5  A    between atoms: C7_22  and  C8_23 
REMARK       I    between atoms: C8_23  and  N8_25 
REMARK    6  A    between atoms: N8_25  and  N9_27 
ROOT
HETATM    1  C3  UNL     1      37.984 -24.610  40.163  1.00  0.00     0.137 A 
HETATM    2  N2  UNL     1      38.716 -23.582  39.654  1.00  0.00    -0.283 N 
ATOM      3  H2  UNL     1      39.269 -23.642  38.799  1.00  0.00     0.188 HD
HETATM    4  N3  UNL     1      38.626 -22.522  40.384  1.00  0.00    -0.283 N 
ATOM      5  H3  UNL     1      39.089 -21.633  40.196  1.00  0.00     0.188 HD
HETATM    6  C4  UNL     1      37.822 -22.777  41.434  1.00  0.00     0.142 A 
HETATM    7  N4  UNL     1      37.516 -21.922  42.371  1.00  0.00    -0.311 N 
ATOM      8  H4  UNL     1      36.898 -22.196  43.136  1.00  0.00     0.170 HD
HETATM    9  C7  UNL     1      37.405 -24.104  41.307  1.00  0.00     0.124 A 
ENDROOT
BRANCH   7  10
HETATM   10  C5  UNL     1      38.046 -20.613  42.319  1.00  0.00     0.194 C 
HETATM   11  N5  UNL     1      39.143 -20.201  42.858  1.00  0.00    -0.346 N 
HETATM   12  C6  UNL     1      39.374 -18.802  42.602  1.00  0.00     0.259 C 
ATOM     13  H5  UNL     1      39.772 -20.794  43.400  1.00  0.00     0.163 HD
HETATM   14  N6  UNL     1      38.489 -18.518  41.491  1.00  0.00    -0.119 NA
HETATM   15  N7  UNL     1      37.492 -19.480  41.664  1.00  0.00    -0.274 N 
ATOM     16  H7  UNL     1      36.520 -19.384  41.369  1.00  0.00     0.185 HD
ENDBRANCH   7  10
BRANCH   9  17
HETATM   17  C8  UNL     1      36.519 -24.820  42.224  1.00  0.00     0.277 C 
HETATM   18  O2  UNL     1      35.697 -25.670  41.736  1.00  0.00    -0.266 OA
HETATM   19  N8  UNL     1      36.499 -24.644  43.614  1.00  0.00    -0.272 N 
ATOM     20  H8  UNL     1      37.132 -23.979  44.059  1.00  0.00     0.189 HD
BRANCH  19  21
HETATM   21  N9  UNL     1      35.580 -25.408  44.400  1.00  0.00    -0.342 N 
ATOM     22  H92 UNL     1      35.025 -24.943  45.117  1.00  0.00     0.176 HD
ATOM     23  H91 UNL     1      35.496 -26.410  44.230  1.00  0.00     0.176 HD
ENDBRANCH  19  21
ENDBRANCH   9  17
BRANCH   1  24
HETATM   24  N1  UNL     1      37.885 -25.889  39.593  1.00  0.00    -0.348 N 
ATOM     25  H1  UNL     1      36.968 -26.223  39.295  1.00  0.00     0.163 HD
BRANCH  24  26
HETATM   26  C2  UNL     1      39.037 -26.757  39.409  1.00  0.00     0.215 C 
HETATM   27  C1  UNL     1      40.330 -25.993  39.545  1.00  0.00     0.063 C 
BRANCH  26  28
HETATM   28  O1  UNL     1      39.010 -27.471  38.246  1.00  0.00    -0.377 OA
ATOM     29  H1  UNL     1      38.573 -28.305  38.370  1.00  0.00     0.212 HD
ENDBRANCH  26  28
ENDBRANCH  24  26
ENDBRANCH   1  24
TORSDOF 6
ENDMDL
