MODEL 1
REMARK VINA RESULT: -8.721251623      0.000      0.000
REMARK  5 active torsions:
REMARK  status: ('A' for Active; 'I' for Inactive)
REMARK    1  A    between atoms: C2_7  and  N3_8 
REMARK       I    between atoms: N3_8  and  C3_10 
REMARK    2  A    between atoms: C3_10  and  C4_12 
REMARK    3  A    between atoms: C4_12  and  N4_13 
REMARK    4  A    between atoms: C4_12  and  N5_17 
REMARK    5  A    between atoms: C5_18  and  N6_19 
ROOT
HETATM    1  N3  UNL     1      38.063 -22.120  41.123  1.00  0.00    -0.328 N 
ATOM      2  H3  UNL     1      38.634 -22.508  40.372  1.00  0.00     0.165 HD
HETATM    3  C3  UNL     1      37.333 -22.960  41.968  1.00  0.00     0.271 C 
HETATM    4  O1  UNL     1      36.627 -22.506  42.893  1.00  0.00    -0.269 OA
ENDROOT
BRANCH   3   5
HETATM    5  C4  UNL     1      37.341 -24.460  41.830  1.00  0.00     0.401 C 
BRANCH   5   6
HETATM    6  N4  UNL     1      37.296 -24.874  40.478  1.00  0.00    -0.048 N 
ATOM      7  H43 UNL     1      36.343 -24.840  40.114  1.00  0.00     0.277 HD
ATOM      8  H42 UNL     1      37.728 -24.182  39.866  1.00  0.00     0.277 HD
ATOM      9  H41 UNL     1      37.709 -25.796  40.342  1.00  0.00     0.277 HD
ENDBRANCH   5   6
BRANCH   5  10
HETATM   10  N5  UNL     1      36.201 -24.978  42.560  1.00  0.00    -0.091 N 
HETATM   11  C5  UNL     1      36.102 -25.263  43.871  1.00  0.00     0.699 A 
HETATM   12  N7  UNL     1      34.854 -25.733  44.162  1.00  0.00    -0.128 N 
HETATM   13  N8  UNL     1      34.185 -25.739  43.032  1.00  0.00    -0.236 N 
ATOM     14  H7  UNL     1      34.508 -26.022  45.076  1.00  0.00     0.205 HD
HETATM   15  C6  UNL     1      34.975 -25.288  42.053  1.00  0.00     0.358 A 
ATOM     16  H8  UNL     1      33.216 -26.039  42.920  1.00  0.00     0.192 HD
HETATM   17  O2  UNL     1      34.699 -25.145  40.835  1.00  0.00    -0.244 OA
BRANCH  11  18
HETATM   18  N6  UNL     1      37.031 -25.125  44.758  1.00  0.00    -0.233 N 
ATOM     19  H62 UNL     1      37.351 -24.217  45.095  1.00  0.00     0.174 HD
ATOM     20  H61 UNL     1      37.545 -25.877  45.218  1.00  0.00     0.174 HD
ENDBRANCH  11  18
ENDBRANCH   5  10
ENDBRANCH   3   5
BRANCH   1  21
HETATM   21  C2  UNL     1      37.994 -20.686  41.334  1.00  0.00     0.304 C 
HETATM   22  N2  UNL     1      38.610 -20.402  42.609  1.00  0.00    -0.194 N 
HETATM   23  C1  UNL     1      39.306 -19.197  42.869  1.00  0.00     0.694 C 
ATOM     24  H2  UNL     1      38.541 -21.097  43.351  1.00  0.00     0.180 HD
HETATM   25  N1  UNL     1      39.628 -18.804  44.053  1.00  0.00    -0.233 N 
HETATM   26  N9  UNL     1      39.669 -18.380  41.763  1.00  0.00    -0.088 N 
ATOM     27  H12 UNL     1      39.368 -19.391  44.846  1.00  0.00     0.174 HD
ATOM     28  H11 UNL     1      40.131 -17.936  44.242  1.00  0.00     0.174 HD
HETATM   29  O4  UNL     1      39.330 -18.793  40.510  1.00  0.00    -0.181 OA
ATOM     30  H9  UNL     1      40.171 -17.504  41.906  1.00  0.00     0.213 HD
HETATM   31  C7  UNL     1      38.658 -19.948  40.222  1.00  0.00     0.324 C 
HETATM   32  O3  UNL     1      38.592 -20.394  39.050  1.00  0.00    -0.259 OA
ENDBRANCH   1  21
TORSDOF 5
ENDMDL
MODEL 2
REMARK VINA RESULT: -7.700453710      2.678      6.121
REMARK  5 active torsions:
REMARK  status: ('A' for Active; 'I' for Inactive)
REMARK    1  A    between atoms: C2_7  and  N3_8 
REMARK       I    between atoms: N3_8  and  C3_10 
REMARK    2  A    between atoms: C3_10  and  C4_12 
REMARK    3  A    between atoms: C4_12  and  N4_13 
REMARK    4  A    between atoms: C4_12  and  N5_17 
REMARK    5  A    between atoms: C5_18  and  N6_19 
ROOT
HETATM    1  N3  UNL     1      38.770 -22.590  41.224  1.00  0.00    -0.328 N 
ATOM      2  H3  UNL     1      39.716 -22.212  41.192  1.00  0.00     0.165 HD
HETATM    3  C3  UNL     1      37.662 -21.737  41.223  1.00  0.00     0.271 C 
HETATM    4  O1  UNL     1      36.495 -22.180  41.261  1.00  0.00    -0.269 OA
ENDROOT
BRANCH   3   5
HETATM    5  C4  UNL     1      37.791 -20.237  41.175  1.00  0.00     0.401 C 
BRANCH   5   6
HETATM    6  N4  UNL     1      38.604 -19.803  40.102  1.00  0.00    -0.048 N 
ATOM      7  H43 UNL     1      39.389 -20.437  39.954  1.00  0.00     0.277 HD
ATOM      8  H42 UNL     1      38.128 -19.922  39.207  1.00  0.00     0.277 HD
ATOM      9  H41 UNL     1      38.924 -18.843  40.224  1.00  0.00     0.277 HD
ENDBRANCH   5   6
BRANCH   5  10
HETATM   10  N5  UNL     1      38.343 -19.799  42.442  1.00  0.00    -0.091 N 
HETATM   11  C5  UNL     1      37.929 -20.097  43.686  1.00  0.00     0.699 A 
HETATM   12  N7  UNL     1      38.722 -19.481  44.611  1.00  0.00    -0.128 N 
HETATM   13  N8  UNL     1      39.623 -18.804  43.938  1.00  0.00    -0.236 N 
ATOM     14  H7  UNL     1      38.633 -19.536  45.625  1.00  0.00     0.205 HD
HETATM   15  C6  UNL     1      39.415 -18.981  42.629  1.00  0.00     0.358 A 
ATOM     16  H8  UNL     1      40.363 -18.235  44.349  1.00  0.00     0.192 HD
HETATM   17  O2  UNL     1      40.067 -18.499  41.667  1.00  0.00    -0.244 OA
BRANCH  11  18
HETATM   18  N6  UNL     1      36.930 -20.853  44.001  1.00  0.00    -0.233 N 
ATOM     19  H62 UNL     1      36.804 -21.795  43.632  1.00  0.00     0.174 HD
ATOM     20  H61 UNL     1      36.167 -20.615  44.636  1.00  0.00     0.174 HD
ENDBRANCH  11  18
ENDBRANCH   5  10
ENDBRANCH   3   5
BRANCH   1  21
HETATM   21  C2  UNL     1      38.547 -24.023  41.270  1.00  0.00     0.304 C 
HETATM   22  N2  UNL     1      37.629 -24.357  40.207  1.00  0.00    -0.194 N 
HETATM   23  C1  UNL     1      37.670 -25.596  39.523  1.00  0.00     0.694 C 
ATOM     24  H2  UNL     1      36.922 -23.673  39.938  1.00  0.00     0.180 HD
HETATM   25  N1  UNL     1      36.715 -26.024  38.771  1.00  0.00    -0.233 N 
HETATM   26  N9  UNL     1      38.827 -26.408  39.676  1.00  0.00    -0.088 N 
ATOM     27  H12 UNL     1      35.885 -25.441  38.662  1.00  0.00     0.174 HD
ATOM     28  H11 UNL     1      36.745 -26.916  38.277  1.00  0.00     0.174 HD
HETATM   29  O4  UNL     1      39.838 -25.958  40.471  1.00  0.00    -0.181 OA
ATOM     30  H9  UNL     1      38.898 -27.308  39.201  1.00  0.00     0.213 HD
HETATM   31  C7  UNL     1      39.832 -24.769  41.146  1.00  0.00     0.324 C 
HETATM   32  O3  UNL     1      40.879 -24.299  41.657  1.00  0.00    -0.259 OA
ENDBRANCH   1  21
TORSDOF 5
ENDMDL
MODEL 3
REMARK VINA RESULT: -7.687834821      2.314      6.538
REMARK  5 active torsions:
REMARK  status: ('A' for Active; 'I' for Inactive)
REMARK    1  A    between atoms: C2_7  and  N3_8 
REMARK       I    between atoms: N3_8  and  C3_10 
REMARK    2  A    between atoms: C3_10  and  C4_12 
REMARK    3  A    between atoms: C4_12  and  N4_13 
REMARK    4  A    between atoms: C4_12  and  N5_17 
REMARK    5  A    between atoms: C5_18  and  N6_19 
ROOT
HETATM    1  N3  UNL     1      37.208 -23.750  41.967  1.00  0.00    -0.328 N 
ATOM      2  H3  UNL     1      37.989 -24.231  42.413  1.00  0.00     0.165 HD
HETATM    3  C3  UNL     1      37.357 -22.447  41.483  1.00  0.00     0.271 C 
HETATM    4  O1  UNL     1      36.413 -21.841  40.934  1.00  0.00    -0.269 OA
ENDROOT
BRANCH   3   5
HETATM    5  C4  UNL     1      38.652 -21.684  41.586  1.00  0.00     0.401 C 
BRANCH   5   6
HETATM    6  N4  UNL     1      38.466 -20.290  41.436  1.00  0.00    -0.048 N 
ATOM      7  H43 UNL     1      39.014 -19.926  40.656  1.00  0.00     0.277 HD
ATOM      8  H42 UNL     1      37.530 -20.078  41.089  1.00  0.00     0.277 HD
ATOM      9  H41 UNL     1      38.665 -19.779  42.296  1.00  0.00     0.277 HD
ENDBRANCH   5   6
BRANCH   5  10
HETATM   10  N5  UNL     1      39.546 -22.192  40.564  1.00  0.00    -0.091 N 
HETATM   11  C5  UNL     1      40.541 -23.089  40.687  1.00  0.00     0.699 A 
HETATM   12  N7  UNL     1      41.146 -23.297  39.482  1.00  0.00    -0.128 N 
HETATM   13  N8  UNL     1      40.527 -22.528  38.616  1.00  0.00    -0.236 N 
ATOM     14  H7  UNL     1      41.926 -23.925  39.290  1.00  0.00     0.205 HD
HETATM   15  C6  UNL     1      39.559 -21.853  39.244  1.00  0.00     0.358 A 
ATOM     16  H8  UNL     1      40.749 -22.457  37.623  1.00  0.00     0.192 HD
HETATM   17  O2  UNL     1      38.751 -21.021  38.758  1.00  0.00    -0.244 OA
BRANCH  11  18
HETATM   18  N6  UNL     1      40.900 -23.690  41.773  1.00  0.00    -0.233 N 
ATOM     19  H62 UNL     1      40.236 -24.075  42.445  1.00  0.00     0.174 HD
ATOM     20  H61 UNL     1      41.857 -23.851  42.087  1.00  0.00     0.174 HD
ENDBRANCH  11  18
ENDBRANCH   5  10
ENDBRANCH   3   5
BRANCH   1  21
HETATM   21  C2  UNL     1      35.922 -24.405  41.822  1.00  0.00     0.304 C 
HETATM   22  N2  UNL     1      35.867 -24.973  40.496  1.00  0.00    -0.194 N 
HETATM   23  C1  UNL     1      35.159 -26.162  40.201  1.00  0.00     0.694 C 
ATOM     24  H2  UNL     1      36.360 -24.497  39.740  1.00  0.00     0.180 HD
HETATM   25  N1  UNL     1      34.871 -26.541  39.004  1.00  0.00    -0.233 N 
HETATM   26  N9  UNL     1      34.744 -26.981  41.287  1.00  0.00    -0.088 N 
ATOM     27  H12 UNL     1      35.169 -25.953  38.225  1.00  0.00     0.174 HD
ATOM     28  H11 UNL     1      34.361 -27.398  38.791  1.00  0.00     0.174 HD
HETATM   29  O4  UNL     1      35.046 -26.584  42.555  1.00  0.00    -0.181 OA
ATOM     30  H9  UNL     1      34.231 -27.847  41.121  1.00  0.00     0.213 HD
HETATM   31  C7  UNL     1      35.728 -25.443  42.876  1.00  0.00     0.324 C 
HETATM   32  O3  UNL     1      36.189 -25.255  44.029  1.00  0.00    -0.259 OA
ENDBRANCH   1  21
TORSDOF 5
ENDMDL
MODEL 4
REMARK VINA RESULT: -7.670615047      1.526      2.327
REMARK  5 active torsions:
REMARK  status: ('A' for Active; 'I' for Inactive)
REMARK    1  A    between atoms: C2_7  and  N3_8 
REMARK       I    between atoms: N3_8  and  C3_10 
REMARK    2  A    between atoms: C3_10  and  C4_12 
REMARK    3  A    between atoms: C4_12  and  N4_13 
REMARK    4  A    between atoms: C4_12  and  N5_17 
REMARK    5  A    between atoms: C5_18  and  N6_19 
ROOT
HETATM    1  N3  UNL     1      38.373 -22.317  41.412  1.00  0.00    -0.328 N 
ATOM      2  H3  UNL     1      39.151 -22.640  40.837  1.00  0.00     0.165 HD
HETATM    3  C3  UNL     1      37.532 -23.232  42.051  1.00  0.00     0.271 C 
HETATM    4  O1  UNL     1      36.574 -22.857  42.759  1.00  0.00    -0.269 OA
ENDROOT
BRANCH   3   5
HETATM    5  C4  UNL     1      37.716 -24.723  41.936  1.00  0.00     0.401 C 
BRANCH   5   6
HETATM    6  N4  UNL     1      39.074 -25.085  41.778  1.00  0.00    -0.048 N 
ATOM      7  H43 UNL     1      39.290 -25.290  40.803  1.00  0.00     0.277 HD
ATOM      8  H42 UNL     1      39.688 -24.281  41.916  1.00  0.00     0.277 HD
ATOM      9  H41 UNL     1      39.340 -25.860  42.385  1.00  0.00     0.277 HD
ENDBRANCH   5   6
BRANCH   5  10
HETATM   10  N5  UNL     1      36.932 -25.179  40.806  1.00  0.00    -0.091 N 
HETATM   11  C5  UNL     1      35.631 -25.520  40.767  1.00  0.00     0.699 A 
HETATM   12  N7  UNL     1      35.276 -25.897  39.505  1.00  0.00    -0.128 N 
HETATM   13  N8  UNL     1      36.356 -25.791  38.766  1.00  0.00    -0.236 N 
ATOM     14  H7  UNL     1      34.353 -26.201  39.195  1.00  0.00     0.205 HD
HETATM   15  C6  UNL     1      37.366 -25.360  39.527  1.00  0.00     0.358 A 
ATOM     16  H8  UNL     1      36.414 -26.003  37.769  1.00  0.00     0.192 HD
HETATM   17  O2  UNL     1      38.555 -25.135  39.185  1.00  0.00    -0.244 OA
BRANCH  11  18
HETATM   18  N6  UNL     1      34.805 -25.503  41.760  1.00  0.00    -0.233 N 
ATOM     19  H62 UNL     1      35.104 -25.459  42.735  1.00  0.00     0.174 HD
ATOM     20  H61 UNL     1      33.787 -25.532  41.701  1.00  0.00     0.174 HD
ENDBRANCH  11  18
ENDBRANCH   5  10
ENDBRANCH   3   5
BRANCH   1  21
HETATM   21  C2  UNL     1      38.119 -20.899  41.583  1.00  0.00     0.304 C 
HETATM   22  N2  UNL     1      38.755 -20.485  42.811  1.00  0.00    -0.194 N 
HETATM   23  C1  UNL     1      39.292 -19.188  42.995  1.00  0.00     0.694 C 
ATOM     24  H2  UNL     1      38.820 -21.154  43.578  1.00  0.00     0.180 HD
HETATM   25  N1  UNL     1      39.617 -18.710  44.147  1.00  0.00    -0.233 N 
HETATM   26  N9  UNL     1      39.481 -18.372  41.846  1.00  0.00    -0.088 N 
ATOM     27  H12 UNL     1      39.480 -19.296  44.971  1.00  0.00     0.174 HD
ATOM     28  H11 UNL     1      40.004 -17.776  44.280  1.00  0.00     0.174 HD
HETATM   29  O4  UNL     1      39.138 -18.874  40.627  1.00  0.00    -0.181 OA
ATOM     30  H9  UNL     1      39.865 -17.431  41.933  1.00  0.00     0.213 HD
HETATM   31  C7  UNL     1      38.618 -20.120  40.412  1.00  0.00     0.324 C 
HETATM   32  O3  UNL     1      38.553 -20.616  39.260  1.00  0.00    -0.259 OA
ENDBRANCH   1  21
TORSDOF 5
ENDMDL
MODEL 5
REMARK VINA RESULT: -7.623246446      1.998      6.607
REMARK  5 active torsions:
REMARK  status: ('A' for Active; 'I' for Inactive)
REMARK    1  A    between atoms: C2_7  and  N3_8 
REMARK       I    between atoms: N3_8  and  C3_10 
REMARK    2  A    between atoms: C3_10  and  C4_12 
REMARK    3  A    between atoms: C4_12  and  N4_13 
REMARK    4  A    between atoms: C4_12  and  N5_17 
REMARK    5  A    between atoms: C5_18  and  N6_19 
ROOT
HETATM    1  N3  UNL     1      36.555 -23.225  42.779  1.00  0.00    -0.328 N 
ATOM      2  H3  UNL     1      37.076 -23.565  43.587  1.00  0.00     0.165 HD
HETATM    3  C3  UNL     1      36.805 -21.953  42.255  1.00  0.00     0.271 C 
HETATM    4  O1  UNL     1      36.179 -21.517  41.266  1.00  0.00    -0.269 OA
ENDROOT
BRANCH   3   5
HETATM    5  C4  UNL     1      37.838 -21.023  42.836  1.00  0.00     0.401 C 
BRANCH   5   6
HETATM    6  N4  UNL     1      37.253 -19.899  43.466  1.00  0.00    -0.048 N 
ATOM      7  H43 UNL     1      37.799 -19.605  44.276  1.00  0.00     0.277 HD
ATOM      8  H42 UNL     1      37.351 -19.062  42.891  1.00  0.00     0.277 HD
ATOM      9  H41 UNL     1      36.279 -20.062  43.718  1.00  0.00     0.277 HD
ENDBRANCH   5   6
BRANCH   5  10
HETATM   10  N5  UNL     1      38.713 -20.605  41.758  1.00  0.00    -0.091 N 
HETATM   11  C5  UNL     1      39.675 -21.310  41.136  1.00  0.00     0.699 A 
HETATM   12  N7  UNL     1      40.272 -20.550  40.172  1.00  0.00    -0.128 N 
HETATM   13  N8  UNL     1      39.679 -19.379  40.200  1.00  0.00    -0.236 N 
ATOM     14  H7  UNL     1      41.029 -20.835  39.551  1.00  0.00     0.205 HD
HETATM   15  C6  UNL     1      38.736 -19.388  41.147  1.00  0.00     0.358 A 
ATOM     16  H8  UNL     1      39.903 -18.588  39.595  1.00  0.00     0.192 HD
HETATM   17  O2  UNL     1      37.957 -18.458  41.477  1.00  0.00    -0.244 OA
BRANCH  11  18
HETATM   18  N6  UNL     1      40.014 -22.530  41.386  1.00  0.00    -0.233 N 
ATOM     19  H62 UNL     1      40.554 -23.104  40.738  1.00  0.00     0.174 HD
ATOM     20  H61 UNL     1      39.794 -23.059  42.231  1.00  0.00     0.174 HD
ENDBRANCH  11  18
ENDBRANCH   5  10
ENDBRANCH   3   5
BRANCH   1  21
HETATM   21  C2  UNL     1      35.541 -24.051  42.151  1.00  0.00     0.304 C 
HETATM   22  N2  UNL     1      35.966 -24.312  40.796  1.00  0.00    -0.194 N 
HETATM   23  C1  UNL     1      35.658 -25.513  40.116  1.00  0.00     0.694 C 
ATOM     24  H2  UNL     1      36.512 -23.601  40.310  1.00  0.00     0.180 HD
HETATM   25  N1  UNL     1      35.787 -25.663  38.842  1.00  0.00    -0.233 N 
HETATM   26  N9  UNL     1      35.179 -26.613  40.880  1.00  0.00    -0.088 N 
ATOM     27  H12 UNL     1      36.130 -24.874  38.294  1.00  0.00     0.174 HD
ATOM     28  H11 UNL     1      35.565 -26.529  38.352  1.00  0.00     0.174 HD
HETATM   29  O4  UNL     1      35.041 -26.458  42.227  1.00  0.00    -0.181 OA
ATOM     30  H9  UNL     1      34.944 -27.498  40.431  1.00  0.00     0.213 HD
HETATM   31  C7  UNL     1      35.329 -25.313  42.917  1.00  0.00     0.324 C 
HETATM   32  O3  UNL     1      35.418 -25.306  44.169  1.00  0.00    -0.259 OA
ENDBRANCH   1  21
TORSDOF 5
ENDMDL
