MODEL 1
REMARK VINA RESULT: -7.917543327      0.000      0.000
REMARK  8 active torsions:
REMARK  status: ('A' for Active; 'I' for Inactive)
REMARK    1  A    between atoms: N1_1  and  C1_4 
REMARK    2  A    between atoms: C2_9  and  N4_10 
REMARK    3  A    between atoms: N4_10  and  C3_12 
REMARK    4  A    between atoms: C5_16  and  C6_17 
REMARK    5  A    between atoms: C6_17  and  N6_18 
REMARK    6  A    between atoms: N6_18  and  O1_19 
REMARK    7  A    between atoms: O1_19  and  C7_20 
REMARK       I    between atoms: C7_20  and  N7_22 
REMARK    8  A    between atoms: N7_22  and  N8_24 
ROOT
HETATM    1  C3  UNL     1      38.425 -22.756  40.687  1.00  0.00     0.151 A 
HETATM    2  C4  UNL     1      38.607 -23.959  40.034  1.00  0.00     0.139 A 
HETATM    3  N5  UNL     1      37.609 -24.888  39.946  1.00  0.00    -0.350 N 
ATOM      4  H5  UNL     1      37.754 -25.772  39.461  1.00  0.00     0.166 HD
HETATM    5  C5  UNL     1      36.444 -24.598  40.514  1.00  0.00     0.113 A 
HETATM    6  N9  UNL     1      36.263 -23.423  41.154  1.00  0.00    -0.286 N 
ATOM      7  H9  UNL     1      35.358 -23.226  41.581  1.00  0.00     0.188 HD
HETATM    8  N10 UNL     1      37.224 -22.520  41.242  1.00  0.00    -0.283 N 
ATOM      9  H10 UNL     1      37.054 -21.642  41.732  1.00  0.00     0.188 HD
ENDROOT
BRANCH   1  10
HETATM   10  N4  UNL     1      39.498 -21.838  40.741  1.00  0.00    -0.172 N 
ATOM     11  H4  UNL     1      40.359 -22.070  40.245  1.00  0.00     0.186 HD
BRANCH  10  12
HETATM   12  C2  UNL     1      39.446 -20.721  41.384  1.00  0.00     0.713 A 
HETATM   13  N3  UNL     1      39.258 -19.493  40.875  1.00  0.00    -0.117 N 
HETATM   14  N2  UNL     1      39.265 -18.590  41.852  1.00  0.00    -0.118 N 
ATOM     15  H3  UNL     1      39.127 -19.284  39.885  1.00  0.00     0.206 HD
HETATM   16  C1  UNL     1      39.460 -19.263  42.980  1.00  0.00     0.705 A 
ATOM     17  H2  UNL     1      39.145 -17.581  41.753  1.00  0.00     0.206 HD
HETATM   18  N11 UNL     1      39.574 -20.581  42.715  1.00  0.00    -0.020 N 
ATOM     19  H11 UNL     1      39.728 -21.326  43.393  1.00  0.00     0.203 HD
BRANCH  16  20
HETATM   20  N1  UNL     1      39.535 -18.780  44.163  1.00  0.00    -0.233 N 
ATOM     21  H12 UNL     1      38.844 -18.134  44.546  1.00  0.00     0.174 HD
ATOM     22  H11 UNL     1      40.260 -18.963  44.857  1.00  0.00     0.174 HD
ENDBRANCH  16  20
ENDBRANCH  10  12
ENDBRANCH   1  10
BRANCH   5  23
HETATM   23  C6  UNL     1      35.291 -25.528  40.483  1.00  0.00     0.221 C 
BRANCH  23  24
HETATM   24  N6  UNL     1      35.234 -26.382  41.634  1.00  0.00    -0.082 NA
BRANCH  24  25
HETATM   25  O1  UNL     1      34.840 -25.619  42.709  1.00  0.00    -0.188 OA
BRANCH  25  26
HETATM   26  C7  UNL     1      35.504 -25.643  43.935  1.00  0.00     0.397 C 
HETATM   27  O2  UNL     1      34.918 -26.250  44.867  1.00  0.00    -0.235 OA
HETATM   28  N7  UNL     1      36.764 -25.019  44.111  1.00  0.00    -0.251 N 
ATOM     29  H7  UNL     1      37.205 -24.537  43.327  1.00  0.00     0.191 HD
BRANCH  28  30
HETATM   30  N8  UNL     1      37.406 -25.057  45.345  1.00  0.00    -0.341 N 
ATOM     31  H82 UNL     1      37.863 -25.923  45.634  1.00  0.00     0.177 HD
ATOM     32  H81 UNL     1      37.417 -24.236  45.949  1.00  0.00     0.177 HD
ENDBRANCH  28  30
ENDBRANCH  25  26
ENDBRANCH  24  25
ENDBRANCH  23  24
ENDBRANCH   5  23
TORSDOF 8
ENDMDL
MODEL 2
REMARK VINA RESULT: -7.532561874      4.265      7.035
REMARK  8 active torsions:
REMARK  status: ('A' for Active; 'I' for Inactive)
REMARK    1  A    between atoms: N1_1  and  C1_4 
REMARK    2  A    between atoms: C2_9  and  N4_10 
REMARK    3  A    between atoms: N4_10  and  C3_12 
REMARK    4  A    between atoms: C5_16  and  C6_17 
REMARK    5  A    between atoms: C6_17  and  N6_18 
REMARK    6  A    between atoms: N6_18  and  O1_19 
REMARK    7  A    between atoms: O1_19  and  C7_20 
REMARK       I    between atoms: C7_20  and  N7_22 
REMARK    8  A    between atoms: N7_22  and  N8_24 
ROOT
HETATM    1  C3  UNL     1      38.259 -22.763  41.386  1.00  0.00     0.151 A 
HETATM    2  C4  UNL     1      38.413 -21.770  40.439  1.00  0.00     0.139 A 
HETATM    3  N5  UNL     1      39.369 -21.845  39.466  1.00  0.00    -0.350 N 
ATOM      4  H5  UNL     1      39.473 -21.106  38.771  1.00  0.00     0.166 HD
HETATM    5  C5  UNL     1      40.159 -22.914  39.458  1.00  0.00     0.113 A 
HETATM    6  N9  UNL     1      40.012 -23.886  40.382  1.00  0.00    -0.286 N 
ATOM      7  H9  UNL     1      40.632 -24.695  40.353  1.00  0.00     0.188 HD
HETATM    8  N10 UNL     1      39.088 -23.819  41.325  1.00  0.00    -0.283 N 
ATOM      9  H10 UNL     1      39.004 -24.571  42.009  1.00  0.00     0.188 HD
ENDROOT
BRANCH   1  10
HETATM   10  N4  UNL     1      37.249 -22.624  42.365  1.00  0.00    -0.172 N 
ATOM     11  H4  UNL     1      37.159 -21.728  42.843  1.00  0.00     0.186 HD
BRANCH  10  12
HETATM   12  C2  UNL     1      36.436 -23.572  42.685  1.00  0.00     0.713 A 
HETATM   13  N3  UNL     1      35.413 -24.051  41.958  1.00  0.00    -0.117 N 
HETATM   14  N2  UNL     1      34.802 -25.029  42.622  1.00  0.00    -0.118 N 
ATOM     15  H3  UNL     1      35.145 -23.715  41.033  1.00  0.00     0.206 HD
HETATM   16  C1  UNL     1      35.452 -25.160  43.773  1.00  0.00     0.705 A 
ATOM     17  H2  UNL     1      33.996 -25.571  42.309  1.00  0.00     0.206 HD
HETATM   18  N11 UNL     1      36.464 -24.270  43.833  1.00  0.00    -0.020 N 
ATOM     19  H11 UNL     1      37.124 -24.151  44.601  1.00  0.00     0.203 HD
BRANCH  16  20
HETATM   20  N1  UNL     1      35.195 -25.989  44.714  1.00  0.00    -0.233 N 
ATOM     21  H12 UNL     1      35.561 -26.941  44.732  1.00  0.00     0.174 HD
ATOM     22  H11 UNL     1      34.617 -25.824  45.538  1.00  0.00     0.174 HD
ENDBRANCH  16  20
ENDBRANCH  10  12
ENDBRANCH   1  10
BRANCH   5  23
HETATM   23  C6  UNL     1      41.230 -23.102  38.452  1.00  0.00     0.221 C 
BRANCH  23  24
HETATM   24  N6  UNL     1      42.383 -23.767  38.987  1.00  0.00    -0.082 NA
BRANCH  24  25
HETATM   25  O1  UNL     1      42.459 -25.014  38.411  1.00  0.00    -0.188 OA
BRANCH  25  26
HETATM   26  C7  UNL     1      42.756 -25.204  37.061  1.00  0.00     0.397 C 
HETATM   27  O2  UNL     1      43.696 -24.506  36.600  1.00  0.00    -0.235 OA
HETATM   28  N7  UNL     1      42.038 -26.130  36.264  1.00  0.00    -0.251 N 
ATOM     29  H7  UNL     1      41.283 -26.676  36.679  1.00  0.00     0.191 HD
BRANCH  28  30
HETATM   30  N8  UNL     1      42.356 -26.300  34.920  1.00  0.00    -0.341 N 
ATOM     31  H82 UNL     1      42.116 -25.559  34.261  1.00  0.00     0.177 HD
ATOM     32  H81 UNL     1      42.818 -27.151  34.601  1.00  0.00     0.177 HD
ENDBRANCH  28  30
ENDBRANCH  25  26
ENDBRANCH  24  25
ENDBRANCH  23  24
ENDBRANCH   5  23
TORSDOF 8
ENDMDL
MODEL 3
REMARK VINA RESULT: -7.520376665      3.631      6.519
REMARK  8 active torsions:
REMARK  status: ('A' for Active; 'I' for Inactive)
REMARK    1  A    between atoms: N1_1  and  C1_4 
REMARK    2  A    between atoms: C2_9  and  N4_10 
REMARK    3  A    between atoms: N4_10  and  C3_12 
REMARK    4  A    between atoms: C5_16  and  C6_17 
REMARK    5  A    between atoms: C6_17  and  N6_18 
REMARK    6  A    between atoms: N6_18  and  O1_19 
REMARK    7  A    between atoms: O1_19  and  C7_20 
REMARK       I    between atoms: C7_20  and  N7_22 
REMARK    8  A    between atoms: N7_22  and  N8_24 
ROOT
HETATM    1  C3  UNL     1      38.105 -22.826  41.475  1.00  0.00     0.151 A 
HETATM    2  C4  UNL     1      38.384 -21.784  40.613  1.00  0.00     0.139 A 
HETATM    3  N5  UNL     1      39.386 -21.863  39.689  1.00  0.00    -0.350 N 
ATOM      4  H5  UNL     1      39.583 -21.087  39.058  1.00  0.00     0.166 HD
HETATM    5  C5  UNL     1      40.096 -22.986  39.642  1.00  0.00     0.113 A 
HETATM    6  N9  UNL     1      39.826 -24.007  40.482  1.00  0.00    -0.286 N 
ATOM      7  H9  UNL     1      40.386 -24.857  40.425  1.00  0.00     0.188 HD
HETATM    8  N10 UNL     1      38.856 -23.936  41.379  1.00  0.00    -0.283 N 
ATOM      9  H10 UNL     1      38.679 -24.726  41.999  1.00  0.00     0.188 HD
ENDROOT
BRANCH   1  10
HETATM   10  N4  UNL     1      37.053 -22.680  42.408  1.00  0.00    -0.172 N 
ATOM     11  H4  UNL     1      36.906 -21.764  42.831  1.00  0.00     0.186 HD
BRANCH  10  12
HETATM   12  C2  UNL     1      36.269 -23.644  42.751  1.00  0.00     0.713 A 
HETATM   13  N3  UNL     1      35.247 -24.156  42.047  1.00  0.00    -0.117 N 
HETATM   14  N2  UNL     1      34.672 -25.143  42.731  1.00  0.00    -0.118 N 
ATOM     15  H3  UNL     1      34.954 -23.837  41.124  1.00  0.00     0.206 HD
HETATM   16  C1  UNL     1      35.345 -25.246  43.872  1.00  0.00     0.705 A 
ATOM     17  H2  UNL     1      33.875 -25.708  42.438  1.00  0.00     0.206 HD
HETATM   18  N11 UNL     1      36.335 -24.330  43.905  1.00  0.00    -0.020 N 
ATOM     19  H11 UNL     1      37.005 -24.186  44.661  1.00  0.00     0.203 HD
BRANCH  16  20
HETATM   20  N1  UNL     1      35.125 -26.071  44.825  1.00  0.00    -0.233 N 
ATOM     21  H12 UNL     1      35.219 -27.081  44.719  1.00  0.00     0.174 HD
ATOM     22  H11 UNL     1      34.839 -25.848  45.779  1.00  0.00     0.174 HD
ENDBRANCH  16  20
ENDBRANCH  10  12
ENDBRANCH   1  10
BRANCH   5  23
HETATM   23  C6  UNL     1      41.206 -23.185  38.682  1.00  0.00     0.221 C 
BRANCH  23  24
HETATM   24  N6  UNL     1      42.399 -23.677  39.307  1.00  0.00    -0.082 NA
BRANCH  24  25
HETATM   25  O1  UNL     1      42.274 -25.040  39.446  1.00  0.00    -0.188 OA
BRANCH  25  26
HETATM   26  C7  UNL     1      41.852 -25.868  38.407  1.00  0.00     0.397 C 
HETATM   27  O2  UNL     1      40.859 -26.599  38.654  1.00  0.00    -0.235 OA
HETATM   28  N7  UNL     1      42.507 -25.879  37.150  1.00  0.00    -0.251 N 
ATOM     29  H7  UNL     1      43.309 -25.269  36.992  1.00  0.00     0.191 HD
BRANCH  28  30
HETATM   30  N8  UNL     1      42.064 -26.716  36.130  1.00  0.00    -0.341 N 
ATOM     31  H82 UNL     1      42.160 -26.404  35.163  1.00  0.00     0.177 HD
ATOM     32  H81 UNL     1      41.652 -27.623  36.347  1.00  0.00     0.177 HD
ENDBRANCH  28  30
ENDBRANCH  25  26
ENDBRANCH  24  25
ENDBRANCH  23  24
ENDBRANCH   5  23
TORSDOF 8
ENDMDL
MODEL 4
REMARK VINA RESULT: -7.464130113      3.975      5.560
REMARK  8 active torsions:
REMARK  status: ('A' for Active; 'I' for Inactive)
REMARK    1  A    between atoms: N1_1  and  C1_4 
REMARK    2  A    between atoms: C2_9  and  N4_10 
REMARK    3  A    between atoms: N4_10  and  C3_12 
REMARK    4  A    between atoms: C5_16  and  C6_17 
REMARK    5  A    between atoms: C6_17  and  N6_18 
REMARK    6  A    between atoms: N6_18  and  O1_19 
REMARK    7  A    between atoms: O1_19  and  C7_20 
REMARK       I    between atoms: C7_20  and  N7_22 
REMARK    8  A    between atoms: N7_22  and  N8_24 
ROOT
HETATM    1  C3  UNL     1      39.220 -22.774  40.121  1.00  0.00     0.151 A 
HETATM    2  C4  UNL     1      38.888 -24.084  40.403  1.00  0.00     0.139 A 
HETATM    3  N5  UNL     1      39.693 -25.125  40.036  1.00  0.00    -0.350 N 
ATOM      4  H5  UNL     1      39.439 -26.089  40.250  1.00  0.00     0.166 HD
HETATM    5  C5  UNL     1      40.820 -24.837  39.392  1.00  0.00     0.113 A 
HETATM    6  N9  UNL     1      41.147 -23.558  39.115  1.00  0.00    -0.286 N 
ATOM      7  H9  UNL     1      42.017 -23.365  38.620  1.00  0.00     0.188 HD
HETATM    8  N10 UNL     1      40.372 -22.546  39.468  1.00  0.00    -0.283 N 
ATOM      9  H10 UNL     1      40.649 -21.591  39.243  1.00  0.00     0.188 HD
ENDROOT
BRANCH   1  10
HETATM   10  N4  UNL     1      38.343 -21.743  40.529  1.00  0.00    -0.172 N 
ATOM     11  H4  UNL     1      37.352 -21.833  40.302  1.00  0.00     0.186 HD
BRANCH  10  12
HETATM   12  C2  UNL     1      38.729 -20.695  41.173  1.00  0.00     0.713 A 
HETATM   13  N3  UNL     1      38.965 -19.471  40.674  1.00  0.00    -0.117 N 
HETATM   14  N2  UNL     1      39.348 -18.649  41.649  1.00  0.00    -0.118 N 
ATOM     15  H3  UNL     1      38.866 -19.209  39.694  1.00  0.00     0.206 HD
HETATM   16  C1  UNL     1      39.349 -19.370  42.765  1.00  0.00     0.705 A 
ATOM     17  H2  UNL     1      39.592 -17.663  41.557  1.00  0.00     0.206 HD
HETATM   18  N11 UNL     1      38.969 -20.636  42.494  1.00  0.00    -0.020 N 
ATOM     19  H11 UNL     1      38.882 -21.401  43.163  1.00  0.00     0.203 HD
BRANCH  16  20
HETATM   20  N1  UNL     1      39.655 -18.970  43.941  1.00  0.00    -0.233 N 
ATOM     21  H12 UNL     1      39.338 -18.080  44.327  1.00  0.00     0.174 HD
ATOM     22  H11 UNL     1      40.232 -19.458  44.627  1.00  0.00     0.174 HD
ENDBRANCH  16  20
ENDBRANCH  10  12
ENDBRANCH   1  10
BRANCH   5  23
HETATM   23  C6  UNL     1      41.769 -25.883  38.947  1.00  0.00     0.221 C 
BRANCH  23  24
HETATM   24  N6  UNL     1      41.452 -26.405  37.649  1.00  0.00    -0.082 NA
BRANCH  24  25
HETATM   25  O1  UNL     1      40.504 -27.390  37.808  1.00  0.00    -0.188 OA
BRANCH  25  26
HETATM   26  C7  UNL     1      40.063 -28.189  36.754  1.00  0.00     0.397 C 
HETATM   27  O2  UNL     1      40.395 -27.813  35.601  1.00  0.00    -0.235 OA
HETATM   28  N7  UNL     1      39.287 -29.354  36.978  1.00  0.00    -0.251 N 
ATOM     29  H7  UNL     1      39.040 -29.623  37.930  1.00  0.00     0.191 HD
BRANCH  28  30
HETATM   30  N8  UNL     1      38.859 -30.134  35.908  1.00  0.00    -0.341 N 
ATOM     31  H82 UNL     1      39.464 -30.220  35.090  1.00  0.00     0.177 HD
ATOM     32  H81 UNL     1      37.958 -30.610  35.942  1.00  0.00     0.177 HD
ENDBRANCH  28  30
ENDBRANCH  25  26
ENDBRANCH  24  25
ENDBRANCH  23  24
ENDBRANCH   5  23
TORSDOF 8
ENDMDL
MODEL 5
REMARK VINA RESULT: -7.425763869      4.262      5.873
REMARK  8 active torsions:
REMARK  status: ('A' for Active; 'I' for Inactive)
REMARK    1  A    between atoms: N1_1  and  C1_4 
REMARK    2  A    between atoms: C2_9  and  N4_10 
REMARK    3  A    between atoms: N4_10  and  C3_12 
REMARK    4  A    between atoms: C5_16  and  C6_17 
REMARK    5  A    between atoms: C6_17  and  N6_18 
REMARK    6  A    between atoms: N6_18  and  O1_19 
REMARK    7  A    between atoms: O1_19  and  C7_20 
REMARK       I    between atoms: C7_20  and  N7_22 
REMARK    8  A    between atoms: N7_22  and  N8_24 
ROOT
HETATM    1  C3  UNL     1      40.417 -23.979  40.531  1.00  0.00     0.151 A 
HETATM    2  C4  UNL     1      39.774 -25.187  40.344  1.00  0.00     0.139 A 
HETATM    3  N5  UNL     1      40.259 -26.136  39.490  1.00  0.00    -0.350 N 
ATOM      4  H5  UNL     1      39.776 -27.024  39.360  1.00  0.00     0.166 HD
HETATM    5  C5  UNL     1      41.382 -25.861  38.834  1.00  0.00     0.113 A 
HETATM    6  N9  UNL     1      42.013 -24.682  39.013  1.00  0.00    -0.286 N 
ATOM      7  H9  UNL     1      42.872 -24.496  38.497  1.00  0.00     0.188 HD
HETATM    8  N10 UNL     1      41.548 -23.760  39.839  1.00  0.00    -0.283 N 
ATOM      9  H10 UNL     1      42.050 -22.878  39.952  1.00  0.00     0.188 HD
ENDROOT
BRANCH   1  10
HETATM   10  N4  UNL     1      39.863 -23.041  41.430  1.00  0.00    -0.172 N 
ATOM     11  H4  UNL     1      39.729 -23.323  42.401  1.00  0.00     0.186 HD
BRANCH  10  12
HETATM   12  C2  UNL     1      39.519 -21.846  41.088  1.00  0.00     0.713 A 
HETATM   13  N3  UNL     1      38.853 -21.473  39.983  1.00  0.00    -0.117 N 
HETATM   14  N2  UNL     1      38.683 -20.153  39.980  1.00  0.00    -0.118 N 
ATOM     15  H3  UNL     1      38.526 -22.107  39.255  1.00  0.00     0.206 HD
HETATM   16  C1  UNL     1      39.248 -19.701  41.094  1.00  0.00     0.705 A 
ATOM     17  H2  UNL     1      38.212 -19.598  39.264  1.00  0.00     0.206 HD
HETATM   18  N11 UNL     1      39.770 -20.730  41.793  1.00  0.00    -0.020 N 
ATOM     19  H11 UNL     1      40.261 -20.672  42.685  1.00  0.00     0.203 HD
BRANCH  16  20
HETATM   20  N1  UNL     1      39.313 -18.485  41.488  1.00  0.00    -0.233 N 
ATOM     21  H12 UNL     1      38.488 -17.903  41.636  1.00  0.00     0.174 HD
ATOM     22  H11 UNL     1      40.156 -17.951  41.700  1.00  0.00     0.174 HD
ENDBRANCH  16  20
ENDBRANCH  10  12
ENDBRANCH   1  10
BRANCH   5  23
HETATM   23  C6  UNL     1      41.999 -26.813  37.882  1.00  0.00     0.221 C 
BRANCH  23  24
HETATM   24  N6  UNL     1      41.114 -27.189  36.818  1.00  0.00    -0.082 NA
BRANCH  24  25
HETATM   25  O1  UNL     1      40.144 -28.010  37.343  1.00  0.00    -0.188 OA
BRANCH  25  26
HETATM   26  C7  UNL     1      39.300 -28.784  36.547  1.00  0.00     0.397 C 
HETATM   27  O2  UNL     1      39.793 -29.848  36.092  1.00  0.00    -0.235 OA
HETATM   28  N7  UNL     1      37.966 -28.389  36.273  1.00  0.00    -0.251 N 
ATOM     29  H7  UNL     1      37.606 -27.518  36.664  1.00  0.00     0.191 HD
BRANCH  28  30
HETATM   30  N8  UNL     1      37.145 -29.180  35.476  1.00  0.00    -0.341 N 
ATOM     31  H82 UNL     1      37.021 -30.163  35.722  1.00  0.00     0.177 HD
ATOM     32  H81 UNL     1      36.676 -28.783  34.662  1.00  0.00     0.177 HD
ENDBRANCH  28  30
ENDBRANCH  25  26
ENDBRANCH  24  25
ENDBRANCH  23  24
ENDBRANCH   5  23
TORSDOF 8
ENDMDL
