MODEL 1
REMARK VINA RESULT: -7.297494393      0.000      0.000
REMARK  9 active torsions:
REMARK  status: ('A' for Active; 'I' for Inactive)
REMARK    1  A    between atoms: N1_1  and  C1_4 
REMARK    2  A    between atoms: C2_7  and  N3_8 
REMARK    3  A    between atoms: C3_11  and  C4_12 
REMARK    4  A    between atoms: C4_12  and  O3_13 
REMARK    5  A    between atoms: C4_12  and  C5_15 
REMARK    6  A    between atoms: C5_15  and  N4_16 
REMARK    7  A    between atoms: C5_15  and  O4_20 
REMARK    8  A    between atoms: O4_20  and  C6_21 
REMARK    9  A    between atoms: C7_24  and  N6_25 
ROOT
HETATM    1  C1  UNL     1      35.992 -24.384  43.280  1.00  0.00     0.679 A 
HETATM    2  N2  UNL     1      36.366 -24.955  42.134  1.00  0.00    -0.170 N 
ATOM      3  H2  UNL     1      36.083 -25.922  41.972  1.00  0.00     0.186 HD
HETATM    4  C2  UNL     1      37.097 -24.338  41.163  1.00  0.00     0.204 A 
HETATM    5  C3  UNL     1      37.490 -23.014  41.395  1.00  0.00     0.092 A 
HETATM    6  C7  UNL     1      37.080 -22.478  42.600  1.00  0.00     0.131 A 
HETATM    7  N7  UNL     1      36.348 -23.145  43.522  1.00  0.00    -0.176 N 
ATOM      8  H7  UNL     1      36.076 -22.689  44.393  1.00  0.00     0.186 HD
ENDROOT
BRANCH   5   9
HETATM    9  C4  UNL     1      38.431 -22.364  40.497  1.00  0.00     0.117 C 
BRANCH   9  10
HETATM   10  O3  UNL     1      38.137 -21.141  39.971  1.00  0.00    -0.359 OA
ATOM     11  H3  UNL     1      38.391 -20.934  39.079  1.00  0.00     0.217 HD
ENDBRANCH   9  10
BRANCH   9  12
HETATM   12  C5  UNL     1      39.868 -22.646  40.483  1.00  0.00     0.386 C 
BRANCH  12  13
HETATM   13  N4  UNL     1      40.508 -23.470  41.458  1.00  0.00    -0.046 N 
ATOM     14  H43 UNL     1      39.888 -24.257  41.647  1.00  0.00     0.277 HD
ATOM     15  H42 UNL     1      41.301 -23.922  41.002  1.00  0.00     0.277 HD
ATOM     16  H41 UNL     1      40.835 -23.115  42.357  1.00  0.00     0.277 HD
ENDBRANCH  12  13
BRANCH  12  17
HETATM   17  O4  UNL     1      40.307 -22.998  39.151  1.00  0.00    -0.266 OA
BRANCH  17  18
HETATM   18  C6  UNL     1      41.418 -23.862  38.997  1.00  0.00     0.375 C 
HETATM   19  N5  UNL     1      41.204 -25.220  38.660  1.00  0.00    -0.032 NA
HETATM   20  O5  UNL     1      42.577 -23.428  39.159  1.00  0.00    -0.242 OA
ENDBRANCH  17  18
ENDBRANCH  12  17
ENDBRANCH   9  12
ENDBRANCH   5   9
BRANCH   4  21
HETATM   21  N3  UNL     1      37.309 -25.114  40.033  1.00  0.00    -0.096 N 
HETATM   22  O1  UNL     1      38.228 -25.859  39.808  1.00  0.00    -0.530 OA
HETATM   23  O2  UNL     1      36.410 -25.005  38.955  1.00  0.00    -0.530 OA
ENDBRANCH   4  21
BRANCH   6  24
HETATM   24  N6  UNL     1      37.473 -21.298  42.969  1.00  0.00    -0.384 N 
ATOM     25  H62 UNL     1      38.425 -21.259  43.331  1.00  0.00     0.157 HD
ATOM     26  H61 UNL     1      36.879 -20.481  42.824  1.00  0.00     0.157 HD
ENDBRANCH   6  24
BRANCH   1  27
HETATM   27  N1  UNL     1      35.264 -25.067  44.143  1.00  0.00    -0.234 N 
ATOM     28  H12 UNL     1      35.097 -26.066  44.020  1.00  0.00     0.174 HD
ATOM     29  H11 UNL     1      34.867 -24.593  44.954  1.00  0.00     0.174 HD
ENDBRANCH   1  27
TORSDOF 9
ENDMDL
MODEL 2
REMARK VINA RESULT: -7.156342035      1.975      4.893
REMARK  9 active torsions:
REMARK  status: ('A' for Active; 'I' for Inactive)
REMARK    1  A    between atoms: N1_1  and  C1_4 
REMARK    2  A    between atoms: C2_7  and  N3_8 
REMARK    3  A    between atoms: C3_11  and  C4_12 
REMARK    4  A    between atoms: C4_12  and  O3_13 
REMARK    5  A    between atoms: C4_12  and  C5_15 
REMARK    6  A    between atoms: C5_15  and  N4_16 
REMARK    7  A    between atoms: C5_15  and  O4_20 
REMARK    8  A    between atoms: O4_20  and  C6_21 
REMARK    9  A    between atoms: C7_24  and  N6_25 
ROOT
HETATM    1  C1  UNL     1      39.317 -19.866  40.946  1.00  0.00     0.679 A 
HETATM    2  N2  UNL     1      40.054 -20.747  40.266  1.00  0.00    -0.170 N 
ATOM      3  H2  UNL     1      40.794 -20.383  39.666  1.00  0.00     0.186 HD
HETATM    4  C2  UNL     1      39.887 -22.099  40.318  1.00  0.00     0.204 A 
HETATM    5  C3  UNL     1      38.864 -22.592  41.136  1.00  0.00     0.092 A 
HETATM    6  C7  UNL     1      38.132 -21.634  41.809  1.00  0.00     0.131 A 
HETATM    7  N7  UNL     1      38.352 -20.302  41.719  1.00  0.00    -0.176 N 
ATOM      8  H7  UNL     1      37.774 -19.646  42.245  1.00  0.00     0.186 HD
ENDROOT
BRANCH   5   9
HETATM    9  C4  UNL     1      38.505 -24.000  41.087  1.00  0.00     0.117 C 
BRANCH   9  10
HETATM   10  O3  UNL     1      38.301 -24.692  42.245  1.00  0.00    -0.359 OA
ATOM     11  H3  UNL     1      38.941 -25.330  42.536  1.00  0.00     0.217 HD
ENDBRANCH   9  10
BRANCH   9  12
HETATM   12  C5  UNL     1      37.857 -24.634  39.938  1.00  0.00     0.386 C 
BRANCH  12  13
HETATM   13  N4  UNL     1      38.124 -25.978  39.538  1.00  0.00    -0.046 N 
ATOM     14  H43 UNL     1      37.514 -26.188  38.747  1.00  0.00     0.277 HD
ATOM     15  H42 UNL     1      39.049 -25.991  39.108  1.00  0.00     0.277 HD
ATOM     16  H41 UNL     1      38.075 -26.769  40.180  1.00  0.00     0.277 HD
ENDBRANCH  12  13
BRANCH  12  17
HETATM   17  O4  UNL     1      36.433 -24.380  39.951  1.00  0.00    -0.266 OA
BRANCH  17  18
HETATM   18  C6  UNL     1      35.544 -25.448  40.222  1.00  0.00     0.375 C 
HETATM   19  N5  UNL     1      35.447 -25.956  41.539  1.00  0.00    -0.032 NA
HETATM   20  O5  UNL     1      34.853 -25.937  39.305  1.00  0.00    -0.242 OA
ENDBRANCH  17  18
ENDBRANCH  12  17
ENDBRANCH   9  12
ENDBRANCH   5   9
BRANCH   4  21
HETATM   21  N3  UNL     1      40.814 -22.813  39.573  1.00  0.00    -0.096 N 
HETATM   22  O1  UNL     1      40.812 -23.016  38.386  1.00  0.00    -0.530 OA
HETATM   23  O2  UNL     1      41.870 -23.461  40.242  1.00  0.00    -0.530 OA
ENDBRANCH   4  21
BRANCH   6  24
HETATM   24  N6  UNL     1      37.093 -21.965  42.513  1.00  0.00    -0.384 N 
ATOM     25  H62 UNL     1      37.047 -22.952  42.766  1.00  0.00     0.157 HD
ATOM     26  H61 UNL     1      36.434 -21.257  42.837  1.00  0.00     0.157 HD
ENDBRANCH   6  24
BRANCH   1  27
HETATM   27  N1  UNL     1      39.579 -18.577  40.839  1.00  0.00    -0.234 N 
ATOM     28  H12 UNL     1      40.081 -18.204  40.034  1.00  0.00     0.174 HD
ATOM     29  H11 UNL     1      39.266 -17.937  41.570  1.00  0.00     0.174 HD
ENDBRANCH   1  27
TORSDOF 9
ENDMDL
MODEL 3
REMARK VINA RESULT: -7.064455396      1.617      2.785
REMARK  9 active torsions:
REMARK  status: ('A' for Active; 'I' for Inactive)
REMARK    1  A    between atoms: N1_1  and  C1_4 
REMARK    2  A    between atoms: C2_7  and  N3_8 
REMARK    3  A    between atoms: C3_11  and  C4_12 
REMARK    4  A    between atoms: C4_12  and  O3_13 
REMARK    5  A    between atoms: C4_12  and  C5_15 
REMARK    6  A    between atoms: C5_15  and  N4_16 
REMARK    7  A    between atoms: C5_15  and  O4_20 
REMARK    8  A    between atoms: O4_20  and  C6_21 
REMARK    9  A    between atoms: C7_24  and  N6_25 
ROOT
HETATM    1  C1  UNL     1      35.584 -24.307  42.075  1.00  0.00     0.679 A 
HETATM    2  N2  UNL     1      35.914 -23.032  42.286  1.00  0.00    -0.170 N 
ATOM      3  H2  UNL     1      35.314 -22.483  42.903  1.00  0.00     0.186 HD
HETATM    4  C2  UNL     1      36.995 -22.411  41.737  1.00  0.00     0.204 A 
HETATM    5  C3  UNL     1      37.809 -23.166  40.883  1.00  0.00     0.092 A 
HETATM    6  C7  UNL     1      37.414 -24.477  40.698  1.00  0.00     0.131 A 
HETATM    7  N7  UNL     1      36.329 -25.037  41.280  1.00  0.00    -0.176 N 
ATOM      8  H7  UNL     1      36.093 -26.013  41.102  1.00  0.00     0.186 HD
ENDROOT
BRANCH   5   9
HETATM    9  C4  UNL     1      38.859 -22.519  40.114  1.00  0.00     0.117 C 
BRANCH   9  10
HETATM   10  O3  UNL     1      38.566 -21.440  39.333  1.00  0.00    -0.359 OA
ATOM     11  H3  UNL     1      38.559 -20.569  39.711  1.00  0.00     0.217 HD
ENDBRANCH   9  10
BRANCH   9  12
HETATM   12  C5  UNL     1      40.279 -22.584  40.464  1.00  0.00     0.386 C 
BRANCH  12  13
HETATM   13  N4  UNL     1      40.795 -23.468  41.460  1.00  0.00    -0.046 N 
ATOM     14  H43 UNL     1      40.017 -24.034  41.798  1.00  0.00     0.277 HD
ATOM     15  H42 UNL     1      41.377 -24.158  40.984  1.00  0.00     0.277 HD
ATOM     16  H41 UNL     1      41.314 -23.143  42.276  1.00  0.00     0.277 HD
ENDBRANCH  12  13
BRANCH  12  17
HETATM   17  O4  UNL     1      41.098 -22.626  39.273  1.00  0.00    -0.266 OA
BRANCH  17  18
HETATM   18  C6  UNL     1      41.590 -23.872  38.817  1.00  0.00     0.375 C 
HETATM   19  N5  UNL     1      40.793 -25.033  38.968  1.00  0.00    -0.032 NA
HETATM   20  O5  UNL     1      42.718 -23.946  38.288  1.00  0.00    -0.242 OA
ENDBRANCH  17  18
ENDBRANCH  12  17
ENDBRANCH   9  12
ENDBRANCH   5   9
BRANCH   4  21
HETATM   21  N3  UNL     1      37.168 -21.099  42.153  1.00  0.00    -0.096 N 
HETATM   22  O1  UNL     1      37.645 -20.706  43.186  1.00  0.00    -0.530 OA
HETATM   23  O2  UNL     1      36.680 -20.058  41.340  1.00  0.00    -0.530 OA
ENDBRANCH   4  21
BRANCH   6  24
HETATM   24  N6  UNL     1      38.029 -25.242  39.849  1.00  0.00    -0.384 N 
ATOM     25  H62 UNL     1      37.669 -25.197  38.896  1.00  0.00     0.157 HD
ATOM     26  H61 UNL     1      38.854 -25.774  40.127  1.00  0.00     0.157 HD
ENDBRANCH   6  24
BRANCH   1  27
HETATM   27  N1  UNL     1      34.525 -24.815  42.677  1.00  0.00    -0.234 N 
ATOM     28  H12 UNL     1      34.232 -24.488  43.598  1.00  0.00     0.174 HD
ATOM     29  H11 UNL     1      33.981 -25.542  42.212  1.00  0.00     0.174 HD
ENDBRANCH   1  27
TORSDOF 9
ENDMDL
MODEL 4
REMARK VINA RESULT: -7.044089758      1.895      3.090
REMARK  9 active torsions:
REMARK  status: ('A' for Active; 'I' for Inactive)
REMARK    1  A    between atoms: N1_1  and  C1_4 
REMARK    2  A    between atoms: C2_7  and  N3_8 
REMARK    3  A    between atoms: C3_11  and  C4_12 
REMARK    4  A    between atoms: C4_12  and  O3_13 
REMARK    5  A    between atoms: C4_12  and  C5_15 
REMARK    6  A    between atoms: C5_15  and  N4_16 
REMARK    7  A    between atoms: C5_15  and  O4_20 
REMARK    8  A    between atoms: O4_20  and  C6_21 
REMARK    9  A    between atoms: C7_24  and  N6_25 
ROOT
HETATM    1  C1  UNL     1      37.374 -20.750  41.552  1.00  0.00     0.679 A 
HETATM    2  N2  UNL     1      36.699 -21.900  41.597  1.00  0.00    -0.170 N 
ATOM      3  H2  UNL     1      35.694 -21.853  41.769  1.00  0.00     0.186 HD
HETATM    4  C2  UNL     1      37.255 -23.133  41.429  1.00  0.00     0.204 A 
HETATM    5  C3  UNL     1      38.636 -23.191  41.203  1.00  0.00     0.092 A 
HETATM    6  C7  UNL     1      39.283 -21.971  41.173  1.00  0.00     0.131 A 
HETATM    7  N7  UNL     1      38.669 -20.778  41.342  1.00  0.00    -0.176 N 
ATOM      8  H7  UNL     1      39.206 -19.911  41.307  1.00  0.00     0.186 HD
ENDROOT
BRANCH   5   9
HETATM    9  C4  UNL     1      39.323 -24.473  41.210  1.00  0.00     0.117 C 
BRANCH   9  10
HETATM   10  O3  UNL     1      39.453 -25.170  42.375  1.00  0.00    -0.359 OA
ATOM     11  H3  UNL     1      40.310 -25.274  42.772  1.00  0.00     0.217 HD
ENDBRANCH   9  10
BRANCH   9  12
HETATM   12  C5  UNL     1      39.454 -25.330  40.031  1.00  0.00     0.386 C 
BRANCH  12  13
HETATM   13  N4  UNL     1      38.349 -26.019  39.444  1.00  0.00    -0.046 N 
ATOM     14  H43 UNL     1      37.793 -25.330  38.939  1.00  0.00     0.277 HD
ATOM     15  H42 UNL     1      38.717 -26.598  38.688  1.00  0.00     0.277 HD
ATOM     16  H41 UNL     1      37.705 -26.597  39.983  1.00  0.00     0.277 HD
ENDBRANCH  12  13
BRANCH  12  17
HETATM   17  O4  UNL     1      40.248 -24.680  39.011  1.00  0.00    -0.266 OA
BRANCH  17  18
HETATM   18  C6  UNL     1      41.659 -24.759  39.082  1.00  0.00     0.375 C 
HETATM   19  N5  UNL     1      42.317 -25.916  38.600  1.00  0.00    -0.032 NA
HETATM   20  O5  UNL     1      42.316 -23.815  39.565  1.00  0.00    -0.242 OA
ENDBRANCH  17  18
ENDBRANCH  12  17
ENDBRANCH   9  12
ENDBRANCH   5   9
BRANCH   4  21
HETATM   21  N3  UNL     1      36.342 -24.176  41.456  1.00  0.00    -0.096 N 
HETATM   22  O1  UNL     1      36.162 -24.981  42.332  1.00  0.00    -0.530 OA
HETATM   23  O2  UNL     1      35.550 -24.415  40.316  1.00  0.00    -0.530 OA
ENDBRANCH   4  21
BRANCH   6  24
HETATM   24  N6  UNL     1      40.575 -21.907  41.076  1.00  0.00    -0.384 N 
ATOM     25  H62 UNL     1      40.924 -21.754  40.130  1.00  0.00     0.157 HD
ATOM     26  H61 UNL     1      41.163 -21.933  41.909  1.00  0.00     0.157 HD
ENDBRANCH   6  24
BRANCH   1  27
HETATM   27  N1  UNL     1      36.730 -19.608  41.706  1.00  0.00    -0.234 N 
ATOM     28  H12 UNL     1      35.717 -19.584  41.816  1.00  0.00     0.174 HD
ATOM     29  H11 UNL     1      37.254 -18.733  41.725  1.00  0.00     0.174 HD
ENDBRANCH   1  27
TORSDOF 9
ENDMDL
MODEL 5
REMARK VINA RESULT: -6.925022827      2.100      3.533
REMARK  9 active torsions:
REMARK  status: ('A' for Active; 'I' for Inactive)
REMARK    1  A    between atoms: N1_1  and  C1_4 
REMARK    2  A    between atoms: C2_7  and  N3_8 
REMARK    3  A    between atoms: C3_11  and  C4_12 
REMARK    4  A    between atoms: C4_12  and  O3_13 
REMARK    5  A    between atoms: C4_12  and  C5_15 
REMARK    6  A    between atoms: C5_15  and  N4_16 
REMARK    7  A    between atoms: C5_15  and  O4_20 
REMARK    8  A    between atoms: O4_20  and  C6_21 
REMARK    9  A    between atoms: C7_24  and  N6_25 
ROOT
HETATM    1  C1  UNL     1      36.205 -25.525  39.972  1.00  0.00     0.679 A 
HETATM    2  N2  UNL     1      37.421 -25.876  39.549  1.00  0.00    -0.170 N 
ATOM      3  H2  UNL     1      37.492 -26.675  38.919  1.00  0.00     0.186 HD
HETATM    4  C2  UNL     1      38.576 -25.242  39.899  1.00  0.00     0.204 A 
HETATM    5  C3  UNL     1      38.474 -24.152  40.772  1.00  0.00     0.092 A 
HETATM    6  C7  UNL     1      37.192 -23.840  41.181  1.00  0.00     0.131 A 
HETATM    7  N7  UNL     1      36.083 -24.508  40.791  1.00  0.00    -0.176 N 
ATOM      8  H7  UNL     1      35.163 -24.225  41.129  1.00  0.00     0.186 HD
ENDROOT
BRANCH   5   9
HETATM    9  C4  UNL     1      39.673 -23.555  41.338  1.00  0.00     0.117 C 
BRANCH   9  10
HETATM   10  O3  UNL     1      40.580 -24.336  41.993  1.00  0.00    -0.359 OA
ATOM     11  H3  UNL     1      41.496 -24.086  42.011  1.00  0.00     0.217 HD
ENDBRANCH   9  10
BRANCH   9  12
HETATM   12  C5  UNL     1      40.261 -22.303  40.858  1.00  0.00     0.386 C 
BRANCH  12  13
HETATM   13  N4  UNL     1      40.471 -22.023  39.473  1.00  0.00    -0.046 N 
ATOM     14  H43 UNL     1      41.124 -22.720  39.116  1.00  0.00     0.277 HD
ATOM     15  H42 UNL     1      39.609 -22.259  38.980  1.00  0.00     0.277 HD
ATOM     16  H41 UNL     1      40.778 -21.113  39.131  1.00  0.00     0.277 HD
ENDBRANCH  12  13
BRANCH  12  17
HETATM   17  O4  UNL     1      39.659 -21.168  41.521  1.00  0.00    -0.266 OA
BRANCH  17  18
HETATM   18  C6  UNL     1      38.979 -20.197  40.747  1.00  0.00     0.375 C 
HETATM   19  N5  UNL     1      39.555 -18.916  40.573  1.00  0.00    -0.032 NA
HETATM   20  O5  UNL     1      37.880 -20.471  40.224  1.00  0.00    -0.242 OA
ENDBRANCH  17  18
ENDBRANCH  12  17
ENDBRANCH   9  12
ENDBRANCH   5   9
BRANCH   4  21
HETATM   21  N3  UNL     1      39.710 -25.749  39.283  1.00  0.00    -0.096 N 
HETATM   22  O1  UNL     1      40.720 -25.162  38.992  1.00  0.00    -0.530 OA
HETATM   23  O2  UNL     1      39.712 -27.092  38.861  1.00  0.00    -0.530 OA
ENDBRANCH   4  21
BRANCH   6  24
HETATM   24  N6  UNL     1      36.985 -22.917  42.070  1.00  0.00    -0.384 N 
ATOM     25  H62 UNL     1      37.776 -22.735  42.687  1.00  0.00     0.157 HD
ATOM     26  H61 UNL     1      36.117 -22.382  42.074  1.00  0.00     0.157 HD
ENDBRANCH   6  24
BRANCH   1  27
HETATM   27  N1  UNL     1      35.150 -26.197  39.552  1.00  0.00    -0.234 N 
ATOM     28  H12 UNL     1      35.224 -27.172  39.264  1.00  0.00     0.174 HD
ATOM     29  H11 UNL     1      34.239 -25.737  39.523  1.00  0.00     0.174 HD
ENDBRANCH   1  27
TORSDOF 9
ENDMDL
