MODEL 1
REMARK VINA RESULT: -7.377209133      0.000      0.000
REMARK  10 active torsions:
REMARK  status: ('A' for Active; 'I' for Inactive)
REMARK    1  A    between atoms: C2_2  and  N1_3 
REMARK    2  A    between atoms: C2_2  and  C3_7 
REMARK    3  A    between atoms: C3_7  and  N2_8 
REMARK    4  A    between atoms: N2_8  and  N3_9 
REMARK    5  A    between atoms: N3_9  and  C4_11 
REMARK    6  A    between atoms: C4_11  and  N4_12 
REMARK    7  A    between atoms: C4_11  and  S1_17 
REMARK    8  A    between atoms: N4_12  and  N5_14 
REMARK    9  A    between atoms: S1_17  and  N6_18 
REMARK   10  A    between atoms: C5_23  and  N9_24 
ROOT
HETATM    1  C4  UNL     1      38.763 -22.606  40.783  1.00  0.00     0.193 C 
ENDROOT
BRANCH   1   2
HETATM    2  N3  UNL     1      38.462 -21.311  40.345  1.00  0.00    -0.281 N 
ATOM      3  H3  UNL     1      39.090 -20.856  39.682  1.00  0.00     0.184 HD
BRANCH   2   4
HETATM    4  N2  UNL     1      37.342 -20.626  40.780  1.00  0.00    -0.137 NA
BRANCH   4   5
HETATM    5  C3  UNL     1      37.708 -19.427  41.520  1.00  0.00     0.167 C 
BRANCH   5   6
HETATM    6  C2  UNL     1      39.179 -19.338  41.763  1.00  0.00     0.195 C 
HETATM    7  C1  UNL     1      39.397 -19.157  43.249  1.00  0.00     0.041 C 
BRANCH   6   8
HETATM    8  N1  UNL     1      39.747 -18.199  41.049  1.00  0.00    -0.074 N 
ATOM      9  H13 UNL     1      40.471 -17.725  41.591  1.00  0.00     0.274 HD
ATOM     10  H12 UNL     1      40.323 -18.487  40.257  1.00  0.00     0.274 HD
ATOM     11  H11 UNL     1      38.997 -17.566  40.771  1.00  0.00     0.274 HD
ENDBRANCH   6   8
ENDBRANCH   5   6
ENDBRANCH   4   5
ENDBRANCH   2   4
ENDBRANCH   1   2
BRANCH   1  12
HETATM   12  N4  UNL     1      40.020 -22.858  41.390  1.00  0.00    -0.284 N 
ATOM     13  H4  UNL     1      40.639 -22.074  41.595  1.00  0.00     0.188 HD
BRANCH  12  14
HETATM   14  N5  UNL     1      40.433 -24.160  41.714  1.00  0.00    -0.343 N 
ATOM     15  H52 UNL     1      39.949 -24.644  42.470  1.00  0.00     0.176 HD
ATOM     16  H51 UNL     1      41.194 -24.619  41.214  1.00  0.00     0.176 HD
ENDBRANCH  12  14
ENDBRANCH   1  12
BRANCH   1  17
HETATM   17  S1  UNL     1      37.701 -23.834  40.614  1.00  0.00     0.056 SA
BRANCH  17  18
HETATM   18  N6  UNL     1      36.796 -24.488  41.994  1.00  0.00    -0.154 N 
HETATM   19  N7  UNL     1      37.319 -24.528  43.218  1.00  0.00    -0.211 N 
HETATM   20  N8  UNL     1      36.613 -25.022  44.218  1.00  0.00    -0.117 N 
ATOM     21  H7  UNL     1      38.264 -24.179  43.383  1.00  0.00     0.210 HD
HETATM   22  C5  UNL     1      35.365 -25.503  44.089  1.00  0.00     0.695 A 
ATOM     23  H8  UNL     1      37.040 -25.041  45.144  1.00  0.00     0.207 HD
HETATM   24  N10 UNL     1      34.817 -25.471  42.862  1.00  0.00    -0.138 N 
HETATM   25  C6  UNL     1      35.537 -24.968  41.843  1.00  0.00     0.367 A 
ATOM     26  H10 UNL     1      33.872 -25.823  42.706  1.00  0.00     0.189 HD
HETATM   27  O1  UNL     1      35.069 -24.914  40.664  1.00  0.00    -0.243 OA
BRANCH  22  28
HETATM   28  N9  UNL     1      34.692 -25.987  45.103  1.00  0.00    -0.233 N 
ATOM     29  H92 UNL     1      34.918 -26.906  45.481  1.00  0.00     0.174 HD
ATOM     30  H91 UNL     1      33.929 -25.474  45.548  1.00  0.00     0.174 HD
ENDBRANCH  22  28
ENDBRANCH  17  18
ENDBRANCH   1  17
TORSDOF 10
ENDMDL
MODEL 2
REMARK VINA RESULT: -7.095308150      2.127      5.698
REMARK  10 active torsions:
REMARK  status: ('A' for Active; 'I' for Inactive)
REMARK    1  A    between atoms: C2_2  and  N1_3 
REMARK    2  A    between atoms: C2_2  and  C3_7 
REMARK    3  A    between atoms: C3_7  and  N2_8 
REMARK    4  A    between atoms: N2_8  and  N3_9 
REMARK    5  A    between atoms: N3_9  and  C4_11 
REMARK    6  A    between atoms: C4_11  and  N4_12 
REMARK    7  A    between atoms: C4_11  and  S1_17 
REMARK    8  A    between atoms: N4_12  and  N5_14 
REMARK    9  A    between atoms: S1_17  and  N6_18 
REMARK   10  A    between atoms: C5_23  and  N9_24 
ROOT
HETATM    1  C4  UNL     1      36.729 -24.038  42.574  1.00  0.00     0.193 C 
ENDROOT
BRANCH   1   2
HETATM    2  N3  UNL     1      37.496 -24.896  41.776  1.00  0.00    -0.281 N 
ATOM      3  H3  UNL     1      37.025 -25.627  41.243  1.00  0.00     0.184 HD
BRANCH   2   4
HETATM    4  N2  UNL     1      38.871 -24.787  41.687  1.00  0.00    -0.137 NA
BRANCH   4   5
HETATM    5  C3  UNL     1      39.319 -24.849  40.303  1.00  0.00     0.167 C 
BRANCH   5   6
HETATM    6  C2  UNL     1      40.664 -24.228  40.114  1.00  0.00     0.195 C 
HETATM    7  C1  UNL     1      41.541 -25.223  39.384  1.00  0.00     0.041 C 
BRANCH   6   8
HETATM    8  N1  UNL     1      41.266 -23.909  41.404  1.00  0.00    -0.074 N 
ATOM      9  H13 UNL     1      41.176 -24.674  42.072  1.00  0.00     0.274 HD
ATOM     10  H12 UNL     1      42.285 -23.875  41.357  1.00  0.00     0.274 HD
ATOM     11  H11 UNL     1      40.867 -23.039  41.757  1.00  0.00     0.274 HD
ENDBRANCH   6   8
ENDBRANCH   5   6
ENDBRANCH   4   5
ENDBRANCH   2   4
ENDBRANCH   1   2
BRANCH   1  12
HETATM   12  N4  UNL     1      36.336 -24.463  43.870  1.00  0.00    -0.284 N 
ATOM     13  H4  UNL     1      35.374 -24.314  44.172  1.00  0.00     0.188 HD
BRANCH  12  14
HETATM   14  N5  UNL     1      37.242 -25.084  44.745  1.00  0.00    -0.343 N 
ATOM     15  H52 UNL     1      38.239 -24.933  44.594  1.00  0.00     0.176 HD
ATOM     16  H51 UNL     1      36.922 -25.673  45.514  1.00  0.00     0.176 HD
ENDBRANCH  12  14
ENDBRANCH   1  12
BRANCH   1  17
HETATM   17  S1  UNL     1      36.276 -22.561  42.049  1.00  0.00     0.056 SA
BRANCH  17  18
HETATM   18  N6  UNL     1      37.457 -21.272  41.741  1.00  0.00    -0.154 N 
HETATM   19  N7  UNL     1      38.766 -21.518  41.702  1.00  0.00    -0.211 N 
HETATM   20  N8  UNL     1      39.611 -20.531  41.469  1.00  0.00    -0.117 N 
ATOM     21  H7  UNL     1      39.114 -22.465  41.852  1.00  0.00     0.210 HD
HETATM   22  C5  UNL     1      39.240 -19.258  41.261  1.00  0.00     0.695 A 
ATOM     23  H8  UNL     1      40.607 -20.749  41.445  1.00  0.00     0.207 HD
HETATM   24  N10 UNL     1      37.923 -18.988  41.295  1.00  0.00    -0.138 N 
HETATM   25  C6  UNL     1      37.061 -19.992  41.533  1.00  0.00     0.367 A 
ATOM     26  H10 UNL     1      37.584 -18.038  41.144  1.00  0.00     0.189 HD
HETATM   27  O1  UNL     1      35.807 -19.795  41.577  1.00  0.00    -0.243 OA
BRANCH  22  28
HETATM   28  N9  UNL     1      40.106 -18.302  41.032  1.00  0.00    -0.233 N 
ATOM     29  H92 UNL     1      41.090 -18.431  41.265  1.00  0.00     0.174 HD
ATOM     30  H91 UNL     1      39.838 -17.408  40.621  1.00  0.00     0.174 HD
ENDBRANCH  22  28
ENDBRANCH  17  18
ENDBRANCH   1  17
TORSDOF 10
ENDMDL
MODEL 3
REMARK VINA RESULT: -7.080422307      2.059      3.756
REMARK  10 active torsions:
REMARK  status: ('A' for Active; 'I' for Inactive)
REMARK    1  A    between atoms: C2_2  and  N1_3 
REMARK    2  A    between atoms: C2_2  and  C3_7 
REMARK    3  A    between atoms: C3_7  and  N2_8 
REMARK    4  A    between atoms: N2_8  and  N3_9 
REMARK    5  A    between atoms: N3_9  and  C4_11 
REMARK    6  A    between atoms: C4_11  and  N4_12 
REMARK    7  A    between atoms: C4_11  and  S1_17 
REMARK    8  A    between atoms: N4_12  and  N5_14 
REMARK    9  A    between atoms: S1_17  and  N6_18 
REMARK   10  A    between atoms: C5_23  and  N9_24 
ROOT
HETATM    1  C4  UNL     1      38.825 -20.023  42.229  1.00  0.00     0.193 C 
ENDROOT
BRANCH   1   2
HETATM    2  N3  UNL     1      39.827 -20.945  41.900  1.00  0.00    -0.281 N 
ATOM      3  H3  UNL     1      40.295 -21.454  42.651  1.00  0.00     0.184 HD
BRANCH   2   4
HETATM    4  N2  UNL     1      40.205 -21.190  40.593  1.00  0.00    -0.137 NA
BRANCH   4   5
HETATM    5  C3  UNL     1      39.877 -22.551  40.192  1.00  0.00     0.167 C 
BRANCH   5   6
HETATM    6  C2  UNL     1      40.483 -23.571  41.100  1.00  0.00     0.195 C 
HETATM    7  C1  UNL     1      41.415 -24.434  40.278  1.00  0.00     0.041 C 
BRANCH   6   8
HETATM    8  N1  UNL     1      39.446 -24.408  41.694  1.00  0.00    -0.074 N 
ATOM      9  H13 UNL     1      38.555 -23.917  41.780  1.00  0.00     0.274 HD
ATOM     10  H12 UNL     1      39.142 -25.151  41.064  1.00  0.00     0.274 HD
ATOM     11  H11 UNL     1      39.776 -24.770  42.588  1.00  0.00     0.274 HD
ENDBRANCH   6   8
ENDBRANCH   5   6
ENDBRANCH   4   5
ENDBRANCH   2   4
ENDBRANCH   1   2
BRANCH   1  12
HETATM   12  N4  UNL     1      38.962 -18.674  41.811  1.00  0.00    -0.284 N 
ATOM     13  H4  UNL     1      38.340 -17.967  42.202  1.00  0.00     0.188 HD
BRANCH  12  14
HETATM   14  N5  UNL     1      39.933 -18.290  40.873  1.00  0.00    -0.343 N 
ATOM     15  H52 UNL     1      39.634 -18.116  39.913  1.00  0.00     0.176 HD
ATOM     16  H51 UNL     1      40.914 -18.185  41.132  1.00  0.00     0.176 HD
ENDBRANCH  12  14
ENDBRANCH   1  12
BRANCH   1  17
HETATM   17  S1  UNL     1      37.505 -20.464  43.079  1.00  0.00     0.056 SA
BRANCH  17  18
HETATM   18  N6  UNL     1      36.804 -22.091  42.948  1.00  0.00    -0.154 N 
HETATM   19  N7  UNL     1      36.716 -22.900  44.003  1.00  0.00    -0.211 N 
HETATM   20  N8  UNL     1      36.188 -24.102  43.864  1.00  0.00    -0.117 N 
ATOM     21  H7  UNL     1      37.055 -22.593  44.914  1.00  0.00     0.210 HD
HETATM   22  C5  UNL     1      35.717 -24.585  42.703  1.00  0.00     0.695 A 
ATOM     23  H8  UNL     1      36.133 -24.700  44.689  1.00  0.00     0.207 HD
HETATM   24  N10 UNL     1      35.796 -23.784  41.626  1.00  0.00    -0.138 N 
HETATM   25  C6  UNL     1      36.335 -22.560  41.766  1.00  0.00     0.367 A 
ATOM     26  H10 UNL     1      35.454 -24.100  40.718  1.00  0.00     0.189 HD
HETATM   27  O1  UNL     1      36.434 -21.762  40.783  1.00  0.00    -0.243 OA
BRANCH  22  28
HETATM   28  N9  UNL     1      35.199 -25.784  42.600  1.00  0.00    -0.233 N 
ATOM     29  H92 UNL     1      35.192 -26.413  43.403  1.00  0.00     0.174 HD
ATOM     30  H91 UNL     1      34.789 -26.130  41.732  1.00  0.00     0.174 HD
ENDBRANCH  22  28
ENDBRANCH  17  18
ENDBRANCH   1  17
TORSDOF 10
ENDMDL
MODEL 4
REMARK VINA RESULT: -7.006885168      1.784      3.518
REMARK  10 active torsions:
REMARK  status: ('A' for Active; 'I' for Inactive)
REMARK    1  A    between atoms: C2_2  and  N1_3 
REMARK    2  A    between atoms: C2_2  and  C3_7 
REMARK    3  A    between atoms: C3_7  and  N2_8 
REMARK    4  A    between atoms: N2_8  and  N3_9 
REMARK    5  A    between atoms: N3_9  and  C4_11 
REMARK    6  A    between atoms: C4_11  and  N4_12 
REMARK    7  A    between atoms: C4_11  and  S1_17 
REMARK    8  A    between atoms: N4_12  and  N5_14 
REMARK    9  A    between atoms: S1_17  and  N6_18 
REMARK   10  A    between atoms: C5_23  and  N9_24 
ROOT
HETATM    1  C4  UNL     1      38.642 -20.893  41.742  1.00  0.00     0.193 C 
ENDROOT
BRANCH   1   2
HETATM    2  N3  UNL     1      39.763 -21.715  41.567  1.00  0.00    -0.281 N 
ATOM      3  H3  UNL     1      40.002 -22.385  42.298  1.00  0.00     0.184 HD
BRANCH   2   4
HETATM    4  N2  UNL     1      40.558 -21.648  40.438  1.00  0.00    -0.137 NA
BRANCH   4   5
HETATM    5  C3  UNL     1      40.193 -22.675  39.472  1.00  0.00     0.167 C 
BRANCH   5   6
HETATM    6  C2  UNL     1      40.059 -24.023  40.101  1.00  0.00     0.195 C 
HETATM    7  C1  UNL     1      41.153 -24.909  39.546  1.00  0.00     0.041 C 
BRANCH   6   8
HETATM    8  N1  UNL     1      38.759 -24.606  39.787  1.00  0.00    -0.074 N 
ATOM      9  H13 UNL     1      38.837 -25.567  39.454  1.00  0.00     0.274 HD
ATOM     10  H12 UNL     1      38.204 -24.787  40.625  1.00  0.00     0.274 HD
ATOM     11  H11 UNL     1      38.271 -24.005  39.123  1.00  0.00     0.274 HD
ENDBRANCH   6   8
ENDBRANCH   5   6
ENDBRANCH   4   5
ENDBRANCH   2   4
ENDBRANCH   1   2
BRANCH   1  12
HETATM   12  N4  UNL     1      38.828 -19.544  42.139  1.00  0.00    -0.284 N 
ATOM     13  H4  UNL     1      38.507 -19.247  43.060  1.00  0.00     0.188 HD
BRANCH  12  14
HETATM   14  N5  UNL     1      39.443 -18.607  41.293  1.00  0.00    -0.343 N 
ATOM     15  H52 UNL     1      40.222 -18.920  40.713  1.00  0.00     0.176 HD
ATOM     16  H51 UNL     1      39.128 -17.638  41.251  1.00  0.00     0.176 HD
ENDBRANCH  12  14
ENDBRANCH   1  12
BRANCH   1  17
HETATM   17  S1  UNL     1      37.129 -21.451  41.500  1.00  0.00     0.056 SA
BRANCH  17  18
HETATM   18  N6  UNL     1      36.522 -22.906  42.318  1.00  0.00    -0.154 N 
HETATM   19  N7  UNL     1      36.656 -23.076  43.632  1.00  0.00    -0.211 N 
HETATM   20  N8  UNL     1      36.191 -24.172  44.202  1.00  0.00    -0.117 N 
ATOM     21  H7  UNL     1      37.118 -22.362  44.196  1.00  0.00     0.210 HD
HETATM   22  C5  UNL     1      35.572 -25.160  43.536  1.00  0.00     0.695 A 
ATOM     23  H8  UNL     1      36.308 -24.275  45.210  1.00  0.00     0.207 HD
HETATM   24  N10 UNL     1      35.425 -25.008  42.208  1.00  0.00    -0.138 N 
HETATM   25  C6  UNL     1      35.900 -23.892  41.626  1.00  0.00     0.367 A 
ATOM     26  H10 UNL     1      34.963 -25.726  41.651  1.00  0.00     0.189 HD
HETATM   27  O1  UNL     1      35.789 -23.696  40.376  1.00  0.00    -0.243 OA
BRANCH  22  28
HETATM   28  N9  UNL     1      35.122 -26.235  44.133  1.00  0.00    -0.233 N 
ATOM     29  H92 UNL     1      35.202 -26.335  45.145  1.00  0.00     0.174 HD
ATOM     30  H91 UNL     1      34.681 -27.000  43.622  1.00  0.00     0.174 HD
ENDBRANCH  22  28
ENDBRANCH  17  18
ENDBRANCH   1  17
TORSDOF 10
ENDMDL
MODEL 5
REMARK VINA RESULT: -6.991382269      2.199      4.664
REMARK  10 active torsions:
REMARK  status: ('A' for Active; 'I' for Inactive)
REMARK    1  A    between atoms: C2_2  and  N1_3 
REMARK    2  A    between atoms: C2_2  and  C3_7 
REMARK    3  A    between atoms: C3_7  and  N2_8 
REMARK    4  A    between atoms: N2_8  and  N3_9 
REMARK    5  A    between atoms: N3_9  and  C4_11 
REMARK    6  A    between atoms: C4_11  and  N4_12 
REMARK    7  A    between atoms: C4_11  and  S1_17 
REMARK    8  A    between atoms: N4_12  and  N5_14 
REMARK    9  A    between atoms: S1_17  and  N6_18 
REMARK   10  A    between atoms: C5_23  and  N9_24 
ROOT
HETATM    1  C4  UNL     1      36.832 -22.898  42.046  1.00  0.00     0.193 C 
ENDROOT
BRANCH   1   2
HETATM    2  N3  UNL     1      36.518 -21.656  41.481  1.00  0.00    -0.281 N 
ATOM      3  H3  UNL     1      35.567 -21.299  41.573  1.00  0.00     0.184 HD
BRANCH   2   4
HETATM    4  N2  UNL     1      37.453 -20.896  40.803  1.00  0.00    -0.137 NA
BRANCH   4   5
HETATM    5  C3  UNL     1      37.733 -19.651  41.504  1.00  0.00     0.167 C 
BRANCH   5   6
HETATM    6  C2  UNL     1      39.191 -19.464  41.769  1.00  0.00     0.195 C 
HETATM    7  C1  UNL     1      39.367 -19.188  43.246  1.00  0.00     0.041 C 
BRANCH   6   8
HETATM    8  N1  UNL     1      39.711 -18.337  41.001  1.00  0.00    -0.074 N 
ATOM      9  H13 UNL     1      39.352 -17.443  41.336  1.00  0.00     0.274 HD
ATOM     10  H12 UNL     1      40.702 -18.173  41.178  1.00  0.00     0.274 HD
ATOM     11  H11 UNL     1      39.515 -18.485  40.010  1.00  0.00     0.274 HD
ENDBRANCH   6   8
ENDBRANCH   5   6
ENDBRANCH   4   5
ENDBRANCH   2   4
ENDBRANCH   1   2
BRANCH   1  12
HETATM   12  N4  UNL     1      36.637 -23.096  43.438  1.00  0.00    -0.284 N 
ATOM     13  H4  UNL     1      36.538 -22.284  44.046  1.00  0.00     0.188 HD
BRANCH  12  14
HETATM   14  N5  UNL     1      36.578 -24.382  43.996  1.00  0.00    -0.343 N 
ATOM     15  H52 UNL     1      36.104 -25.115  43.469  1.00  0.00     0.176 HD
ATOM     16  H51 UNL     1      36.995 -24.590  44.904  1.00  0.00     0.176 HD
ENDBRANCH  12  14
ENDBRANCH   1  12
BRANCH   1  17
HETATM   17  S1  UNL     1      37.415 -24.125  41.142  1.00  0.00     0.056 SA
BRANCH  17  18
HETATM   18  N6  UNL     1      38.922 -23.973  40.216  1.00  0.00    -0.154 N 
HETATM   19  N7  UNL     1      39.260 -22.835  39.611  1.00  0.00    -0.211 N 
HETATM   20  N8  UNL     1      40.390 -22.763  38.932  1.00  0.00    -0.117 N 
ATOM     21  H7  UNL     1      38.647 -22.021  39.672  1.00  0.00     0.210 HD
HETATM   22  C5  UNL     1      41.253 -23.783  38.801  1.00  0.00     0.695 A 
ATOM     23  H8  UNL     1      40.622 -21.879  38.480  1.00  0.00     0.207 HD
HETATM   24  N10 UNL     1      40.932 -24.942  39.404  1.00  0.00    -0.138 N 
HETATM   25  C6  UNL     1      39.781 -25.016  40.096  1.00  0.00     0.367 A 
ATOM     26  H10 UNL     1      41.550 -25.750  39.339  1.00  0.00     0.189 HD
HETATM   27  O1  UNL     1      39.428 -26.084  40.685  1.00  0.00    -0.243 OA
BRANCH  22  28
HETATM   28  N9  UNL     1      42.366 -23.678  38.120  1.00  0.00    -0.233 N 
ATOM     29  H92 UNL     1      42.403 -23.107  37.276  1.00  0.00     0.174 HD
ATOM     30  H91 UNL     1      43.226 -24.153  38.399  1.00  0.00     0.174 HD
ENDBRANCH  22  28
ENDBRANCH  17  18
ENDBRANCH   1  17
TORSDOF 10
ENDMDL
