MODEL 1
REMARK VINA RESULT: -8.061731097      0.000      0.000
REMARK  6 active torsions:
REMARK  status: ('A' for Active; 'I' for Inactive)
REMARK    1  A    between atoms: N1_1  and  C1_4 
REMARK    2  A    between atoms: C3_9  and  C4_10 
REMARK       I    between atoms: C4_10  and  N4_12 
REMARK       I    between atoms: N4_12  and  C5_14 
REMARK    3  A    between atoms: C5_14  and  C6_16 
REMARK    4  A    between atoms: C6_16  and  O3_17 
REMARK    5  A    between atoms: C6_16  and  O4_19 
REMARK    6  A    between atoms: C7_23  and  C8_24 
ROOT
HETATM    1  C1  UNL     1      37.647 -21.039  41.607  1.00  0.00     0.132 A 
HETATM    2  N2  UNL     1      37.278 -22.308  41.356  1.00  0.00    -0.327 N 
ATOM      3  H2  UNL     1      36.295 -22.579  41.379  1.00  0.00     0.168 HD
HETATM    4  C2  UNL     1      38.246 -23.225  41.069  1.00  0.00     0.150 A 
HETATM    5  N3  UNL     1      37.840 -24.567  40.804  1.00  0.00    -0.080 NA
HETATM    6  C3  UNL     1      39.555 -22.834  41.045  1.00  0.00     0.143 A 
HETATM    7  N5  UNL     1      39.877 -21.566  41.300  1.00  0.00    -0.342 N 
ATOM      8  H5  UNL     1      40.860 -21.297  41.276  1.00  0.00     0.166 HD
HETATM    9  C7  UNL     1      38.965 -20.634  41.586  1.00  0.00     0.142 A 
ENDROOT
BRANCH   6  10
HETATM   10  C4  UNL     1      40.585 -23.791  40.744  1.00  0.00     0.278 C 
HETATM   11  O1  UNL     1      41.196 -24.378  41.673  1.00  0.00    -0.265 OA
HETATM   12  N4  UNL     1      40.901 -24.058  39.373  1.00  0.00    -0.288 N 
HETATM   13  C5  UNL     1      41.913 -24.999  39.096  1.00  0.00     0.279 C 
ATOM     14  H4  UNL     1      40.406 -23.582  38.618  1.00  0.00     0.172 HD
HETATM   15  O2  UNL     1      42.500 -25.565  40.037  1.00  0.00    -0.268 OA
BRANCH  13  16
HETATM   16  C6  UNL     1      42.263 -25.300  37.694  1.00  0.00     0.349 C 
BRANCH  16  17
HETATM   17  O3  UNL     1      42.940 -26.506  37.648  1.00  0.00    -0.363 OA
ATOM     18  H3  UNL     1      43.863 -26.337  37.506  1.00  0.00     0.213 HD
ENDBRANCH  16  17
BRANCH  16  19
HETATM   19  O4  UNL     1      43.093 -24.283  37.228  1.00  0.00    -0.363 OA
ATOM     20  H4  UNL     1      43.993 -24.579  37.302  1.00  0.00     0.213 HD
ENDBRANCH  16  19
ENDBRANCH  13  16
ENDBRANCH   6  10
BRANCH   9  21
HETATM   21  C8  UNL     1      39.375 -19.264  41.857  1.00  0.00     0.285 C 
HETATM   22  N6  UNL     1      39.669 -18.368  40.778  1.00  0.00    -0.056 NA
HETATM   23  O5  UNL     1      39.468 -18.880  43.050  1.00  0.00    -0.269 OA
ENDBRANCH   9  21
BRANCH   1  24
HETATM   24  N1  UNL     1      36.755 -20.142  41.883  1.00  0.00    -0.383 N 
ATOM     25  H12 UNL     1      36.154 -19.829  41.120  1.00  0.00     0.157 HD
ATOM     26  H11 UNL     1      36.671 -19.774  42.831  1.00  0.00     0.157 HD
ENDBRANCH   1  24
TORSDOF 6
ENDMDL
MODEL 2
REMARK VINA RESULT: -7.935841489      3.357      6.527
REMARK  6 active torsions:
REMARK  status: ('A' for Active; 'I' for Inactive)
REMARK    1  A    between atoms: N1_1  and  C1_4 
REMARK    2  A    between atoms: C3_9  and  C4_10 
REMARK       I    between atoms: C4_10  and  N4_12 
REMARK       I    between atoms: N4_12  and  C5_14 
REMARK    3  A    between atoms: C5_14  and  C6_16 
REMARK    4  A    between atoms: C6_16  and  O3_17 
REMARK    5  A    between atoms: C6_16  and  O4_19 
REMARK    6  A    between atoms: C7_23  and  C8_24 
ROOT
HETATM    1  C1  UNL     1      40.672 -23.355  39.183  1.00  0.00     0.132 A 
HETATM    2  N2  UNL     1      39.896 -22.307  39.511  1.00  0.00    -0.327 N 
ATOM      3  H2  UNL     1      40.187 -21.354  39.290  1.00  0.00     0.168 HD
HETATM    4  C2  UNL     1      38.712 -22.542  40.146  1.00  0.00     0.150 A 
HETATM    5  N3  UNL     1      37.900 -21.420  40.489  1.00  0.00    -0.080 NA
HETATM    6  C3  UNL     1      38.349 -23.829  40.431  1.00  0.00     0.143 A 
HETATM    7  N5  UNL     1      39.148 -24.839  40.088  1.00  0.00    -0.342 N 
ATOM      8  H5  UNL     1      38.855 -25.791  40.310  1.00  0.00     0.166 HD
HETATM    9  C7  UNL     1      40.315 -24.656  39.465  1.00  0.00     0.142 A 
ENDROOT
BRANCH   6  10
HETATM   10  C4  UNL     1      37.104 -24.092  41.100  1.00  0.00     0.278 C 
HETATM   11  O1  UNL     1      36.017 -23.994  40.476  1.00  0.00    -0.265 OA
HETATM   12  N4  UNL     1      37.127 -24.464  42.482  1.00  0.00    -0.288 N 
HETATM   13  C5  UNL     1      35.897 -24.718  43.123  1.00  0.00     0.279 C 
ATOM     14  H4  UNL     1      38.008 -24.543  42.990  1.00  0.00     0.172 HD
HETATM   15  O2  UNL     1      34.836 -24.613  42.479  1.00  0.00    -0.268 OA
BRANCH  13  16
HETATM   16  C6  UNL     1      35.884 -25.104  44.547  1.00  0.00     0.349 C 
BRANCH  16  17
HETATM   17  O3  UNL     1      37.177 -25.384  44.949  1.00  0.00    -0.363 OA
ATOM     18  H3  UNL     1      37.437 -24.759  45.616  1.00  0.00     0.213 HD
ENDBRANCH  16  17
BRANCH  16  19
HETATM   19  O4  UNL     1      35.099 -26.247  44.678  1.00  0.00    -0.363 OA
ATOM     20  H4  UNL     1      35.010 -26.439  45.604  1.00  0.00     0.213 HD
ENDBRANCH  16  19
ENDBRANCH  13  16
ENDBRANCH   6  10
BRANCH   9  21
HETATM   21  C8  UNL     1      41.146 -25.799  39.115  1.00  0.00     0.285 C 
HETATM   22  N6  UNL     1      40.589 -26.911  38.404  1.00  0.00    -0.056 NA
HETATM   23  O5  UNL     1      42.358 -25.793  39.444  1.00  0.00    -0.269 OA
ENDBRANCH   9  21
BRANCH   1  24
HETATM   24  N1  UNL     1      41.802 -23.167  38.580  1.00  0.00    -0.383 N 
ATOM     25  H12 UNL     1      42.297 -22.297  38.774  1.00  0.00     0.157 HD
ATOM     26  H11 UNL     1      42.166 -23.872  37.938  1.00  0.00     0.157 HD
ENDBRANCH   1  24
TORSDOF 6
ENDMDL
MODEL 3
REMARK VINA RESULT: -7.870374964      2.377      6.472
REMARK  6 active torsions:
REMARK  status: ('A' for Active; 'I' for Inactive)
REMARK    1  A    between atoms: N1_1  and  C1_4 
REMARK    2  A    between atoms: C3_9  and  C4_10 
REMARK       I    between atoms: C4_10  and  N4_12 
REMARK       I    between atoms: N4_12  and  C5_14 
REMARK    3  A    between atoms: C5_14  and  C6_16 
REMARK    4  A    between atoms: C6_16  and  O3_17 
REMARK    5  A    between atoms: C6_16  and  O4_19 
REMARK    6  A    between atoms: C7_23  and  C8_24 
ROOT
HETATM    1  C1  UNL     1      41.657 -25.974  38.623  1.00  0.00     0.132 A 
HETATM    2  N2  UNL     1      40.906 -26.004  39.738  1.00  0.00    -0.327 N 
ATOM      3  H2  UNL     1      40.723 -26.885  40.219  1.00  0.00     0.168 HD
HETATM    4  C2  UNL     1      40.393 -24.833  40.214  1.00  0.00     0.150 A 
HETATM    5  N3  UNL     1      39.598 -24.880  41.398  1.00  0.00    -0.080 NA
HETATM    6  C3  UNL     1      40.653 -23.667  39.548  1.00  0.00     0.143 A 
HETATM    7  N5  UNL     1      41.403 -23.683  38.446  1.00  0.00    -0.342 N 
ATOM      8  H5  UNL     1      41.585 -22.801  37.967  1.00  0.00     0.166 HD
HETATM    9  C7  UNL     1      41.926 -24.804  37.944  1.00  0.00     0.142 A 
ENDROOT
BRANCH   6  10
HETATM   10  C4  UNL     1      40.119 -22.426  40.038  1.00  0.00     0.278 C 
HETATM   11  O1  UNL     1      40.805 -21.374  39.979  1.00  0.00    -0.265 OA
HETATM   12  N4  UNL     1      38.799 -22.412  40.592  1.00  0.00    -0.288 N 
HETATM   13  C5  UNL     1      38.291 -21.186  41.068  1.00  0.00     0.279 C 
ATOM     14  H4  UNL     1      38.241 -23.265  40.640  1.00  0.00     0.172 HD
HETATM   15  O2  UNL     1      38.993 -20.160  40.996  1.00  0.00    -0.268 OA
BRANCH  13  16
HETATM   16  C6  UNL     1      36.933 -21.136  41.644  1.00  0.00     0.349 C 
BRANCH  16  17
HETATM   17  O3  UNL     1      36.123 -22.031  40.968  1.00  0.00    -0.363 OA
ATOM     18  H3  UNL     1      35.680 -21.576  40.262  1.00  0.00     0.213 HD
ENDBRANCH  16  17
BRANCH  16  19
HETATM   19  O4  UNL     1      36.439 -19.844  41.475  1.00  0.00    -0.363 OA
ATOM     20  H4  UNL     1      35.587 -19.798  41.893  1.00  0.00     0.213 HD
ENDBRANCH  16  19
ENDBRANCH  13  16
ENDBRANCH   6  10
BRANCH   9  21
HETATM   21  C8  UNL     1      42.737 -24.759  36.737  1.00  0.00     0.285 C 
HETATM   22  N6  UNL     1      42.304 -25.428  35.546  1.00  0.00    -0.056 NA
HETATM   23  O5  UNL     1      43.821 -24.124  36.755  1.00  0.00    -0.269 OA
ENDBRANCH   9  21
BRANCH   1  24
HETATM   24  N1  UNL     1      42.160 -27.066  38.145  1.00  0.00    -0.383 N 
ATOM     25  H12 UNL     1      42.472 -27.052  37.174  1.00  0.00     0.157 HD
ATOM     26  H11 UNL     1      42.231 -27.899  38.729  1.00  0.00     0.157 HD
ENDBRANCH   1  24
TORSDOF 6
ENDMDL
MODEL 4
REMARK VINA RESULT: -7.719341459      2.223      6.517
REMARK  6 active torsions:
REMARK  status: ('A' for Active; 'I' for Inactive)
REMARK    1  A    between atoms: N1_1  and  C1_4 
REMARK    2  A    between atoms: C3_9  and  C4_10 
REMARK       I    between atoms: C4_10  and  N4_12 
REMARK       I    between atoms: N4_12  and  C5_14 
REMARK    3  A    between atoms: C5_14  and  C6_16 
REMARK    4  A    between atoms: C6_16  and  O3_17 
REMARK    5  A    between atoms: C6_16  and  O4_19 
REMARK    6  A    between atoms: C7_23  and  C8_24 
ROOT
HETATM    1  C1  UNL     1      41.778 -25.792  38.770  1.00  0.00     0.132 A 
HETATM    2  N2  UNL     1      40.999 -25.781  39.867  1.00  0.00    -0.327 N 
ATOM      3  H2  UNL     1      40.921 -26.609  40.458  1.00  0.00     0.168 HD
HETATM    4  C2  UNL     1      40.317 -24.641  40.173  1.00  0.00     0.150 A 
HETATM    5  N3  UNL     1      39.495 -24.644  41.340  1.00  0.00    -0.080 NA
HETATM    6  C3  UNL     1      40.439 -23.547  39.363  1.00  0.00     0.143 A 
HETATM    7  N5  UNL     1      41.222 -23.601  38.285  1.00  0.00    -0.342 N 
ATOM      8  H5  UNL     1      41.299 -22.772  37.695  1.00  0.00     0.166 HD
HETATM    9  C7  UNL     1      41.909 -24.694  37.945  1.00  0.00     0.142 A 
ENDROOT
BRANCH   6  10
HETATM   10  C4  UNL     1      39.725 -22.338  39.674  1.00  0.00     0.278 C 
HETATM   11  O1  UNL     1      38.926 -21.843  38.840  1.00  0.00    -0.265 OA
HETATM   12  N4  UNL     1      39.943 -21.715  40.944  1.00  0.00    -0.288 N 
HETATM   13  C5  UNL     1      39.235 -20.531  41.233  1.00  0.00     0.279 C 
ATOM     14  H4  UNL     1      40.591 -22.116  41.622  1.00  0.00     0.172 HD
HETATM   15  O2  UNL     1      38.449 -20.063  40.387  1.00  0.00    -0.268 OA
BRANCH  13  16
HETATM   16  C6  UNL     1      39.434 -19.862  42.533  1.00  0.00     0.349 C 
BRANCH  16  17
HETATM   17  O3  UNL     1      38.349 -20.130  43.348  1.00  0.00    -0.363 OA
ATOM     18  H3  UNL     1      37.605 -19.620  43.051  1.00  0.00     0.213 HD
ENDBRANCH  16  17
BRANCH  16  19
HETATM   19  O4  UNL     1      39.517 -18.490  42.306  1.00  0.00    -0.363 OA
ATOM     20  H4  UNL     1      40.080 -18.349  41.554  1.00  0.00     0.213 HD
ENDBRANCH  16  19
ENDBRANCH  13  16
ENDBRANCH   6  10
BRANCH   9  21
HETATM   21  C8  UNL     1      42.748 -24.694  36.756  1.00  0.00     0.285 C 
HETATM   22  N6  UNL     1      42.339 -25.402  35.579  1.00  0.00    -0.056 NA
HETATM   23  O5  UNL     1      43.834 -24.063  36.778  1.00  0.00    -0.269 OA
ENDBRANCH   9  21
BRANCH   1  24
HETATM   24  N1  UNL     1      42.440 -26.857  38.449  1.00  0.00    -0.383 N 
ATOM     25  H12 UNL     1      43.438 -26.750  38.268  1.00  0.00     0.157 HD
ATOM     26  H11 UNL     1      41.965 -27.758  38.385  1.00  0.00     0.157 HD
ENDBRANCH   1  24
TORSDOF 6
ENDMDL
MODEL 5
REMARK VINA RESULT: -7.617708988      1.831      6.289
REMARK  6 active torsions:
REMARK  status: ('A' for Active; 'I' for Inactive)
REMARK    1  A    between atoms: N1_1  and  C1_4 
REMARK    2  A    between atoms: C3_9  and  C4_10 
REMARK       I    between atoms: C4_10  and  N4_12 
REMARK       I    between atoms: N4_12  and  C5_14 
REMARK    3  A    between atoms: C5_14  and  C6_16 
REMARK    4  A    between atoms: C6_16  and  O3_17 
REMARK    5  A    between atoms: C6_16  and  O4_19 
REMARK    6  A    between atoms: C7_23  and  C8_24 
ROOT
HETATM    1  C1  UNL     1      39.164 -25.386  39.897  1.00  0.00     0.132 A 
HETATM    2  N2  UNL     1      37.921 -25.007  40.245  1.00  0.00    -0.327 N 
ATOM      3  H2  UNL     1      37.162 -25.687  40.287  1.00  0.00     0.168 HD
HETATM    4  C2  UNL     1      37.696 -23.695  40.541  1.00  0.00     0.150 A 
HETATM    5  N3  UNL     1      36.373 -23.307  40.909  1.00  0.00    -0.080 NA
HETATM    6  C3  UNL     1      38.732 -22.805  40.475  1.00  0.00     0.143 A 
HETATM    7  N5  UNL     1      39.948 -23.224  40.125  1.00  0.00    -0.342 N 
ATOM      8  H5  UNL     1      40.706 -22.542  40.084  1.00  0.00     0.166 HD
HETATM    9  C7  UNL     1      40.216 -24.497  39.827  1.00  0.00     0.142 A 
ENDROOT
BRANCH   6  10
HETATM   10  C4  UNL     1      38.509 -21.419  40.784  1.00  0.00     0.278 C 
HETATM   11  O1  UNL     1      38.314 -20.588  39.861  1.00  0.00    -0.265 OA
HETATM   12  N4  UNL     1      38.516 -21.006  42.155  1.00  0.00    -0.288 N 
HETATM   13  C5  UNL     1      38.296 -19.644  42.440  1.00  0.00     0.279 C 
ATOM     14  H4  UNL     1      38.675 -21.680  42.905  1.00  0.00     0.172 HD
HETATM   15  O2  UNL     1      38.104 -18.843  41.505  1.00  0.00    -0.268 OA
BRANCH  13  16
HETATM   16  C6  UNL     1      38.295 -19.184  43.843  1.00  0.00     0.349 C 
BRANCH  16  17
HETATM   17  O3  UNL     1      39.595 -18.907  44.226  1.00  0.00    -0.363 OA
ATOM     18  H3  UNL     1      39.581 -18.288  44.946  1.00  0.00     0.213 HD
ENDBRANCH  16  17
BRANCH  16  19
HETATM   19  O4  UNL     1      37.786 -20.211  44.634  1.00  0.00    -0.363 OA
ATOM     20  H4  UNL     1      37.438 -19.825  45.429  1.00  0.00     0.213 HD
ENDBRANCH  16  19
ENDBRANCH  13  16
ENDBRANCH   6  10
BRANCH   9  21
HETATM   21  C8  UNL     1      41.564 -24.896  39.452  1.00  0.00     0.285 C 
HETATM   22  N6  UNL     1      41.920 -25.041  38.072  1.00  0.00    -0.056 NA
HETATM   23  O5  UNL     1      42.410 -25.109  40.356  1.00  0.00    -0.269 OA
ENDBRANCH   9  21
BRANCH   1  24
HETATM   24  N1  UNL     1      39.412 -26.624  39.610  1.00  0.00    -0.383 N 
ATOM     25  H12 UNL     1      38.636 -27.283  39.669  1.00  0.00     0.157 HD
ATOM     26  H11 UNL     1      40.353 -26.910  39.339  1.00  0.00     0.157 HD
ENDBRANCH   1  24
TORSDOF 6
ENDMDL
