MODEL 1
REMARK VINA RESULT: -7.683303984      0.000      0.000
REMARK  10 active torsions:
REMARK  status: ('A' for Active; 'I' for Inactive)
REMARK    1  A    between atoms: N1_1  and  C1_4 
REMARK    2  A    between atoms: C2_7  and  S1_8 
REMARK    3  A    between atoms: S1_8  and  N3_9 
REMARK    4  A    between atoms: N3_9  and  O1_11 
REMARK    5  A    between atoms: C3_13  and  O2_14 
REMARK    6  A    between atoms: O2_14  and  C4_15 
REMARK    7  A    between atoms: C4_15  and  N7_23 
REMARK    8  A    between atoms: N4_16  and  N5_18 
REMARK    9  A    between atoms: N5_18  and  N6_20 
REMARK   10  A    between atoms: N7_23  and  N8_25 
ROOT
HETATM    1  C1  UNL     1      38.949 -19.550  41.274  1.00  0.00     0.679 A 
HETATM    2  N2  UNL     1      39.793 -20.568  41.022  1.00  0.00    -0.181 N 
ATOM      3  H2  UNL     1      40.795 -20.383  40.981  1.00  0.00     0.185 HD
HETATM    4  C2  UNL     1      39.345 -21.839  40.820  1.00  0.00     0.148 A 
HETATM    5  C3  UNL     1      37.995 -22.122  40.868  1.00  0.00     0.183 A 
HETATM    6  C5  UNL     1      37.145 -21.066  41.126  1.00  0.00     0.296 A 
HETATM    7  O3  UNL     1      35.908 -21.318  41.171  1.00  0.00    -0.264 OA
HETATM    8  N9  UNL     1      37.632 -19.823  41.321  1.00  0.00    -0.154 N 
ATOM      9  H9  UNL     1      36.978 -19.063  41.509  1.00  0.00     0.187 HD
ENDROOT
BRANCH   5  10
HETATM   10  O2  UNL     1      37.551 -23.422  40.660  1.00  0.00    -0.269 OA
BRANCH  10  11
HETATM   11  C4  UNL     1      36.701 -23.969  41.608  1.00  0.00     0.259 C 
HETATM   12  N4  UNL     1      37.091 -23.871  42.833  1.00  0.00    -0.249 N 
ATOM     13  H4  UNL     1      37.980 -23.409  43.022  1.00  0.00     0.192 HD
BRANCH  12  14
HETATM   14  N5  UNL     1      36.360 -24.365  43.914  1.00  0.00    -0.246 N 
ATOM     15  H5  UNL     1      35.364 -24.173  44.017  1.00  0.00     0.208 HD
BRANCH  14  16
HETATM   16  N6  UNL     1      37.060 -25.140  44.855  1.00  0.00    -0.331 N 
ATOM     17  H62 UNL     1      37.837 -24.740  45.381  1.00  0.00     0.178 HD
ATOM     18  H61 UNL     1      36.754 -26.105  44.978  1.00  0.00     0.178 HD
ENDBRANCH  14  16
ENDBRANCH  12  14
BRANCH  11  19
HETATM   19  N7  UNL     1      35.483 -24.591  41.231  1.00  0.00    -0.270 N 
ATOM     20  H7  UNL     1      34.600 -24.112  41.405  1.00  0.00     0.190 HD
BRANCH  19  21
HETATM   21  N8  UNL     1      35.475 -25.849  40.625  1.00  0.00    -0.342 N 
ATOM     22  H82 UNL     1      36.369 -26.292  40.415  1.00  0.00     0.176 HD
ATOM     23  H81 UNL     1      34.598 -26.316  40.396  1.00  0.00     0.176 HD
ENDBRANCH  19  21
ENDBRANCH  11  19
ENDBRANCH  10  11
ENDBRANCH   5  10
BRANCH   4  24
HETATM   24  S1  UNL     1      40.472 -23.168  40.490  1.00  0.00     0.029 SA
BRANCH  24  25
HETATM   25  N3  UNL     1      40.613 -24.256  41.854  1.00  0.00    -0.236 N 
ATOM     26  H3  UNL     1      41.409 -24.208  42.491  1.00  0.00     0.203 HD
BRANCH  25  27
HETATM   27  O1  UNL     1      39.746 -25.052  42.007  1.00  0.00    -0.283 OA
ATOM     28  H1  UNL     1      38.878 -24.813  41.704  1.00  0.00     0.245 HD
ENDBRANCH  25  27
ENDBRANCH  24  25
ENDBRANCH   4  24
BRANCH   1  29
HETATM   29  N1  UNL     1      39.406 -18.355  41.461  1.00  0.00    -0.234 N 
ATOM     30  H12 UNL     1      39.177 -17.814  42.295  1.00  0.00     0.174 HD
ATOM     31  H11 UNL     1      40.013 -17.922  40.765  1.00  0.00     0.174 HD
ENDBRANCH   1  29
TORSDOF 10
ENDMDL
MODEL 2
REMARK VINA RESULT: -7.025025946      2.487      3.603
REMARK  10 active torsions:
REMARK  status: ('A' for Active; 'I' for Inactive)
REMARK    1  A    between atoms: N1_1  and  C1_4 
REMARK    2  A    between atoms: C2_7  and  S1_8 
REMARK    3  A    between atoms: S1_8  and  N3_9 
REMARK    4  A    between atoms: N3_9  and  O1_11 
REMARK    5  A    between atoms: C3_13  and  O2_14 
REMARK    6  A    between atoms: O2_14  and  C4_15 
REMARK    7  A    between atoms: C4_15  and  N7_23 
REMARK    8  A    between atoms: N4_16  and  N5_18 
REMARK    9  A    between atoms: N5_18  and  N6_20 
REMARK   10  A    between atoms: N7_23  and  N8_25 
ROOT
HETATM    1  C1  UNL     1      40.531 -23.963  40.990  1.00  0.00     0.679 A 
HETATM    2  N2  UNL     1      39.695 -22.999  41.418  1.00  0.00    -0.181 N 
ATOM      3  H2  UNL     1      40.069 -22.224  41.965  1.00  0.00     0.185 HD
HETATM    4  C2  UNL     1      38.360 -23.031  41.143  1.00  0.00     0.148 A 
HETATM    5  C3  UNL     1      37.822 -24.067  40.406  1.00  0.00     0.183 A 
HETATM    6  C5  UNL     1      38.695 -25.046  39.976  1.00  0.00     0.296 A 
HETATM    7  O3  UNL     1      38.209 -25.998  39.302  1.00  0.00    -0.264 OA
HETATM    8  N9  UNL     1      40.009 -24.974  40.272  1.00  0.00    -0.154 N 
ATOM      9  H9  UNL     1      40.629 -25.713  39.941  1.00  0.00     0.187 HD
ENDROOT
BRANCH   5  10
HETATM   10  O2  UNL     1      36.460 -24.089  40.131  1.00  0.00    -0.269 OA
BRANCH  10  11
HETATM   11  C4  UNL     1      35.678 -24.985  40.843  1.00  0.00     0.259 C 
HETATM   12  N4  UNL     1      35.339 -24.614  42.029  1.00  0.00    -0.249 N 
ATOM     13  H4  UNL     1      35.662 -23.706  42.363  1.00  0.00     0.192 HD
BRANCH  12  14
HETATM   14  N5  UNL     1      34.553 -25.390  42.882  1.00  0.00    -0.246 N 
ATOM     15  H5  UNL     1      33.699 -25.841  42.557  1.00  0.00     0.208 HD
BRANCH  14  16
HETATM   16  N6  UNL     1      34.994 -25.522  44.210  1.00  0.00    -0.331 N 
ATOM     17  H62 UNL     1      35.448 -24.742  44.686  1.00  0.00     0.178 HD
ATOM     18  H61 UNL     1      34.838 -26.423  44.662  1.00  0.00     0.178 HD
ENDBRANCH  14  16
ENDBRANCH  12  14
BRANCH  11  19
HETATM   19  N7  UNL     1      35.285 -26.226  40.278  1.00  0.00    -0.270 N 
ATOM     20  H7  UNL     1      35.079 -27.014  40.891  1.00  0.00     0.190 HD
BRANCH  19  21
HETATM   21  N8  UNL     1      35.176 -26.385  38.895  1.00  0.00    -0.342 N 
ATOM     22  H82 UNL     1      35.261 -25.559  38.303  1.00  0.00     0.176 HD
ATOM     23  H81 UNL     1      35.015 -27.303  38.483  1.00  0.00     0.176 HD
ENDBRANCH  19  21
ENDBRANCH  11  19
ENDBRANCH  10  11
ENDBRANCH   5  10
BRANCH   4  24
HETATM   24  S1  UNL     1      37.274 -21.752  41.715  1.00  0.00     0.029 SA
BRANCH  24  25
HETATM   25  N3  UNL     1      36.976 -21.871  43.436  1.00  0.00    -0.236 N 
ATOM     26  H3  UNL     1      37.103 -21.068  44.053  1.00  0.00     0.203 HD
BRANCH  25  27
HETATM   27  O1  UNL     1      36.622 -22.923  43.856  1.00  0.00    -0.283 OA
ATOM     28  H1  UNL     1      35.969 -23.395  43.352  1.00  0.00     0.245 HD
ENDBRANCH  25  27
ENDBRANCH  24  25
ENDBRANCH   4  24
BRANCH   1  29
HETATM   29  N1  UNL     1      41.793 -23.903  41.269  1.00  0.00    -0.234 N 
ATOM     30  H12 UNL     1      42.413 -23.228  40.822  1.00  0.00     0.174 HD
ATOM     31  H11 UNL     1      42.199 -24.542  41.953  1.00  0.00     0.174 HD
ENDBRANCH   1  29
TORSDOF 10
ENDMDL
MODEL 3
REMARK VINA RESULT: -6.899782951      1.872      3.327
REMARK  10 active torsions:
REMARK  status: ('A' for Active; 'I' for Inactive)
REMARK    1  A    between atoms: N1_1  and  C1_4 
REMARK    2  A    between atoms: C2_7  and  S1_8 
REMARK    3  A    between atoms: S1_8  and  N3_9 
REMARK    4  A    between atoms: N3_9  and  O1_11 
REMARK    5  A    between atoms: C3_13  and  O2_14 
REMARK    6  A    between atoms: O2_14  and  C4_15 
REMARK    7  A    between atoms: C4_15  and  N7_23 
REMARK    8  A    between atoms: N4_16  and  N5_18 
REMARK    9  A    between atoms: N5_18  and  N6_20 
REMARK   10  A    between atoms: N7_23  and  N8_25 
ROOT
HETATM    1  C1  UNL     1      40.686 -23.796  39.836  1.00  0.00     0.679 A 
HETATM    2  N2  UNL     1      40.193 -22.594  40.187  1.00  0.00    -0.181 N 
ATOM      3  H2  UNL     1      40.813 -21.784  40.189  1.00  0.00     0.185 HD
HETATM    4  C2  UNL     1      38.886 -22.428  40.539  1.00  0.00     0.148 A 
HETATM    5  C3  UNL     1      38.021 -23.503  40.546  1.00  0.00     0.183 A 
HETATM    6  C5  UNL     1      38.545 -24.728  40.184  1.00  0.00     0.296 A 
HETATM    7  O3  UNL     1      37.759 -25.717  40.189  1.00  0.00    -0.264 OA
HETATM    8  N9  UNL     1      39.845 -24.846  39.843  1.00  0.00    -0.154 N 
ATOM      9  H9  UNL     1      40.203 -25.764  39.580  1.00  0.00     0.187 HD
ENDROOT
BRANCH   5  10
HETATM   10  O2  UNL     1      36.692 -23.323  40.907  1.00  0.00    -0.269 OA
BRANCH  10  11
HETATM   11  C4  UNL     1      36.177 -24.151  41.891  1.00  0.00     0.259 C 
HETATM   12  N4  UNL     1      36.782 -24.115  43.028  1.00  0.00    -0.249 N 
ATOM     13  H4  UNL     1      37.585 -23.494  43.128  1.00  0.00     0.192 HD
BRANCH  12  14
HETATM   14  N5  UNL     1      36.398 -24.882  44.128  1.00  0.00    -0.246 N 
ATOM     15  H5  UNL     1      35.447 -25.237  44.225  1.00  0.00     0.208 HD
BRANCH  14  16
HETATM   16  N6  UNL     1      37.381 -25.142  45.098  1.00  0.00    -0.331 N 
ATOM     17  H62 UNL     1      38.107 -25.838  44.928  1.00  0.00     0.178 HD
ATOM     18  H61 UNL     1      37.328 -24.607  45.965  1.00  0.00     0.178 HD
ENDBRANCH  14  16
ENDBRANCH  12  14
BRANCH  11  19
HETATM   19  N7  UNL     1      35.050 -24.976  41.640  1.00  0.00    -0.270 N 
ATOM     20  H7  UNL     1      34.112 -24.601  41.777  1.00  0.00     0.190 HD
BRANCH  19  21
HETATM   21  N8  UNL     1      35.206 -26.294  41.207  1.00  0.00    -0.342 N 
ATOM     22  H82 UNL     1      36.123 -26.590  40.871  1.00  0.00     0.176 HD
ATOM     23  H81 UNL     1      34.425 -26.949  41.225  1.00  0.00     0.176 HD
ENDBRANCH  19  21
ENDBRANCH  11  19
ENDBRANCH  10  11
ENDBRANCH   5  10
BRANCH   4  24
HETATM   24  S1  UNL     1      38.254 -20.836  40.997  1.00  0.00     0.029 SA
BRANCH  24  25
HETATM   25  N3  UNL     1      38.147 -20.653  42.735  1.00  0.00    -0.236 N 
ATOM     26  H3  UNL     1      38.767 -20.020  43.242  1.00  0.00     0.203 HD
BRANCH  25  27
HETATM   27  O1  UNL     1      37.323 -21.295  43.300  1.00  0.00    -0.283 OA
ATOM     28  H1  UNL     1      37.489 -22.225  43.400  1.00  0.00     0.245 HD
ENDBRANCH  25  27
ENDBRANCH  24  25
ENDBRANCH   4  24
BRANCH   1  29
HETATM   29  N1  UNL     1      41.931 -23.919  39.507  1.00  0.00    -0.234 N 
ATOM     30  H12 UNL     1      42.526 -23.109  39.335  1.00  0.00     0.174 HD
ATOM     31  H11 UNL     1      42.348 -24.845  39.411  1.00  0.00     0.174 HD
ENDBRANCH   1  29
TORSDOF 10
ENDMDL
MODEL 4
REMARK VINA RESULT: -6.803029054      0.812      1.693
REMARK  10 active torsions:
REMARK  status: ('A' for Active; 'I' for Inactive)
REMARK    1  A    between atoms: N1_1  and  C1_4 
REMARK    2  A    between atoms: C2_7  and  S1_8 
REMARK    3  A    between atoms: S1_8  and  N3_9 
REMARK    4  A    between atoms: N3_9  and  O1_11 
REMARK    5  A    between atoms: C3_13  and  O2_14 
REMARK    6  A    between atoms: O2_14  and  C4_15 
REMARK    7  A    between atoms: C4_15  and  N7_23 
REMARK    8  A    between atoms: N4_16  and  N5_18 
REMARK    9  A    between atoms: N5_18  and  N6_20 
REMARK   10  A    between atoms: N7_23  and  N8_25 
ROOT
HETATM    1  C1  UNL     1      39.157 -19.513  40.999  1.00  0.00     0.679 A 
HETATM    2  N2  UNL     1      39.915 -20.606  40.792  1.00  0.00    -0.181 N 
ATOM      3  H2  UNL     1      40.924 -20.498  40.685  1.00  0.00     0.185 HD
HETATM    4  C2  UNL     1      39.372 -21.854  40.721  1.00  0.00     0.148 A 
HETATM    5  C3  UNL     1      38.011 -22.034  40.861  1.00  0.00     0.183 A 
HETATM    6  C5  UNL     1      37.249 -20.902  41.072  1.00  0.00     0.296 A 
HETATM    7  O3  UNL     1      36.003 -21.059  41.200  1.00  0.00    -0.264 OA
HETATM    8  N9  UNL     1      37.830 -19.686  41.135  1.00  0.00    -0.154 N 
ATOM      9  H9  UNL     1      37.241 -18.868  41.291  1.00  0.00     0.187 HD
ENDROOT
BRANCH   5  10
HETATM   10  O2  UNL     1      37.468 -23.311  40.787  1.00  0.00    -0.269 OA
BRANCH  10  11
HETATM   11  C4  UNL     1      36.631 -23.713  41.816  1.00  0.00     0.259 C 
HETATM   12  N4  UNL     1      35.478 -24.163  41.458  1.00  0.00    -0.249 N 
ATOM     13  H4  UNL     1      35.259 -24.193  40.462  1.00  0.00     0.192 HD
BRANCH  12  14
HETATM   14  N5  UNL     1      34.513 -24.610  42.361  1.00  0.00    -0.246 N 
ATOM     15  H5  UNL     1      33.707 -24.037  42.608  1.00  0.00     0.208 HD
BRANCH  14  16
HETATM   16  N6  UNL     1      34.703 -25.887  42.915  1.00  0.00    -0.331 N 
ATOM     17  H62 UNL     1      34.873 -26.694  42.315  1.00  0.00     0.178 HD
ATOM     18  H61 UNL     1      34.661 -25.960  43.932  1.00  0.00     0.178 HD
ENDBRANCH  14  16
ENDBRANCH  12  14
BRANCH  11  19
HETATM   19  N7  UNL     1      37.041 -23.626  43.171  1.00  0.00    -0.270 N 
ATOM     20  H7  UNL     1      37.666 -24.337  43.553  1.00  0.00     0.190 HD
BRANCH  19  21
HETATM   21  N8  UNL     1      36.604 -22.584  43.990  1.00  0.00    -0.342 N 
ATOM     22  H82 UNL     1      36.430 -21.673  43.566  1.00  0.00     0.176 HD
ATOM     23  H81 UNL     1      36.461 -22.726  44.990  1.00  0.00     0.176 HD
ENDBRANCH  19  21
ENDBRANCH  11  19
ENDBRANCH  10  11
ENDBRANCH   5  10
BRANCH   4  24
HETATM   24  S1  UNL     1      40.386 -23.283  40.449  1.00  0.00     0.029 SA
BRANCH  24  25
HETATM   25  N3  UNL     1      40.490 -24.290  41.878  1.00  0.00    -0.236 N 
ATOM     26  H3  UNL     1      41.287 -24.229  42.513  1.00  0.00     0.203 HD
BRANCH  25  27
HETATM   27  O1  UNL     1      39.597 -25.046  42.077  1.00  0.00    -0.283 OA
ATOM     28  H1  UNL     1      39.822 -25.910  42.400  1.00  0.00     0.245 HD
ENDBRANCH  25  27
ENDBRANCH  24  25
ENDBRANCH   4  24
BRANCH   1  29
HETATM   29  N1  UNL     1      39.704 -18.343  41.060  1.00  0.00    -0.234 N 
ATOM     30  H12 UNL     1      40.239 -18.039  41.874  1.00  0.00     0.174 HD
ATOM     31  H11 UNL     1      39.608 -17.689  40.283  1.00  0.00     0.174 HD
ENDBRANCH   1  29
TORSDOF 10
ENDMDL
MODEL 5
REMARK VINA RESULT: -6.688961880      2.522      4.706
REMARK  10 active torsions:
REMARK  status: ('A' for Active; 'I' for Inactive)
REMARK    1  A    between atoms: N1_1  and  C1_4 
REMARK    2  A    between atoms: C2_7  and  S1_8 
REMARK    3  A    between atoms: S1_8  and  N3_9 
REMARK    4  A    between atoms: N3_9  and  O1_11 
REMARK    5  A    between atoms: C3_13  and  O2_14 
REMARK    6  A    between atoms: O2_14  and  C4_15 
REMARK    7  A    between atoms: C4_15  and  N7_23 
REMARK    8  A    between atoms: N4_16  and  N5_18 
REMARK    9  A    between atoms: N5_18  and  N6_20 
REMARK   10  A    between atoms: N7_23  and  N8_25 
ROOT
HETATM    1  C1  UNL     1      39.916 -24.415  40.261  1.00  0.00     0.679 A 
HETATM    2  N2  UNL     1      38.643 -24.463  40.698  1.00  0.00    -0.181 N 
ATOM      3  H2  UNL     1      38.183 -25.368  40.787  1.00  0.00     0.185 HD
HETATM    4  C2  UNL     1      37.953 -23.333  41.024  1.00  0.00     0.148 A 
HETATM    5  C3  UNL     1      38.548 -22.093  40.915  1.00  0.00     0.183 A 
HETATM    6  C5  UNL     1      39.852 -22.064  40.464  1.00  0.00     0.296 A 
HETATM    7  O3  UNL     1      40.403 -20.932  40.360  1.00  0.00    -0.264 OA
HETATM    8  N9  UNL     1      40.497 -23.207  40.152  1.00  0.00    -0.154 N 
ATOM      9  H9  UNL     1      41.461 -23.153  39.821  1.00  0.00     0.187 HD
ENDROOT
BRANCH   5  10
HETATM   10  O2  UNL     1      37.835 -20.949  41.250  1.00  0.00    -0.269 OA
BRANCH  10  11
HETATM   11  C4  UNL     1      38.140 -20.332  42.453  1.00  0.00     0.259 C 
HETATM   12  N4  UNL     1      37.430 -20.693  43.465  1.00  0.00    -0.249 N 
ATOM     13  H4  UNL     1      36.702 -21.394  43.320  1.00  0.00     0.192 HD
BRANCH  12  14
HETATM   14  N5  UNL     1      37.602 -20.176  44.750  1.00  0.00    -0.246 N 
ATOM     15  H5  UNL     1      38.362 -19.532  44.968  1.00  0.00     0.208 HD
BRANCH  14  16
HETATM   16  N6  UNL     1      36.681 -20.583  45.729  1.00  0.00    -0.331 N 
ATOM     17  H62 UNL     1      35.884 -19.993  45.970  1.00  0.00     0.178 HD
ATOM     18  H61 UNL     1      36.851 -21.484  46.178  1.00  0.00     0.178 HD
ENDBRANCH  14  16
ENDBRANCH  12  14
BRANCH  11  19
HETATM   19  N7  UNL     1      39.177 -19.367  42.540  1.00  0.00    -0.270 N 
ATOM     20  H7  UNL     1      39.779 -19.350  43.364  1.00  0.00     0.190 HD
BRANCH  19  21
HETATM   21  N8  UNL     1      39.387 -18.442  41.517  1.00  0.00    -0.342 N 
ATOM     22  H82 UNL     1      40.161 -17.784  41.608  1.00  0.00     0.176 HD
ATOM     23  H81 UNL     1      38.782 -18.420  40.696  1.00  0.00     0.176 HD
ENDBRANCH  19  21
ENDBRANCH  11  19
ENDBRANCH  10  11
ENDBRANCH   5  10
BRANCH   4  24
HETATM   24  S1  UNL     1      36.278 -23.416  41.599  1.00  0.00     0.029 SA
BRANCH  24  25
HETATM   25  N3  UNL     1      36.182 -24.003  43.246  1.00  0.00    -0.236 N 
ATOM     26  H3  UNL     1      35.805 -24.927  43.459  1.00  0.00     0.203 HD
BRANCH  25  27
HETATM   27  O1  UNL     1      36.573 -23.283  44.104  1.00  0.00    -0.283 OA
ATOM     28  H1  UNL     1      36.799 -22.394  43.857  1.00  0.00     0.245 HD
ENDBRANCH  25  27
ENDBRANCH  24  25
ENDBRANCH   4  24
BRANCH   1  29
HETATM   29  N1  UNL     1      40.542 -25.505  39.959  1.00  0.00    -0.234 N 
ATOM     30  H12 UNL     1      40.810 -26.188  40.667  1.00  0.00     0.174 HD
ATOM     31  H11 UNL     1      40.787 -25.706  38.988  1.00  0.00     0.174 HD
ENDBRANCH   1  29
TORSDOF 10
ENDMDL
