MODEL 1
REMARK VINA RESULT: -7.967859433      0.000      0.000
REMARK  6 active torsions:
REMARK  status: ('A' for Active; 'I' for Inactive)
REMARK    1  A    between atoms: C14_16  and  C16_18 
REMARK    2  A    between atoms: C16_18  and  O3_19 
REMARK    3  A    between atoms: C17_21  and  O4_22 
REMARK    4  A    between atoms: C17_21  and  C18_24 
REMARK    5  A    between atoms: C18_24  and  C19_25 
REMARK    6  A    between atoms: C19_25  and  O5_26 
ROOT
HETATM    1  C1  UNL     1      -5.185   6.359  12.183  1.00  0.00     0.011 C 
HETATM    2  C2  UNL     1      -4.247   5.144  12.326  1.00  0.00     0.000 C 
HETATM    3  C3  UNL     1      -2.907   5.502  11.787  1.00  0.00     0.083 C 
HETATM    4  C4  UNL     1      -1.758   5.375  12.661  1.00  0.00     0.127 C 
HETATM    5  O1  UNL     1      -0.679   5.757  12.253  1.00  0.00    -0.298 OA
HETATM    6  C5  UNL     1      -1.839   4.807  14.017  1.00  0.00     0.083 C 
HETATM    7  C6  UNL     1      -3.245   4.975  14.568  1.00  0.00     0.000 C 
HETATM    8  C7  UNL     1      -3.323   6.481  14.818  1.00  0.00     0.011 C 
HETATM    9  C8  UNL     1      -4.322   4.494  13.667  1.00  0.00    -0.002 C 
HETATM   10  C9  UNL     1      -5.666   4.810  14.234  1.00  0.00     0.014 C 
HETATM   11  C10 UNL     1      -6.052   4.122  15.473  1.00  0.00     0.009 C 
HETATM   12  C11 UNL     1      -5.282   2.952  15.922  1.00  0.00     0.031 C 
HETATM   13  C12 UNL     1      -4.247   2.422  14.957  1.00  0.00     0.052 C 
HETATM   14  C13 UNL     1      -4.242   0.997  15.282  1.00  0.00     0.177 C 
HETATM   15  O2  UNL     1      -5.422   0.643  15.949  1.00  0.00    -0.377 OA
HETATM   16  C14 UNL     1      -6.027   1.770  16.421  1.00  0.00     0.082 C 
HETATM   17  C15 UNL     1      -7.496   1.723  16.088  1.00  0.00     0.049 C 
HETATM   18  C17 UNL     1      -4.328   2.935  13.574  1.00  0.00     0.074 C 
ENDROOT
BRANCH  18  19
HETATM   19  O4  UNL     1      -3.142   2.631  12.905  1.00  0.00    -0.388 OA
ATOM     20  H4  UNL     1      -3.005   1.708  13.086  1.00  0.00     0.210 HD
ENDBRANCH  18  19
BRANCH  18  21
HETATM   21  C18 UNL     1      -5.417   2.440  12.740  1.00  0.00     0.065 C 
BRANCH  21  22
HETATM   22  C19 UNL     1      -5.136   1.517  11.594  1.00  0.00     0.167 C 
BRANCH  22  23
HETATM   23  O5  UNL     1      -4.878   2.156  10.390  1.00  0.00    -0.401 OA
ATOM     24  H5  UNL     1      -4.608   1.577   9.687  1.00  0.00     0.209 HD
ENDBRANCH  22  23
ENDBRANCH  21  22
ENDBRANCH  18  21
BRANCH  16  25
HETATM   25  C16 UNL     1      -5.981   1.636  17.951  1.00  0.00     0.202 C 
BRANCH  25  26
HETATM   26  O3  UNL     1      -5.452   0.411  18.327  1.00  0.00    -0.398 OA
ATOM     27  H3  UNL     1      -5.518   0.285  19.266  1.00  0.00     0.209 HD
ENDBRANCH  25  26
ENDBRANCH  16  25
TORSDOF 6
ENDMDL
MODEL 2
REMARK VINA RESULT: -6.437201402      2.773      4.219
REMARK  6 active torsions:
REMARK  status: ('A' for Active; 'I' for Inactive)
REMARK    1  A    between atoms: C14_16  and  C16_18 
REMARK    2  A    between atoms: C16_18  and  O3_19 
REMARK    3  A    between atoms: C17_21  and  O4_22 
REMARK    4  A    between atoms: C17_21  and  C18_24 
REMARK    5  A    between atoms: C18_24  and  C19_25 
REMARK    6  A    between atoms: C19_25  and  O5_26 
ROOT
HETATM    1  C1  UNL     1      -5.672   5.687  13.506  1.00  0.00     0.011 C 
HETATM    2  C2  UNL     1      -4.267   5.629  12.873  1.00  0.00     0.000 C 
HETATM    3  C3  UNL     1      -3.415   6.680  13.490  1.00  0.00     0.083 C 
HETATM    4  C4  UNL     1      -2.178   6.277  14.129  1.00  0.00     0.127 C 
HETATM    5  O1  UNL     1      -1.530   7.121  14.715  1.00  0.00    -0.298 OA
HETATM    6  C5  UNL     1      -1.673   4.894  14.101  1.00  0.00     0.083 C 
HETATM    7  C6  UNL     1      -2.828   3.923  13.912  1.00  0.00     0.000 C 
HETATM    8  C7  UNL     1      -3.547   4.002  15.258  1.00  0.00     0.011 C 
HETATM    9  C8  UNL     1      -3.722   4.243  12.772  1.00  0.00    -0.002 C 
HETATM   10  C9  UNL     1      -4.890   3.314  12.739  1.00  0.00     0.014 C 
HETATM   11  C10 UNL     1      -4.615   1.900  12.452  1.00  0.00     0.009 C 
HETATM   12  C11 UNL     1      -3.306   1.512  11.904  1.00  0.00     0.031 C 
HETATM   13  C12 UNL     1      -2.392   2.644  11.495  1.00  0.00     0.052 C 
HETATM   14  C13 UNL     1      -1.642   2.035  10.397  1.00  0.00     0.177 C 
HETATM   15  O2  UNL     1      -2.331   0.926   9.890  1.00  0.00    -0.377 OA
HETATM   16  C14 UNL     1      -3.272   0.529  10.793  1.00  0.00     0.082 C 
HETATM   17  C15 UNL     1      -4.577   0.288  10.080  1.00  0.00     0.049 C 
HETATM   18  C17 UNL     1      -3.014   3.980  11.405  1.00  0.00     0.074 C 
ENDROOT
BRANCH  18  19
HETATM   19  O4  UNL     1      -2.010   4.947  11.352  1.00  0.00    -0.388 OA
ATOM     20  H4  UNL     1      -1.257   4.520  11.743  1.00  0.00     0.210 HD
ENDBRANCH  18  19
BRANCH  18  21
HETATM   21  C18 UNL     1      -3.898   4.232  10.273  1.00  0.00     0.065 C 
BRANCH  21  22
HETATM   22  C19 UNL     1      -3.492   5.187   9.192  1.00  0.00     0.167 C 
BRANCH  22  23
HETATM   23  O5  UNL     1      -3.858   4.797   7.912  1.00  0.00    -0.401 OA
ATOM     24  H5  UNL     1      -3.211   4.985   7.243  1.00  0.00     0.209 HD
ENDBRANCH  22  23
ENDBRANCH  21  22
ENDBRANCH  18  21
BRANCH  16  25
HETATM   25  C16 UNL     1      -2.824  -0.869  11.246  1.00  0.00     0.202 C 
BRANCH  25  26
HETATM   26  O3  UNL     1      -3.874  -1.564  11.826  1.00  0.00    -0.398 OA
ATOM     27  H3  UNL     1      -3.863  -2.478  11.566  1.00  0.00     0.209 HD
ENDBRANCH  25  26
ENDBRANCH  16  25
TORSDOF 6
ENDMDL
MODEL 3
REMARK VINA RESULT: -6.313637503      2.465      3.835
REMARK  6 active torsions:
REMARK  status: ('A' for Active; 'I' for Inactive)
REMARK    1  A    between atoms: C14_16  and  C16_18 
REMARK    2  A    between atoms: C16_18  and  O3_19 
REMARK    3  A    between atoms: C17_21  and  O4_22 
REMARK    4  A    between atoms: C17_21  and  C18_24 
REMARK    5  A    between atoms: C18_24  and  C19_25 
REMARK    6  A    between atoms: C19_25  and  O5_26 
ROOT
HETATM    1  C1  UNL     1      -0.595   6.443  10.817  1.00  0.00     0.011 C 
HETATM    2  C2  UNL     1      -1.592   5.383  10.309  1.00  0.00     0.000 C 
HETATM    3  C3  UNL     1      -1.064   4.783   9.055  1.00  0.00     0.083 C 
HETATM    4  C4  UNL     1      -0.873   3.347   9.006  1.00  0.00     0.127 C 
HETATM    5  O1  UNL     1      -0.353   2.868   8.018  1.00  0.00    -0.298 OA
HETATM    6  C5  UNL     1      -1.279   2.445  10.097  1.00  0.00     0.083 C 
HETATM    7  C6  UNL     1      -1.306   3.202  11.414  1.00  0.00     0.000 C 
HETATM    8  C7  UNL     1       0.180   3.432  11.691  1.00  0.00     0.011 C 
HETATM    9  C8  UNL     1      -2.079   4.468  11.382  1.00  0.00    -0.002 C 
HETATM   10  C9  UNL     1      -1.948   5.200  12.676  1.00  0.00     0.014 C 
HETATM   11  C10 UNL     1      -2.541   4.574  13.866  1.00  0.00     0.009 C 
HETATM   12  C11 UNL     1      -3.489   3.461  13.703  1.00  0.00     0.031 C 
HETATM   13  C12 UNL     1      -3.933   3.163  12.290  1.00  0.00     0.052 C 
HETATM   14  C13 UNL     1      -5.284   2.648  12.508  1.00  0.00     0.177 C 
HETATM   15  O2  UNL     1      -5.765   3.049  13.760  1.00  0.00    -0.377 OA
HETATM   16  C14 UNL     1      -4.719   3.458  14.534  1.00  0.00     0.082 C 
HETATM   17  C15 UNL     1      -5.072   4.762  15.200  1.00  0.00     0.049 C 
HETATM   18  C17 UNL     1      -3.613   4.192  11.279  1.00  0.00     0.074 C 
ENDROOT
BRANCH  18  19
HETATM   19  O4  UNL     1      -3.774   3.644  10.006  1.00  0.00    -0.388 OA
ATOM     20  H4  UNL     1      -3.727   2.707  10.151  1.00  0.00     0.210 HD
ENDBRANCH  18  19
BRANCH  18  21
HETATM   21  C18 UNL     1      -4.395   5.423  11.308  1.00  0.00     0.065 C 
BRANCH  21  22
HETATM   22  C19 UNL     1      -4.967   5.987  10.043  1.00  0.00     0.167 C 
BRANCH  22  23
HETATM   23  O5  UNL     1      -6.353   6.034  10.009  1.00  0.00    -0.401 OA
ATOM     24  H5  UNL     1      -6.756   5.368   9.465  1.00  0.00     0.209 HD
ENDBRANCH  22  23
ENDBRANCH  21  22
ENDBRANCH  18  21
BRANCH  16  25
HETATM   25  C16 UNL     1      -4.657   2.447  15.689  1.00  0.00     0.202 C 
BRANCH  25  26
HETATM   26  O3  UNL     1      -3.366   1.976  15.869  1.00  0.00    -0.398 OA
ATOM     27  H3  UNL     1      -3.245   1.139  15.436  1.00  0.00     0.209 HD
ENDBRANCH  25  26
ENDBRANCH  16  25
TORSDOF 6
ENDMDL
MODEL 4
REMARK VINA RESULT: -6.235565443      2.652      3.806
REMARK  6 active torsions:
REMARK  status: ('A' for Active; 'I' for Inactive)
REMARK    1  A    between atoms: C14_16  and  C16_18 
REMARK    2  A    between atoms: C16_18  and  O3_19 
REMARK    3  A    between atoms: C17_21  and  O4_22 
REMARK    4  A    between atoms: C17_21  and  C18_24 
REMARK    5  A    between atoms: C18_24  and  C19_25 
REMARK    6  A    between atoms: C19_25  and  O5_26 
ROOT
HETATM    1  C1  UNL     1      -5.088   6.672  12.223  1.00  0.00     0.011 C 
HETATM    2  C2  UNL     1      -3.657   6.139  12.011  1.00  0.00     0.000 C 
HETATM    3  C3  UNL     1      -2.689   7.107  12.593  1.00  0.00     0.083 C 
HETATM    4  C4  UNL     1      -1.767   6.633  13.606  1.00  0.00     0.127 C 
HETATM    5  O1  UNL     1      -1.042   7.443  14.149  1.00  0.00    -0.298 OA
HETATM    6  C5  UNL     1      -1.670   5.219  14.006  1.00  0.00     0.083 C 
HETATM    7  C6  UNL     1      -2.985   4.509  13.729  1.00  0.00     0.000 C 
HETATM    8  C7  UNL     1      -3.910   5.107  14.790  1.00  0.00     0.011 C 
HETATM    9  C8  UNL     1      -3.508   4.694  12.353  1.00  0.00    -0.002 C 
HETATM   10  C9  UNL     1      -4.855   4.068  12.211  1.00  0.00     0.014 C 
HETATM   11  C10 UNL     1      -4.931   2.604  12.313  1.00  0.00     0.009 C 
HETATM   12  C11 UNL     1      -3.698   1.807  12.225  1.00  0.00     0.031 C 
HETATM   13  C12 UNL     1      -2.443   2.557  11.841  1.00  0.00     0.052 C 
HETATM   14  C13 UNL     1      -1.686   1.525  11.135  1.00  0.00     0.177 C 
HETATM   15  O2  UNL     1      -2.538   0.498  10.711  1.00  0.00    -0.377 OA
HETATM   16  C14 UNL     1      -3.714   0.576  11.397  1.00  0.00     0.082 C 
HETATM   17  C15 UNL     1      -4.864   0.440  10.433  1.00  0.00     0.049 C 
HETATM   18  C17 UNL     1      -2.640   3.921  11.309  1.00  0.00     0.074 C 
ENDROOT
BRANCH  18  19
HETATM   19  O4  UNL     1      -1.418   4.595  11.319  1.00  0.00    -0.388 OA
ATOM     20  H4  UNL     1      -1.087   4.484  10.436  1.00  0.00     0.210 HD
ENDBRANCH  18  19
BRANCH  18  21
HETATM   21  C18 UNL     1      -3.173   4.041   9.957  1.00  0.00     0.065 C 
BRANCH  21  22
HETATM   22  C19 UNL     1      -2.328   4.604   8.856  1.00  0.00     0.167 C 
BRANCH  22  23
HETATM   23  O5  UNL     1      -1.372   3.728   8.360  1.00  0.00    -0.401 OA
ATOM     24  H5  UNL     1      -0.673   4.145   7.871  1.00  0.00     0.209 HD
ENDBRANCH  22  23
ENDBRANCH  21  22
ENDBRANCH  18  21
BRANCH  16  25
HETATM   25  C16 UNL     1      -3.771  -0.709  12.238  1.00  0.00     0.202 C 
BRANCH  25  26
HETATM   26  O3  UNL     1      -4.462  -0.498  13.421  1.00  0.00    -0.398 OA
ATOM     27  H3  UNL     1      -5.103  -1.183  13.568  1.00  0.00     0.209 HD
ENDBRANCH  25  26
ENDBRANCH  16  25
TORSDOF 6
ENDMDL
MODEL 5
REMARK VINA RESULT: -6.143832391      2.107      2.878
REMARK  6 active torsions:
REMARK  status: ('A' for Active; 'I' for Inactive)
REMARK    1  A    between atoms: C14_16  and  C16_18 
REMARK    2  A    between atoms: C16_18  and  O3_19 
REMARK    3  A    between atoms: C17_21  and  O4_22 
REMARK    4  A    between atoms: C17_21  and  C18_24 
REMARK    5  A    between atoms: C18_24  and  C19_25 
REMARK    6  A    between atoms: C19_25  and  O5_26 
ROOT
HETATM    1  C1  UNL     1      -2.865   5.869   9.833  1.00  0.00     0.011 C 
HETATM    2  C2  UNL     1      -2.595   4.356   9.942  1.00  0.00     0.000 C 
HETATM    3  C3  UNL     1      -1.399   4.018   9.124  1.00  0.00     0.083 C 
HETATM    4  C4  UNL     1      -0.280   3.369   9.776  1.00  0.00     0.127 C 
HETATM    5  O1  UNL     1       0.732   3.179   9.131  1.00  0.00    -0.298 OA
HETATM    6  C5  UNL     1      -0.313   2.931  11.182  1.00  0.00     0.083 C 
HETATM    7  C6  UNL     1      -1.318   3.762  11.961  1.00  0.00     0.000 C 
HETATM    8  C7  UNL     1      -0.629   5.124  12.039  1.00  0.00     0.011 C 
HETATM    9  C8  UNL     1      -2.664   3.843  11.341  1.00  0.00    -0.002 C 
HETATM   10  C9  UNL     1      -3.543   4.774  12.107  1.00  0.00     0.014 C 
HETATM   11  C10 UNL     1      -3.920   4.375  13.470  1.00  0.00     0.009 C 
HETATM   12  C11 UNL     1      -3.705   2.987  13.905  1.00  0.00     0.031 C 
HETATM   13  C12 UNL     1      -3.278   2.010  12.833  1.00  0.00     0.052 C 
HETATM   14  C13 UNL     1      -3.864   0.763  13.321  1.00  0.00     0.177 C 
HETATM   15  O2  UNL     1      -4.893   1.029  14.233  1.00  0.00    -0.377 OA
HETATM   16  C14 UNL     1      -4.783   2.315  14.672  1.00  0.00     0.082 C 
HETATM   17  C15 UNL     1      -6.137   2.974  14.628  1.00  0.00     0.049 C 
HETATM   18  C17 UNL     1      -3.415   2.477  11.439  1.00  0.00     0.074 C 
ENDROOT
BRANCH  18  19
HETATM   19  O4  UNL     1      -2.688   1.630  10.602  1.00  0.00    -0.388 OA
ATOM     20  H4  UNL     1      -1.986   1.306  11.154  1.00  0.00     0.210 HD
ENDBRANCH  18  19
BRANCH  18  21
HETATM   21  C18 UNL     1      -4.764   2.552  10.888  1.00  0.00     0.065 C 
BRANCH  21  22
HETATM   22  C19 UNL     1      -5.583   1.310  10.718  1.00  0.00     0.167 C 
BRANCH  22  23
HETATM   23  O5  UNL     1      -5.083   0.414   9.784  1.00  0.00    -0.401 OA
ATOM     24  H5  UNL     1      -4.138   0.320   9.795  1.00  0.00     0.209 HD
ENDBRANCH  22  23
ENDBRANCH  21  22
ENDBRANCH  18  21
BRANCH  16  25
HETATM   25  C16 UNL     1      -4.467   2.200  16.171  1.00  0.00     0.202 C 
BRANCH  25  26
HETATM   26  O3  UNL     1      -3.392   1.352  16.388  1.00  0.00    -0.398 OA
ATOM     27  H3  UNL     1      -2.653   1.592  15.842  1.00  0.00     0.209 HD
ENDBRANCH  25  26
ENDBRANCH  16  25
TORSDOF 6
ENDMDL
