MODEL 1
REMARK VINA RESULT: -6.552779509      0.000      0.000
REMARK  7 active torsions:
REMARK  status: ('A' for Active; 'I' for Inactive)
REMARK    1  A    between atoms: N1_7  and  C7_8 
REMARK    2  A    between atoms: C7_8  and  C8_9 
REMARK    3  A    between atoms: C8_9  and  N2_10 
REMARK    4  A    between atoms: N2_10  and  C9_12 
REMARK    5  A    between atoms: C10_15  and  S1_16 
REMARK    6  A    between atoms: S1_16  and  C11_17 
REMARK    7  A    between atoms: C15_23  and  N5_24 
ROOT
HETATM    1  C9  UNL     1      -2.721   2.216  11.804  1.00  0.00     0.694 A 
HETATM    2  N3  UNL     1      -3.528   3.180  11.312  1.00  0.00    -0.169 N 
ATOM      3  H3  UNL     1      -4.516   2.969  11.176  1.00  0.00     0.186 HD
HETATM    4  C10 UNL     1      -3.080   4.408  10.995  1.00  0.00     0.175 A 
HETATM    5  N4  UNL     1      -1.759   4.707  11.172  1.00  0.00    -0.170 N 
ATOM      6  H4  UNL     1      -1.401   5.633  10.938  1.00  0.00     0.186 HD
HETATM    7  C15 UNL     1      -0.942   3.763  11.658  1.00  0.00     0.692 A 
HETATM    8  N6  UNL     1      -1.425   2.533  11.969  1.00  0.00    -0.023 N 
ATOM      9  H6  UNL     1      -0.786   1.829  12.338  1.00  0.00     0.203 HD
ENDROOT
BRANCH   1  10
HETATM   10  N2  UNL     1      -3.226   1.065  12.083  1.00  0.00    -0.224 N 
ATOM     11  H2  UNL     1      -2.659   0.250  11.849  1.00  0.00     0.177 HD
BRANCH  10  12
HETATM   12  C8  UNL     1      -4.492   0.808  12.682  1.00  0.00     0.168 C 
BRANCH  12  13
HETATM   13  C7  UNL     1      -4.276   0.514  14.155  1.00  0.00     0.292 C 
BRANCH  13  14
HETATM   14  N1  UNL     1      -5.019   1.397  15.001  1.00  0.00     0.090 N 
HETATM   15  C6  UNL     1      -4.399   2.693  15.197  1.00  0.00     0.276 C 
HETATM   16  C4  UNL     1      -5.474   3.586  15.803  1.00  0.00     0.010 C 
HETATM   17  C3  UNL     1      -5.932   3.049  17.112  1.00  0.00     0.012 C 
HETATM   18  C5  UNL     1      -6.595   3.683  14.774  1.00  0.00     0.011 C 
HETATM   19  C2  UNL     1      -6.071   1.570  17.210  1.00  0.00     0.010 C 
HETATM   20  C1  UNL     1      -7.508   1.110  16.947  1.00  0.00     0.011 C 
HETATM   21  C16 UNL     1      -5.146   0.795  16.307  1.00  0.00     0.276 C 
ENDBRANCH  13  14
ENDBRANCH  12  13
ENDBRANCH  10  12
ENDBRANCH   1  10
BRANCH   4  22
HETATM   22  S1  UNL     1      -4.236   5.606  10.356  1.00  0.00    -0.084 SA
BRANCH  22  23
HETATM   23  C11 UNL     1      -4.547   6.810  11.699  1.00  0.00     0.005 C 
HETATM   24  C12 UNL     1      -4.429   6.157  13.040  1.00  0.00     0.026 C 
HETATM   25  C13 UNL     1      -3.650   8.015  11.560  1.00  0.00     0.026 C 
HETATM   26  C14 UNL     1      -5.980   7.312  11.467  1.00  0.00     0.026 C 
ENDBRANCH  22  23
ENDBRANCH   4  22
BRANCH   7  27
HETATM   27  N5  UNL     1       0.295   4.030  11.827  1.00  0.00    -0.234 N 
ATOM     28  H52 UNL     1       0.625   4.395  12.720  1.00  0.00     0.174 HD
ATOM     29  H51 UNL     1       0.951   3.875  11.060  1.00  0.00     0.174 HD
ENDBRANCH   7  27
TORSDOF 7
ENDMDL
MODEL 2
REMARK VINA RESULT: -6.468438521      1.396      1.782
REMARK  7 active torsions:
REMARK  status: ('A' for Active; 'I' for Inactive)
REMARK    1  A    between atoms: N1_7  and  C7_8 
REMARK    2  A    between atoms: C7_8  and  C8_9 
REMARK    3  A    between atoms: C8_9  and  N2_10 
REMARK    4  A    between atoms: N2_10  and  C9_12 
REMARK    5  A    between atoms: C10_15  and  S1_16 
REMARK    6  A    between atoms: S1_16  and  C11_17 
REMARK    7  A    between atoms: C15_23  and  N5_24 
ROOT
HETATM    1  C9  UNL     1      -2.492   1.936  11.574  1.00  0.00     0.694 A 
HETATM    2  N3  UNL     1      -2.277   2.994  12.385  1.00  0.00    -0.169 N 
ATOM      3  H3  UNL     1      -2.655   2.969  13.332  1.00  0.00     0.186 HD
HETATM    4  C10 UNL     1      -1.585   4.078  11.993  1.00  0.00     0.175 A 
HETATM    5  N4  UNL     1      -1.072   4.126  10.728  1.00  0.00    -0.170 N 
ATOM      6  H4  UNL     1      -0.544   4.939  10.413  1.00  0.00     0.186 HD
HETATM    7  C15 UNL     1      -1.275   3.086   9.908  1.00  0.00     0.692 A 
HETATM    8  N6  UNL     1      -1.978   2.006  10.334  1.00  0.00    -0.023 N 
ATOM      9  H6  UNL     1      -2.121   1.225   9.693  1.00  0.00     0.203 HD
ENDROOT
BRANCH   1  10
HETATM   10  N2  UNL     1      -3.166   0.935  12.024  1.00  0.00    -0.224 N 
ATOM     11  H2  UNL     1      -2.734   0.016  11.928  1.00  0.00     0.177 HD
BRANCH  10  12
HETATM   12  C8  UNL     1      -4.449   0.974  12.641  1.00  0.00     0.168 C 
BRANCH  12  13
HETATM   13  C7  UNL     1      -4.291   0.591  14.101  1.00  0.00     0.292 C 
BRANCH  13  14
HETATM   14  N1  UNL     1      -5.032   1.451  14.972  1.00  0.00     0.090 N 
HETATM   15  C6  UNL     1      -4.415   2.743  15.196  1.00  0.00     0.276 C 
HETATM   16  C4  UNL     1      -5.489   3.619  15.829  1.00  0.00     0.010 C 
HETATM   17  C3  UNL     1      -5.939   3.049  17.127  1.00  0.00     0.012 C 
HETATM   18  C5  UNL     1      -6.615   3.738  14.808  1.00  0.00     0.011 C 
HETATM   19  C2  UNL     1      -6.074   1.568  17.189  1.00  0.00     0.010 C 
HETATM   20  C1  UNL     1      -7.511   1.111  16.922  1.00  0.00     0.011 C 
HETATM   21  C16 UNL     1      -5.152   0.817  16.263  1.00  0.00     0.276 C 
ENDBRANCH  13  14
ENDBRANCH  12  13
ENDBRANCH  10  12
ENDBRANCH   1  10
BRANCH   4  22
HETATM   22  S1  UNL     1      -1.360   5.417  13.148  1.00  0.00    -0.084 SA
BRANCH  22  23
HETATM   23  C11 UNL     1      -2.945   6.331  13.216  1.00  0.00     0.005 C 
HETATM   24  C12 UNL     1      -3.968   5.691  12.331  1.00  0.00     0.026 C 
HETATM   25  C13 UNL     1      -3.421   6.477  14.640  1.00  0.00     0.026 C 
HETATM   26  C14 UNL     1      -2.616   7.748  12.725  1.00  0.00     0.026 C 
ENDBRANCH  22  23
ENDBRANCH   4  22
BRANCH   7  27
HETATM   27  N5  UNL     1      -0.802   3.120   8.723  1.00  0.00    -0.234 N 
ATOM     28  H52 UNL     1      -1.159   2.486   8.009  1.00  0.00     0.174 HD
ATOM     29  H51 UNL     1      -0.063   3.786   8.496  1.00  0.00     0.174 HD
ENDBRANCH   7  27
TORSDOF 7
ENDMDL
MODEL 3
REMARK VINA RESULT: -6.445355923      2.172      4.353
REMARK  7 active torsions:
REMARK  status: ('A' for Active; 'I' for Inactive)
REMARK    1  A    between atoms: N1_7  and  C7_8 
REMARK    2  A    between atoms: C7_8  and  C8_9 
REMARK    3  A    between atoms: C8_9  and  N2_10 
REMARK    4  A    between atoms: N2_10  and  C9_12 
REMARK    5  A    between atoms: C10_15  and  S1_16 
REMARK    6  A    between atoms: S1_16  and  C11_17 
REMARK    7  A    between atoms: C15_23  and  N5_24 
ROOT
HETATM    1  C9  UNL     1      -3.487   4.248  13.101  1.00  0.00     0.694 A 
HETATM    2  N3  UNL     1      -2.983   3.042  12.760  1.00  0.00    -0.169 N 
ATOM      3  H3  UNL     1      -2.719   2.395  13.502  1.00  0.00     0.186 HD
HETATM    4  C10 UNL     1      -2.816   2.662  11.481  1.00  0.00     0.175 A 
HETATM    5  N4  UNL     1      -3.166   3.518  10.476  1.00  0.00    -0.170 N 
ATOM      6  H4  UNL     1      -3.048   3.247   9.499  1.00  0.00     0.186 HD
HETATM    7  C15 UNL     1      -3.667   4.719  10.793  1.00  0.00     0.692 A 
HETATM    8  N6  UNL     1      -3.824   5.072  12.094  1.00  0.00    -0.023 N 
ATOM      9  H6  UNL     1      -4.208   5.992  12.314  1.00  0.00     0.203 HD
ENDROOT
BRANCH   1  10
HETATM   10  N2  UNL     1      -3.616   4.537  14.348  1.00  0.00    -0.224 N 
ATOM     11  H2  UNL     1      -2.935   4.121  14.984  1.00  0.00     0.177 HD
BRANCH  10  12
HETATM   12  C8  UNL     1      -4.606   5.374  14.937  1.00  0.00     0.168 C 
BRANCH  12  13
HETATM   13  C7  UNL     1      -5.924   4.620  14.953  1.00  0.00     0.292 C 
BRANCH  13  14
HETATM   14  N1  UNL     1      -5.848   3.407  15.708  1.00  0.00     0.090 N 
HETATM   15  C6  UNL     1      -5.796   2.206  14.898  1.00  0.00     0.276 C 
HETATM   16  C4  UNL     1      -5.365   1.085  15.835  1.00  0.00     0.010 C 
HETATM   17  C3  UNL     1      -6.351   0.904  16.934  1.00  0.00     0.012 C 
HETATM   18  C5  UNL     1      -3.972   1.447  16.339  1.00  0.00     0.011 C 
HETATM   19  C2  UNL     1      -6.942   2.145  17.504  1.00  0.00     0.010 C 
HETATM   20  C1  UNL     1      -6.199   2.611  18.759  1.00  0.00     0.011 C 
HETATM   21  C16 UNL     1      -7.024   3.300  16.538  1.00  0.00     0.276 C 
ENDBRANCH  13  14
ENDBRANCH  12  13
ENDBRANCH  10  12
ENDBRANCH   1  10
BRANCH   4  22
HETATM   22  S1  UNL     1      -2.144   1.045  11.145  1.00  0.00    -0.084 SA
BRANCH  22  23
HETATM   23  C11 UNL     1      -3.504  -0.155  11.390  1.00  0.00     0.005 C 
HETATM   24  C12 UNL     1      -3.040  -1.552  11.121  1.00  0.00     0.026 C 
HETATM   25  C13 UNL     1      -4.116  -0.002  12.760  1.00  0.00     0.026 C 
HETATM   26  C14 UNL     1      -4.590   0.256  10.385  1.00  0.00     0.026 C 
ENDBRANCH  22  23
ENDBRANCH   4  22
BRANCH   7  27
HETATM   27  N5  UNL     1      -3.997   5.528   9.862  1.00  0.00    -0.234 N 
ATOM     28  H52 UNL     1      -3.890   5.257   8.884  1.00  0.00     0.174 HD
ATOM     29  H51 UNL     1      -4.367   6.447  10.104  1.00  0.00     0.174 HD
ENDBRANCH   7  27
TORSDOF 7
ENDMDL
MODEL 4
REMARK VINA RESULT: -6.444238037      2.552      6.818
REMARK  7 active torsions:
REMARK  status: ('A' for Active; 'I' for Inactive)
REMARK    1  A    between atoms: N1_7  and  C7_8 
REMARK    2  A    between atoms: C7_8  and  C8_9 
REMARK    3  A    between atoms: C8_9  and  N2_10 
REMARK    4  A    between atoms: N2_10  and  C9_12 
REMARK    5  A    between atoms: C10_15  and  S1_16 
REMARK    6  A    between atoms: S1_16  and  C11_17 
REMARK    7  A    between atoms: C15_23  and  N5_24 
ROOT
HETATM    1  C9  UNL     1      -3.510   3.883  13.480  1.00  0.00     0.694 A 
HETATM    2  N3  UNL     1      -3.761   3.277  14.661  1.00  0.00    -0.169 N 
ATOM      3  H3  UNL     1      -3.366   3.679  15.511  1.00  0.00     0.186 HD
HETATM    4  C10 UNL     1      -4.512   2.166  14.761  1.00  0.00     0.175 A 
HETATM    5  N4  UNL     1      -5.049   1.616  13.631  1.00  0.00    -0.170 N 
ATOM      6  H4  UNL     1      -5.621   0.774  13.686  1.00  0.00     0.186 HD
HETATM    7  C15 UNL     1      -4.811   2.202  12.451  1.00  0.00     0.692 A 
HETATM    8  N6  UNL     1      -4.049   3.323  12.384  1.00  0.00    -0.023 N 
ATOM      9  H6  UNL     1      -3.881   3.754  11.474  1.00  0.00     0.203 HD
ENDROOT
BRANCH   1  10
HETATM   10  N2  UNL     1      -2.782   4.944  13.469  1.00  0.00    -0.224 N 
ATOM     11  H2  UNL     1      -3.240   5.808  13.179  1.00  0.00     0.177 HD
BRANCH  10  12
HETATM   12  C8  UNL     1      -1.405   5.042  13.818  1.00  0.00     0.168 C 
BRANCH  12  13
HETATM   13  C7  UNL     1      -0.647   5.606  12.630  1.00  0.00     0.292 C 
BRANCH  13  14
HETATM   14  N1  UNL     1      -0.813   4.812  11.452  1.00  0.00     0.090 N 
HETATM   15  C6  UNL     1       0.354   4.031  11.092  1.00  0.00     0.276 C 
HETATM   16  C4  UNL     1      -0.121   3.013  10.063  1.00  0.00     0.010 C 
HETATM   17  C3  UNL     1      -0.658   3.694   8.854  1.00  0.00     0.012 C 
HETATM   18  C5  UNL     1      -1.154   2.135  10.760  1.00  0.00     0.011 C 
HETATM   19  C2  UNL     1      -1.461   4.924   9.089  1.00  0.00     0.010 C 
HETATM   20  C1  UNL     1      -2.964   4.630   9.127  1.00  0.00     0.011 C 
HETATM   21  C16 UNL     1      -1.090   5.685  10.336  1.00  0.00     0.276 C 
ENDBRANCH  13  14
ENDBRANCH  12  13
ENDBRANCH  10  12
ENDBRANCH   1  10
BRANCH   4  22
HETATM   22  S1  UNL     1      -4.780   1.451  16.372  1.00  0.00    -0.084 SA
BRANCH  22  23
HETATM   23  C11 UNL     1      -6.376   2.109  16.983  1.00  0.00     0.005 C 
HETATM   24  C12 UNL     1      -6.708   3.408  16.319  1.00  0.00     0.026 C 
HETATM   25  C13 UNL     1      -7.473   1.085  16.832  1.00  0.00     0.026 C 
HETATM   26  C14 UNL     1      -6.178   2.308  18.492  1.00  0.00     0.026 C 
ENDBRANCH  22  23
ENDBRANCH   4  22
BRANCH   7  27
HETATM   27  N5  UNL     1      -5.306   1.696  11.388  1.00  0.00    -0.234 N 
ATOM     28  H52 UNL     1      -6.182   1.176  11.426  1.00  0.00     0.174 HD
ATOM     29  H51 UNL     1      -4.818   1.817  10.500  1.00  0.00     0.174 HD
ENDBRANCH   7  27
TORSDOF 7
ENDMDL
MODEL 5
REMARK VINA RESULT: -6.418761373      2.410      6.927
REMARK  7 active torsions:
REMARK  status: ('A' for Active; 'I' for Inactive)
REMARK    1  A    between atoms: N1_7  and  C7_8 
REMARK    2  A    between atoms: C7_8  and  C8_9 
REMARK    3  A    between atoms: C8_9  and  N2_10 
REMARK    4  A    between atoms: N2_10  and  C9_12 
REMARK    5  A    between atoms: C10_15  and  S1_16 
REMARK    6  A    between atoms: S1_16  and  C11_17 
REMARK    7  A    between atoms: C15_23  and  N5_24 
ROOT
HETATM    1  C9  UNL     1      -3.646   4.023  13.467  1.00  0.00     0.694 A 
HETATM    2  N3  UNL     1      -3.845   3.458  14.677  1.00  0.00    -0.169 N 
ATOM      3  H3  UNL     1      -3.502   3.943  15.506  1.00  0.00     0.186 HD
HETATM    4  C10 UNL     1      -4.476   2.281  14.832  1.00  0.00     0.175 A 
HETATM    5  N4  UNL     1      -4.942   1.619  13.732  1.00  0.00    -0.170 N 
ATOM      6  H4  UNL     1      -5.424   0.726  13.829  1.00  0.00     0.186 HD
HETATM    7  C15 UNL     1      -4.754   2.163  12.522  1.00  0.00     0.692 A 
HETATM    8  N6  UNL     1      -4.112   3.353  12.399  1.00  0.00    -0.023 N 
ATOM      9  H6  UNL     1      -3.980   3.750  11.469  1.00  0.00     0.203 HD
ENDROOT
BRANCH   1  10
HETATM   10  N2  UNL     1      -3.032   5.152  13.403  1.00  0.00    -0.224 N 
ATOM     11  H2  UNL     1      -2.014   5.115  13.355  1.00  0.00     0.177 HD
BRANCH  10  12
HETATM   12  C8  UNL     1      -3.621   6.449  13.391  1.00  0.00     0.168 C 
BRANCH  12  13
HETATM   13  C7  UNL     1      -3.316   7.103  12.055  1.00  0.00     0.292 C 
BRANCH  13  14
HETATM   14  N1  UNL     1      -4.498   7.560  11.392  1.00  0.00     0.090 N 
HETATM   15  C6  UNL     1      -5.304   6.500  10.817  1.00  0.00     0.276 C 
HETATM   16  C4  UNL     1      -6.651   7.128  10.486  1.00  0.00     0.010 C 
HETATM   17  C3  UNL     1      -6.495   8.227   9.497  1.00  0.00     0.012 C 
HETATM   18  C5  UNL     1      -7.253   7.596  11.806  1.00  0.00     0.011 C 
HETATM   19  C2  UNL     1      -5.303   9.102   9.663  1.00  0.00     0.010 C 
HETATM   20  C1  UNL     1      -5.629  10.372  10.455  1.00  0.00     0.011 C 
HETATM   21  C16 UNL     1      -4.117   8.429  10.304  1.00  0.00     0.276 C 
ENDBRANCH  13  14
ENDBRANCH  12  13
ENDBRANCH  10  12
ENDBRANCH   1  10
BRANCH   4  22
HETATM   22  S1  UNL     1      -4.686   1.628  16.478  1.00  0.00    -0.084 SA
BRANCH  22  23
HETATM   23  C11 UNL     1      -6.346   2.149  17.047  1.00  0.00     0.005 C 
HETATM   24  C12 UNL     1      -6.752   3.436  16.401  1.00  0.00     0.026 C 
HETATM   25  C13 UNL     1      -7.357   1.050  16.835  1.00  0.00     0.026 C 
HETATM   26  C14 UNL     1      -6.214   2.326  18.567  1.00  0.00     0.026 C 
ENDBRANCH  22  23
ENDBRANCH   4  22
BRANCH   7  27
HETATM   27  N5  UNL     1      -5.183   1.554  11.486  1.00  0.00    -0.234 N 
ATOM     28  H52 UNL     1      -5.961   0.898  11.561  1.00  0.00     0.174 HD
ATOM     29  H51 UNL     1      -4.742   1.728  10.583  1.00  0.00     0.174 HD
ENDBRANCH   7  27
TORSDOF 7
ENDMDL
