MODEL 1
REMARK VINA RESULT: -7.038140141      0.000      0.000
REMARK  14 active torsions:
REMARK  status: ('A' for Active; 'I' for Inactive)
REMARK    1  A    between atoms: N1_1  and  C1_5 
REMARK    2  A    between atoms: C1_5  and  C2_6 
REMARK    3  A    between atoms: C2_6  and  C3_7 
REMARK    4  A    between atoms: C3_7  and  C4_8 
REMARK    5  A    between atoms: C4_8  and  C5_9 
REMARK    6  A    between atoms: C5_9  and  N2_10 
REMARK    7  A    between atoms: C5_9  and  C6_14 
REMARK       I    between atoms: C6_14  and  N3_16 
REMARK    8  A    between atoms: C8_18  and  N4_19 
REMARK    9  A    between atoms: N5_22  and  C10_23 
REMARK   10  A    between atoms: C10_23  and  C11_24 
REMARK   11  A    between atoms: C11_24  and  C12_25 
REMARK   12  A    between atoms: C12_25  and  N6_26 
REMARK   13  A    between atoms: C12_25  and  O3_30 
REMARK   14  A    between atoms: C18_42  and  C19_43 
ROOT
HETATM    1  C6  UNL     1       1.606  -7.714   4.744  1.00  0.00     0.251 C 
HETATM    2  O1  UNL     1       0.328  -7.644   4.563  1.00  0.00    -0.271 OA
HETATM    3  N3  UNL     1       2.228  -6.493   5.050  1.00  0.00    -0.335 N 
HETATM    4  C7  UNL     1       1.569  -5.190   5.219  1.00  0.00     0.152 C 
HETATM    5  C8  UNL     1       2.562  -4.114   4.922  1.00  0.00     0.116 C 
HETATM    6  C17 UNL     1       3.844  -4.874   4.684  1.00  0.00     0.062 C 
HETATM    7  C18 UNL     1       3.619  -6.258   5.260  1.00  0.00     0.178 C 
ENDROOT
BRANCH   5   8
HETATM    8  N4  UNL     1       2.195  -3.243   3.822  1.00  0.00    -0.276 N 
HETATM    9  C9  UNL     1       1.801  -1.957   3.977  1.00  0.00     0.333 A 
HETATM   10  O2  UNL     1       1.772  -1.559   5.196  1.00  0.00    -0.246 OA
HETATM   11  N5  UNL     1       1.461  -1.153   2.972  1.00  0.00    -0.264 N 
HETATM   12  C13 UNL     1       1.507  -1.634   1.713  1.00  0.00     0.282 A 
HETATM   13  O4  UNL     1       1.200  -0.939   0.710  1.00  0.00    -0.265 OA
HETATM   14  C14 UNL     1       1.900  -2.931   1.508  1.00  0.00     0.147 A 
HETATM   15  N7  UNL     1       2.052  -3.702   0.407  1.00  0.00    -0.345 N 
HETATM   16  C16 UNL     1       2.245  -3.735   2.566  1.00  0.00     0.145 A 
HETATM   17  C15 UNL     1       2.470  -4.920   0.783  1.00  0.00     0.182 A 
ATOM     18  H7  UNL     1       1.877  -3.406  -0.553  1.00  0.00     0.167 HD
HETATM   19  N8  UNL     1       2.602  -4.978   2.120  1.00  0.00    -0.336 N 
ATOM     20  H8  UNL     1       2.902  -5.776   2.680  1.00  0.00     0.168 HD
BRANCH  11  21
HETATM   21  C10 UNL     1       1.081   0.210   3.153  1.00  0.00     0.141 C 
BRANCH  21  22
HETATM   22  C11 UNL     1       2.138   1.220   3.293  1.00  0.00     0.081 C 
BRANCH  22  23
HETATM   23  C12 UNL     1       1.877   2.528   3.907  1.00  0.00     0.317 C 
BRANCH  23  24
HETATM   24  N6  UNL     1       2.950   3.492   3.858  1.00  0.00    -0.053 N 
ATOM     25  H63 UNL     1       2.571   4.433   3.961  1.00  0.00     0.277 HD
ATOM     26  H62 UNL     1       3.511   3.423   4.707  1.00  0.00     0.277 HD
ATOM     27  H61 UNL     1       3.560   3.456   3.041  1.00  0.00     0.277 HD
ENDBRANCH  23  24
BRANCH  23  28
HETATM   28  O3  UNL     1       1.568   2.287   5.270  1.00  0.00    -0.370 OA
ATOM     29  H3  UNL     1       0.672   1.972   5.297  1.00  0.00     0.212 HD
ENDBRANCH  23  28
ENDBRANCH  22  23
ENDBRANCH  21  22
ENDBRANCH  11  21
ENDBRANCH   5   8
BRANCH   7  30
HETATM   30  C19 UNL     1       4.010  -6.309   6.692  1.00  0.00     0.254 C 
HETATM   31  N9  UNL     1       5.319  -6.030   7.087  1.00  0.00    -0.060 NA
HETATM   32  O5  UNL     1       3.092  -6.616   7.509  1.00  0.00    -0.275 OA
ENDBRANCH   7  30
BRANCH   1  33
HETATM   33  C5  UNL     1       2.182  -9.029   4.604  1.00  0.00     0.275 C 
BRANCH  33  34
HETATM   34  C4  UNL     1       2.777  -9.134   3.207  1.00  0.00     0.042 C 
BRANCH  34  35
HETATM   35  C3  UNL     1       2.551 -10.465   2.563  1.00  0.00     0.004 C 
BRANCH  35  36
HETATM   36  C2  UNL     1       3.300 -10.422   1.226  1.00  0.00     0.027 C 
BRANCH  36  37
HETATM   37  C1  UNL     1       3.211  -9.067   0.604  1.00  0.00     0.229 C 
BRANCH  37  38
HETATM   38  N1  UNL     1       4.464  -8.655   0.034  1.00  0.00    -0.079 N 
ATOM     39  H13 UNL     1       4.487  -7.647  -0.120  1.00  0.00     0.274 HD
ATOM     40  H12 UNL     1       5.223  -8.731   0.712  1.00  0.00     0.274 HD
ATOM     41  H11 UNL     1       4.680  -9.166  -0.822  1.00  0.00     0.274 HD
ENDBRANCH  37  38
ENDBRANCH  36  37
ENDBRANCH  35  36
ENDBRANCH  34  35
ENDBRANCH  33  34
BRANCH  33  42
HETATM   42  N2  UNL     1       1.406 -10.159   4.957  1.00  0.00    -0.067 N 
ATOM     43  H23 UNL     1       0.984 -10.584   4.132  1.00  0.00     0.275 HD
ATOM     44  H22 UNL     1       2.002 -10.931   5.256  1.00  0.00     0.275 HD
ATOM     45  H21 UNL     1       0.699  -9.950   5.663  1.00  0.00     0.275 HD
ENDBRANCH  33  42
ENDBRANCH   1  33
TORSDOF 14
ENDMDL
MODEL 2
REMARK VINA RESULT: -7.019249807      1.011      1.023
REMARK  14 active torsions:
REMARK  status: ('A' for Active; 'I' for Inactive)
REMARK    1  A    between atoms: N1_1  and  C1_5 
REMARK    2  A    between atoms: C1_5  and  C2_6 
REMARK    3  A    between atoms: C2_6  and  C3_7 
REMARK    4  A    between atoms: C3_7  and  C4_8 
REMARK    5  A    between atoms: C4_8  and  C5_9 
REMARK    6  A    between atoms: C5_9  and  N2_10 
REMARK    7  A    between atoms: C5_9  and  C6_14 
REMARK       I    between atoms: C6_14  and  N3_16 
REMARK    8  A    between atoms: C8_18  and  N4_19 
REMARK    9  A    between atoms: N5_22  and  C10_23 
REMARK   10  A    between atoms: C10_23  and  C11_24 
REMARK   11  A    between atoms: C11_24  and  C12_25 
REMARK   12  A    between atoms: C12_25  and  N6_26 
REMARK   13  A    between atoms: C12_25  and  O3_30 
REMARK   14  A    between atoms: C18_42  and  C19_43 
ROOT
HETATM    1  C6  UNL     1       1.508  -7.215   4.551  1.00  0.00     0.251 C 
HETATM    2  O1  UNL     1       0.220  -7.113   4.558  1.00  0.00    -0.271 OA
HETATM    3  N3  UNL     1       2.197  -6.044   4.903  1.00  0.00    -0.335 N 
HETATM    4  C7  UNL     1       1.599  -4.762   5.308  1.00  0.00     0.152 C 
HETATM    5  C8  UNL     1       2.567  -3.668   4.999  1.00  0.00     0.116 C 
HETATM    6  C17 UNL     1       3.787  -4.407   4.502  1.00  0.00     0.062 C 
HETATM    7  C18 UNL     1       3.608  -5.846   4.944  1.00  0.00     0.178 C 
ENDROOT
BRANCH   5   8
HETATM    8  N4  UNL     1       2.076  -2.673   4.066  1.00  0.00    -0.276 N 
HETATM    9  C9  UNL     1       1.816  -1.387   4.401  1.00  0.00     0.333 A 
HETATM   10  O2  UNL     1       2.041  -1.110   5.633  1.00  0.00    -0.246 OA
HETATM   11  N5  UNL     1       1.362  -0.470   3.550  1.00  0.00    -0.264 N 
HETATM   12  C13 UNL     1       1.142  -0.827   2.269  1.00  0.00     0.282 A 
HETATM   13  O4  UNL     1       0.713  -0.021   1.404  1.00  0.00    -0.265 OA
HETATM   14  C14 UNL     1       1.390  -2.119   1.884  1.00  0.00     0.147 A 
HETATM   15  N7  UNL     1       1.280  -2.787   0.712  1.00  0.00    -0.345 N 
HETATM   16  C16 UNL     1       1.859  -3.043   2.786  1.00  0.00     0.145 A 
HETATM   17  C15 UNL     1       1.664  -4.059   0.898  1.00  0.00     0.182 A 
ATOM     18  H7  UNL     1       0.956  -2.388  -0.170  1.00  0.00     0.167 HD
HETATM   19  N8  UNL     1       2.031  -4.255   2.176  1.00  0.00    -0.336 N 
ATOM     20  H8  UNL     1       2.366  -5.120   2.600  1.00  0.00     0.168 HD
BRANCH  11  21
HETATM   21  C10 UNL     1       1.128   0.889   3.914  1.00  0.00     0.141 C 
BRANCH  21  22
HETATM   22  C11 UNL     1       2.234   1.848   3.794  1.00  0.00     0.081 C 
BRANCH  22  23
HETATM   23  C12 UNL     1       1.996   3.263   3.483  1.00  0.00     0.317 C 
BRANCH  23  24
HETATM   24  N6  UNL     1       2.752   4.229   4.244  1.00  0.00    -0.053 N 
ATOM     25  H63 UNL     1       3.351   3.745   4.913  1.00  0.00     0.277 HD
ATOM     26  H62 UNL     1       3.453   4.664   3.646  1.00  0.00     0.277 HD
ATOM     27  H61 UNL     1       2.217   4.952   4.725  1.00  0.00     0.277 HD
ENDBRANCH  23  24
BRANCH  23  28
HETATM   28  O3  UNL     1       0.618   3.508   3.712  1.00  0.00    -0.370 OA
ATOM     29  H3  UNL     1       0.215   3.628   2.860  1.00  0.00     0.212 HD
ENDBRANCH  23  28
ENDBRANCH  22  23
ENDBRANCH  21  22
ENDBRANCH  11  21
ENDBRANCH   5   8
BRANCH   7  30
HETATM   30  C19 UNL     1       4.190  -6.065   6.293  1.00  0.00     0.254 C 
HETATM   31  N9  UNL     1       3.443  -6.669   7.305  1.00  0.00    -0.060 NA
HETATM   32  O5  UNL     1       5.384  -5.672   6.453  1.00  0.00    -0.275 OA
ENDBRANCH   7  30
BRANCH   1  33
HETATM   33  C5  UNL     1       2.027  -8.510   4.185  1.00  0.00     0.275 C 
BRANCH  33  34
HETATM   34  C4  UNL     1       2.193  -8.539   2.673  1.00  0.00     0.042 C 
BRANCH  34  35
HETATM   35  C3  UNL     1       2.052  -9.907   2.085  1.00  0.00     0.004 C 
BRANCH  35  36
HETATM   36  C2  UNL     1       3.314 -10.141   1.246  1.00  0.00     0.027 C 
BRANCH  36  37
HETATM   37  C1  UNL     1       3.366  -9.206   0.083  1.00  0.00     0.229 C 
BRANCH  37  38
HETATM   38  N1  UNL     1       4.648  -8.566  -0.035  1.00  0.00    -0.079 N 
ATOM     39  H13 UNL     1       4.569  -7.659  -0.494  1.00  0.00     0.274 HD
ATOM     40  H12 UNL     1       4.993  -8.257   0.874  1.00  0.00     0.274 HD
ATOM     41  H11 UNL     1       5.329  -9.162  -0.506  1.00  0.00     0.274 HD
ENDBRANCH  37  38
ENDBRANCH  36  37
ENDBRANCH  35  36
ENDBRANCH  34  35
ENDBRANCH  33  34
BRANCH  33  42
HETATM   42  N2  UNL     1       1.394  -9.671   4.691  1.00  0.00    -0.067 N 
ATOM     43  H23 UNL     1       0.583  -9.920   4.125  1.00  0.00     0.275 HD
ATOM     44  H22 UNL     1       1.968 -10.499   4.530  1.00  0.00     0.275 HD
ATOM     45  H21 UNL     1       1.140  -9.588   5.675  1.00  0.00     0.275 HD
ENDBRANCH  33  42
ENDBRANCH   1  33
TORSDOF 14
ENDMDL
MODEL 3
REMARK VINA RESULT: -7.016730776      2.793      7.620
REMARK  14 active torsions:
REMARK  status: ('A' for Active; 'I' for Inactive)
REMARK    1  A    between atoms: N1_1  and  C1_5 
REMARK    2  A    between atoms: C1_5  and  C2_6 
REMARK    3  A    between atoms: C2_6  and  C3_7 
REMARK    4  A    between atoms: C3_7  and  C4_8 
REMARK    5  A    between atoms: C4_8  and  C5_9 
REMARK    6  A    between atoms: C5_9  and  N2_10 
REMARK    7  A    between atoms: C5_9  and  C6_14 
REMARK       I    between atoms: C6_14  and  N3_16 
REMARK    8  A    between atoms: C8_18  and  N4_19 
REMARK    9  A    between atoms: N5_22  and  C10_23 
REMARK   10  A    between atoms: C10_23  and  C11_24 
REMARK   11  A    between atoms: C11_24  and  C12_25 
REMARK   12  A    between atoms: C12_25  and  N6_26 
REMARK   13  A    between atoms: C12_25  and  O3_30 
REMARK   14  A    between atoms: C18_42  and  C19_43 
ROOT
HETATM    1  C6  UNL     1      -0.155  -2.097   0.971  1.00  0.00     0.251 C 
HETATM    2  O1  UNL     1      -0.006  -2.989   0.049  1.00  0.00    -0.271 OA
HETATM    3  N3  UNL     1       0.839  -2.101   1.964  1.00  0.00    -0.335 N 
HETATM    4  C7  UNL     1       2.019  -2.976   2.021  1.00  0.00     0.152 C 
HETATM    5  C8  UNL     1       2.447  -3.103   3.446  1.00  0.00     0.116 C 
HETATM    6  C17 UNL     1       1.517  -2.166   4.178  1.00  0.00     0.062 C 
HETATM    7  C18 UNL     1       0.916  -1.266   3.117  1.00  0.00     0.178 C 
ENDROOT
BRANCH   5   8
HETATM    8  N4  UNL     1       2.427  -4.457   3.963  1.00  0.00    -0.276 N 
HETATM    9  C9  UNL     1       2.654  -4.773   5.260  1.00  0.00     0.333 A 
HETATM   10  O2  UNL     1       2.896  -3.763   6.013  1.00  0.00    -0.246 OA
HETATM   11  N5  UNL     1       2.639  -6.015   5.741  1.00  0.00    -0.264 N 
HETATM   12  C13 UNL     1       2.383  -7.034   4.896  1.00  0.00     0.282 A 
HETATM   13  O4  UNL     1       2.352  -8.234   5.271  1.00  0.00    -0.265 OA
HETATM   14  C14 UNL     1       2.148  -6.762   3.574  1.00  0.00     0.147 A 
HETATM   15  N7  UNL     1       1.868  -7.526   2.493  1.00  0.00    -0.345 N 
HETATM   16  C16 UNL     1       2.169  -5.469   3.108  1.00  0.00     0.145 A 
HETATM   17  C15 UNL     1       1.726  -6.732   1.422  1.00  0.00     0.182 A 
ATOM     18  H7  UNL     1       1.778  -8.543   2.494  1.00  0.00     0.167 HD
HETATM   19  N8  UNL     1       1.908  -5.445   1.766  1.00  0.00    -0.336 N 
ATOM     20  H8  UNL     1       1.860  -4.628   1.158  1.00  0.00     0.168 HD
BRANCH  11  21
HETATM   21  C10 UNL     1       2.847  -6.324   7.117  1.00  0.00     0.141 C 
BRANCH  21  22
HETATM   22  C11 UNL     1       4.143  -5.993   7.724  1.00  0.00     0.081 C 
BRANCH  22  23
HETATM   23  C12 UNL     1       5.365  -6.732   7.382  1.00  0.00     0.317 C 
BRANCH  23  24
HETATM   24  N6  UNL     1       6.414  -6.741   8.373  1.00  0.00    -0.053 N 
ATOM     25  H63 UNL     1       6.314  -5.931   8.985  1.00  0.00     0.277 HD
ATOM     26  H62 UNL     1       6.252  -7.498   9.036  1.00  0.00     0.277 HD
ATOM     27  H61 UNL     1       7.371  -6.790   8.025  1.00  0.00     0.277 HD
ENDBRANCH  23  24
BRANCH  23  28
HETATM   28  O3  UNL     1       5.884  -6.142   6.201  1.00  0.00    -0.370 OA
ATOM     29  H3  UNL     1       6.467  -6.782   5.808  1.00  0.00     0.212 HD
ENDBRANCH  23  28
ENDBRANCH  22  23
ENDBRANCH  21  22
ENDBRANCH  11  21
ENDBRANCH   5   8
BRANCH   7  30
HETATM   30  C19 UNL     1       1.753  -0.057   2.908  1.00  0.00     0.254 C 
HETATM   31  N9  UNL     1       1.497   0.816   1.850  1.00  0.00    -0.060 NA
HETATM   32  O5  UNL     1       2.693   0.119   3.740  1.00  0.00    -0.275 OA
ENDBRANCH   7  30
BRANCH   1  33
HETATM   33  C5  UNL     1      -1.310  -1.245   0.832  1.00  0.00     0.275 C 
BRANCH  33  34
HETATM   34  C4  UNL     1      -2.461  -2.097   0.319  1.00  0.00     0.042 C 
BRANCH  34  35
HETATM   35  C3  UNL     1      -3.736  -1.893   1.076  1.00  0.00     0.004 C 
BRANCH  35  36
HETATM   36  C2  UNL     1      -3.327  -1.425   2.478  1.00  0.00     0.027 C 
BRANCH  36  37
HETATM   37  C1  UNL     1      -4.527  -1.173   3.330  1.00  0.00     0.229 C 
BRANCH  37  38
HETATM   38  N1  UNL     1      -5.634  -2.011   2.958  1.00  0.00    -0.079 N 
ATOM     39  H13 UNL     1      -5.878  -1.887   1.975  1.00  0.00     0.274 HD
ATOM     40  H12 UNL     1      -5.363  -2.994   2.933  1.00  0.00     0.274 HD
ATOM     41  H11 UNL     1      -6.443  -1.864   3.562  1.00  0.00     0.274 HD
ENDBRANCH  37  38
ENDBRANCH  36  37
ENDBRANCH  35  36
ENDBRANCH  34  35
ENDBRANCH  33  34
BRANCH  33  42
HETATM   42  N2  UNL     1      -1.179  -0.020   0.135  1.00  0.00    -0.067 N 
ATOM     43  H23 UNL     1      -0.318  -0.001  -0.411  1.00  0.00     0.275 HD
ATOM     44  H22 UNL     1      -1.858   0.043  -0.623  1.00  0.00     0.275 HD
ATOM     45  H21 UNL     1      -1.240   0.794   0.748  1.00  0.00     0.275 HD
ENDBRANCH  33  42
ENDBRANCH   1  33
TORSDOF 14
ENDMDL
MODEL 4
REMARK VINA RESULT: -6.993578582      2.362      4.092
REMARK  14 active torsions:
REMARK  status: ('A' for Active; 'I' for Inactive)
REMARK    1  A    between atoms: N1_1  and  C1_5 
REMARK    2  A    between atoms: C1_5  and  C2_6 
REMARK    3  A    between atoms: C2_6  and  C3_7 
REMARK    4  A    between atoms: C3_7  and  C4_8 
REMARK    5  A    between atoms: C4_8  and  C5_9 
REMARK    6  A    between atoms: C5_9  and  N2_10 
REMARK    7  A    between atoms: C5_9  and  C6_14 
REMARK       I    between atoms: C6_14  and  N3_16 
REMARK    8  A    between atoms: C8_18  and  N4_19 
REMARK    9  A    between atoms: N5_22  and  C10_23 
REMARK   10  A    between atoms: C10_23  and  C11_24 
REMARK   11  A    between atoms: C11_24  and  C12_25 
REMARK   12  A    between atoms: C12_25  and  N6_26 
REMARK   13  A    between atoms: C12_25  and  O3_30 
REMARK   14  A    between atoms: C18_42  and  C19_43 
ROOT
HETATM    1  C6  UNL     1       4.058  -5.311   5.787  1.00  0.00     0.251 C 
HETATM    2  O1  UNL     1       5.190  -4.932   5.293  1.00  0.00    -0.271 OA
HETATM    3  N3  UNL     1       2.982  -5.289   4.884  1.00  0.00    -0.335 N 
HETATM    4  C7  UNL     1       3.037  -4.923   3.462  1.00  0.00     0.152 C 
HETATM    5  C8  UNL     1       1.687  -4.439   3.043  1.00  0.00     0.116 C 
HETATM    6  C17 UNL     1       0.839  -4.655   4.273  1.00  0.00     0.062 C 
HETATM    7  C18 UNL     1       1.619  -5.612   5.152  1.00  0.00     0.178 C 
ENDROOT
BRANCH   5   8
HETATM    8  N4  UNL     1       1.661  -3.073   2.556  1.00  0.00    -0.276 N 
HETATM    9  C9  UNL     1       1.863  -1.988   3.341  1.00  0.00     0.333 A 
HETATM   10  O2  UNL     1       2.082  -2.265   4.574  1.00  0.00    -0.246 OA
HETATM   11  N5  UNL     1       1.838  -0.732   2.901  1.00  0.00    -0.264 N 
HETATM   12  C13 UNL     1       1.597  -0.508   1.593  1.00  0.00     0.282 A 
HETATM   13  O4  UNL     1       1.556   0.648   1.099  1.00  0.00    -0.265 OA
HETATM   14  C14 UNL     1       1.386  -1.577   0.761  1.00  0.00     0.147 A 
HETATM   15  N7  UNL     1       1.127  -1.700  -0.561  1.00  0.00    -0.345 N 
HETATM   16  C16 UNL     1       1.420  -2.862   1.245  1.00  0.00     0.145 A 
HETATM   17  C15 UNL     1       1.008  -3.001  -0.863  1.00  0.00     0.182 A 
ATOM     18  H7  UNL     1       1.036  -0.927  -1.222  1.00  0.00     0.167 HD
HETATM   19  N8  UNL     1       1.183  -3.754   0.237  1.00  0.00    -0.336 N 
ATOM     20  H8  UNL     1       1.148  -4.771   0.304  1.00  0.00     0.168 HD
BRANCH  11  21
HETATM   21  C10 UNL     1       2.088   0.396   3.736  1.00  0.00     0.141 C 
BRANCH  21  22
HETATM   22  C11 UNL     1       0.941   1.115   4.306  1.00  0.00     0.081 C 
BRANCH  22  23
HETATM   23  C12 UNL     1       0.487   2.400   3.759  1.00  0.00     0.317 C 
BRANCH  23  24
HETATM   24  N6  UNL     1       1.463   3.462   3.709  1.00  0.00    -0.053 N 
ATOM     25  H63 UNL     1       1.469   3.964   4.598  1.00  0.00     0.277 HD
ATOM     26  H62 UNL     1       2.402   3.065   3.712  1.00  0.00     0.277 HD
ATOM     27  H61 UNL     1       1.375   4.128   2.942  1.00  0.00     0.277 HD
ENDBRANCH  23  24
BRANCH  23  28
HETATM   28  O3  UNL     1      -0.591   2.834   4.573  1.00  0.00    -0.370 OA
ATOM     29  H3  UNL     1      -0.992   3.571   4.127  1.00  0.00     0.212 HD
ENDBRANCH  23  28
ENDBRANCH  22  23
ENDBRANCH  21  22
ENDBRANCH  11  21
ENDBRANCH   5   8
BRANCH   7  30
HETATM   30  C19 UNL     1       1.280  -7.023   4.834  1.00  0.00     0.254 C 
HETATM   31  N9  UNL     1       2.136  -8.063   5.196  1.00  0.00    -0.060 NA
HETATM   32  O5  UNL     1       0.185  -7.207   4.225  1.00  0.00    -0.275 OA
ENDBRANCH   7  30
BRANCH   1  33
HETATM   33  C5  UNL     1       4.082  -5.696   7.176  1.00  0.00     0.275 C 
BRANCH  33  34
HETATM   34  C4  UNL     1       5.200  -6.711   7.362  1.00  0.00     0.042 C 
BRANCH  34  35
HETATM   35  C3  UNL     1       5.519  -6.990   8.797  1.00  0.00     0.004 C 
BRANCH  35  36
HETATM   36  C2  UNL     1       7.003  -6.647   8.977  1.00  0.00     0.027 C 
BRANCH  36  37
HETATM   37  C1  UNL     1       7.872  -7.772   8.519  1.00  0.00     0.229 C 
BRANCH  37  38
HETATM   38  N1  UNL     1       8.728  -7.380   7.432  1.00  0.00    -0.079 N 
ATOM     39  H13 UNL     1       8.479  -6.455   7.079  1.00  0.00     0.274 HD
ATOM     40  H12 UNL     1       9.673  -7.177   7.759  1.00  0.00     0.274 HD
ATOM     41  H11 UNL     1       8.734  -8.073   6.684  1.00  0.00     0.274 HD
ENDBRANCH  37  38
ENDBRANCH  36  37
ENDBRANCH  35  36
ENDBRANCH  34  35
ENDBRANCH  33  34
BRANCH  33  42
HETATM   42  N2  UNL     1       2.874  -6.088   7.802  1.00  0.00    -0.067 N 
ATOM     43  H23 UNL     1       2.965  -6.064   8.817  1.00  0.00     0.275 HD
ATOM     44  H22 UNL     1       2.154  -5.375   7.683  1.00  0.00     0.275 HD
ATOM     45  H21 UNL     1       2.542  -7.000   7.486  1.00  0.00     0.275 HD
ENDBRANCH  33  42
ENDBRANCH   1  33
TORSDOF 14
ENDMDL
MODEL 5
REMARK VINA RESULT: -6.922008777      2.726      5.188
REMARK  14 active torsions:
REMARK  status: ('A' for Active; 'I' for Inactive)
REMARK    1  A    between atoms: N1_1  and  C1_5 
REMARK    2  A    between atoms: C1_5  and  C2_6 
REMARK    3  A    between atoms: C2_6  and  C3_7 
REMARK    4  A    between atoms: C3_7  and  C4_8 
REMARK    5  A    between atoms: C4_8  and  C5_9 
REMARK    6  A    between atoms: C5_9  and  N2_10 
REMARK    7  A    between atoms: C5_9  and  C6_14 
REMARK       I    between atoms: C6_14  and  N3_16 
REMARK    8  A    between atoms: C8_18  and  N4_19 
REMARK    9  A    between atoms: N5_22  and  C10_23 
REMARK   10  A    between atoms: C10_23  and  C11_24 
REMARK   11  A    between atoms: C11_24  and  C12_25 
REMARK   12  A    between atoms: C12_25  and  N6_26 
REMARK   13  A    between atoms: C12_25  and  O3_30 
REMARK   14  A    between atoms: C18_42  and  C19_43 
ROOT
HETATM    1  C6  UNL     1       3.912  -5.388   6.005  1.00  0.00     0.251 C 
HETATM    2  O1  UNL     1       5.072  -4.995   5.594  1.00  0.00    -0.271 OA
HETATM    3  N3  UNL     1       2.898  -5.353   5.034  1.00  0.00    -0.335 N 
HETATM    4  C7  UNL     1       3.045  -4.959   3.625  1.00  0.00     0.152 C 
HETATM    5  C8  UNL     1       1.723  -4.473   3.128  1.00  0.00     0.116 C 
HETATM    6  C17 UNL     1       0.797  -4.716   4.295  1.00  0.00     0.062 C 
HETATM    7  C18 UNL     1       1.522  -5.687   5.205  1.00  0.00     0.178 C 
ENDROOT
BRANCH   5   8
HETATM    8  N4  UNL     1       1.721  -3.098   2.666  1.00  0.00    -0.276 N 
HETATM    9  C9  UNL     1       1.738  -2.741   1.360  1.00  0.00     0.333 A 
HETATM   10  O2  UNL     1       1.760  -3.731   0.545  1.00  0.00    -0.246 OA
HETATM   11  N5  UNL     1       1.739  -1.481   0.930  1.00  0.00    -0.264 N 
HETATM   12  C13 UNL     1       1.722  -0.486   1.839  1.00  0.00     0.282 A 
HETATM   13  O4  UNL     1       1.722   0.729   1.515  1.00  0.00    -0.265 OA
HETATM   14  C14 UNL     1       1.704  -0.800   3.173  1.00  0.00     0.147 A 
HETATM   15  N7  UNL     1       1.684  -0.067   4.311  1.00  0.00    -0.345 N 
HETATM   16  C16 UNL     1       1.703  -2.111   3.586  1.00  0.00     0.145 A 
HETATM   17  C15 UNL     1       1.672  -0.898   5.364  1.00  0.00     0.182 A 
ATOM     18  H7  UNL     1       1.679   0.952   4.359  1.00  0.00     0.167 HD
HETATM   19  N8  UNL     1       1.683  -2.177   4.952  1.00  0.00    -0.336 N 
ATOM     20  H8  UNL     1       1.679  -3.016   5.532  1.00  0.00     0.168 HD
BRANCH  11  21
HETATM   21  C10 UNL     1       1.723  -1.125  -0.450  1.00  0.00     0.141 C 
BRANCH  21  22
HETATM   22  C11 UNL     1       3.002  -1.029  -1.166  1.00  0.00     0.081 C 
BRANCH  22  23
HETATM   23  C12 UNL     1       3.580  -2.181  -1.869  1.00  0.00     0.317 C 
BRANCH  23  24
HETATM   24  N6  UNL     1       2.649  -3.148  -2.400  1.00  0.00    -0.053 N 
ATOM     25  H63 UNL     1       1.799  -3.151  -1.837  1.00  0.00     0.277 HD
ATOM     26  H62 UNL     1       2.282  -2.815  -3.292  1.00  0.00     0.277 HD
ATOM     27  H61 UNL     1       2.993  -4.102  -2.507  1.00  0.00     0.277 HD
ENDBRANCH  23  24
BRANCH  23  28
HETATM   28  O3  UNL     1       4.421  -2.847  -0.942  1.00  0.00    -0.370 OA
ATOM     29  H3  UNL     1       4.870  -3.533  -1.422  1.00  0.00     0.212 HD
ENDBRANCH  23  28
ENDBRANCH  22  23
ENDBRANCH  21  22
ENDBRANCH  11  21
ENDBRANCH   5   8
BRANCH   7  30
HETATM   30  C19 UNL     1       1.213  -7.093   4.838  1.00  0.00     0.254 C 
HETATM   31  N9  UNL     1       2.077  -8.131   5.188  1.00  0.00    -0.060 NA
HETATM   32  O5  UNL     1       0.134  -7.276   4.200  1.00  0.00    -0.275 OA
ENDBRANCH   7  30
BRANCH   1  33
HETATM   33  C5  UNL     1       3.847  -5.799   7.385  1.00  0.00     0.275 C 
BRANCH  33  34
HETATM   34  C4  UNL     1       4.991  -6.770   7.640  1.00  0.00     0.042 C 
BRANCH  34  35
HETATM   35  C3  UNL     1       5.439  -6.802   9.067  1.00  0.00     0.004 C 
BRANCH  35  36
HETATM   36  C2  UNL     1       6.954  -7.038   9.031  1.00  0.00     0.027 C 
BRANCH  36  37
HETATM   37  C1  UNL     1       7.461  -7.057   7.626  1.00  0.00     0.229 C 
BRANCH  37  38
HETATM   38  N1  UNL     1       8.846  -7.434   7.561  1.00  0.00    -0.079 N 
ATOM     39  H13 UNL     1       9.324  -6.957   6.796  1.00  0.00     0.274 HD
ATOM     40  H12 UNL     1       9.373  -7.047   8.345  1.00  0.00     0.274 HD
ATOM     41  H11 UNL     1       8.963  -8.445   7.500  1.00  0.00     0.274 HD
ENDBRANCH  37  38
ENDBRANCH  36  37
ENDBRANCH  35  36
ENDBRANCH  34  35
ENDBRANCH  33  34
BRANCH  33  42
HETATM   42  N2  UNL     1       2.613  -6.255   7.909  1.00  0.00    -0.067 N 
ATOM     43  H23 UNL     1       2.745  -7.089   8.480  1.00  0.00     0.275 HD
ATOM     44  H22 UNL     1       2.263  -5.618   8.624  1.00  0.00     0.275 HD
ATOM     45  H21 UNL     1       1.911  -6.414   7.186  1.00  0.00     0.275 HD
ENDBRANCH  33  42
ENDBRANCH   1  33
TORSDOF 14
ENDMDL
