MODEL 1
REMARK VINA RESULT: -9.684964043      0.000      0.000
REMARK  12 active torsions:
REMARK  status: ('A' for Active; 'I' for Inactive)
REMARK    1  A    between atoms: C2_2  and  N1_3 
REMARK    2  A    between atoms: C2_2  and  C19_41 
REMARK    3  A    between atoms: N1_3  and  C3_5 
REMARK    4  A    between atoms: C3_5  and  C4_6 
REMARK    5  A    between atoms: C3_5  and  C11_25 
REMARK       I    between atoms: C4_6  and  N2_8 
REMARK       I    between atoms: N2_8  and  C5_10 
REMARK    6  A    between atoms: C5_10  and  C6_12 
REMARK    7  A    between atoms: C6_12  and  N3_13 
REMARK    8  A    between atoms: C6_12  and  C7_17 
REMARK    9  A    between atoms: C7_17  and  C8_18 
REMARK   10  A    between atoms: C11_25  and  O4_27 
REMARK   11  A    between atoms: O4_27  and  C12_28 
REMARK   12  A    between atoms: C12_28  and  C13_29 
ROOT
HETATM    1  C3  UNL     1       2.567  -5.561   5.227  1.00  0.00     0.271 C 
ENDROOT
BRANCH   1   2
HETATM    2  N1  UNL     1       1.433  -6.314   4.993  1.00  0.00    -0.390 N 
ATOM      3  H1  UNL     1       0.538  -5.857   5.161  1.00  0.00     0.155 HD
BRANCH   2   4
HETATM    4  C2  UNL     1       1.387  -7.625   4.554  1.00  0.00     0.163 C 
HETATM    5  C1  UNL     1       2.449  -8.608   4.875  1.00  0.00     0.041 C 
BRANCH   4   6
HETATM    6  C19 UNL     1       1.295  -7.606   3.040  1.00  0.00     0.253 C 
HETATM    7  N9  UNL     1       0.890  -8.730   2.297  1.00  0.00    -0.060 NA
HETATM    8  O6  UNL     1       1.592  -6.547   2.448  1.00  0.00    -0.275 OA
ENDBRANCH   4   6
ENDBRANCH   2   4
ENDBRANCH   1   2
BRANCH   1   9
HETATM    9  C4  UNL     1       2.661  -4.174   4.730  1.00  0.00     0.256 C 
HETATM   10  O1  UNL     1       3.788  -3.674   4.491  1.00  0.00    -0.270 OA
HETATM   11  N2  UNL     1       1.473  -3.382   4.516  1.00  0.00    -0.294 N 
HETATM   12  C5  UNL     1       1.534  -2.055   4.074  1.00  0.00     0.255 C 
ATOM     13  H2  UNL     1       0.560  -3.802   4.693  1.00  0.00     0.171 HD
HETATM   14  O2  UNL     1       2.654  -1.566   3.817  1.00  0.00    -0.271 OA
BRANCH  12  15
HETATM   15  C6  UNL     1       0.333  -1.229   3.902  1.00  0.00     0.280 C 
BRANCH  15  16
HETATM   16  N3  UNL     1      -0.822  -2.099   3.534  1.00  0.00    -0.066 N 
ATOM     17  H33 UNL     1      -1.006  -2.091   2.531  1.00  0.00     0.275 HD
ATOM     18  H32 UNL     1      -0.604  -3.091   3.634  1.00  0.00     0.275 HD
ATOM     19  H31 UNL     1      -1.640  -1.828   4.078  1.00  0.00     0.275 HD
ENDBRANCH  15  16
BRANCH  15  20
HETATM   20  C7  UNL     1       0.437  -0.226   2.761  1.00  0.00     0.101 C 
BRANCH  20  21
HETATM   21  C8  UNL     1       0.884   1.084   3.233  1.00  0.00     0.028 A 
HETATM   22  C9  UNL     1       0.110   2.201   3.514  1.00  0.00     0.114 A 
HETATM   23  N4  UNL     1       0.947   3.202   3.897  1.00  0.00    -0.360 N 
HETATM   24  C10 UNL     1       2.208   2.731   3.861  1.00  0.00     0.180 A 
ATOM     25  H4  UNL     1       0.668   4.145   4.167  1.00  0.00     0.166 HD
HETATM   26  N5  UNL     1       2.151   1.452   3.458  1.00  0.00    -0.355 N 
ATOM     27  H5  UNL     1       2.961   0.844   3.339  1.00  0.00     0.166 HD
ENDBRANCH  20  21
ENDBRANCH  15  20
ENDBRANCH  12  15
ENDBRANCH   1   9
BRANCH   1  28
HETATM   28  C11 UNL     1       2.717  -5.426   6.732  1.00  0.00     0.291 C 
HETATM   29  O3  UNL     1       1.759  -5.006   7.408  1.00  0.00    -0.262 OA
BRANCH  28  30
HETATM   30  O4  UNL     1       3.892  -5.757   7.390  1.00  0.00    -0.313 OA
BRANCH  30  31
HETATM   31  C12 UNL     1       5.033  -6.181   6.653  1.00  0.00     0.236 C 
BRANCH  31  32
HETATM   32  C13 UNL     1       6.088  -6.713   7.510  1.00  0.00     0.041 A 
HETATM   33  C14 UNL     1       5.824  -7.044   8.811  1.00  0.00     0.102 A 
HETATM   34  C15 UNL     1       6.802  -7.554   9.634  1.00  0.00     0.252 A 
HETATM   35  O5  UNL     1       6.552  -7.862  10.849  1.00  0.00    -0.268 OA
HETATM   36  N6  UNL     1       8.050  -7.741   9.172  1.00  0.00    -0.284 N 
HETATM   37  C16 UNL     1       8.304  -7.416   7.896  1.00  0.00     0.184 A 
HETATM   38  C18 UNL     1       9.239  -8.259   9.823  1.00  0.00     0.155 A 
HETATM   39  N7  UNL     1       7.338  -6.907   7.069  1.00  0.00    -0.329 N 
HETATM   40  N8  UNL     1       9.674  -7.685   7.604  1.00  0.00    -0.360 N 
ATOM     41  H7  UNL     1       7.574  -6.671   6.105  1.00  0.00     0.169 HD
HETATM   42  C17 UNL     1      10.315  -8.178   8.784  1.00  0.00     0.143 A 
ATOM     43  H8  UNL     1      10.125  -7.549   6.699  1.00  0.00     0.162 HD
ENDBRANCH  31  32
ENDBRANCH  30  31
ENDBRANCH  28  30
ENDBRANCH   1  28
TORSDOF 12
ENDMDL
MODEL 2
REMARK VINA RESULT: -9.661107626      1.504      1.880
REMARK  12 active torsions:
REMARK  status: ('A' for Active; 'I' for Inactive)
REMARK    1  A    between atoms: C2_2  and  N1_3 
REMARK    2  A    between atoms: C2_2  and  C19_41 
REMARK    3  A    between atoms: N1_3  and  C3_5 
REMARK    4  A    between atoms: C3_5  and  C4_6 
REMARK    5  A    between atoms: C3_5  and  C11_25 
REMARK       I    between atoms: C4_6  and  N2_8 
REMARK       I    between atoms: N2_8  and  C5_10 
REMARK    6  A    between atoms: C5_10  and  C6_12 
REMARK    7  A    between atoms: C6_12  and  N3_13 
REMARK    8  A    between atoms: C6_12  and  C7_17 
REMARK    9  A    between atoms: C7_17  and  C8_18 
REMARK   10  A    between atoms: C11_25  and  O4_27 
REMARK   11  A    between atoms: O4_27  and  C12_28 
REMARK   12  A    between atoms: C12_28  and  C13_29 
ROOT
HETATM    1  C3  UNL     1       2.062  -5.830   3.992  1.00  0.00     0.271 C 
ENDROOT
BRANCH   1   2
HETATM    2  N1  UNL     1       1.266  -6.904   3.643  1.00  0.00    -0.390 N 
ATOM      3  H1  UNL     1       0.339  -6.943   4.065  1.00  0.00     0.155 HD
BRANCH   2   4
HETATM    4  C2  UNL     1       1.598  -7.933   2.779  1.00  0.00     0.163 C 
HETATM    5  C1  UNL     1       0.636  -8.486   1.797  1.00  0.00     0.041 C 
BRANCH   4   6
HETATM    6  C19 UNL     1       2.050  -9.115   3.615  1.00  0.00     0.253 C 
HETATM    7  N9  UNL     1       1.461 -10.388   3.497  1.00  0.00    -0.060 NA
HETATM    8  O6  UNL     1       2.978  -8.936   4.431  1.00  0.00    -0.275 OA
ENDBRANCH   4   6
ENDBRANCH   2   4
ENDBRANCH   1   2
BRANCH   1   9
HETATM    9  C4  UNL     1       1.816  -4.495   3.412  1.00  0.00     0.256 C 
HETATM   10  O1  UNL     1       1.465  -4.394   2.210  1.00  0.00    -0.270 OA
HETATM   11  N2  UNL     1       1.975  -3.301   4.208  1.00  0.00    -0.294 N 
HETATM   12  C5  UNL     1       1.776  -2.021   3.675  1.00  0.00     0.255 C 
ATOM     13  H2  UNL     1       2.240  -3.392   5.188  1.00  0.00     0.171 HD
HETATM   14  O2  UNL     1       1.407  -1.924   2.486  1.00  0.00    -0.271 OA
BRANCH  12  15
HETATM   15  C6  UNL     1       1.984  -0.802   4.465  1.00  0.00     0.280 C 
BRANCH  15  16
HETATM   16  N3  UNL     1       1.624  -1.063   5.889  1.00  0.00    -0.066 N 
ATOM     17  H33 UNL     1       0.618  -1.169   6.020  1.00  0.00     0.275 HD
ATOM     18  H32 UNL     1       1.909  -1.994   6.194  1.00  0.00     0.275 HD
ATOM     19  H31 UNL     1       2.014  -0.329   6.480  1.00  0.00     0.275 HD
ENDBRANCH  15  16
BRANCH  15  20
HETATM   20  C7  UNL     1       1.089   0.357   4.049  1.00  0.00     0.101 C 
BRANCH  20  21
HETATM   21  C8  UNL     1       1.869   1.551   3.723  1.00  0.00     0.028 A 
HETATM   22  C9  UNL     1       2.764   1.729   2.678  1.00  0.00     0.114 A 
HETATM   23  N4  UNL     1       3.277   2.984   2.778  1.00  0.00    -0.360 N 
HETATM   24  C10 UNL     1       2.723   3.580   3.851  1.00  0.00     0.180 A 
ATOM     25  H4  UNL     1       3.962   3.402   2.149  1.00  0.00     0.166 HD
HETATM   26  N5  UNL     1       1.876   2.700   4.409  1.00  0.00    -0.355 N 
ATOM     27  H5  UNL     1       1.315   2.883   5.242  1.00  0.00     0.166 HD
ENDBRANCH  20  21
ENDBRANCH  15  20
ENDBRANCH  12  15
ENDBRANCH   1   9
BRANCH   1  28
HETATM   28  C11 UNL     1       1.905  -5.619   5.487  1.00  0.00     0.291 C 
HETATM   29  O3  UNL     1       0.765  -5.478   5.970  1.00  0.00    -0.262 OA
BRANCH  28  30
HETATM   30  O4  UNL     1       2.992  -5.576   6.346  1.00  0.00    -0.313 OA
BRANCH  30  31
HETATM   31  C12 UNL     1       4.305  -5.823   5.855  1.00  0.00     0.236 C 
BRANCH  31  32
HETATM   32  C13 UNL     1       5.213  -6.294   6.896  1.00  0.00     0.041 A 
HETATM   33  C14 UNL     1       4.783  -6.415   8.189  1.00  0.00     0.102 A 
HETATM   34  C15 UNL     1       5.621  -6.864   9.184  1.00  0.00     0.252 A 
HETATM   35  O5  UNL     1       5.216  -6.976  10.392  1.00  0.00    -0.268 OA
HETATM   36  N6  UNL     1       6.892  -7.199   8.904  1.00  0.00    -0.284 N 
HETATM   37  C16 UNL     1       7.309  -7.079   7.635  1.00  0.00     0.184 A 
HETATM   38  C18 UNL     1       7.957  -7.694   9.756  1.00  0.00     0.155 A 
HETATM   39  N7  UNL     1       6.483  -6.632   6.637  1.00  0.00    -0.329 N 
HETATM   40  N8  UNL     1       8.676  -7.478   7.547  1.00  0.00    -0.360 N 
ATOM     41  H7  UNL     1       6.841  -6.555   5.685  1.00  0.00     0.169 HD
HETATM   42  C17 UNL     1       9.142  -7.836   8.851  1.00  0.00     0.143 A 
ATOM     43  H8  UNL     1       9.232  -7.504   6.692  1.00  0.00     0.162 HD
ENDBRANCH  31  32
ENDBRANCH  30  31
ENDBRANCH  28  30
ENDBRANCH   1  28
TORSDOF 12
ENDMDL
MODEL 3
REMARK VINA RESULT: -9.602021772      1.929      6.929
REMARK  12 active torsions:
REMARK  status: ('A' for Active; 'I' for Inactive)
REMARK    1  A    between atoms: C2_2  and  N1_3 
REMARK    2  A    between atoms: C2_2  and  C19_41 
REMARK    3  A    between atoms: N1_3  and  C3_5 
REMARK    4  A    between atoms: C3_5  and  C4_6 
REMARK    5  A    between atoms: C3_5  and  C11_25 
REMARK       I    between atoms: C4_6  and  N2_8 
REMARK       I    between atoms: N2_8  and  C5_10 
REMARK    6  A    between atoms: C5_10  and  C6_12 
REMARK    7  A    between atoms: C6_12  and  N3_13 
REMARK    8  A    between atoms: C6_12  and  C7_17 
REMARK    9  A    between atoms: C7_17  and  C8_18 
REMARK   10  A    between atoms: C11_25  and  O4_27 
REMARK   11  A    between atoms: O4_27  and  C12_28 
REMARK   12  A    between atoms: C12_28  and  C13_29 
ROOT
HETATM    1  C3  UNL     1       1.771  -4.003   4.924  1.00  0.00     0.271 C 
ENDROOT
BRANCH   1   2
HETATM    2  N1  UNL     1       1.517  -3.092   3.917  1.00  0.00    -0.390 N 
ATOM      3  H1  UNL     1       1.884  -3.316   2.993  1.00  0.00     0.155 HD
BRANCH   2   4
HETATM    4  C2  UNL     1       0.815  -1.905   4.034  1.00  0.00     0.163 C 
HETATM    5  C1  UNL     1       0.053  -1.319   2.907  1.00  0.00     0.041 C 
BRANCH   4   6
HETATM    6  C19 UNL     1       1.790  -0.828   4.469  1.00  0.00     0.253 C 
HETATM    7  N9  UNL     1       2.425   0.027   3.549  1.00  0.00    -0.060 NA
HETATM    8  O6  UNL     1       2.027  -0.709   5.689  1.00  0.00    -0.275 OA
ENDBRANCH   4   6
ENDBRANCH   2   4
ENDBRANCH   1   2
BRANCH   1   9
HETATM    9  C4  UNL     1       1.266  -5.387   4.826  1.00  0.00     0.256 C 
HETATM   10  O1  UNL     1       0.243  -5.723   5.471  1.00  0.00    -0.270 OA
HETATM   11  N2  UNL     1       1.935  -6.363   3.997  1.00  0.00    -0.294 N 
HETATM   12  C5  UNL     1       1.494  -7.689   3.908  1.00  0.00     0.255 C 
ATOM     13  H2  UNL     1       2.753  -6.077   3.459  1.00  0.00     0.171 HD
HETATM   14  O2  UNL     1       0.465  -8.015   4.535  1.00  0.00    -0.271 OA
BRANCH  12  15
HETATM   15  C6  UNL     1       2.198  -8.697   3.107  1.00  0.00     0.280 C 
BRANCH  15  16
HETATM   16  N3  UNL     1       2.402  -8.180   1.722  1.00  0.00    -0.066 N 
ATOM     17  H33 UNL     1       1.923  -8.749   1.024  1.00  0.00     0.275 HD
ATOM     18  H32 UNL     1       1.906  -7.303   1.561  1.00  0.00     0.275 HD
ATOM     19  H31 UNL     1       3.400  -8.097   1.532  1.00  0.00     0.275 HD
ENDBRANCH  15  16
BRANCH  15  20
HETATM   20  C7  UNL     1       1.414  -9.989   2.922  1.00  0.00     0.101 C 
BRANCH  20  21
HETATM   21  C8  UNL     1       1.686 -10.943   3.997  1.00  0.00     0.028 A 
HETATM   22  C9  UNL     1       2.807 -11.742   4.168  1.00  0.00     0.114 A 
HETATM   23  N4  UNL     1       2.619 -12.491   5.286  1.00  0.00    -0.360 N 
HETATM   24  C10 UNL     1       1.417 -12.175   5.806  1.00  0.00     0.180 A 
ATOM     25  H4  UNL     1       3.274 -13.174   5.667  1.00  0.00     0.166 HD
HETATM   26  N5  UNL     1       0.869 -11.240   5.014  1.00  0.00    -0.355 N 
ATOM     27  H5  UNL     1      -0.045 -10.814   5.167  1.00  0.00     0.166 HD
ENDBRANCH  20  21
ENDBRANCH  15  20
ENDBRANCH  12  15
ENDBRANCH   1   9
BRANCH   1  28
HETATM   28  C11 UNL     1       3.278  -4.165   5.016  1.00  0.00     0.291 C 
HETATM   29  O3  UNL     1       4.004  -3.652   4.144  1.00  0.00    -0.262 OA
BRANCH  28  30
HETATM   30  O4  UNL     1       3.883  -4.869   6.046  1.00  0.00    -0.313 OA
BRANCH  30  31
HETATM   31  C12 UNL     1       4.742  -5.966   5.757  1.00  0.00     0.236 C 
BRANCH  31  32
HETATM   32  C13 UNL     1       5.501  -6.407   6.923  1.00  0.00     0.041 A 
HETATM   33  C14 UNL     1       4.891  -6.529   8.141  1.00  0.00     0.102 A 
HETATM   34  C15 UNL     1       5.587  -6.949   9.252  1.00  0.00     0.252 A 
HETATM   35  O5  UNL     1       5.014  -7.063  10.389  1.00  0.00    -0.268 OA
HETATM   36  N6  UNL     1       6.893  -7.253   9.162  1.00  0.00    -0.284 N 
HETATM   37  C16 UNL     1       7.487  -7.131   7.966  1.00  0.00     0.184 A 
HETATM   38  C18 UNL     1       7.834  -7.715  10.166  1.00  0.00     0.155 A 
HETATM   39  N7  UNL     1       6.804  -6.713   6.854  1.00  0.00    -0.329 N 
HETATM   40  N8  UNL     1       8.861  -7.496   8.082  1.00  0.00    -0.360 N 
ATOM     41  H7  UNL     1       7.293  -6.634   5.963  1.00  0.00     0.169 HD
HETATM   42  C17 UNL     1       9.142  -7.833   9.444  1.00  0.00     0.143 A 
ATOM     43  H8  UNL     1       9.536  -7.514   7.317  1.00  0.00     0.162 HD
ENDBRANCH  31  32
ENDBRANCH  30  31
ENDBRANCH  28  30
ENDBRANCH   1  28
TORSDOF 12
ENDMDL
MODEL 4
REMARK VINA RESULT: -9.449510407      2.233      8.121
REMARK  12 active torsions:
REMARK  status: ('A' for Active; 'I' for Inactive)
REMARK    1  A    between atoms: C2_2  and  N1_3 
REMARK    2  A    between atoms: C2_2  and  C19_41 
REMARK    3  A    between atoms: N1_3  and  C3_5 
REMARK    4  A    between atoms: C3_5  and  C4_6 
REMARK    5  A    between atoms: C3_5  and  C11_25 
REMARK       I    between atoms: C4_6  and  N2_8 
REMARK       I    between atoms: N2_8  and  C5_10 
REMARK    6  A    between atoms: C5_10  and  C6_12 
REMARK    7  A    between atoms: C6_12  and  N3_13 
REMARK    8  A    between atoms: C6_12  and  C7_17 
REMARK    9  A    between atoms: C7_17  and  C8_18 
REMARK   10  A    between atoms: C11_25  and  O4_27 
REMARK   11  A    between atoms: O4_27  and  C12_28 
REMARK   12  A    between atoms: C12_28  and  C13_29 
ROOT
HETATM    1  C3  UNL     1       1.850  -4.558   4.587  1.00  0.00     0.271 C 
ENDROOT
BRANCH   1   2
HETATM    2  N1  UNL     1       1.328  -3.296   4.795  1.00  0.00    -0.390 N 
ATOM      3  H1  UNL     1       0.985  -3.092   5.733  1.00  0.00     0.155 HD
BRANCH   2   4
HETATM    4  C2  UNL     1       1.221  -2.282   3.861  1.00  0.00     0.163 C 
HETATM    5  C1  UNL     1       1.674  -2.442   2.459  1.00  0.00     0.041 C 
BRANCH   4   6
HETATM    6  C19 UNL     1       1.972  -1.077   4.395  1.00  0.00     0.253 C 
HETATM    7  N9  UNL     1       2.511  -0.091   3.547  1.00  0.00    -0.060 NA
HETATM    8  O6  UNL     1       2.107  -0.971   5.631  1.00  0.00    -0.275 OA
ENDBRANCH   4   6
ENDBRANCH   2   4
ENDBRANCH   1   2
BRANCH   1   9
HETATM    9  C4  UNL     1       3.201  -4.900   5.078  1.00  0.00     0.256 C 
HETATM   10  O1  UNL     1       4.211  -4.471   4.469  1.00  0.00    -0.270 OA
HETATM   11  N2  UNL     1       3.375  -5.724   6.252  1.00  0.00    -0.294 N 
HETATM   12  C5  UNL     1       4.643  -6.086   6.722  1.00  0.00     0.255 C 
ATOM     13  H2  UNL     1       2.550  -6.051   6.753  1.00  0.00     0.171 HD
HETATM   14  O2  UNL     1       5.647  -5.642   6.126  1.00  0.00    -0.271 OA
BRANCH  12  15
HETATM   15  C6  UNL     1       4.827  -6.963   7.884  1.00  0.00     0.280 C 
BRANCH  15  16
HETATM   16  N3  UNL     1       3.581  -6.971   8.705  1.00  0.00    -0.066 N 
ATOM     17  H33 UNL     1       3.258  -7.917   8.906  1.00  0.00     0.275 HD
ATOM     18  H32 UNL     1       3.751  -6.668   9.665  1.00  0.00     0.275 HD
ATOM     19  H31 UNL     1       2.865  -6.409   8.245  1.00  0.00     0.275 HD
ENDBRANCH  15  16
BRANCH  15  20
HETATM   20  C7  UNL     1       5.914  -6.493   8.841  1.00  0.00     0.101 C 
BRANCH  20  21
HETATM   21  C8  UNL     1       7.156  -7.245   8.657  1.00  0.00     0.028 A 
HETATM   22  C9  UNL     1       7.742  -8.153   9.527  1.00  0.00     0.114 A 
HETATM   23  N4  UNL     1       8.900  -8.585   8.959  1.00  0.00    -0.360 N 
HETATM   24  C10 UNL     1       9.038  -7.971   7.769  1.00  0.00     0.180 A 
ATOM     25  H4  UNL     1       9.549  -9.259   9.364  1.00  0.00     0.166 HD
HETATM   26  N5  UNL     1       7.977  -7.165   7.604  1.00  0.00    -0.355 N 
ATOM     27  H5  UNL     1       7.819  -6.574   6.788  1.00  0.00     0.166 HD
ENDBRANCH  20  21
ENDBRANCH  15  20
ENDBRANCH  12  15
ENDBRANCH   1   9
BRANCH   1  28
HETATM   28  C11 UNL     1       0.939  -5.546   5.293  1.00  0.00     0.291 C 
HETATM   29  O3  UNL     1       0.520  -5.285   6.437  1.00  0.00    -0.262 OA
BRANCH  28  30
HETATM   30  O4  UNL     1       0.550  -6.741   4.707  1.00  0.00    -0.313 OA
BRANCH  30  31
HETATM   31  C12 UNL     1       1.095  -7.138   3.454  1.00  0.00     0.236 C 
BRANCH  31  32
HETATM   32  C13 UNL     1       1.579  -8.514   3.463  1.00  0.00     0.041 A 
HETATM   33  C14 UNL     1       2.274  -9.013   2.395  1.00  0.00     0.102 A 
HETATM   34  C15 UNL     1       2.745 -10.306   2.386  1.00  0.00     0.252 A 
HETATM   35  O5  UNL     1       3.395 -10.768   1.387  1.00  0.00    -0.268 OA
HETATM   36  N6  UNL     1       2.530 -11.115   3.438  1.00  0.00    -0.284 N 
HETATM   37  C16 UNL     1       1.848 -10.623   4.482  1.00  0.00     0.184 A 
HETATM   38  C18 UNL     1       2.918 -12.493   3.673  1.00  0.00     0.155 A 
HETATM   39  N7  UNL     1       1.374  -9.338   4.501  1.00  0.00    -0.329 N 
HETATM   40  N8  UNL     1       1.727 -11.631   5.484  1.00  0.00    -0.360 N 
ATOM     41  H7  UNL     1       0.860  -9.003   5.315  1.00  0.00     0.169 HD
HETATM   42  C17 UNL     1       2.345 -12.833   5.015  1.00  0.00     0.143 A 
ATOM     43  H8  UNL     1       1.272 -11.514   6.390  1.00  0.00     0.162 HD
ENDBRANCH  31  32
ENDBRANCH  30  31
ENDBRANCH  28  30
ENDBRANCH   1  28
TORSDOF 12
ENDMDL
MODEL 5
REMARK VINA RESULT: -9.385183540      1.616      9.620
REMARK  12 active torsions:
REMARK  status: ('A' for Active; 'I' for Inactive)
REMARK    1  A    between atoms: C2_2  and  N1_3 
REMARK    2  A    between atoms: C2_2  and  C19_41 
REMARK    3  A    between atoms: N1_3  and  C3_5 
REMARK    4  A    between atoms: C3_5  and  C4_6 
REMARK    5  A    between atoms: C3_5  and  C11_25 
REMARK       I    between atoms: C4_6  and  N2_8 
REMARK       I    between atoms: N2_8  and  C5_10 
REMARK    6  A    between atoms: C5_10  and  C6_12 
REMARK    7  A    between atoms: C6_12  and  N3_13 
REMARK    8  A    between atoms: C6_12  and  C7_17 
REMARK    9  A    between atoms: C7_17  and  C8_18 
REMARK   10  A    between atoms: C11_25  and  O4_27 
REMARK   11  A    between atoms: O4_27  and  C12_28 
REMARK   12  A    between atoms: C12_28  and  C13_29 
ROOT
HETATM    1  C3  UNL     1       3.211  -6.492   6.310  1.00  0.00     0.271 C 
ENDROOT
BRANCH   1   2
HETATM    2  N1  UNL     1       3.286  -7.431   5.299  1.00  0.00    -0.390 N 
ATOM      3  H1  UNL     1       4.192  -7.544   4.846  1.00  0.00     0.155 HD
BRANCH   2   4
HETATM    4  C2  UNL     1       2.258  -8.235   4.840  1.00  0.00     0.163 C 
HETATM    5  C1  UNL     1       2.503  -9.456   4.036  1.00  0.00     0.041 C 
BRANCH   4   6
HETATM    6  C19 UNL     1       1.333  -7.375   4.001  1.00  0.00     0.253 C 
HETATM    7  N9  UNL     1       1.612  -7.059   2.658  1.00  0.00    -0.060 NA
HETATM    8  O6  UNL     1       0.292  -6.939   4.535  1.00  0.00    -0.275 OA
ENDBRANCH   4   6
ENDBRANCH   2   4
ENDBRANCH   1   2
BRANCH   1   9
HETATM    9  C4  UNL     1       3.980  -6.670   7.557  1.00  0.00     0.256 C 
HETATM   10  O1  UNL     1       3.386  -6.642   8.663  1.00  0.00    -0.270 OA
HETATM   11  N2  UNL     1       5.409  -6.876   7.523  1.00  0.00    -0.294 N 
HETATM   12  C5  UNL     1       6.167  -7.019   8.692  1.00  0.00     0.255 C 
ATOM     13  H2  UNL     1       5.881  -6.918   6.620  1.00  0.00     0.171 HD
HETATM   14  O2  UNL     1       5.572  -7.011   9.789  1.00  0.00    -0.271 OA
BRANCH  12  15
HETATM   15  C6  UNL     1       7.626  -7.179   8.666  1.00  0.00     0.280 C 
BRANCH  15  16
HETATM   16  N3  UNL     1       8.111  -7.099   7.257  1.00  0.00    -0.066 N 
ATOM     17  H33 UNL     1       9.095  -6.833   7.203  1.00  0.00     0.275 HD
ATOM     18  H32 UNL     1       8.184  -8.018   6.822  1.00  0.00     0.275 HD
ATOM     19  H31 UNL     1       7.512  -6.468   6.725  1.00  0.00     0.275 HD
ENDBRANCH  15  16
BRANCH  15  20
HETATM   20  C7  UNL     1       8.102  -8.538   9.159  1.00  0.00     0.101 C 
BRANCH  20  21
HETATM   21  C8  UNL     1       9.489  -8.797   8.771  1.00  0.00     0.028 A 
HETATM   22  C9  UNL     1      10.629  -8.115   9.169  1.00  0.00     0.114 A 
HETATM   23  N4  UNL     1      11.694  -8.681   8.540  1.00  0.00    -0.360 N 
HETATM   24  C10 UNL     1      11.239  -9.689   7.771  1.00  0.00     0.180 A 
ATOM     25  H4  UNL     1      12.667  -8.393   8.635  1.00  0.00     0.166 HD
HETATM   26  N5  UNL     1       9.907  -9.744   7.923  1.00  0.00    -0.355 N 
ATOM     27  H5  UNL     1       9.297 -10.415   7.456  1.00  0.00     0.166 HD
ENDBRANCH  20  21
ENDBRANCH  15  20
ENDBRANCH  12  15
ENDBRANCH   1   9
BRANCH   1  28
HETATM   28  C11 UNL     1       3.722  -5.179   5.744  1.00  0.00     0.291 C 
HETATM   29  O3  UNL     1       4.844  -5.140   5.203  1.00  0.00    -0.262 OA
BRANCH  28  30
HETATM   30  O4  UNL     1       2.981  -4.009   5.807  1.00  0.00    -0.313 OA
BRANCH  30  31
HETATM   31  C12 UNL     1       1.789  -3.872   5.043  1.00  0.00     0.236 C 
BRANCH  31  32
HETATM   32  C13 UNL     1       1.689  -2.573   4.387  1.00  0.00     0.041 A 
HETATM   33  C14 UNL     1       1.657  -2.485   3.022  1.00  0.00     0.102 A 
HETATM   34  C15 UNL     1       1.557  -1.270   2.383  1.00  0.00     0.252 A 
HETATM   35  O5  UNL     1       1.527  -1.192   1.107  1.00  0.00    -0.268 OA
HETATM   36  N6  UNL     1       1.484  -0.132   3.094  1.00  0.00    -0.284 N 
HETATM   37  C16 UNL     1       1.516  -0.222   4.432  1.00  0.00     0.184 A 
HETATM   38  C18 UNL     1       1.371   1.251   2.669  1.00  0.00     0.155 A 
HETATM   39  N7  UNL     1       1.617  -1.426   5.077  1.00  0.00    -0.329 N 
HETATM   40  N8  UNL     1       1.430   1.086   4.995  1.00  0.00    -0.360 N 
ATOM     41  H7  UNL     1       1.638  -1.451   6.097  1.00  0.00     0.169 HD
HETATM   42  C17 UNL     1       1.376   2.047   3.938  1.00  0.00     0.143 A 
ATOM     43  H8  UNL     1       1.411   1.301   5.993  1.00  0.00     0.162 HD
ENDBRANCH  31  32
ENDBRANCH  30  31
ENDBRANCH  28  30
ENDBRANCH   1  28
TORSDOF 12
ENDMDL
