MODEL 1
REMARK VINA RESULT: -8.869450536      0.000      0.000
REMARK  13 active torsions:
REMARK  status: ('A' for Active; 'I' for Inactive)
REMARK    1  A    between atoms: C2_2  and  O1_3 
REMARK    2  A    between atoms: C2_2  and  C3_5 
REMARK    3  A    between atoms: C3_5  and  N1_6 
REMARK    4  A    between atoms: C3_5  and  C17_37 
REMARK       I    between atoms: N1_6  and  C4_8 
REMARK    5  A    between atoms: C4_8  and  C5_10 
REMARK    6  A    between atoms: C5_10  and  N2_11 
REMARK    7  A    between atoms: N2_11  and  O3_13 
REMARK    8  A    between atoms: O3_13  and  C6_14 
REMARK    9  A    between atoms: C6_14  and  N3_16 
REMARK   10  A    between atoms: C9_20  and  C10_21 
REMARK   11  A    between atoms: C11_26  and  O5_27 
REMARK   12  A    between atoms: C11_26  and  N7_29 
REMARK   13  A    between atoms: C15_33  and  C16_34 
ROOT
HETATM    1  C5  UNL     1       1.924  -3.849   5.357  1.00  0.00     0.172 C 
HETATM    2  C11 UNL     1       1.703  -2.547   4.838  1.00  0.00     0.174 C 
ENDROOT
BRANCH   1   3
HETATM    3  C4  UNL     1       1.287  -5.110   5.016  1.00  0.00     0.275 C 
HETATM    4  N1  UNL     1       2.030  -6.091   4.226  1.00  0.00    -0.339 N 
ATOM      5  H1  UNL     1       2.980  -5.878   3.925  1.00  0.00     0.163 HD
HETATM    6  O2  UNL     1       0.151  -5.498   5.313  1.00  0.00    -0.266 OA
BRANCH   4   7
HETATM    7  C3  UNL     1       1.441  -7.350   3.867  1.00  0.00     0.214 C 
BRANCH   7   8
HETATM    8  C2  UNL     1       1.592  -7.554   2.370  1.00  0.00     0.147 C 
HETATM    9  C1  UNL     1       0.386  -8.141   1.714  1.00  0.00     0.042 C 
BRANCH   8  10
HETATM   10  O1  UNL     1       2.734  -8.331   2.176  1.00  0.00    -0.393 OA
ATOM     11  H1  UNL     1       2.999  -8.789   2.966  1.00  0.00     0.210 HD
ENDBRANCH   8  10
ENDBRANCH   7   8
BRANCH   7  12
HETATM   12  C17 UNL     1       2.102  -8.412   4.634  1.00  0.00     0.199 C 
HETATM   13  O8  UNL     1       3.167  -8.214   5.269  1.00  0.00    -0.646 OA
HETATM   14  O9  UNL     1       1.557  -9.690   4.678  1.00  0.00    -0.646 OA
ENDBRANCH   7  12
ENDBRANCH   4   7
ENDBRANCH   1   3
BRANCH   1  15
HETATM   15  N2  UNL     1       2.794  -4.010   6.346  1.00  0.00    -0.255 N 
ATOM     16  H2  UNL     1       2.805  -3.270   7.047  1.00  0.00     0.195 HD
BRANCH  15  17
HETATM   17  O3  UNL     1       3.651  -5.003   6.546  1.00  0.00    -0.252 OA
BRANCH  17  18
HETATM   18  C6  UNL     1       3.884  -5.636   7.793  1.00  0.00     0.270 C 
HETATM   19  C7  UNL     1       2.756  -6.503   8.253  1.00  0.00     0.067 C 
BRANCH  18  20
HETATM   20  N3  UNL     1       5.171  -6.286   7.863  1.00  0.00    -0.255 N 
HETATM   21  C8  UNL     1       5.996  -6.451   6.820  1.00  0.00     0.205 A 
HETATM   22  N4  UNL     1       7.092  -7.104   7.261  1.00  0.00    -0.332 N 
HETATM   23  C9  UNL     1       6.932  -7.342   8.594  1.00  0.00     0.187 A 
ATOM     24  H4  UNL     1       7.899  -7.373   6.697  1.00  0.00     0.168 HD
HETATM   25  N6  UNL     1       5.733  -6.817   8.912  1.00  0.00    -0.276 N 
ATOM     26  H6  UNL     1       5.321  -6.834   9.846  1.00  0.00     0.189 HD
BRANCH  23  27
HETATM   27  C10 UNL     1       7.893  -8.032   9.450  1.00  0.00     0.300 C 
HETATM   28  N5  UNL     1       8.714  -9.048   8.912  1.00  0.00    -0.054 NA
HETATM   29  O4  UNL     1       7.950  -7.685  10.658  1.00  0.00    -0.268 OA
ENDBRANCH  23  27
ENDBRANCH  18  20
ENDBRANCH  17  18
ENDBRANCH  15  17
ENDBRANCH   1  15
BRANCH   2  30
HETATM   30  O5  UNL     1       2.388  -1.624   5.518  1.00  0.00    -0.344 OA
ATOM     31  H5  UNL     1       3.145  -1.320   5.030  1.00  0.00     0.219 HD
ENDBRANCH   2  30
BRANCH   2  32
HETATM   32  N7  UNL     1       0.925  -2.052   3.774  1.00  0.00    -0.345 N 
HETATM   33  C12 UNL     1      -0.411  -2.322   3.365  1.00  0.00     0.126 C 
HETATM   34  C13 UNL     1      -0.500  -1.899   1.882  1.00  0.00     0.022 C 
HETATM   35  C14 UNL     1       0.415  -0.720   1.850  1.00  0.00     0.038 C 
HETATM   36  C15 UNL     1       1.472  -1.025   2.854  1.00  0.00     0.187 C 
BRANCH  36  37
HETATM   37  C16 UNL     1       1.900   0.185   3.574  1.00  0.00     0.196 C 
HETATM   38  O6  UNL     1       3.098   0.540   3.491  1.00  0.00    -0.646 OA
HETATM   39  O7  UNL     1       1.038   0.943   4.334  1.00  0.00    -0.646 OA
ENDBRANCH  36  37
ENDBRANCH   2  32
TORSDOF 13
ENDMDL
MODEL 2
REMARK VINA RESULT: -8.690709369      1.281      1.640
REMARK  13 active torsions:
REMARK  status: ('A' for Active; 'I' for Inactive)
REMARK    1  A    between atoms: C2_2  and  O1_3 
REMARK    2  A    between atoms: C2_2  and  C3_5 
REMARK    3  A    between atoms: C3_5  and  N1_6 
REMARK    4  A    between atoms: C3_5  and  C17_37 
REMARK       I    between atoms: N1_6  and  C4_8 
REMARK    5  A    between atoms: C4_8  and  C5_10 
REMARK    6  A    between atoms: C5_10  and  N2_11 
REMARK    7  A    between atoms: N2_11  and  O3_13 
REMARK    8  A    between atoms: O3_13  and  C6_14 
REMARK    9  A    between atoms: C6_14  and  N3_16 
REMARK   10  A    between atoms: C9_20  and  C10_21 
REMARK   11  A    between atoms: C11_26  and  O5_27 
REMARK   12  A    between atoms: C11_26  and  N7_29 
REMARK   13  A    between atoms: C15_33  and  C16_34 
ROOT
HETATM    1  C5  UNL     1       1.863  -3.791   4.790  1.00  0.00     0.172 C 
HETATM    2  C11 UNL     1       1.553  -2.546   4.184  1.00  0.00     0.174 C 
ENDROOT
BRANCH   1   3
HETATM    3  C4  UNL     1       1.275  -5.103   4.580  1.00  0.00     0.275 C 
HETATM    4  N1  UNL     1       2.027  -6.106   3.826  1.00  0.00    -0.339 N 
ATOM      5  H1  UNL     1       2.949  -5.872   3.459  1.00  0.00     0.163 HD
HETATM    6  O2  UNL     1       0.177  -5.520   4.967  1.00  0.00    -0.266 OA
BRANCH   4   7
HETATM    7  C3  UNL     1       1.487  -7.415   3.595  1.00  0.00     0.214 C 
BRANCH   7   8
HETATM    8  C2  UNL     1       1.652  -7.764   2.126  1.00  0.00     0.147 C 
HETATM    9  C1  UNL     1       0.453  -8.412   1.518  1.00  0.00     0.042 C 
BRANCH   8  10
HETATM   10  O1  UNL     1       2.796  -8.555   2.021  1.00  0.00    -0.393 OA
ATOM     11  H1  UNL     1       3.596  -8.049   2.104  1.00  0.00     0.210 HD
ENDBRANCH   8  10
ENDBRANCH   7   8
BRANCH   7  12
HETATM   12  C17 UNL     1       2.182  -8.370   4.466  1.00  0.00     0.199 C 
HETATM   13  O8  UNL     1       3.240  -8.073   5.073  1.00  0.00    -0.646 OA
HETATM   14  O9  UNL     1       1.679  -9.652   4.646  1.00  0.00    -0.646 OA
ENDBRANCH   7  12
ENDBRANCH   4   7
ENDBRANCH   1   3
BRANCH   1  15
HETATM   15  N2  UNL     1       2.784  -3.831   5.744  1.00  0.00    -0.255 N 
ATOM     16  H2  UNL     1       2.900  -2.973   6.282  1.00  0.00     0.195 HD
BRANCH  15  17
HETATM   17  O3  UNL     1       3.576  -4.838   6.093  1.00  0.00    -0.252 OA
BRANCH  17  18
HETATM   18  C6  UNL     1       3.691  -5.363   7.405  1.00  0.00     0.270 C 
HETATM   19  C7  UNL     1       2.472  -6.087   7.878  1.00  0.00     0.067 C 
BRANCH  18  20
HETATM   20  N3  UNL     1       4.913  -6.105   7.609  1.00  0.00    -0.255 N 
HETATM   21  C8  UNL     1       5.830  -6.334   6.659  1.00  0.00     0.205 A 
HETATM   22  N4  UNL     1       6.822  -7.064   7.212  1.00  0.00    -0.332 N 
HETATM   23  C9  UNL     1       6.503  -7.285   8.519  1.00  0.00     0.187 A 
ATOM     24  H4  UNL     1       7.662  -7.393   6.736  1.00  0.00     0.168 HD
HETATM   25  N6  UNL     1       5.319  -6.673   8.710  1.00  0.00    -0.276 N 
ATOM     26  H6  UNL     1       4.809  -6.656   9.594  1.00  0.00     0.189 HD
BRANCH  23  27
HETATM   27  C10 UNL     1       7.314  -8.041   9.470  1.00  0.00     0.300 C 
HETATM   28  N5  UNL     1       8.311  -8.924   9.000  1.00  0.00    -0.054 NA
HETATM   29  O4  UNL     1       7.085  -7.869  10.696  1.00  0.00    -0.268 OA
ENDBRANCH  23  27
ENDBRANCH  18  20
ENDBRANCH  17  18
ENDBRANCH  15  17
ENDBRANCH   1  15
BRANCH   2  30
HETATM   30  O5  UNL     1       2.221  -1.541   4.755  1.00  0.00    -0.344 OA
ATOM     31  H5  UNL     1       2.354  -0.820   4.151  1.00  0.00     0.219 HD
ENDBRANCH   2  30
BRANCH   2  32
HETATM   32  N7  UNL     1       0.703  -2.174   3.125  1.00  0.00    -0.345 N 
HETATM   33  C12 UNL     1      -0.180  -1.071   2.956  1.00  0.00     0.126 C 
HETATM   34  C13 UNL     1      -1.188  -1.492   1.864  1.00  0.00     0.022 C 
HETATM   35  C14 UNL     1      -0.333  -2.330   0.971  1.00  0.00     0.038 C 
HETATM   36  C15 UNL     1       0.652  -2.979   1.881  1.00  0.00     0.187 C 
BRANCH  36  37
HETATM   37  C16 UNL     1       1.976  -3.098   1.248  1.00  0.00     0.196 C 
HETATM   38  O6  UNL     1       2.352  -2.190   0.473  1.00  0.00    -0.646 OA
HETATM   39  O7  UNL     1       2.816  -4.164   1.475  1.00  0.00    -0.646 OA
ENDBRANCH  36  37
ENDBRANCH   2  32
TORSDOF 13
ENDMDL
MODEL 3
REMARK VINA RESULT: -8.307866186      1.238      1.353
REMARK  13 active torsions:
REMARK  status: ('A' for Active; 'I' for Inactive)
REMARK    1  A    between atoms: C2_2  and  O1_3 
REMARK    2  A    between atoms: C2_2  and  C3_5 
REMARK    3  A    between atoms: C3_5  and  N1_6 
REMARK    4  A    between atoms: C3_5  and  C17_37 
REMARK       I    between atoms: N1_6  and  C4_8 
REMARK    5  A    between atoms: C4_8  and  C5_10 
REMARK    6  A    between atoms: C5_10  and  N2_11 
REMARK    7  A    between atoms: N2_11  and  O3_13 
REMARK    8  A    between atoms: O3_13  and  C6_14 
REMARK    9  A    between atoms: C6_14  and  N3_16 
REMARK   10  A    between atoms: C9_20  and  C10_21 
REMARK   11  A    between atoms: C11_26  and  O5_27 
REMARK   12  A    between atoms: C11_26  and  N7_29 
REMARK   13  A    between atoms: C15_33  and  C16_34 
ROOT
HETATM    1  C5  UNL     1       1.951  -4.131   4.924  1.00  0.00     0.172 C 
HETATM    2  C11 UNL     1       2.093  -2.983   4.102  1.00  0.00     0.174 C 
ENDROOT
BRANCH   1   3
HETATM    3  C4  UNL     1       1.316  -5.408   4.642  1.00  0.00     0.275 C 
HETATM    4  N1  UNL     1       2.037  -6.400   3.845  1.00  0.00    -0.339 N 
ATOM      5  H1  UNL     1       2.972  -6.183   3.499  1.00  0.00     0.163 HD
HETATM    6  O2  UNL     1       0.199  -5.801   4.996  1.00  0.00    -0.266 OA
BRANCH   4   7
HETATM    7  C3  UNL     1       1.451  -7.674   3.543  1.00  0.00     0.214 C 
BRANCH   7   8
HETATM    8  C2  UNL     1       1.626  -7.958   2.061  1.00  0.00     0.147 C 
HETATM    9  C1  UNL     1       0.420  -8.548   1.410  1.00  0.00     0.042 C 
BRANCH   8  10
HETATM   10  O1  UNL     1       2.752  -8.771   1.932  1.00  0.00    -0.393 OA
ATOM     11  H1  UNL     1       3.549  -8.334   2.209  1.00  0.00     0.210 HD
ENDBRANCH   8  10
ENDBRANCH   7   8
BRANCH   7  12
HETATM   12  C17 UNL     1       2.094  -8.697   4.376  1.00  0.00     0.199 C 
HETATM   13  O8  UNL     1       3.129  -8.458   5.046  1.00  0.00    -0.646 OA
HETATM   14  O9  UNL     1       1.565  -9.979   4.448  1.00  0.00    -0.646 OA
ENDBRANCH   7  12
ENDBRANCH   4   7
ENDBRANCH   1   3
BRANCH   1  15
HETATM   15  N2  UNL     1       2.394  -4.089   6.173  1.00  0.00    -0.255 N 
ATOM     16  H2  UNL     1       1.764  -3.659   6.850  1.00  0.00     0.195 HD
BRANCH  15  17
HETATM   17  O3  UNL     1       3.547  -4.529   6.662  1.00  0.00    -0.252 OA
BRANCH  17  18
HETATM   18  C6  UNL     1       3.676  -5.435   7.746  1.00  0.00     0.270 C 
HETATM   19  C7  UNL     1       2.511  -6.356   7.908  1.00  0.00     0.067 C 
BRANCH  18  20
HETATM   20  N3  UNL     1       4.950  -6.114   7.762  1.00  0.00    -0.255 N 
HETATM   21  C8  UNL     1       5.719  -6.311   6.683  1.00  0.00     0.205 A 
HETATM   22  N4  UNL     1       6.820  -6.984   7.080  1.00  0.00    -0.332 N 
HETATM   23  C9  UNL     1       6.720  -7.202   8.422  1.00  0.00     0.187 A 
ATOM     24  H4  UNL     1       7.592  -7.279   6.481  1.00  0.00     0.168 HD
HETATM   25  N6  UNL     1       5.550  -6.645   8.790  1.00  0.00    -0.276 N 
ATOM     26  H6  UNL     1       5.183  -6.641   9.743  1.00  0.00     0.189 HD
BRANCH  23  27
HETATM   27  C10 UNL     1       7.705  -7.904   9.241  1.00  0.00     0.300 C 
HETATM   28  N5  UNL     1       7.985  -7.450  10.549  1.00  0.00    -0.054 NA
HETATM   29  O4  UNL     1       8.274  -8.906   8.735  1.00  0.00    -0.268 OA
ENDBRANCH  23  27
ENDBRANCH  18  20
ENDBRANCH  17  18
ENDBRANCH  15  17
ENDBRANCH   1  15
BRANCH   2  30
HETATM   30  O5  UNL     1       2.611  -1.955   4.779  1.00  0.00    -0.344 OA
ATOM     31  H5  UNL     1       2.974  -1.300   4.196  1.00  0.00     0.219 HD
ENDBRANCH   2  30
BRANCH   2  32
HETATM   32  N7  UNL     1       1.804  -2.724   2.749  1.00  0.00    -0.345 N 
HETATM   33  C12 UNL     1       1.711  -3.579   1.614  1.00  0.00     0.126 C 
HETATM   34  C13 UNL     1       1.893  -2.671   0.378  1.00  0.00     0.022 C 
HETATM   35  C14 UNL     1       1.232  -1.410   0.830  1.00  0.00     0.038 C 
HETATM   36  C15 UNL     1       1.484  -1.348   2.296  1.00  0.00     0.187 C 
BRANCH  36  37
HETATM   37  C16 UNL     1       0.331  -0.787   3.019  1.00  0.00     0.196 C 
HETATM   38  O6  UNL     1       0.515   0.205   3.761  1.00  0.00    -0.646 OA
HETATM   39  O7  UNL     1      -0.939  -1.306   2.913  1.00  0.00    -0.646 OA
ENDBRANCH  36  37
ENDBRANCH   2  32
TORSDOF 13
ENDMDL
MODEL 4
REMARK VINA RESULT: -8.230581347      1.887      2.272
REMARK  13 active torsions:
REMARK  status: ('A' for Active; 'I' for Inactive)
REMARK    1  A    between atoms: C2_2  and  O1_3 
REMARK    2  A    between atoms: C2_2  and  C3_5 
REMARK    3  A    between atoms: C3_5  and  N1_6 
REMARK    4  A    between atoms: C3_5  and  C17_37 
REMARK       I    between atoms: N1_6  and  C4_8 
REMARK    5  A    between atoms: C4_8  and  C5_10 
REMARK    6  A    between atoms: C5_10  and  N2_11 
REMARK    7  A    between atoms: N2_11  and  O3_13 
REMARK    8  A    between atoms: O3_13  and  C6_14 
REMARK    9  A    between atoms: C6_14  and  N3_16 
REMARK   10  A    between atoms: C9_20  and  C10_21 
REMARK   11  A    between atoms: C11_26  and  O5_27 
REMARK   12  A    between atoms: C11_26  and  N7_29 
REMARK   13  A    between atoms: C15_33  and  C16_34 
ROOT
HETATM    1  C5  UNL     1       3.022  -5.784   4.432  1.00  0.00     0.172 C 
HETATM    2  C11 UNL     1       3.107  -4.568   3.707  1.00  0.00     0.174 C 
ENDROOT
BRANCH   1   3
HETATM    3  C4  UNL     1       2.047  -6.858   4.345  1.00  0.00     0.275 C 
HETATM    4  N1  UNL     1       2.411  -8.094   3.653  1.00  0.00    -0.339 N 
ATOM      5  H1  UNL     1       3.340  -8.185   3.242  1.00  0.00     0.163 HD
HETATM    6  O2  UNL     1       0.895  -6.883   4.794  1.00  0.00    -0.266 OA
BRANCH   4   7
HETATM    7  C3  UNL     1       1.480  -9.181   3.542  1.00  0.00     0.214 C 
BRANCH   7   8
HETATM    8  C2  UNL     1       1.270  -9.502   2.073  1.00  0.00     0.147 C 
HETATM    9  C1  UNL     1       0.290  -8.606   1.391  1.00  0.00     0.042 C 
BRANCH   8  10
HETATM   10  O1  UNL     1       0.905 -10.846   1.997  1.00  0.00    -0.393 OA
ATOM     11  H1  UNL     1       0.072 -10.971   1.556  1.00  0.00     0.210 HD
ENDBRANCH   8  10
ENDBRANCH   7   8
BRANCH   7  12
HETATM   12  C17 UNL     1       2.012 -10.331   4.283  1.00  0.00     0.199 C 
HETATM   13  O8  UNL     1       3.208 -10.698   4.177  1.00  0.00    -0.646 OA
HETATM   14  O9  UNL     1       1.191 -11.058   5.136  1.00  0.00    -0.646 OA
ENDBRANCH   7  12
ENDBRANCH   4   7
ENDBRANCH   1   3
BRANCH   1  15
HETATM   15  N2  UNL     1       3.905  -6.024   5.393  1.00  0.00    -0.255 N 
ATOM     16  H2  UNL     1       4.406  -6.909   5.320  1.00  0.00     0.195 HD
BRANCH  15  17
HETATM   17  O3  UNL     1       4.225  -5.268   6.436  1.00  0.00    -0.252 OA
BRANCH  17  18
HETATM   18  C6  UNL     1       4.003  -5.620   7.792  1.00  0.00     0.270 C 
HETATM   19  C7  UNL     1       2.687  -6.285   8.039  1.00  0.00     0.067 C 
BRANCH  18  20
HETATM   20  N3  UNL     1       5.119  -6.322   8.381  1.00  0.00    -0.255 N 
HETATM   21  C8  UNL     1       5.229  -6.616   9.683  1.00  0.00     0.205 A 
HETATM   22  N4  UNL     1       6.401  -7.262   9.861  1.00  0.00    -0.332 N 
HETATM   23  C9  UNL     1       7.014  -7.363   8.648  1.00  0.00     0.187 A 
ATOM     24  H4  UNL     1       6.764  -7.614  10.748  1.00  0.00     0.168 HD
HETATM   25  N6  UNL     1       6.182  -6.768   7.773  1.00  0.00    -0.276 N 
ATOM     26  H6  UNL     1       6.359  -6.678   6.772  1.00  0.00     0.189 HD
BRANCH  23  27
HETATM   27  C10 UNL     1       8.310  -7.993   8.406  1.00  0.00     0.300 C 
HETATM   28  N5  UNL     1       8.661  -9.172   9.101  1.00  0.00    -0.054 NA
HETATM   29  O4  UNL     1       9.075  -7.446   7.570  1.00  0.00    -0.268 OA
ENDBRANCH  23  27
ENDBRANCH  18  20
ENDBRANCH  17  18
ENDBRANCH  15  17
ENDBRANCH   1  15
BRANCH   2  30
HETATM   30  O5  UNL     1       4.070  -3.776   4.184  1.00  0.00    -0.344 OA
ATOM     31  H5  UNL     1       4.879  -3.875   3.696  1.00  0.00     0.219 HD
ENDBRANCH   2  30
BRANCH   2  32
HETATM   32  N7  UNL     1       2.393  -4.048   2.610  1.00  0.00    -0.345 N 
HETATM   33  C12 UNL     1       1.841  -4.667   1.453  1.00  0.00     0.126 C 
HETATM   34  C13 UNL     1       1.666  -3.543   0.408  1.00  0.00     0.022 C 
HETATM   35  C14 UNL     1       1.314  -2.379   1.274  1.00  0.00     0.038 C 
HETATM   36  C15 UNL     1       2.059  -2.604   2.543  1.00  0.00     0.187 C 
BRANCH  36  37
HETATM   37  C16 UNL     1       1.280  -2.167   3.713  1.00  0.00     0.196 C 
HETATM   38  O6  UNL     1       0.032  -2.260   3.670  1.00  0.00    -0.646 OA
HETATM   39  O7  UNL     1       1.866  -1.661   4.851  1.00  0.00    -0.646 OA
ENDBRANCH  36  37
ENDBRANCH   2  32
TORSDOF 13
ENDMDL
MODEL 5
REMARK VINA RESULT: -7.972447668      1.663      5.820
REMARK  13 active torsions:
REMARK  status: ('A' for Active; 'I' for Inactive)
REMARK    1  A    between atoms: C2_2  and  O1_3 
REMARK    2  A    between atoms: C2_2  and  C3_5 
REMARK    3  A    between atoms: C3_5  and  N1_6 
REMARK    4  A    between atoms: C3_5  and  C17_37 
REMARK       I    between atoms: N1_6  and  C4_8 
REMARK    5  A    between atoms: C4_8  and  C5_10 
REMARK    6  A    between atoms: C5_10  and  N2_11 
REMARK    7  A    between atoms: N2_11  and  O3_13 
REMARK    8  A    between atoms: O3_13  and  C6_14 
REMARK    9  A    between atoms: C6_14  and  N3_16 
REMARK   10  A    between atoms: C9_20  and  C10_21 
REMARK   11  A    between atoms: C11_26  and  O5_27 
REMARK   12  A    between atoms: C11_26  and  N7_29 
REMARK   13  A    between atoms: C15_33  and  C16_34 
ROOT
HETATM    1  C5  UNL     1       1.483  -6.851   4.127  1.00  0.00     0.172 C 
HETATM    2  C11 UNL     1       1.240  -8.149   3.611  1.00  0.00     0.174 C 
ENDROOT
BRANCH   1   3
HETATM    3  C4  UNL     1       1.711  -5.596   3.430  1.00  0.00     0.275 C 
HETATM    4  N1  UNL     1       1.302  -4.344   4.067  1.00  0.00    -0.339 N 
ATOM      5  H1  UNL     1       0.864  -4.369   4.988  1.00  0.00     0.163 HD
HETATM    6  O2  UNL     1       2.228  -5.421   2.321  1.00  0.00    -0.266 OA
BRANCH   4   7
HETATM    7  C3  UNL     1       1.509  -3.082   3.417  1.00  0.00     0.214 C 
BRANCH   7   8
HETATM    8  C2  UNL     1       0.166  -2.538   2.960  1.00  0.00     0.147 C 
HETATM    9  C1  UNL     1       0.219  -1.807   1.660  1.00  0.00     0.042 C 
BRANCH   8  10
HETATM   10  O1  UNL     1      -0.327  -1.746   3.997  1.00  0.00    -0.393 OA
ATOM     11  H1  UNL     1       0.366  -1.374   4.530  1.00  0.00     0.210 HD
ENDBRANCH   8  10
ENDBRANCH   7   8
BRANCH   7  12
HETATM   12  C17 UNL     1       2.176  -2.173   4.356  1.00  0.00     0.199 C 
HETATM   13  O8  UNL     1       2.482  -2.525   5.522  1.00  0.00    -0.646 OA
HETATM   14  O9  UNL     1       2.495  -0.876   3.973  1.00  0.00    -0.646 OA
ENDBRANCH   7  12
ENDBRANCH   4   7
ENDBRANCH   1   3
BRANCH   1  15
HETATM   15  N2  UNL     1       1.583  -6.688   5.440  1.00  0.00    -0.255 N 
ATOM     16  H2  UNL     1       0.746  -6.338   5.906  1.00  0.00     0.195 HD
BRANCH  15  17
HETATM   17  O3  UNL     1       2.625  -6.918   6.229  1.00  0.00    -0.252 OA
BRANCH  17  18
HETATM   18  C6  UNL     1       3.373  -5.916   6.900  1.00  0.00     0.270 C 
HETATM   19  C7  UNL     1       2.652  -5.288   8.049  1.00  0.00     0.067 C 
BRANCH  18  20
HETATM   20  N3  UNL     1       4.713  -6.341   7.227  1.00  0.00    -0.255 N 
HETATM   21  C8  UNL     1       5.724  -6.412   6.350  1.00  0.00     0.205 A 
HETATM   22  N4  UNL     1       6.814  -6.854   7.013  1.00  0.00    -0.332 N 
HETATM   23  C9  UNL     1       6.461  -7.057   8.314  1.00  0.00     0.187 A 
ATOM     24  H4  UNL     1       7.738  -7.010   6.611  1.00  0.00     0.168 HD
HETATM   25  N6  UNL     1       5.158  -6.726   8.391  1.00  0.00    -0.276 N 
ATOM     26  H6  UNL     1       4.597  -6.770   9.242  1.00  0.00     0.189 HD
BRANCH  23  27
HETATM   27  C10 UNL     1       7.353  -7.541   9.365  1.00  0.00     0.300 C 
HETATM   28  N5  UNL     1       7.789  -8.885   9.356  1.00  0.00    -0.054 NA
HETATM   29  O4  UNL     1       7.703  -6.722  10.254  1.00  0.00    -0.268 OA
ENDBRANCH  23  27
ENDBRANCH  18  20
ENDBRANCH  17  18
ENDBRANCH  15  17
ENDBRANCH   1  15
BRANCH   2  30
HETATM   30  O5  UNL     1       1.228  -9.069   4.578  1.00  0.00    -0.344 OA
ATOM     31  H5  UNL     1       1.302  -8.674   5.439  1.00  0.00     0.219 HD
ENDBRANCH   2  30
BRANCH   2  32
HETATM   32  N7  UNL     1       1.015  -8.644   2.312  1.00  0.00    -0.345 N 
HETATM   33  C12 UNL     1       0.396  -8.067   1.167  1.00  0.00     0.126 C 
HETATM   34  C13 UNL     1      -0.010  -9.248   0.258  1.00  0.00     0.022 C 
HETATM   35  C14 UNL     1       1.101 -10.215   0.506  1.00  0.00     0.038 C 
HETATM   36  C15 UNL     1       1.495  -9.993   1.925  1.00  0.00     0.187 C 
BRANCH  36  37
HETATM   37  C16 UNL     1       2.949 -10.133   2.110  1.00  0.00     0.196 C 
HETATM   38  O6  UNL     1       3.374 -10.555   3.210  1.00  0.00    -0.646 OA
HETATM   39  O7  UNL     1       3.858  -9.819   1.127  1.00  0.00    -0.646 OA
ENDBRANCH  36  37
ENDBRANCH   2  32
TORSDOF 13
ENDMDL
