MODEL 1
REMARK VINA RESULT: -7.313051230      0.000      0.000
REMARK  15 active torsions:
REMARK  status: ('A' for Active; 'I' for Inactive)
REMARK    1  A    between atoms: O1_2  and  C2_3 
REMARK    2  A    between atoms: C2_3  and  C3_5 
REMARK    3  A    between atoms: N1_9  and  C7_10 
REMARK    4  A    between atoms: C7_10  and  O3_11 
REMARK    5  A    between atoms: C8_13  and  N2_14 
REMARK    6  A    between atoms: C8_13  and  C16_34 
REMARK       I    between atoms: N2_14  and  C9_16 
REMARK    7  A    between atoms: C9_16  and  C10_18 
REMARK    8  A    between atoms: C10_18  and  C11_19 
REMARK    9  A    between atoms: C10_18  and  N4_23 
REMARK   10  A    between atoms: C11_19  and  S1_20 
REMARK       I    between atoms: N4_23  and  C13_25 
REMARK   11  A    between atoms: C13_25  and  C14_27 
REMARK   12  A    between atoms: C14_27  and  N5_28 
REMARK   13  A    between atoms: C14_27  and  C15_32 
REMARK   14  A    between atoms: C16_34  and  N6_35 
REMARK   15  A    between atoms: C16_34  and  N7_39 
ROOT
HETATM    1  S1  UNL     1       1.491  -4.120   3.732  1.00  0.00    -0.048 SA
HETATM    2  C12 UNL     1       1.823  -2.469   4.308  1.00  0.00     0.133 C 
HETATM    3  N3  UNL     1       2.040  -1.385   4.664  1.00  0.00    -0.184 NA
ENDROOT
BRANCH   1   4
HETATM    4  C11 UNL     1       3.058  -5.077   3.877  1.00  0.00     0.125 C 
BRANCH   4   5
HETATM    5  C10 UNL     1       2.897  -6.078   4.957  1.00  0.00     0.187 C 
BRANCH   5   6
HETATM    6  C9  UNL     1       3.671  -5.723   6.150  1.00  0.00     0.245 C 
HETATM    7  N2  UNL     1       4.540  -6.601   6.795  1.00  0.00    -0.322 N 
ATOM      8  H2  UNL     1       4.653  -7.538   6.410  1.00  0.00     0.169 HD
HETATM    9  O4  UNL     1       3.496  -4.522   6.589  1.00  0.00    -0.271 OA
BRANCH   7  10
HETATM   10  C8  UNL     1       5.318  -6.240   8.027  1.00  0.00     0.121 C 
HETATM   11  C7  UNL     1       6.632  -6.823   8.021  1.00  0.00     0.166 C 
BRANCH  11  12
HETATM   12  N1  UNL     1       7.443  -7.453   8.941  1.00  0.00    -0.346 N 
HETATM   13  C3  UNL     1       8.661  -7.131   9.585  1.00  0.00     0.186 C 
HETATM   14  C4  UNL     1       8.341  -7.627  11.028  1.00  0.00     0.037 C 
HETATM   15  C5  UNL     1       7.858  -9.010  10.702  1.00  0.00     0.022 C 
HETATM   16  C6  UNL     1       7.071  -8.826   9.457  1.00  0.00     0.126 C 
BRANCH  13  17
HETATM   17  C2  UNL     1       9.778  -8.033   9.118  1.00  0.00     0.281 C 
HETATM   18  O2  UNL     1      10.709  -8.258   9.929  1.00  0.00    -0.263 OA
BRANCH  17  19
HETATM   19  O1  UNL     1       9.815  -8.603   7.874  1.00  0.00    -0.325 OA
HETATM   20  C1  UNL     1      10.525  -9.783   7.551  1.00  0.00     0.213 C 
ENDBRANCH  17  19
ENDBRANCH  13  17
ENDBRANCH  11  12
BRANCH  11  21
HETATM   21  O3  UNL     1       7.215  -6.726   6.815  1.00  0.00    -0.345 OA
ATOM     22  H3  UNL     1       6.603  -6.451   6.142  1.00  0.00     0.219 HD
ENDBRANCH  11  21
BRANCH  10  23
HETATM   23  C16 UNL     1       4.441  -6.123   9.178  1.00  0.00     0.431 C 
BRANCH  23  24
HETATM   24  N6  UNL     1       3.550  -7.235   9.410  1.00  0.00    -0.045 N 
ATOM     25  H63 UNL     1       2.739  -7.163   8.795  1.00  0.00     0.277 HD
ATOM     26  H62 UNL     1       3.971  -8.095   9.058  1.00  0.00     0.277 HD
ATOM     27  H61 UNL     1       3.243  -7.369  10.374  1.00  0.00     0.277 HD
ENDBRANCH  23  24
BRANCH  23  28
HETATM   28  N7  UNL     1       3.737  -4.880   9.361  1.00  0.00    -0.045 N 
ATOM     29  H73 UNL     1       3.568  -4.452   8.451  1.00  0.00     0.277 HD
ATOM     30  H72 UNL     1       2.781  -5.076   9.661  1.00  0.00     0.277 HD
ATOM     31  H71 UNL     1       4.150  -4.188   9.987  1.00  0.00     0.277 HD
ENDBRANCH  23  28
ENDBRANCH  10  23
ENDBRANCH   7  10
ENDBRANCH   5   6
BRANCH   5  32
HETATM   32  N4  UNL     1       3.097  -7.459   4.620  1.00  0.00    -0.345 N 
HETATM   33  C13 UNL     1       2.065  -8.309   4.140  1.00  0.00     0.249 C 
HETATM   34  O5  UNL     1       0.883  -7.860   3.981  1.00  0.00    -0.271 OA
ATOM     35  H4  UNL     1       4.031  -7.852   4.731  1.00  0.00     0.163 HD
BRANCH  33  36
HETATM   36  C14 UNL     1       2.259  -9.724   3.797  1.00  0.00     0.284 C 
BRANCH  36  37
HETATM   37  N5  UNL     1       1.286 -10.503   4.534  1.00  0.00    -0.066 N 
ATOM     38  H53 UNL     1       1.303 -10.309   5.536  1.00  0.00     0.275 HD
ATOM     39  H52 UNL     1       0.326 -10.207   4.354  1.00  0.00     0.275 HD
ATOM     40  H51 UNL     1       1.441 -11.488   4.321  1.00  0.00     0.275 HD
ENDBRANCH  36  37
BRANCH  36  41
HETATM   41  C15 UNL     1       1.887  -9.878   2.314  1.00  0.00     0.128 C 
HETATM   42  S2  UNL     1       0.728 -11.236   2.103  1.00  0.00    -0.095 SA
ENDBRANCH  36  41
ENDBRANCH  33  36
ENDBRANCH   5  32
ENDBRANCH   4   5
ENDBRANCH   1   4
TORSDOF 15
ENDMDL
MODEL 2
REMARK VINA RESULT: -7.191675693      1.930      4.017
REMARK  15 active torsions:
REMARK  status: ('A' for Active; 'I' for Inactive)
REMARK    1  A    between atoms: O1_2  and  C2_3 
REMARK    2  A    between atoms: C2_3  and  C3_5 
REMARK    3  A    between atoms: N1_9  and  C7_10 
REMARK    4  A    between atoms: C7_10  and  O3_11 
REMARK    5  A    between atoms: C8_13  and  N2_14 
REMARK    6  A    between atoms: C8_13  and  C16_34 
REMARK       I    between atoms: N2_14  and  C9_16 
REMARK    7  A    between atoms: C9_16  and  C10_18 
REMARK    8  A    between atoms: C10_18  and  C11_19 
REMARK    9  A    between atoms: C10_18  and  N4_23 
REMARK   10  A    between atoms: C11_19  and  S1_20 
REMARK       I    between atoms: N4_23  and  C13_25 
REMARK   11  A    between atoms: C13_25  and  C14_27 
REMARK   12  A    between atoms: C14_27  and  N5_28 
REMARK   13  A    between atoms: C14_27  and  C15_32 
REMARK   14  A    between atoms: C16_34  and  N6_35 
REMARK   15  A    between atoms: C16_34  and  N7_39 
ROOT
HETATM    1  S1  UNL     1       1.084  -7.557   4.282  1.00  0.00    -0.048 SA
HETATM    2  C12 UNL     1       1.351  -7.666   2.526  1.00  0.00     0.133 C 
HETATM    3  N3  UNL     1       1.521  -7.757   1.381  1.00  0.00    -0.184 NA
ENDROOT
BRANCH   1   4
HETATM    4  C11 UNL     1       2.739  -7.563   5.090  1.00  0.00     0.125 C 
BRANCH   4   5
HETATM    5  C10 UNL     1       3.242  -6.170   5.136  1.00  0.00     0.187 C 
BRANCH   5   6
HETATM    6  C9  UNL     1       3.962  -5.890   6.382  1.00  0.00     0.245 C 
HETATM    7  N2  UNL     1       4.965  -6.711   6.894  1.00  0.00    -0.322 N 
ATOM      8  H2  UNL     1       5.221  -7.546   6.369  1.00  0.00     0.169 HD
HETATM    9  O4  UNL     1       3.605  -4.815   7.002  1.00  0.00    -0.271 OA
BRANCH   7  10
HETATM   10  C8  UNL     1       5.689  -6.430   8.179  1.00  0.00     0.121 C 
HETATM   11  C7  UNL     1       7.001  -7.015   8.193  1.00  0.00     0.166 C 
BRANCH  11  12
HETATM   12  N1  UNL     1       7.772  -7.705   9.106  1.00  0.00    -0.346 N 
HETATM   13  C3  UNL     1       9.066  -7.532   9.654  1.00  0.00     0.186 C 
HETATM   14  C4  UNL     1       8.775  -7.886  11.144  1.00  0.00     0.037 C 
HETATM   15  C5  UNL     1       8.072  -9.197  10.945  1.00  0.00     0.022 C 
HETATM   16  C6  UNL     1       7.237  -8.972   9.738  1.00  0.00     0.126 C 
BRANCH  13  17
HETATM   17  C2  UNL     1      10.002  -8.621   9.187  1.00  0.00     0.281 C 
HETATM   18  O2  UNL     1       9.810  -9.086   8.037  1.00  0.00    -0.263 OA
BRANCH  17  19
HETATM   19  O1  UNL     1      11.029  -9.108   9.949  1.00  0.00    -0.325 OA
HETATM   20  C1  UNL     1      12.283  -8.474  10.109  1.00  0.00     0.213 C 
ENDBRANCH  17  19
ENDBRANCH  13  17
ENDBRANCH  11  12
BRANCH  11  21
HETATM   21  O3  UNL     1       7.637  -6.844   7.022  1.00  0.00    -0.345 OA
ATOM     22  H3  UNL     1       8.546  -6.594   7.141  1.00  0.00     0.219 HD
ENDBRANCH  11  21
BRANCH  10  23
HETATM   23  C16 UNL     1       4.762  -6.384   9.296  1.00  0.00     0.431 C 
BRANCH  23  24
HETATM   24  N6  UNL     1       3.677  -7.336   9.258  1.00  0.00    -0.045 N 
ATOM     25  H63 UNL     1       3.640  -7.781   8.341  1.00  0.00     0.277 HD
ATOM     26  H62 UNL     1       3.901  -8.140   9.844  1.00  0.00     0.277 HD
ATOM     27  H61 UNL     1       2.756  -6.973   9.505  1.00  0.00     0.277 HD
ENDBRANCH  23  24
BRANCH  23  28
HETATM   28  N7  UNL     1       4.273  -5.094   9.708  1.00  0.00    -0.045 N 
ATOM     29  H73 UNL     1       5.012  -4.400   9.592  1.00  0.00     0.277 HD
ATOM     30  H72 UNL     1       3.589  -4.761   9.028  1.00  0.00     0.277 HD
ATOM     31  H71 UNL     1       3.880  -5.012  10.646  1.00  0.00     0.277 HD
ENDBRANCH  23  28
ENDBRANCH  10  23
ENDBRANCH   7  10
ENDBRANCH   5   6
BRANCH   5  32
HETATM   32  N4  UNL     1       2.311  -5.116   4.845  1.00  0.00    -0.345 N 
HETATM   33  C13 UNL     1       2.678  -3.891   4.228  1.00  0.00     0.249 C 
HETATM   34  O5  UNL     1       3.889  -3.676   3.894  1.00  0.00    -0.271 OA
ATOM     35  H4  UNL     1       1.332  -5.255   5.096  1.00  0.00     0.163 HD
BRANCH  33  36
HETATM   36  C14 UNL     1       1.734  -2.805   3.930  1.00  0.00     0.284 C 
BRANCH  36  37
HETATM   37  N5  UNL     1       0.391  -3.342   4.021  1.00  0.00    -0.066 N 
ATOM     38  H53 UNL     1       0.266  -3.959   4.824  1.00  0.00     0.275 HD
ATOM     39  H52 UNL     1      -0.299  -2.637   4.281  1.00  0.00     0.275 HD
ATOM     40  H51 UNL     1       0.173  -3.799   3.135  1.00  0.00     0.275 HD
ENDBRANCH  36  37
BRANCH  36  41
HETATM   41  C15 UNL     1       1.858  -1.783   5.070  1.00  0.00     0.128 C 
HETATM   42  S2  UNL     1       1.538  -0.125   4.452  1.00  0.00    -0.095 SA
ENDBRANCH  36  41
ENDBRANCH  33  36
ENDBRANCH   5  32
ENDBRANCH   4   5
ENDBRANCH   1   4
TORSDOF 15
ENDMDL
MODEL 3
REMARK VINA RESULT: -7.169508039      3.781      9.379
REMARK  15 active torsions:
REMARK  status: ('A' for Active; 'I' for Inactive)
REMARK    1  A    between atoms: O1_2  and  C2_3 
REMARK    2  A    between atoms: C2_3  and  C3_5 
REMARK    3  A    between atoms: N1_9  and  C7_10 
REMARK    4  A    between atoms: C7_10  and  O3_11 
REMARK    5  A    between atoms: C8_13  and  N2_14 
REMARK    6  A    between atoms: C8_13  and  C16_34 
REMARK       I    between atoms: N2_14  and  C9_16 
REMARK    7  A    between atoms: C9_16  and  C10_18 
REMARK    8  A    between atoms: C10_18  and  C11_19 
REMARK    9  A    between atoms: C10_18  and  N4_23 
REMARK   10  A    between atoms: C11_19  and  S1_20 
REMARK       I    between atoms: N4_23  and  C13_25 
REMARK   11  A    between atoms: C13_25  and  C14_27 
REMARK   12  A    between atoms: C14_27  and  N5_28 
REMARK   13  A    between atoms: C14_27  and  C15_32 
REMARK   14  A    between atoms: C16_34  and  N6_35 
REMARK   15  A    between atoms: C16_34  and  N7_39 
ROOT
HETATM    1  S1  UNL     1       2.438  -8.127   4.923  1.00  0.00    -0.048 SA
HETATM    2  C12 UNL     1       1.758  -7.715   3.331  1.00  0.00     0.133 C 
HETATM    3  N3  UNL     1       1.333  -7.439   2.286  1.00  0.00    -0.184 NA
ENDROOT
BRANCH   1   4
HETATM    4  C11 UNL     1       1.941  -6.797   6.094  1.00  0.00     0.125 C 
BRANCH   4   5
HETATM    5  C10 UNL     1       3.117  -5.932   6.346  1.00  0.00     0.187 C 
BRANCH   5   6
HETATM    6  C9  UNL     1       3.282  -4.916   5.302  1.00  0.00     0.245 C 
HETATM    7  N2  UNL     1       2.227  -4.176   4.772  1.00  0.00    -0.322 N 
ATOM      8  H2  UNL     1       1.289  -4.341   5.137  1.00  0.00     0.169 HD
HETATM    9  O4  UNL     1       4.490  -4.741   4.882  1.00  0.00    -0.271 OA
BRANCH   7  10
HETATM   10  C8  UNL     1       2.397  -3.149   3.690  1.00  0.00     0.121 C 
HETATM   11  C7  UNL     1       1.965  -1.846   4.116  1.00  0.00     0.166 C 
BRANCH  11  12
HETATM   12  N1  UNL     1       1.240  -0.810   3.565  1.00  0.00    -0.346 N 
HETATM   13  C3  UNL     1       1.562   0.461   3.031  1.00  0.00     0.186 C 
HETATM   14  C4  UNL     1       0.623   0.474   1.786  1.00  0.00     0.037 C 
HETATM   15  C5  UNL     1      -0.667   0.103   2.458  1.00  0.00     0.022 C 
HETATM   16  C6  UNL     1      -0.265  -0.918   3.458  1.00  0.00     0.126 C 
BRANCH  13  17
HETATM   17  C2  UNL     1       1.033   1.569   3.911  1.00  0.00     0.281 C 
HETATM   18  O2  UNL     1       1.248   1.471   5.144  1.00  0.00    -0.263 OA
BRANCH  17  19
HETATM   19  O1  UNL     1       0.345   2.649   3.428  1.00  0.00    -0.325 OA
HETATM   20  C1  UNL     1       0.942   3.869   3.031  1.00  0.00     0.213 C 
ENDBRANCH  17  19
ENDBRANCH  13  17
ENDBRANCH  11  12
BRANCH  11  21
HETATM   21  O3  UNL     1       2.373  -1.569   5.365  1.00  0.00    -0.345 OA
ATOM     22  H3  UNL     1       2.299  -2.321   5.942  1.00  0.00     0.219 HD
ENDBRANCH  11  21
BRANCH  10  23
HETATM   23  C16 UNL     1       2.178  -3.735   2.379  1.00  0.00     0.431 C 
BRANCH  23  24
HETATM   24  N6  UNL     1       3.127  -4.743   1.971  1.00  0.00    -0.045 N 
ATOM     25  H63 UNL     1       3.807  -4.899   2.715  1.00  0.00     0.277 HD
ATOM     26  H62 UNL     1       2.672  -5.656   1.943  1.00  0.00     0.277 HD
ATOM     27  H61 UNL     1       3.611  -4.570   1.089  1.00  0.00     0.277 HD
ENDBRANCH  23  24
BRANCH  23  28
HETATM   28  N7  UNL     1       1.903  -2.842   1.283  1.00  0.00    -0.045 N 
ATOM     29  H73 UNL     1       0.983  -2.422   1.415  1.00  0.00     0.277 HD
ATOM     30  H72 UNL     1       2.503  -2.021   1.360  1.00  0.00     0.277 HD
ATOM     31  H71 UNL     1       1.968  -3.218   0.337  1.00  0.00     0.277 HD
ENDBRANCH  23  28
ENDBRANCH  10  23
ENDBRANCH   7  10
ENDBRANCH   5   6
BRANCH   5  32
HETATM   32  N4  UNL     1       4.370  -6.575   6.624  1.00  0.00    -0.345 N 
HETATM   33  C13 UNL     1       5.023  -6.514   7.884  1.00  0.00     0.249 C 
HETATM   34  O5  UNL     1       4.500  -5.866   8.849  1.00  0.00    -0.271 OA
ATOM     35  H4  UNL     1       4.815  -7.106   5.876  1.00  0.00     0.163 HD
BRANCH  33  36
HETATM   36  C14 UNL     1       6.307  -7.167   8.176  1.00  0.00     0.284 C 
BRANCH  36  37
HETATM   37  N5  UNL     1       7.273  -6.712   7.197  1.00  0.00    -0.066 N 
ATOM     38  H53 UNL     1       7.705  -7.481   6.684  1.00  0.00     0.275 HD
ATOM     39  H52 UNL     1       6.839  -6.244   6.402  1.00  0.00     0.275 HD
ATOM     40  H51 UNL     1       7.956  -6.126   7.676  1.00  0.00     0.275 HD
ENDBRANCH  36  37
BRANCH  36  41
HETATM   41  C15 UNL     1       6.786  -6.619   9.529  1.00  0.00     0.128 C 
HETATM   42  S2  UNL     1       7.717  -7.879  10.412  1.00  0.00    -0.095 SA
ENDBRANCH  36  41
ENDBRANCH  33  36
ENDBRANCH   5  32
ENDBRANCH   4   5
ENDBRANCH   1   4
TORSDOF 15
ENDMDL
MODEL 4
REMARK VINA RESULT: -6.966744524      4.170      9.875
REMARK  15 active torsions:
REMARK  status: ('A' for Active; 'I' for Inactive)
REMARK    1  A    between atoms: O1_2  and  C2_3 
REMARK    2  A    between atoms: C2_3  and  C3_5 
REMARK    3  A    between atoms: N1_9  and  C7_10 
REMARK    4  A    between atoms: C7_10  and  O3_11 
REMARK    5  A    between atoms: C8_13  and  N2_14 
REMARK    6  A    between atoms: C8_13  and  C16_34 
REMARK       I    between atoms: N2_14  and  C9_16 
REMARK    7  A    between atoms: C9_16  and  C10_18 
REMARK    8  A    between atoms: C10_18  and  C11_19 
REMARK    9  A    between atoms: C10_18  and  N4_23 
REMARK   10  A    between atoms: C11_19  and  S1_20 
REMARK       I    between atoms: N4_23  and  C13_25 
REMARK   11  A    between atoms: C13_25  and  C14_27 
REMARK   12  A    between atoms: C14_27  and  N5_28 
REMARK   13  A    between atoms: C14_27  and  C15_32 
REMARK   14  A    between atoms: C16_34  and  N6_35 
REMARK   15  A    between atoms: C16_34  and  N7_39 
ROOT
HETATM    1  S1  UNL     1       1.278  -7.107   4.929  1.00  0.00    -0.048 SA
HETATM    2  C12 UNL     1       1.495  -6.860   3.180  1.00  0.00     0.133 C 
HETATM    3  N3  UNL     1       1.656  -6.700   2.041  1.00  0.00    -0.184 NA
ENDROOT
BRANCH   1   4
HETATM    4  C11 UNL     1       1.012  -5.452   5.690  1.00  0.00     0.125 C 
BRANCH   4   5
HETATM    5  C10 UNL     1       2.334  -4.814   5.895  1.00  0.00     0.187 C 
BRANCH   5   6
HETATM    6  C9  UNL     1       2.618  -3.804   4.873  1.00  0.00     0.245 C 
HETATM    7  N2  UNL     1       1.662  -2.920   4.375  1.00  0.00    -0.322 N 
ATOM      8  H2  UNL     1       0.715  -2.970   4.751  1.00  0.00     0.169 HD
HETATM    9  O4  UNL     1       3.834  -3.777   4.440  1.00  0.00    -0.271 OA
BRANCH   7  10
HETATM   10  C8  UNL     1       1.952  -1.896   3.316  1.00  0.00     0.121 C 
HETATM   11  C7  UNL     1       1.704  -0.559   3.780  1.00  0.00     0.166 C 
BRANCH  11  12
HETATM   12  N1  UNL     1       1.116   0.577   3.266  1.00  0.00    -0.346 N 
HETATM   13  C3  UNL     1      -0.211   0.965   2.961  1.00  0.00     0.186 C 
HETATM   14  C4  UNL     1      -0.191   2.431   3.493  1.00  0.00     0.037 C 
HETATM   15  C5  UNL     1       1.049   2.918   2.801  1.00  0.00     0.022 C 
HETATM   16  C6  UNL     1       1.976   1.761   2.879  1.00  0.00     0.126 C 
BRANCH  13  17
HETATM   17  C2  UNL     1      -0.405   1.111   1.471  1.00  0.00     0.281 C 
HETATM   18  O2  UNL     1      -1.288   1.915   1.085  1.00  0.00    -0.263 OA
BRANCH  17  19
HETATM   19  O1  UNL     1       0.326   0.417   0.546  1.00  0.00    -0.325 OA
HETATM   20  C1  UNL     1       0.887   0.983  -0.624  1.00  0.00     0.213 C 
ENDBRANCH  17  19
ENDBRANCH  13  17
ENDBRANCH  11  12
BRANCH  11  21
HETATM   21  O3  UNL     1       2.163  -0.371   5.028  1.00  0.00    -0.345 OA
ATOM     22  H3  UNL     1       2.886  -0.953   5.235  1.00  0.00     0.219 HD
ENDBRANCH  11  21
BRANCH  10  23
HETATM   23  C16 UNL     1       1.638  -2.415   1.996  1.00  0.00     0.431 C 
BRANCH  23  24
HETATM   24  N6  UNL     1       0.238  -2.449   1.646  1.00  0.00    -0.045 N 
ATOM     25  H63 UNL     1      -0.283  -2.964   2.355  1.00  0.00     0.277 HD
ATOM     26  H62 UNL     1      -0.169  -1.520   1.757  1.00  0.00     0.277 HD
ATOM     27  H61 UNL     1       0.017  -2.815   0.720  1.00  0.00     0.277 HD
ENDBRANCH  23  24
BRANCH  23  28
HETATM   28  N7  UNL     1       2.279  -3.638   1.586  1.00  0.00    -0.045 N 
ATOM     29  H73 UNL     1       2.454  -3.605   0.581  1.00  0.00     0.277 HD
ATOM     30  H72 UNL     1       3.233  -3.654   1.946  1.00  0.00     0.277 HD
ATOM     31  H71 UNL     1       1.817  -4.517   1.818  1.00  0.00     0.277 HD
ENDBRANCH  23  28
ENDBRANCH  10  23
ENDBRANCH   7  10
ENDBRANCH   5   6
BRANCH   5  32
HETATM   32  N4  UNL     1       3.467  -5.676   6.079  1.00  0.00    -0.345 N 
HETATM   33  C13 UNL     1       4.068  -5.927   7.342  1.00  0.00     0.249 C 
HETATM   34  O5  UNL     1       3.604  -5.380   8.395  1.00  0.00    -0.271 OA
ATOM     35  H4  UNL     1       3.863  -6.134   5.258  1.00  0.00     0.163 HD
BRANCH  33  36
HETATM   36  C14 UNL     1       5.231  -6.804   7.539  1.00  0.00     0.284 C 
BRANCH  36  37
HETATM   37  N5  UNL     1       6.237  -6.441   6.562  1.00  0.00    -0.066 N 
ATOM     38  H53 UNL     1       6.001  -6.748   5.619  1.00  0.00     0.275 HD
ATOM     39  H52 UNL     1       6.262  -5.438   6.377  1.00  0.00     0.275 HD
ATOM     40  H51 UNL     1       7.134  -6.805   6.883  1.00  0.00     0.275 HD
ENDBRANCH  36  37
BRANCH  36  41
HETATM   41  C15 UNL     1       5.826  -6.453   8.911  1.00  0.00     0.128 C 
HETATM   42  S2  UNL     1       7.368  -7.342   9.163  1.00  0.00    -0.095 SA
ENDBRANCH  36  41
ENDBRANCH  33  36
ENDBRANCH   5  32
ENDBRANCH   4   5
ENDBRANCH   1   4
TORSDOF 15
ENDMDL
MODEL 5
REMARK VINA RESULT: -6.894035918      4.003      9.865
REMARK  15 active torsions:
REMARK  status: ('A' for Active; 'I' for Inactive)
REMARK    1  A    between atoms: O1_2  and  C2_3 
REMARK    2  A    between atoms: C2_3  and  C3_5 
REMARK    3  A    between atoms: N1_9  and  C7_10 
REMARK    4  A    between atoms: C7_10  and  O3_11 
REMARK    5  A    between atoms: C8_13  and  N2_14 
REMARK    6  A    between atoms: C8_13  and  C16_34 
REMARK       I    between atoms: N2_14  and  C9_16 
REMARK    7  A    between atoms: C9_16  and  C10_18 
REMARK    8  A    between atoms: C10_18  and  C11_19 
REMARK    9  A    between atoms: C10_18  and  N4_23 
REMARK   10  A    between atoms: C11_19  and  S1_20 
REMARK       I    between atoms: N4_23  and  C13_25 
REMARK   11  A    between atoms: C13_25  and  C14_27 
REMARK   12  A    between atoms: C14_27  and  N5_28 
REMARK   13  A    between atoms: C14_27  and  C15_32 
REMARK   14  A    between atoms: C16_34  and  N6_35 
REMARK   15  A    between atoms: C16_34  and  N7_39 
ROOT
HETATM    1  S1  UNL     1       0.969  -6.376   4.940  1.00  0.00    -0.048 SA
HETATM    2  C12 UNL     1       2.189  -7.672   4.917  1.00  0.00     0.133 C 
HETATM    3  N3  UNL     1       2.972  -8.530   4.909  1.00  0.00    -0.184 NA
ENDROOT
BRANCH   1   4
HETATM    4  C11 UNL     1       1.309  -5.328   6.414  1.00  0.00     0.125 C 
BRANCH   4   5
HETATM    5  C10 UNL     1       2.672  -4.763   6.283  1.00  0.00     0.187 C 
BRANCH   5   6
HETATM    6  C9  UNL     1       2.816  -3.963   5.063  1.00  0.00     0.245 C 
HETATM    7  N2  UNL     1       1.794  -3.181   4.528  1.00  0.00    -0.322 N 
ATOM      8  H2  UNL     1       0.899  -3.155   5.017  1.00  0.00     0.169 HD
HETATM    9  O4  UNL     1       3.972  -4.024   4.491  1.00  0.00    -0.271 OA
BRANCH   7  10
HETATM   10  C8  UNL     1       1.940  -2.375   3.270  1.00  0.00     0.121 C 
HETATM   11  C7  UNL     1       1.712  -0.976   3.501  1.00  0.00     0.166 C 
BRANCH  11  12
HETATM   12  N1  UNL     1       1.043   0.042   2.853  1.00  0.00    -0.346 N 
HETATM   13  C3  UNL     1      -0.258   0.595   2.938  1.00  0.00     0.186 C 
HETATM   14  C4  UNL     1       0.088   2.111   2.831  1.00  0.00     0.037 C 
HETATM   15  C5  UNL     1       0.949   2.073   1.603  1.00  0.00     0.022 C 
HETATM   16  C6  UNL     1       1.739   0.825   1.761  1.00  0.00     0.126 C 
BRANCH  13  17
HETATM   17  C2  UNL     1      -1.054   0.304   1.688  1.00  0.00     0.281 C 
HETATM   18  O2  UNL     1      -1.832   1.202   1.284  1.00  0.00    -0.263 OA
BRANCH  17  19
HETATM   19  O1  UNL     1      -0.963  -0.873   0.996  1.00  0.00    -0.325 OA
HETATM   20  C1  UNL     1      -1.990  -1.843   0.921  1.00  0.00     0.213 C 
ENDBRANCH  17  19
ENDBRANCH  13  17
ENDBRANCH  11  12
BRANCH  11  21
HETATM   21  O3  UNL     1       2.302  -0.554   4.631  1.00  0.00    -0.345 OA
ATOM     22  H3  UNL     1       3.217  -0.337   4.498  1.00  0.00     0.219 HD
ENDBRANCH  11  21
BRANCH  10  23
HETATM   23  C16 UNL     1       1.495  -3.134   2.114  1.00  0.00     0.431 C 
BRANCH  23  24
HETATM   24  N6  UNL     1       2.003  -4.481   2.008  1.00  0.00    -0.045 N 
ATOM     25  H63 UNL     1       2.653  -4.545   1.224  1.00  0.00     0.277 HD
ATOM     26  H62 UNL     1       2.633  -4.676   2.786  1.00  0.00     0.277 HD
ATOM     27  H61 UNL     1       1.302  -5.219   1.937  1.00  0.00     0.277 HD
ENDBRANCH  23  24
BRANCH  23  28
HETATM   28  N7  UNL     1       1.540  -2.486   0.829  1.00  0.00    -0.045 N 
ATOM     29  H73 UNL     1       2.100  -1.637   0.900  1.00  0.00     0.277 HD
ATOM     30  H72 UNL     1       2.112  -3.042   0.193  1.00  0.00     0.277 HD
ATOM     31  H71 UNL     1       0.652  -2.266   0.376  1.00  0.00     0.277 HD
ENDBRANCH  23  28
ENDBRANCH  10  23
ENDBRANCH   7  10
ENDBRANCH   5   6
BRANCH   5  32
HETATM   32  N4  UNL     1       3.782  -5.662   6.428  1.00  0.00    -0.345 N 
HETATM   33  C13 UNL     1       4.387  -5.969   7.676  1.00  0.00     0.249 C 
HETATM   34  O5  UNL     1       3.950  -5.441   8.750  1.00  0.00    -0.271 OA
ATOM     35  H4  UNL     1       4.156  -6.106   5.590  1.00  0.00     0.163 HD
BRANCH  33  36
HETATM   36  C14 UNL     1       5.526  -6.884   7.834  1.00  0.00     0.284 C 
BRANCH  36  37
HETATM   37  N5  UNL     1       6.510  -6.555   6.823  1.00  0.00    -0.066 N 
ATOM     38  H53 UNL     1       7.396  -7.040   6.963  1.00  0.00     0.275 HD
ATOM     39  H52 UNL     1       6.282  -6.946   5.909  1.00  0.00     0.275 HD
ATOM     40  H51 UNL     1       6.615  -5.541   6.804  1.00  0.00     0.275 HD
ENDBRANCH  36  37
BRANCH  36  41
HETATM   41  C15 UNL     1       6.179  -6.553   9.184  1.00  0.00     0.128 C 
HETATM   42  S2  UNL     1       7.621  -7.595   9.447  1.00  0.00    -0.095 SA
ENDBRANCH  36  41
ENDBRANCH  33  36
ENDBRANCH   5  32
ENDBRANCH   4   5
ENDBRANCH   1   4
TORSDOF 15
ENDMDL
