MODEL 1
REMARK VINA RESULT: -8.791051687      0.000      0.000
REMARK  11 active torsions:
REMARK  status: ('A' for Active; 'I' for Inactive)
REMARK    1  A    between atoms: O1_2  and  C2_3 
REMARK    2  A    between atoms: C2_3  and  C3_5 
REMARK    3  A    between atoms: C3_5  and  C4_6 
REMARK    4  A    between atoms: C3_5  and  C11_24 
REMARK    5  A    between atoms: C4_6  and  C5_7 
REMARK    6  A    between atoms: C8_15  and  N3_16 
REMARK       I    between atoms: C11_24  and  N6_26 
REMARK    7  A    between atoms: N6_26  and  C12_28 
REMARK    8  A    between atoms: C12_28  and  C13_29 
REMARK    9  A    between atoms: C12_28  and  C14_31 
REMARK   10  A    between atoms: C14_31  and  C15_33 
REMARK       I    between atoms: C15_33  and  N7_35 
REMARK   11  A    between atoms: N7_35  and  C16_37 
ROOT
HETATM    1  C16 UNL     1       2.617   2.044   2.073  1.00  0.00     0.247 C 
HETATM    2  C17 UNL     1       3.902   2.709   1.950  1.00  0.00     0.078 C 
HETATM    3  N8  UNL     1       4.938   3.229   1.845  1.00  0.00    -0.196 NA
ENDROOT
BRANCH   1   4
HETATM    4  N7  UNL     1       2.748   0.818   2.833  1.00  0.00    -0.342 N 
HETATM    5  C15 UNL     1       1.720   0.355   3.680  1.00  0.00     0.290 C 
HETATM    6  O6  UNL     1       0.669   1.015   3.780  1.00  0.00    -0.264 OA
ATOM      7  H7  UNL     1       3.607   0.275   2.753  1.00  0.00     0.163 HD
BRANCH   5   8
HETATM    8  C14 UNL     1       1.884  -0.869   4.423  1.00  0.00     0.239 C 
HETATM    9  O5  UNL     1       1.912  -0.788   5.685  1.00  0.00    -0.285 OA
BRANCH   8  10
HETATM   10  C12 UNL     1       2.027  -2.223   3.816  1.00  0.00     0.174 C 
BRANCH  10  11
HETATM   11  N6  UNL     1       1.993  -3.223   4.862  1.00  0.00    -0.348 N 
HETATM   12  C11 UNL     1       3.102  -4.069   5.043  1.00  0.00     0.232 C 
HETATM   13  O4  UNL     1       4.102  -3.963   4.315  1.00  0.00    -0.273 OA
ATOM     14  H6  UNL     1       1.173  -3.312   5.463  1.00  0.00     0.163 HD
BRANCH  12  15
HETATM   15  C3  UNL     1       3.068  -5.092   6.113  1.00  0.00     0.184 C 
BRANCH  15  16
HETATM   16  C2  UNL     1       1.686  -5.492   6.369  1.00  0.00     0.272 C 
HETATM   17  O2  UNL     1       0.881  -4.911   7.103  1.00  0.00    -0.264 OA
BRANCH  16  18
HETATM   18  O1  UNL     1       1.219  -6.649   5.722  1.00  0.00    -0.326 OA
HETATM   19  C1  UNL     1       0.826  -6.661   4.384  1.00  0.00     0.213 C 
ENDBRANCH  16  18
ENDBRANCH  15  16
BRANCH  15  20
HETATM   20  C4  UNL     1       4.002  -6.191   5.703  1.00  0.00     0.101 C 
BRANCH  20  21
HETATM   21  C5  UNL     1       5.079  -6.494   6.667  1.00  0.00     0.086 A 
HETATM   22  N1  UNL     1       6.383  -6.685   6.434  1.00  0.00    -0.338 N 
HETATM   23  C6  UNL     1       7.047  -6.939   7.565  1.00  0.00     0.148 A 
ATOM     24  H1  UNL     1       6.815  -6.642   5.510  1.00  0.00     0.167 HD
HETATM   25  C7  UNL     1       8.359  -7.204   7.906  1.00  0.00     0.290 A 
HETATM   26  C9  UNL     1       6.131  -6.913   8.585  1.00  0.00     0.157 A 
HETATM   27  O3  UNL     1       9.195  -7.226   6.960  1.00  0.00    -0.265 OA
HETATM   28  N2  UNL     1       8.730  -7.428   9.184  1.00  0.00    -0.154 N 
HETATM   29  C8  UNL     1       7.813  -7.398  10.182  1.00  0.00     0.680 A 
ATOM     30  H2  UNL     1       9.708  -7.620   9.402  1.00  0.00     0.187 HD
HETATM   31  N4  UNL     1       6.544  -7.141   9.843  1.00  0.00    -0.174 N 
ATOM     32  H4  UNL     1       5.846  -7.116  10.586  1.00  0.00     0.186 HD
HETATM   33  N5  UNL     1       4.937  -6.639   8.010  1.00  0.00    -0.325 N 
HETATM   34  C10 UNL     1       3.709  -6.523   8.731  1.00  0.00     0.159 C 
BRANCH  29  35
HETATM   35  N3  UNL     1       8.155  -7.612  11.429  1.00  0.00    -0.234 N 
ATOM     36  H32 UNL     1       9.048  -8.045  11.667  1.00  0.00     0.174 HD
ATOM     37  H31 UNL     1       7.540  -7.353  12.199  1.00  0.00     0.174 HD
ENDBRANCH  29  35
ENDBRANCH  20  21
ENDBRANCH  15  20
ENDBRANCH  12  15
ENDBRANCH  10  11
BRANCH  10  38
HETATM   38  C13 UNL     1       0.956  -2.477   2.779  1.00  0.00     0.119 C 
HETATM   39  S1  UNL     1      -0.703  -2.220   3.400  1.00  0.00    -0.095 SA
ENDBRANCH  10  38
ENDBRANCH   8  10
ENDBRANCH   5   8
ENDBRANCH   1   4
TORSDOF 11
ENDMDL
MODEL 2
REMARK VINA RESULT: -8.177011948      2.201      9.174
REMARK  11 active torsions:
REMARK  status: ('A' for Active; 'I' for Inactive)
REMARK    1  A    between atoms: O1_2  and  C2_3 
REMARK    2  A    between atoms: C2_3  and  C3_5 
REMARK    3  A    between atoms: C3_5  and  C4_6 
REMARK    4  A    between atoms: C3_5  and  C11_24 
REMARK    5  A    between atoms: C4_6  and  C5_7 
REMARK    6  A    between atoms: C8_15  and  N3_16 
REMARK       I    between atoms: C11_24  and  N6_26 
REMARK    7  A    between atoms: N6_26  and  C12_28 
REMARK    8  A    between atoms: C12_28  and  C13_29 
REMARK    9  A    between atoms: C12_28  and  C14_31 
REMARK   10  A    between atoms: C14_31  and  C15_33 
REMARK       I    between atoms: C15_33  and  N7_35 
REMARK   11  A    between atoms: N7_35  and  C16_37 
ROOT
HETATM    1  C16 UNL     1       6.492  -7.283   9.886  1.00  0.00     0.247 C 
HETATM    2  C17 UNL     1       7.439  -8.278   9.419  1.00  0.00     0.078 C 
HETATM    3  N8  UNL     1       8.202  -9.067   9.031  1.00  0.00    -0.196 NA
ENDROOT
BRANCH   1   4
HETATM    4  N7  UNL     1       5.453  -7.064   8.900  1.00  0.00    -0.342 N 
HETATM    5  C15 UNL     1       5.745  -6.579   7.609  1.00  0.00     0.290 C 
HETATM    6  O6  UNL     1       6.926  -6.331   7.304  1.00  0.00    -0.264 OA
ATOM      7  H7  UNL     1       4.485  -7.267   9.147  1.00  0.00     0.163 HD
BRANCH   5   8
HETATM    8  C14 UNL     1       4.686  -6.372   6.653  1.00  0.00     0.239 C 
HETATM    9  O5  UNL     1       4.497  -7.273   5.785  1.00  0.00    -0.285 OA
BRANCH   8  10
HETATM   10  C12 UNL     1       3.799  -5.175   6.608  1.00  0.00     0.174 C 
BRANCH  10  11
HETATM   11  N6  UNL     1       2.882  -5.300   5.494  1.00  0.00    -0.348 N 
HETATM   12  C11 UNL     1       2.862  -4.302   4.503  1.00  0.00     0.232 C 
HETATM   13  O4  UNL     1       3.622  -3.323   4.578  1.00  0.00    -0.273 OA
ATOM     14  H6  UNL     1       2.258  -6.103   5.430  1.00  0.00     0.163 HD
BRANCH  12  15
HETATM   15  C3  UNL     1       1.925  -4.429   3.364  1.00  0.00     0.184 C 
BRANCH  15  16
HETATM   16  C2  UNL     1       1.743  -5.840   3.030  1.00  0.00     0.272 C 
HETATM   17  O2  UNL     1       2.188  -6.419   2.035  1.00  0.00    -0.264 OA
BRANCH  16  18
HETATM   18  O1  UNL     1       0.989  -6.621   3.923  1.00  0.00    -0.326 OA
HETATM   19  C1  UNL     1       1.291  -7.954   4.203  1.00  0.00     0.213 C 
ENDBRANCH  16  18
ENDBRANCH  15  16
BRANCH  15  20
HETATM   20  C4  UNL     1       0.682  -3.677   3.728  1.00  0.00     0.101 C 
BRANCH  20  21
HETATM   21  C5  UNL     1       0.758  -2.211   3.558  1.00  0.00     0.086 A 
HETATM   22  N1  UNL     1       1.102  -1.280   4.456  1.00  0.00    -0.338 N 
HETATM   23  C6  UNL     1       1.054  -0.054   3.927  1.00  0.00     0.148 A 
ATOM     24  H1  UNL     1       1.368  -1.481   5.421  1.00  0.00     0.167 HD
HETATM   25  C7  UNL     1       1.296   1.229   4.377  1.00  0.00     0.290 A 
HETATM   26  C9  UNL     1       0.658  -0.193   2.622  1.00  0.00     0.157 A 
HETATM   27  O3  UNL     1       1.660   1.346   5.580  1.00  0.00    -0.265 OA
HETATM   28  N2  UNL     1       1.153   2.303   3.572  1.00  0.00    -0.154 N 
HETATM   29  C8  UNL     1       0.762   2.149   2.283  1.00  0.00     0.680 A 
ATOM     30  H2  UNL     1       1.341   3.237   3.936  1.00  0.00     0.187 HD
HETATM   31  N4  UNL     1       0.529   0.903   1.856  1.00  0.00    -0.174 N 
ATOM     32  H4  UNL     1       0.233   0.776   0.888  1.00  0.00     0.186 HD
HETATM   33  N5  UNL     1       0.484  -1.521   2.421  1.00  0.00    -0.325 N 
HETATM   34  C10 UNL     1       0.070  -2.096   1.182  1.00  0.00     0.159 C 
BRANCH  29  35
HETATM   35  N3  UNL     1       0.618   3.181   1.487  1.00  0.00    -0.234 N 
ATOM     36  H32 UNL     1      -0.268   3.684   1.427  1.00  0.00     0.174 HD
ATOM     37  H31 UNL     1       1.386   3.512   0.905  1.00  0.00     0.174 HD
ENDBRANCH  29  35
ENDBRANCH  20  21
ENDBRANCH  15  20
ENDBRANCH  12  15
ENDBRANCH  10  11
BRANCH  10  38
HETATM   38  C13 UNL     1       3.056  -4.990   7.912  1.00  0.00     0.119 C 
HETATM   39  S1  UNL     1       1.308  -5.353   7.786  1.00  0.00    -0.095 SA
ENDBRANCH  10  38
ENDBRANCH   8  10
ENDBRANCH   5   8
ENDBRANCH   1   4
TORSDOF 11
ENDMDL
MODEL 3
REMARK VINA RESULT: -8.176440412      2.592      9.362
REMARK  11 active torsions:
REMARK  status: ('A' for Active; 'I' for Inactive)
REMARK    1  A    between atoms: O1_2  and  C2_3 
REMARK    2  A    between atoms: C2_3  and  C3_5 
REMARK    3  A    between atoms: C3_5  and  C4_6 
REMARK    4  A    between atoms: C3_5  and  C11_24 
REMARK    5  A    between atoms: C4_6  and  C5_7 
REMARK    6  A    between atoms: C8_15  and  N3_16 
REMARK       I    between atoms: C11_24  and  N6_26 
REMARK    7  A    between atoms: N6_26  and  C12_28 
REMARK    8  A    between atoms: C12_28  and  C13_29 
REMARK    9  A    between atoms: C12_28  and  C14_31 
REMARK   10  A    between atoms: C14_31  and  C15_33 
REMARK       I    between atoms: C15_33  and  N7_35 
REMARK   11  A    between atoms: N7_35  and  C16_37 
ROOT
HETATM    1  C16 UNL     1       6.814  -6.715   8.410  1.00  0.00     0.247 C 
HETATM    2  C17 UNL     1       7.296  -7.950   9.000  1.00  0.00     0.078 C 
HETATM    3  N8  UNL     1       7.676  -8.949   9.462  1.00  0.00    -0.196 NA
ENDROOT
BRANCH   1   4
HETATM    4  N7  UNL     1       5.368  -6.728   8.309  1.00  0.00    -0.342 N 
HETATM    5  C15 UNL     1       4.701  -6.295   7.145  1.00  0.00     0.290 C 
HETATM    6  O6  UNL     1       5.368  -5.889   6.176  1.00  0.00    -0.264 OA
ATOM      7  H7  UNL     1       4.819  -7.061   9.101  1.00  0.00     0.163 HD
BRANCH   5   8
HETATM    8  C14 UNL     1       3.261  -6.321   7.079  1.00  0.00     0.239 C 
HETATM    9  O5  UNL     1       2.622  -6.023   8.129  1.00  0.00    -0.285 OA
BRANCH   8  10
HETATM   10  C12 UNL     1       2.469  -6.675   5.867  1.00  0.00     0.174 C 
BRANCH  10  11
HETATM   11  N6  UNL     1       2.599  -5.618   4.885  1.00  0.00    -0.348 N 
HETATM   12  C11 UNL     1       1.446  -4.945   4.442  1.00  0.00     0.232 C 
HETATM   13  O4  UNL     1       0.327  -5.249   4.885  1.00  0.00    -0.273 OA
ATOM     14  H6  UNL     1       3.516  -5.366   4.519  1.00  0.00     0.163 HD
BRANCH  12  15
HETATM   15  C3  UNL     1       1.577  -3.864   3.437  1.00  0.00     0.184 C 
BRANCH  15  16
HETATM   16  C2  UNL     1       1.996  -4.431   2.157  1.00  0.00     0.272 C 
HETATM   17  O2  UNL     1       2.354  -3.798   1.159  1.00  0.00    -0.264 OA
BRANCH  16  18
HETATM   18  O1  UNL     1       1.992  -5.831   2.040  1.00  0.00    -0.326 OA
HETATM   19  C1  UNL     1       1.988  -6.488   0.808  1.00  0.00     0.213 C 
ENDBRANCH  16  18
ENDBRANCH  15  16
BRANCH  15  20
HETATM   20  C4  UNL     1       0.282  -3.110   3.428  1.00  0.00     0.101 C 
BRANCH  20  21
HETATM   21  C5  UNL     1       0.410  -1.640   3.376  1.00  0.00     0.086 A 
HETATM   22  N1  UNL     1       0.845  -0.802   4.325  1.00  0.00    -0.338 N 
HETATM   23  C6  UNL     1       0.817   0.466   3.905  1.00  0.00     0.148 A 
ATOM     24  H1  UNL     1       1.158  -1.095   5.251  1.00  0.00     0.167 HD
HETATM   25  C7  UNL     1       1.139   1.696   4.444  1.00  0.00     0.290 A 
HETATM   26  C9  UNL     1       0.340   0.454   2.619  1.00  0.00     0.157 A 
HETATM   27  O3  UNL     1       1.577   1.696   5.628  1.00  0.00    -0.265 OA
HETATM   28  N2  UNL     1       0.994   2.839   3.742  1.00  0.00    -0.154 N 
HETATM   29  C8  UNL     1       0.521   2.812   2.471  1.00  0.00     0.680 A 
ATOM     30  H2  UNL     1       1.241   3.731   4.170  1.00  0.00     0.187 HD
HETATM   31  N4  UNL     1       0.211   1.615   1.957  1.00  0.00    -0.174 N 
ATOM     32  H4  UNL     1      -0.145   1.584   1.002  1.00  0.00     0.186 HD
HETATM   33  N5  UNL     1       0.099  -0.844   2.320  1.00  0.00    -0.325 N 
HETATM   34  C10 UNL     1      -0.411  -1.295   1.065  1.00  0.00     0.159 C 
BRANCH  29  35
HETATM   35  N3  UNL     1       0.373   3.912   1.775  1.00  0.00    -0.234 N 
ATOM     36  H32 UNL     1       1.085   4.643   1.781  1.00  0.00     0.174 HD
ATOM     37  H31 UNL     1      -0.457   4.071   1.205  1.00  0.00     0.174 HD
ENDBRANCH  29  35
ENDBRANCH  20  21
ENDBRANCH  15  20
ENDBRANCH  12  15
ENDBRANCH  10  11
BRANCH  10  38
HETATM   38  C13 UNL     1       2.898  -8.008   5.298  1.00  0.00     0.119 C 
HETATM   39  S1  UNL     1       1.695  -8.718   4.180  1.00  0.00    -0.095 SA
ENDBRANCH  10  38
ENDBRANCH   8  10
ENDBRANCH   5   8
ENDBRANCH   1   4
TORSDOF 11
ENDMDL
MODEL 4
REMARK VINA RESULT: -8.162886202      4.106      9.919
REMARK  11 active torsions:
REMARK  status: ('A' for Active; 'I' for Inactive)
REMARK    1  A    between atoms: O1_2  and  C2_3 
REMARK    2  A    between atoms: C2_3  and  C3_5 
REMARK    3  A    between atoms: C3_5  and  C4_6 
REMARK    4  A    between atoms: C3_5  and  C11_24 
REMARK    5  A    between atoms: C4_6  and  C5_7 
REMARK    6  A    between atoms: C8_15  and  N3_16 
REMARK       I    between atoms: C11_24  and  N6_26 
REMARK    7  A    between atoms: N6_26  and  C12_28 
REMARK    8  A    between atoms: C12_28  and  C13_29 
REMARK    9  A    between atoms: C12_28  and  C14_31 
REMARK   10  A    between atoms: C14_31  and  C15_33 
REMARK       I    between atoms: C15_33  and  N7_35 
REMARK   11  A    between atoms: N7_35  and  C16_37 
ROOT
HETATM    1  C16 UNL     1       1.172  -7.830   2.639  1.00  0.00     0.247 C 
HETATM    2  C17 UNL     1       1.521  -7.612   1.247  1.00  0.00     0.078 C 
HETATM    3  N8  UNL     1       1.813  -7.446   0.132  1.00  0.00    -0.196 NA
ENDROOT
BRANCH   1   4
HETATM    4  N7  UNL     1       2.239  -7.378   3.509  1.00  0.00    -0.342 N 
HETATM    5  C15 UNL     1       1.979  -6.831   4.782  1.00  0.00     0.290 C 
HETATM    6  O6  UNL     1       0.802  -6.733   5.173  1.00  0.00    -0.264 OA
ATOM      7  H7  UNL     1       3.205  -7.458   3.191  1.00  0.00     0.163 HD
BRANCH   5   8
HETATM    8  C14 UNL     1       3.065  -6.390   5.621  1.00  0.00     0.239 C 
HETATM    9  O5  UNL     1       4.132  -7.070   5.602  1.00  0.00    -0.285 OA
BRANCH   8  10
HETATM   10  C12 UNL     1       3.025  -5.195   6.511  1.00  0.00     0.174 C 
BRANCH  10  11
HETATM   11  N6  UNL     1       2.021  -4.271   6.027  1.00  0.00    -0.348 N 
HETATM   12  C11 UNL     1       2.361  -3.350   5.019  1.00  0.00     0.232 C 
HETATM   13  O4  UNL     1       3.509  -3.326   4.547  1.00  0.00    -0.273 OA
ATOM     14  H6  UNL     1       1.077  -4.288   6.412  1.00  0.00     0.163 HD
BRANCH  12  15
HETATM   15  C3  UNL     1       1.335  -2.404   4.524  1.00  0.00     0.184 C 
BRANCH  15  16
HETATM   16  C2  UNL     1       1.785  -1.031   4.743  1.00  0.00     0.272 C 
HETATM   17  O2  UNL     1       1.503  -0.314   5.707  1.00  0.00    -0.264 OA
BRANCH  16  18
HETATM   18  O1  UNL     1       2.619  -0.463   3.764  1.00  0.00    -0.326 OA
HETATM   19  C1  UNL     1       2.345   0.763   3.156  1.00  0.00     0.213 C 
ENDBRANCH  16  18
ENDBRANCH  15  16
BRANCH  15  20
HETATM   20  C4  UNL     1       1.039  -2.777   3.103  1.00  0.00     0.101 C 
BRANCH  20  21
HETATM   21  C5  UNL     1      -0.175  -2.163   2.530  1.00  0.00     0.086 A 
HETATM   22  N1  UNL     1      -1.365  -1.962   3.109  1.00  0.00    -0.338 N 
HETATM   23  C6  UNL     1      -2.222  -1.375   2.267  1.00  0.00     0.148 A 
ATOM     24  H1  UNL     1      -1.590  -2.224   4.069  1.00  0.00     0.167 HD
HETATM   25  C7  UNL     1      -3.535  -0.950   2.327  1.00  0.00     0.290 A 
HETATM   26  C9  UNL     1      -1.558  -1.185   1.083  1.00  0.00     0.157 A 
HETATM   27  O3  UNL     1      -4.137  -1.129   3.422  1.00  0.00    -0.265 OA
HETATM   28  N2  UNL     1      -4.143  -0.372   1.270  1.00  0.00    -0.154 N 
HETATM   29  C8  UNL     1      -3.472  -0.190   0.105  1.00  0.00     0.680 A 
ATOM     30  H2  UNL     1      -5.113  -0.069   1.347  1.00  0.00     0.187 HD
HETATM   31  N4  UNL     1      -2.201  -0.605   0.056  1.00  0.00    -0.174 N 
ATOM     32  H4  UNL     1      -1.688  -0.473  -0.815  1.00  0.00     0.186 HD
HETATM   33  N5  UNL     1      -0.310  -1.675   1.270  1.00  0.00    -0.325 N 
HETATM   34  C10 UNL     1       0.710  -1.671   0.270  1.00  0.00     0.159 C 
BRANCH  29  35
HETATM   35  N3  UNL     1      -4.047   0.369  -0.931  1.00  0.00    -0.234 N 
ATOM     36  H32 UNL     1      -5.061   0.368  -1.041  1.00  0.00     0.174 HD
ATOM     37  H31 UNL     1      -3.497   0.824  -1.660  1.00  0.00     0.174 HD
ENDBRANCH  29  35
ENDBRANCH  20  21
ENDBRANCH  15  20
ENDBRANCH  12  15
ENDBRANCH  10  11
BRANCH  10  38
HETATM   38  C13 UNL     1       2.763  -5.587   7.948  1.00  0.00     0.119 C 
HETATM   39  S1  UNL     1       4.251  -6.023   8.842  1.00  0.00    -0.095 SA
ENDBRANCH  10  38
ENDBRANCH   8  10
ENDBRANCH   5   8
ENDBRANCH   1   4
TORSDOF 11
ENDMDL
MODEL 5
REMARK VINA RESULT: -8.087627605      2.478      9.042
REMARK  11 active torsions:
REMARK  status: ('A' for Active; 'I' for Inactive)
REMARK    1  A    between atoms: O1_2  and  C2_3 
REMARK    2  A    between atoms: C2_3  and  C3_5 
REMARK    3  A    between atoms: C3_5  and  C4_6 
REMARK    4  A    between atoms: C3_5  and  C11_24 
REMARK    5  A    between atoms: C4_6  and  C5_7 
REMARK    6  A    between atoms: C8_15  and  N3_16 
REMARK       I    between atoms: C11_24  and  N6_26 
REMARK    7  A    between atoms: N6_26  and  C12_28 
REMARK    8  A    between atoms: C12_28  and  C13_29 
REMARK    9  A    between atoms: C12_28  and  C14_31 
REMARK   10  A    between atoms: C14_31  and  C15_33 
REMARK       I    between atoms: C15_33  and  N7_35 
REMARK   11  A    between atoms: N7_35  and  C16_37 
ROOT
HETATM    1  C16 UNL     1       6.578  -6.750   8.268  1.00  0.00     0.247 C 
HETATM    2  C17 UNL     1       6.885  -7.356   9.551  1.00  0.00     0.078 C 
HETATM    3  N8  UNL     1       7.123  -7.856  10.575  1.00  0.00    -0.196 NA
ENDROOT
BRANCH   1   4
HETATM    4  N7  UNL     1       5.147  -6.740   8.038  1.00  0.00    -0.342 N 
HETATM    5  C15 UNL     1       4.586  -6.184   6.870  1.00  0.00     0.290 C 
HETATM    6  O6  UNL     1       5.337  -5.687   6.011  1.00  0.00    -0.264 OA
ATOM      7  H7  UNL     1       4.530  -7.148   8.739  1.00  0.00     0.163 HD
BRANCH   5   8
HETATM    8  C14 UNL     1       3.158  -6.190   6.674  1.00  0.00     0.239 C 
HETATM    9  O5  UNL     1       2.432  -5.846   7.651  1.00  0.00    -0.285 OA
BRANCH   8  10
HETATM   10  C12 UNL     1       2.473  -6.575   5.407  1.00  0.00     0.174 C 
BRANCH  10  11
HETATM   11  N6  UNL     1       2.793  -5.609   4.378  1.00  0.00    -0.348 N 
HETATM   12  C11 UNL     1       1.797  -4.720   3.933  1.00  0.00     0.232 C 
HETATM   13  O4  UNL     1       0.654  -4.759   4.417  1.00  0.00    -0.273 OA
ATOM     14  H6  UNL     1       3.730  -5.574   3.978  1.00  0.00     0.163 HD
BRANCH  12  15
HETATM   15  C3  UNL     1       2.123  -3.732   2.880  1.00  0.00     0.184 C 
BRANCH  15  16
HETATM   16  C2  UNL     1       2.482  -4.428   1.646  1.00  0.00     0.272 C 
HETATM   17  O2  UNL     1       3.053  -3.936   0.668  1.00  0.00    -0.264 OA
BRANCH  16  18
HETATM   18  O1  UNL     1       2.147  -5.790   1.554  1.00  0.00    -0.326 OA
HETATM   19  C1  UNL     1       2.170  -6.495   0.350  1.00  0.00     0.213 C 
ENDBRANCH  16  18
ENDBRANCH  15  16
BRANCH  15  20
HETATM   20  C4  UNL     1       0.964  -2.788   2.785  1.00  0.00     0.101 C 
BRANCH  20  21
HETATM   21  C5  UNL     1       1.318  -1.354   2.772  1.00  0.00     0.086 A 
HETATM   22  N1  UNL     1       1.449  -0.532   1.723  1.00  0.00    -0.338 N 
HETATM   23  C6  UNL     1       1.781   0.702   2.112  1.00  0.00     0.148 A 
ATOM     24  H1  UNL     1       1.312  -0.813   0.752  1.00  0.00     0.167 HD
HETATM   25  C7  UNL     1       2.035   1.904   1.480  1.00  0.00     0.290 A 
HETATM   26  C9  UNL     1       1.872   0.684   3.479  1.00  0.00     0.157 A 
HETATM   27  O3  UNL     1       1.948   1.911   0.221  1.00  0.00    -0.265 OA
HETATM   28  N2  UNL     1       2.359   3.016   2.174  1.00  0.00    -0.154 N 
HETATM   29  C8  UNL     1       2.445   2.983   3.527  1.00  0.00     0.680 A 
ATOM     30  H2  UNL     1       2.540   3.888   1.678  1.00  0.00     0.187 HD
HETATM   31  N4  UNL     1       2.197   1.814   4.130  1.00  0.00    -0.174 N 
ATOM     32  H4  UNL     1       2.259   1.778   5.147  1.00  0.00     0.186 HD
HETATM   33  N5  UNL     1       1.585  -0.583   3.858  1.00  0.00    -0.325 N 
HETATM   34  C10 UNL     1       1.570  -1.030   5.215  1.00  0.00     0.159 C 
BRANCH  29  35
HETATM   35  N3  UNL     1       2.758   4.052   4.216  1.00  0.00    -0.234 N 
ATOM     36  H32 UNL     1       3.291   4.815   3.799  1.00  0.00     0.174 HD
ATOM     37  H31 UNL     1       2.477   4.155   5.191  1.00  0.00     0.174 HD
ENDBRANCH  29  35
ENDBRANCH  20  21
ENDBRANCH  15  20
ENDBRANCH  12  15
ENDBRANCH  10  11
BRANCH  10  38
HETATM   38  C13 UNL     1       2.848  -7.976   4.981  1.00  0.00     0.119 C 
HETATM   39  S1  UNL     1       1.760  -8.648   3.729  1.00  0.00    -0.095 SA
ENDBRANCH  10  38
ENDBRANCH   8  10
ENDBRANCH   5   8
ENDBRANCH   1   4
TORSDOF 11
ENDMDL
