MODEL 1
REMARK VINA RESULT: -7.630465443      0.000      0.000
REMARK  8 active torsions:
REMARK  status: ('A' for Active; 'I' for Inactive)
REMARK    1  A    between atoms: C2_2  and  C4_4 
REMARK       I    between atoms: C4_4  and  N1_6 
REMARK    2  A    between atoms: N1_6  and  C5_8 
REMARK    3  A    between atoms: C5_8  and  C7_10 
REMARK       I    between atoms: C7_10  and  N2_12 
REMARK    4  A    between atoms: C10_15  and  C11_16 
REMARK       I    between atoms: C11_16  and  N3_18 
REMARK    5  A    between atoms: N3_18  and  O4_20 
REMARK    6  A    between atoms: C13_22  and  C14_23 
REMARK    7  A    between atoms: C14_23  and  C15_25 
REMARK    8  A    between atoms: C15_25  and  C16_26 
ROOT
HETATM    1  C7  UNL     1       2.241  -7.372   4.526  1.00  0.00     0.243 C 
HETATM    2  O2  UNL     1       3.405  -7.471   4.995  1.00  0.00    -0.271 OA
HETATM    3  N2  UNL     1       1.519  -6.182   4.790  1.00  0.00    -0.338 N 
HETATM    4  C8  UNL     1       0.184  -5.885   4.310  1.00  0.00     0.127 C 
HETATM    5  C9  UNL     1       0.389  -4.411   3.923  1.00  0.00     0.036 C 
HETATM    6  C10 UNL     1       1.049  -3.890   5.152  1.00  0.00     0.112 C 
HETATM    7  C13 UNL     1       1.956  -5.050   5.567  1.00  0.00     0.169 C 
ENDROOT
BRANCH   1   8
HETATM    8  C5  UNL     1       1.707  -8.504   3.732  1.00  0.00     0.173 C 
HETATM    9  C6  UNL     1       2.024  -9.801   4.477  1.00  0.00     0.042 C 
BRANCH   8  10
HETATM   10  N1  UNL     1       2.487  -8.606   2.491  1.00  0.00    -0.344 N 
HETATM   11  C4  UNL     1       1.955  -8.145   1.276  1.00  0.00     0.247 C 
HETATM   12  O1  UNL     1       0.800  -7.637   1.249  1.00  0.00    -0.268 OA
ATOM     13  H1  UNL     1       3.421  -9.015   2.513  1.00  0.00     0.163 HD
BRANCH  11  14
HETATM   14  C2  UNL     1       2.693  -8.229   0.036  1.00  0.00    -0.004 C 
HETATM   15  C1  UNL     1       2.829  -7.246  -0.834  1.00  0.00     0.024 C 
HETATM   16  C3  UNL     1       3.376  -9.521  -0.344  1.00  0.00     0.053 C 
ENDBRANCH  11  14
ENDBRANCH   8  10
ENDBRANCH   1   8
BRANCH   7  17
HETATM   17  C14 UNL     1       1.762  -5.239   7.030  1.00  0.00     0.150 C 
HETATM   18  O5  UNL     1       0.766  -4.766   7.599  1.00  0.00    -0.296 OA
BRANCH  17  19
HETATM   19  C15 UNL     1       2.709  -5.982   7.891  1.00  0.00     0.080 C 
BRANCH  19  20
HETATM   20  C16 UNL     1       4.145  -5.586   7.602  1.00  0.00     0.003 C 
HETATM   21  C17 UNL     1       5.086  -6.349   8.499  1.00  0.00     0.005 C 
ENDBRANCH  19  20
ENDBRANCH  17  19
ENDBRANCH   7  17
BRANCH   6  22
HETATM   22  C11 UNL     1       1.844  -2.661   4.912  1.00  0.00     0.247 C 
HETATM   23  O3  UNL     1       2.990  -2.767   4.385  1.00  0.00    -0.271 OA
HETATM   24  N3  UNL     1       1.379  -1.379   5.246  1.00  0.00    -0.235 N 
ATOM     25  H3  UNL     1       0.459  -1.268   5.672  1.00  0.00     0.197 HD
BRANCH  24  26
HETATM   26  O4  UNL     1       2.139  -0.302   5.009  1.00  0.00    -0.283 OA
HETATM   27  C12 UNL     1       1.437   0.681   4.312  1.00  0.00     0.237 C 
ENDBRANCH  24  26
ENDBRANCH   6  22
TORSDOF 8
ENDMDL
MODEL 2
REMARK VINA RESULT: -7.570954747      1.639      3.029
REMARK  8 active torsions:
REMARK  status: ('A' for Active; 'I' for Inactive)
REMARK    1  A    between atoms: C2_2  and  C4_4 
REMARK       I    between atoms: C4_4  and  N1_6 
REMARK    2  A    between atoms: N1_6  and  C5_8 
REMARK    3  A    between atoms: C5_8  and  C7_10 
REMARK       I    between atoms: C7_10  and  N2_12 
REMARK    4  A    between atoms: C10_15  and  C11_16 
REMARK       I    between atoms: C11_16  and  N3_18 
REMARK    5  A    between atoms: N3_18  and  O4_20 
REMARK    6  A    between atoms: C13_22  and  C14_23 
REMARK    7  A    between atoms: C14_23  and  C15_25 
REMARK    8  A    between atoms: C15_25  and  C16_26 
ROOT
HETATM    1  C7  UNL     1       2.479  -7.269   4.394  1.00  0.00     0.243 C 
HETATM    2  O2  UNL     1       3.589  -7.329   4.986  1.00  0.00    -0.271 OA
HETATM    3  N2  UNL     1       1.674  -6.124   4.611  1.00  0.00    -0.338 N 
HETATM    4  C8  UNL     1       0.386  -5.873   3.994  1.00  0.00     0.127 C 
HETATM    5  C9  UNL     1       0.558  -4.379   3.675  1.00  0.00     0.036 C 
HETATM    6  C10 UNL     1       1.053  -3.870   4.984  1.00  0.00     0.112 C 
HETATM    7  C13 UNL     1       1.966  -5.000   5.464  1.00  0.00     0.169 C 
ENDROOT
BRANCH   1   8
HETATM    8  C5  UNL     1       2.093  -8.396   3.513  1.00  0.00     0.173 C 
HETATM    9  C6  UNL     1       1.216  -7.845   2.390  1.00  0.00     0.042 C 
BRANCH   8  10
HETATM   10  N1  UNL     1       1.195  -9.284   4.263  1.00  0.00    -0.344 N 
HETATM   11  C4  UNL     1       1.623 -10.562   4.659  1.00  0.00     0.247 C 
HETATM   12  O1  UNL     1       2.788 -10.951   4.369  1.00  0.00    -0.268 OA
ATOM     13  H1  UNL     1       0.253  -8.970   4.499  1.00  0.00     0.163 HD
BRANCH  11  14
HETATM   14  C2  UNL     1       0.767 -11.462   5.398  1.00  0.00    -0.004 C 
HETATM   15  C1  UNL     1       1.122 -12.128   6.481  1.00  0.00     0.024 C 
HETATM   16  C3  UNL     1      -0.652 -11.697   4.936  1.00  0.00     0.053 C 
ENDBRANCH  11  14
ENDBRANCH   8  10
ENDBRANCH   1   8
BRANCH   7  17
HETATM   17  C14 UNL     1       1.622  -5.249   6.890  1.00  0.00     0.150 C 
HETATM   18  O5  UNL     1       0.570  -4.801   7.371  1.00  0.00    -0.296 OA
BRANCH  17  19
HETATM   19  C15 UNL     1       2.481  -6.023   7.814  1.00  0.00     0.080 C 
BRANCH  19  20
HETATM   20  C16 UNL     1       3.885  -5.452   7.873  1.00  0.00     0.003 C 
HETATM   21  C17 UNL     1       4.810  -6.416   8.572  1.00  0.00     0.005 C 
ENDBRANCH  19  20
ENDBRANCH  17  19
ENDBRANCH   7  17
BRANCH   6  22
HETATM   22  C11 UNL     1       1.807  -2.597   4.871  1.00  0.00     0.247 C 
HETATM   23  O3  UNL     1       2.955  -2.613   4.337  1.00  0.00    -0.271 OA
HETATM   24  N3  UNL     1       1.301  -1.372   5.331  1.00  0.00    -0.235 N 
ATOM     25  H3  UNL     1       0.378  -1.334   5.765  1.00  0.00     0.197 HD
BRANCH  24  26
HETATM   26  O4  UNL     1       2.024  -0.252   5.204  1.00  0.00    -0.283 OA
HETATM   27  C12 UNL     1       1.392   0.680   4.382  1.00  0.00     0.237 C 
ENDBRANCH  24  26
ENDBRANCH   6  22
TORSDOF 8
ENDMDL
MODEL 3
REMARK VINA RESULT: -7.341447023      2.534      6.598
REMARK  8 active torsions:
REMARK  status: ('A' for Active; 'I' for Inactive)
REMARK    1  A    between atoms: C2_2  and  C4_4 
REMARK       I    between atoms: C4_4  and  N1_6 
REMARK    2  A    between atoms: N1_6  and  C5_8 
REMARK    3  A    between atoms: C5_8  and  C7_10 
REMARK       I    between atoms: C7_10  and  N2_12 
REMARK    4  A    between atoms: C10_15  and  C11_16 
REMARK       I    between atoms: C11_16  and  N3_18 
REMARK    5  A    between atoms: N3_18  and  O4_20 
REMARK    6  A    between atoms: C13_22  and  C14_23 
REMARK    7  A    between atoms: C14_23  and  C15_25 
REMARK    8  A    between atoms: C15_25  and  C16_26 
ROOT
HETATM    1  C7  UNL     1       2.100  -3.178   4.622  1.00  0.00     0.243 C 
HETATM    2  O2  UNL     1       3.247  -2.873   4.202  1.00  0.00    -0.271 OA
HETATM    3  N2  UNL     1       2.002  -4.206   5.593  1.00  0.00    -0.338 N 
HETATM    4  C8  UNL     1       0.773  -4.667   6.207  1.00  0.00     0.127 C 
HETATM    5  C9  UNL     1       1.267  -4.810   7.656  1.00  0.00     0.036 C 
HETATM    6  C10 UNL     1       2.524  -5.581   7.448  1.00  0.00     0.112 C 
HETATM    7  C13 UNL     1       3.080  -4.981   6.155  1.00  0.00     0.169 C 
ENDROOT
BRANCH   1   8
HETATM    8  C5  UNL     1       0.935  -2.442   4.077  1.00  0.00     0.173 C 
HETATM    9  C6  UNL     1       0.300  -3.298   2.982  1.00  0.00     0.042 C 
BRANCH   8  10
HETATM   10  N1  UNL     1       1.429  -1.258   3.362  1.00  0.00    -0.344 N 
HETATM   11  C4  UNL     1       1.485  -0.010   4.004  1.00  0.00     0.247 C 
HETATM   12  O1  UNL     1       1.109   0.096   5.204  1.00  0.00    -0.268 OA
ATOM     13  H1  UNL     1       1.734  -1.343   2.392  1.00  0.00     0.163 HD
BRANCH  11  14
HETATM   14  C2  UNL     1       1.965   1.176   3.332  1.00  0.00    -0.004 C 
HETATM   15  C1  UNL     1       2.455   1.208   2.107  1.00  0.00     0.024 C 
HETATM   16  C3  UNL     1       1.928   2.508   4.043  1.00  0.00     0.053 C 
ENDBRANCH  11  14
ENDBRANCH   8  10
ENDBRANCH   1   8
BRANCH   7  17
HETATM   17  C14 UNL     1       3.484  -6.125   5.294  1.00  0.00     0.150 C 
HETATM   18  O5  UNL     1       4.559  -6.711   5.491  1.00  0.00    -0.296 OA
BRANCH  17  19
HETATM   19  C15 UNL     1       2.662  -6.634   4.174  1.00  0.00     0.080 C 
BRANCH  19  20
HETATM   20  C16 UNL     1       2.033  -7.973   4.512  1.00  0.00     0.003 C 
HETATM   21  C17 UNL     1       2.384  -8.993   3.460  1.00  0.00     0.005 C 
ENDBRANCH  19  20
ENDBRANCH  17  19
ENDBRANCH   7  17
BRANCH   6  22
HETATM   22  C11 UNL     1       3.495  -5.429   8.559  1.00  0.00     0.247 C 
HETATM   23  O3  UNL     1       3.391  -4.430   9.328  1.00  0.00    -0.271 OA
HETATM   24  N3  UNL     1       4.529  -6.349   8.794  1.00  0.00    -0.235 N 
ATOM     25  H3  UNL     1       4.633  -7.162   8.187  1.00  0.00     0.197 HD
BRANCH  24  26
HETATM   26  O4  UNL     1       5.380  -6.163   9.811  1.00  0.00    -0.283 OA
HETATM   27  C12 UNL     1       6.675  -6.555   9.478  1.00  0.00     0.237 C 
ENDBRANCH  24  26
ENDBRANCH   6  22
TORSDOF 8
ENDMDL
MODEL 4
REMARK VINA RESULT: -7.246392278      2.205      6.617
REMARK  8 active torsions:
REMARK  status: ('A' for Active; 'I' for Inactive)
REMARK    1  A    between atoms: C2_2  and  C4_4 
REMARK       I    between atoms: C4_4  and  N1_6 
REMARK    2  A    between atoms: N1_6  and  C5_8 
REMARK    3  A    between atoms: C5_8  and  C7_10 
REMARK       I    between atoms: C7_10  and  N2_12 
REMARK    4  A    between atoms: C10_15  and  C11_16 
REMARK       I    between atoms: C11_16  and  N3_18 
REMARK    5  A    between atoms: N3_18  and  O4_20 
REMARK    6  A    between atoms: C13_22  and  C14_23 
REMARK    7  A    between atoms: C14_23  and  C15_25 
REMARK    8  A    between atoms: C15_25  and  C16_26 
ROOT
HETATM    1  C7  UNL     1       3.843  -5.823   6.162  1.00  0.00     0.243 C 
HETATM    2  O2  UNL     1       4.922  -5.785   5.514  1.00  0.00    -0.271 OA
HETATM    3  N2  UNL     1       2.648  -5.488   5.478  1.00  0.00    -0.338 N 
HETATM    4  C8  UNL     1       1.318  -5.504   6.055  1.00  0.00     0.127 C 
HETATM    5  C9  UNL     1       0.554  -6.136   4.879  1.00  0.00     0.036 C 
HETATM    6  C10 UNL     1       1.044  -5.301   3.748  1.00  0.00     0.112 C 
HETATM    7  C13 UNL     1       2.515  -5.076   4.104  1.00  0.00     0.169 C 
ENDROOT
BRANCH   1   8
HETATM    8  C5  UNL     1       3.897  -6.217   7.589  1.00  0.00     0.173 C 
HETATM    9  C6  UNL     1       3.526  -4.998   8.434  1.00  0.00     0.042 C 
BRANCH   8  10
HETATM   10  N1  UNL     1       5.297  -6.483   7.943  1.00  0.00    -0.344 N 
HETATM   11  C4  UNL     1       5.635  -6.919   9.235  1.00  0.00     0.247 C 
HETATM   12  O1  UNL     1       4.729  -7.086  10.098  1.00  0.00    -0.268 OA
ATOM     13  H1  UNL     1       6.030  -6.350   7.246  1.00  0.00     0.163 HD
BRANCH  11  14
HETATM   14  C2  UNL     1       7.001  -7.191   9.620  1.00  0.00    -0.004 C 
HETATM   15  C1  UNL     1       7.394  -7.537  10.831  1.00  0.00     0.024 C 
HETATM   16  C3  UNL     1       8.105  -7.082   8.594  1.00  0.00     0.053 C 
ENDBRANCH  11  14
ENDBRANCH   8  10
ENDBRANCH   1   8
BRANCH   7  17
HETATM   17  C14 UNL     1       2.784  -3.627   3.902  1.00  0.00     0.150 C 
HETATM   18  O5  UNL     1       3.949  -3.201   3.881  1.00  0.00    -0.296 OA
BRANCH  17  19
HETATM   19  C15 UNL     1       1.719  -2.616   3.719  1.00  0.00     0.080 C 
BRANCH  19  20
HETATM   20  C16 UNL     1       1.633  -1.681   4.911  1.00  0.00     0.003 C 
HETATM   21  C17 UNL     1       1.306  -0.283   4.454  1.00  0.00     0.005 C 
ENDBRANCH  19  20
ENDBRANCH  17  19
ENDBRANCH   7  17
BRANCH   6  22
HETATM   22  C11 UNL     1       0.918  -5.970   2.429  1.00  0.00     0.247 C 
HETATM   23  O3  UNL     1      -0.231  -6.311   2.025  1.00  0.00    -0.271 OA
HETATM   24  N3  UNL     1       2.024  -6.241   1.608  1.00  0.00    -0.235 N 
ATOM     25  H3  UNL     1       2.960  -5.975   1.912  1.00  0.00     0.197 HD
BRANCH  24  26
HETATM   26  O4  UNL     1       1.854  -6.848   0.426  1.00  0.00    -0.283 OA
HETATM   27  C12 UNL     1       2.278  -8.176   0.463  1.00  0.00     0.237 C 
ENDBRANCH  24  26
ENDBRANCH   6  22
TORSDOF 8
ENDMDL
MODEL 5
REMARK VINA RESULT: -7.199765807      2.348      6.491
REMARK  8 active torsions:
REMARK  status: ('A' for Active; 'I' for Inactive)
REMARK    1  A    between atoms: C2_2  and  C4_4 
REMARK       I    between atoms: C4_4  and  N1_6 
REMARK    2  A    between atoms: N1_6  and  C5_8 
REMARK    3  A    between atoms: C5_8  and  C7_10 
REMARK       I    between atoms: C7_10  and  N2_12 
REMARK    4  A    between atoms: C10_15  and  C11_16 
REMARK       I    between atoms: C11_16  and  N3_18 
REMARK    5  A    between atoms: N3_18  and  O4_20 
REMARK    6  A    between atoms: C13_22  and  C14_23 
REMARK    7  A    between atoms: C14_23  and  C15_25 
REMARK    8  A    between atoms: C15_25  and  C16_26 
ROOT
HETATM    1  C7  UNL     1       3.509  -5.335   6.042  1.00  0.00     0.243 C 
HETATM    2  O2  UNL     1       4.592  -4.950   5.526  1.00  0.00    -0.271 OA
HETATM    3  N2  UNL     1       2.321  -5.171   5.288  1.00  0.00    -0.338 N 
HETATM    4  C8  UNL     1       0.996  -5.580   5.710  1.00  0.00     0.127 C 
HETATM    5  C9  UNL     1       0.491  -6.167   4.382  1.00  0.00     0.036 C 
HETATM    6  C10 UNL     1       0.847  -5.071   3.439  1.00  0.00     0.112 C 
HETATM    7  C13 UNL     1       2.192  -4.582   3.980  1.00  0.00     0.169 C 
ENDROOT
BRANCH   1   8
HETATM    8  C5  UNL     1       3.553  -5.934   7.397  1.00  0.00     0.173 C 
HETATM    9  C6  UNL     1       3.191  -4.848   8.410  1.00  0.00     0.042 C 
BRANCH   8  10
HETATM   10  N1  UNL     1       4.949  -6.263   7.712  1.00  0.00    -0.344 N 
HETATM   11  C4  UNL     1       5.294  -6.767   8.977  1.00  0.00     0.247 C 
HETATM   12  O1  UNL     1       4.398  -6.940   9.849  1.00  0.00    -0.268 OA
ATOM     13  H1  UNL     1       5.674  -6.125   7.008  1.00  0.00     0.163 HD
BRANCH  11  14
HETATM   14  C2  UNL     1       6.657  -7.102   9.323  1.00  0.00    -0.004 C 
HETATM   15  C1  UNL     1       7.062  -7.497  10.516  1.00  0.00     0.024 C 
HETATM   16  C3  UNL     1       7.742  -7.005   8.277  1.00  0.00     0.053 C 
ENDBRANCH  11  14
ENDBRANCH   8  10
ENDBRANCH   1   8
BRANCH   7  17
HETATM   17  C14 UNL     1       2.121  -3.096   4.016  1.00  0.00     0.150 C 
HETATM   18  O5  UNL     1       2.483  -2.474   5.026  1.00  0.00    -0.296 OA
BRANCH  17  19
HETATM   19  C15 UNL     1       1.630  -2.274   2.887  1.00  0.00     0.080 C 
BRANCH  19  20
HETATM   20  C16 UNL     1       0.503  -1.356   3.322  1.00  0.00     0.003 C 
HETATM   21  C17 UNL     1      -0.821  -1.890   2.837  1.00  0.00     0.005 C 
ENDBRANCH  19  20
ENDBRANCH  17  19
ENDBRANCH   7  17
BRANCH   6  22
HETATM   22  C11 UNL     1       0.980  -5.527   2.033  1.00  0.00     0.247 C 
HETATM   23  O3  UNL     1      -0.037  -5.489   1.280  1.00  0.00    -0.271 OA
HETATM   24  N3  UNL     1       2.189  -6.001   1.501  1.00  0.00    -0.235 N 
ATOM     25  H3  UNL     1       3.022  -6.041   2.088  1.00  0.00     0.197 HD
BRANCH  24  26
HETATM   26  O4  UNL     1       2.254  -6.402   0.224  1.00  0.00    -0.283 OA
HETATM   27  C12 UNL     1       3.000  -5.520  -0.556  1.00  0.00     0.237 C 
ENDBRANCH  24  26
ENDBRANCH   6  22
TORSDOF 8
ENDMDL
