MODEL 1
REMARK VINA RESULT: -9.287128314      0.000      0.000
REMARK  9 active torsions:
REMARK  status: ('A' for Active; 'I' for Inactive)
REMARK    1  A    between atoms: N1_1  and  C1_5 
REMARK    2  A    between atoms: C1_5  and  C2_6 
REMARK    3  A    between atoms: C2_6  and  C3_7 
REMARK    4  A    between atoms: C3_7  and  C4_8 
REMARK    5  A    between atoms: C4_8  and  N2_9 
REMARK    6  A    between atoms: N3_12  and  C7_13 
REMARK    7  A    between atoms: C9_15  and  N4_16 
REMARK    8  A    between atoms: N4_16  and  C10_18 
REMARK    9  A    between atoms: C10_18  and  C11_19 
ROOT
HETATM    1  C7  UNL     1       4.546  -5.932   7.623  1.00  0.00     0.107 A 
HETATM    2  C8  UNL     1       5.806  -6.280   7.189  1.00  0.00     0.096 A 
HETATM    3  C9  UNL     1       6.768  -6.684   8.089  1.00  0.00     0.105 A 
HETATM    4  N6  UNL     1       6.417  -6.721   9.408  1.00  0.00    -0.339 N 
ATOM      5  H6  UNL     1       7.112  -7.016  10.093  1.00  0.00     0.168 HD
HETATM    6  C16 UNL     1       5.191  -6.383   9.835  1.00  0.00     0.183 A 
HETATM    7  N7  UNL     1       4.263  -5.991   8.946  1.00  0.00    -0.339 N 
ATOM      8  H7  UNL     1       3.332  -5.735   9.271  1.00  0.00     0.168 HD
ENDROOT
BRANCH   1   9
HETATM    9  N3  UNL     1       3.586  -5.498   6.694  1.00  0.00    -0.364 N 
HETATM   10  C6  UNL     1       2.198  -5.414   7.114  1.00  0.00     0.154 C 
HETATM   11  C5  UNL     1       1.360  -4.483   6.316  1.00  0.00     0.292 C 
HETATM   12  N2  UNL     1       1.678  -4.376   4.920  1.00  0.00     0.091 N 
HETATM   13  C18 UNL     1       2.645  -5.381   4.519  1.00  0.00     0.292 C 
HETATM   14  C17 UNL     1       3.913  -5.124   5.336  1.00  0.00     0.154 C 
BRANCH  12  15
HETATM   15  C4  UNL     1       0.491  -4.429   4.082  1.00  0.00     0.272 C 
BRANCH  15  16
HETATM   16  C3  UNL     1       0.181  -3.066   3.486  1.00  0.00     0.032 C 
BRANCH  16  17
HETATM   17  C2  UNL     1       1.427  -2.215   3.523  1.00  0.00     0.029 C 
BRANCH  17  18
HETATM   18  C1  UNL     1       1.097  -0.888   4.145  1.00  0.00     0.229 C 
BRANCH  18  19
HETATM   19  N1  UNL     1       1.439  -0.879   5.538  1.00  0.00    -0.079 N 
ATOM     20  H13 UNL     1       2.291  -1.410   5.721  1.00  0.00     0.274 HD
ATOM     21  H12 UNL     1       1.762   0.040   5.842  1.00  0.00     0.274 HD
ATOM     22  H11 UNL     1       0.659  -1.210   6.105  1.00  0.00     0.274 HD
ENDBRANCH  18  19
ENDBRANCH  17  18
ENDBRANCH  16  17
ENDBRANCH  15  16
ENDBRANCH  12  15
ENDBRANCH   1   9
BRANCH   3  23
HETATM   23  N4  UNL     1       7.951  -7.010   7.686  1.00  0.00    -0.374 N 
ATOM     24  H4  UNL     1       8.153  -7.177   6.699  1.00  0.00     0.161 HD
BRANCH  23  25
HETATM   25  C10 UNL     1       8.969  -7.127   8.695  1.00  0.00     0.146 C 
BRANCH  25  26
HETATM   26  C11 UNL     1       8.951  -8.466   9.410  1.00  0.00     0.098 C 
HETATM   27  C12 UNL     1       9.104  -8.375  10.883  1.00  0.00     0.027 C 
HETATM   28  C13 UNL     1      10.480  -8.595  11.421  1.00  0.00     0.007 C 
HETATM   29  C14 UNL     1      11.517  -8.893  10.386  1.00  0.00     0.044 C 
HETATM   30  C15 UNL     1      11.007  -9.765   9.276  1.00  0.00     0.056 C 
HETATM   31  N5  UNL     1       9.775  -9.379   8.715  1.00  0.00    -0.396 N 
ATOM     32  H5  UNL     1       9.480  -9.756   7.814  1.00  0.00     0.159 HD
ENDBRANCH  25  26
ENDBRANCH  23  25
ENDBRANCH   3  23
TORSDOF 9
ENDMDL
MODEL 2
REMARK VINA RESULT: -9.250045210      0.362      1.070
REMARK  9 active torsions:
REMARK  status: ('A' for Active; 'I' for Inactive)
REMARK    1  A    between atoms: N1_1  and  C1_5 
REMARK    2  A    between atoms: C1_5  and  C2_6 
REMARK    3  A    between atoms: C2_6  and  C3_7 
REMARK    4  A    between atoms: C3_7  and  C4_8 
REMARK    5  A    between atoms: C4_8  and  N2_9 
REMARK    6  A    between atoms: N3_12  and  C7_13 
REMARK    7  A    between atoms: C9_15  and  N4_16 
REMARK    8  A    between atoms: N4_16  and  C10_18 
REMARK    9  A    between atoms: C10_18  and  C11_19 
ROOT
HETATM    1  C7  UNL     1       4.464  -5.895   7.614  1.00  0.00     0.107 A 
HETATM    2  C8  UNL     1       5.718  -6.257   7.175  1.00  0.00     0.096 A 
HETATM    3  C9  UNL     1       6.682  -6.664   8.071  1.00  0.00     0.105 A 
HETATM    4  N6  UNL     1       6.339  -6.688   9.393  1.00  0.00    -0.339 N 
ATOM      5  H6  UNL     1       7.036  -6.985  10.076  1.00  0.00     0.168 HD
HETATM    6  C16 UNL     1       5.119  -6.336   9.825  1.00  0.00     0.183 A 
HETATM    7  N7  UNL     1       4.190  -5.942   8.939  1.00  0.00    -0.339 N 
ATOM      8  H7  UNL     1       3.263  -5.675   9.269  1.00  0.00     0.168 HD
ENDROOT
BRANCH   1   9
HETATM    9  N3  UNL     1       3.502  -5.459   6.689  1.00  0.00    -0.364 N 
HETATM   10  C6  UNL     1       3.919  -5.186   5.324  1.00  0.00     0.154 C 
HETATM   11  C5  UNL     1       2.834  -5.256   4.314  1.00  0.00     0.292 C 
HETATM   12  N2  UNL     1       1.532  -4.833   4.747  1.00  0.00     0.091 N 
HETATM   13  C18 UNL     1       1.586  -4.211   6.056  1.00  0.00     0.292 C 
HETATM   14  C17 UNL     1       2.108  -5.270   7.027  1.00  0.00     0.154 C 
BRANCH  12  15
HETATM   15  C4  UNL     1       0.890  -3.958   3.777  1.00  0.00     0.272 C 
BRANCH  15  16
HETATM   16  C3  UNL     1       1.716  -2.704   3.543  1.00  0.00     0.032 C 
BRANCH  16  17
HETATM   17  C2  UNL     1       0.791  -1.515   3.437  1.00  0.00     0.029 C 
BRANCH  17  18
HETATM   18  C1  UNL     1       1.383  -0.364   4.198  1.00  0.00     0.229 C 
BRANCH  18  19
HETATM   19  N1  UNL     1       1.493  -0.678   5.593  1.00  0.00    -0.079 N 
ATOM     20  H13 UNL     1       1.252   0.121   6.181  1.00  0.00     0.274 HD
ATOM     21  H12 UNL     1       0.759  -1.318   5.896  1.00  0.00     0.274 HD
ATOM     22  H11 UNL     1       2.422  -1.040   5.811  1.00  0.00     0.274 HD
ENDBRANCH  18  19
ENDBRANCH  17  18
ENDBRANCH  16  17
ENDBRANCH  15  16
ENDBRANCH  12  15
ENDBRANCH   1   9
BRANCH   3  23
HETATM   23  N4  UNL     1       7.859  -7.005   7.663  1.00  0.00    -0.374 N 
ATOM     24  H4  UNL     1       8.050  -7.193   6.678  1.00  0.00     0.161 HD
BRANCH  23  25
HETATM   25  C10 UNL     1       8.887  -7.104   8.663  1.00  0.00     0.146 C 
BRANCH  25  26
HETATM   26  C11 UNL     1       8.897  -8.443   9.378  1.00  0.00     0.098 C 
HETATM   27  C12 UNL     1       9.060  -8.350  10.850  1.00  0.00     0.027 C 
HETATM   28  C13 UNL     1      10.443  -8.547  11.378  1.00  0.00     0.007 C 
HETATM   29  C14 UNL     1      11.478  -8.827  10.335  1.00  0.00     0.044 C 
HETATM   30  C15 UNL     1      10.975  -9.708   9.229  1.00  0.00     0.056 C 
HETATM   31  N5  UNL     1       9.732  -9.342   8.677  1.00  0.00    -0.396 N 
ATOM     32  H5  UNL     1       9.436  -9.724   7.778  1.00  0.00     0.159 HD
ENDBRANCH  25  26
ENDBRANCH  23  25
ENDBRANCH   3  23
TORSDOF 9
ENDMDL
MODEL 3
REMARK VINA RESULT: -9.138079355      1.712      9.320
REMARK  9 active torsions:
REMARK  status: ('A' for Active; 'I' for Inactive)
REMARK    1  A    between atoms: N1_1  and  C1_5 
REMARK    2  A    between atoms: C1_5  and  C2_6 
REMARK    3  A    between atoms: C2_6  and  C3_7 
REMARK    4  A    between atoms: C3_7  and  C4_8 
REMARK    5  A    between atoms: C4_8  and  N2_9 
REMARK    6  A    between atoms: N3_12  and  C7_13 
REMARK    7  A    between atoms: C9_15  and  N4_16 
REMARK    8  A    between atoms: N4_16  and  C10_18 
REMARK    9  A    between atoms: C10_18  and  C11_19 
ROOT
HETATM    1  C7  UNL     1       5.255  -6.159   8.168  1.00  0.00     0.107 A 
HETATM    2  C8  UNL     1       5.169  -6.064   6.797  1.00  0.00     0.096 A 
HETATM    3  C9  UNL     1       4.061  -5.498   6.204  1.00  0.00     0.105 A 
HETATM    4  N6  UNL     1       3.071  -5.046   7.029  1.00  0.00    -0.339 N 
ATOM      5  H6  UNL     1       2.240  -4.624   6.613  1.00  0.00     0.168 HD
HETATM    6  C16 UNL     1       3.151  -5.136   8.365  1.00  0.00     0.183 A 
HETATM    7  N7  UNL     1       4.237  -5.690   8.928  1.00  0.00    -0.339 N 
ATOM      8  H7  UNL     1       4.297  -5.759   9.943  1.00  0.00     0.168 HD
ENDROOT
BRANCH   1   9
HETATM    9  N3  UNL     1       6.380  -6.762   8.754  1.00  0.00    -0.364 N 
HETATM   10  C6  UNL     1       7.533  -7.049   7.918  1.00  0.00     0.154 C 
HETATM   11  C5  UNL     1       8.819  -7.171   8.647  1.00  0.00     0.292 C 
HETATM   12  N2  UNL     1       8.753  -7.733   9.968  1.00  0.00     0.091 N 
HETATM   13  C18 UNL     1       7.436  -8.274  10.247  1.00  0.00     0.292 C 
HETATM   14  C17 UNL     1       6.451  -7.107  10.156  1.00  0.00     0.154 C 
BRANCH  12  15
HETATM   15  C4  UNL     1       9.787  -8.732  10.190  1.00  0.00     0.272 C 
BRANCH  15  16
HETATM   16  C3  UNL     1      10.921  -8.166  11.029  1.00  0.00     0.032 C 
BRANCH  16  17
HETATM   17  C2  UNL     1      12.157  -8.042  10.171  1.00  0.00     0.029 C 
BRANCH  17  18
HETATM   18  C1  UNL     1      12.133  -9.112   9.118  1.00  0.00     0.229 C 
BRANCH  18  19
HETATM   19  N1  UNL     1      12.721  -8.640   7.897  1.00  0.00    -0.079 N 
ATOM     20  H13 UNL     1      12.931  -7.642   7.941  1.00  0.00     0.274 HD
ATOM     21  H12 UNL     1      13.671  -8.992   7.774  1.00  0.00     0.274 HD
ATOM     22  H11 UNL     1      12.129  -8.867   7.099  1.00  0.00     0.274 HD
ENDBRANCH  18  19
ENDBRANCH  17  18
ENDBRANCH  16  17
ENDBRANCH  15  16
ENDBRANCH  12  15
ENDBRANCH   1   9
BRANCH   3  23
HETATM   23  N4  UNL     1       3.977  -5.407   4.919  1.00  0.00    -0.374 N 
ATOM     24  H4  UNL     1       4.275  -6.168   4.308  1.00  0.00     0.161 HD
BRANCH  23  25
HETATM   25  C10 UNL     1       3.441  -4.181   4.391  1.00  0.00     0.146 C 
BRANCH  25  26
HETATM   26  C11 UNL     1       2.323  -4.402   3.387  1.00  0.00     0.098 C 
HETATM   27  C12 UNL     1       1.015  -3.832   3.793  1.00  0.00     0.027 C 
HETATM   28  C13 UNL     1       0.047  -4.778   4.425  1.00  0.00     0.007 C 
HETATM   29  C14 UNL     1       0.537  -6.186   4.547  1.00  0.00     0.044 C 
HETATM   30  C15 UNL     1       1.345  -6.633   3.364  1.00  0.00     0.056 C 
HETATM   31  N5  UNL     1       2.351  -5.743   2.942  1.00  0.00    -0.396 N 
ATOM     32  H5  UNL     1       3.093  -6.063   2.320  1.00  0.00     0.159 HD
ENDBRANCH  25  26
ENDBRANCH  23  25
ENDBRANCH   3  23
TORSDOF 9
ENDMDL
MODEL 4
REMARK VINA RESULT: -9.078242202      1.895      9.625
REMARK  9 active torsions:
REMARK  status: ('A' for Active; 'I' for Inactive)
REMARK    1  A    between atoms: N1_1  and  C1_5 
REMARK    2  A    between atoms: C1_5  and  C2_6 
REMARK    3  A    between atoms: C2_6  and  C3_7 
REMARK    4  A    between atoms: C3_7  and  C4_8 
REMARK    5  A    between atoms: C4_8  and  N2_9 
REMARK    6  A    between atoms: N3_12  and  C7_13 
REMARK    7  A    between atoms: C9_15  and  N4_16 
REMARK    8  A    between atoms: N4_16  and  C10_18 
REMARK    9  A    between atoms: C10_18  and  C11_19 
ROOT
HETATM    1  C7  UNL     1       6.512  -6.836   8.968  1.00  0.00     0.107 A 
HETATM    2  C8  UNL     1       6.342  -6.544   7.633  1.00  0.00     0.096 A 
HETATM    3  C9  UNL     1       5.133  -6.074   7.169  1.00  0.00     0.105 A 
HETATM    4  N6  UNL     1       4.129  -5.916   8.082  1.00  0.00    -0.339 N 
ATOM      5  H6  UNL     1       3.224  -5.570   7.762  1.00  0.00     0.168 HD
HETATM    6  C16 UNL     1       4.291  -6.198   9.383  1.00  0.00     0.183 A 
HETATM    7  N7  UNL     1       5.476  -6.655   9.821  1.00  0.00    -0.339 N 
ATOM      8  H7  UNL     1       5.597  -6.870  10.810  1.00  0.00     0.168 HD
ENDROOT
BRANCH   1   9
HETATM    9  N3  UNL     1       7.744  -7.338   9.419  1.00  0.00    -0.364 N 
HETATM   10  C6  UNL     1       7.977  -7.433  10.850  1.00  0.00     0.154 C 
HETATM   11  C5  UNL     1       9.010  -8.421  11.249  1.00  0.00     0.292 C 
HETATM   12  N2  UNL     1      10.114  -8.591  10.346  1.00  0.00     0.091 N 
HETATM   13  C18 UNL     1      10.101  -7.585   9.300  1.00  0.00     0.292 C 
HETATM   14  C17 UNL     1       8.795  -7.771   8.525  1.00  0.00     0.154 C 
BRANCH  12  15
HETATM   15  C4  UNL     1      11.392  -8.607  11.040  1.00  0.00     0.272 C 
BRANCH  15  16
HETATM   16  C3  UNL     1      12.519  -8.168  10.121  1.00  0.00     0.032 C 
BRANCH  16  17
HETATM   17  C2  UNL     1      13.450  -9.333   9.888  1.00  0.00     0.029 C 
BRANCH  17  18
HETATM   18  C1  UNL     1      13.226  -9.873   8.505  1.00  0.00     0.229 C 
BRANCH  18  19
HETATM   19  N1  UNL     1      12.752  -8.842   7.626  1.00  0.00    -0.079 N 
ATOM     20  H13 UNL     1      12.082  -8.229   8.091  1.00  0.00     0.274 HD
ATOM     21  H12 UNL     1      13.477  -8.154   7.426  1.00  0.00     0.274 HD
ATOM     22  H11 UNL     1      12.366  -9.244   6.772  1.00  0.00     0.274 HD
ENDBRANCH  18  19
ENDBRANCH  17  18
ENDBRANCH  16  17
ENDBRANCH  15  16
ENDBRANCH  12  15
ENDBRANCH   1   9
BRANCH   3  23
HETATM   23  N4  UNL     1       4.969  -5.800   5.918  1.00  0.00    -0.374 N 
ATOM     24  H4  UNL     1       5.700  -5.347   5.369  1.00  0.00     0.161 HD
BRANCH  23  25
HETATM   25  C10 UNL     1       3.706  -6.166   5.335  1.00  0.00     0.146 C 
BRANCH  25  26
HETATM   26  C11 UNL     1       2.947  -4.982   4.764  1.00  0.00     0.098 C 
HETATM   27  C12 UNL     1       1.861  -4.472   5.637  1.00  0.00     0.027 C 
HETATM   28  C13 UNL     1       0.481  -4.953   5.329  1.00  0.00     0.007 C 
HETATM   29  C14 UNL     1       0.387  -5.881   4.160  1.00  0.00     0.044 C 
HETATM   30  C15 UNL     1       1.310  -5.508   3.037  1.00  0.00     0.056 C 
HETATM   31  N5  UNL     1       2.640  -5.233   3.407  1.00  0.00    -0.396 N 
ATOM     32  H5  UNL     1       3.377  -5.215   2.702  1.00  0.00     0.159 HD
ENDBRANCH  25  26
ENDBRANCH  23  25
ENDBRANCH   3  23
TORSDOF 9
ENDMDL
MODEL 5
REMARK VINA RESULT: -9.048495660      0.942      1.486
REMARK  9 active torsions:
REMARK  status: ('A' for Active; 'I' for Inactive)
REMARK    1  A    between atoms: N1_1  and  C1_5 
REMARK    2  A    between atoms: C1_5  and  C2_6 
REMARK    3  A    between atoms: C2_6  and  C3_7 
REMARK    4  A    between atoms: C3_7  and  C4_8 
REMARK    5  A    between atoms: C4_8  and  N2_9 
REMARK    6  A    between atoms: N3_12  and  C7_13 
REMARK    7  A    between atoms: C9_15  and  N4_16 
REMARK    8  A    between atoms: N4_16  and  C10_18 
REMARK    9  A    between atoms: C10_18  and  C11_19 
ROOT
HETATM    1  C7  UNL     1       4.703  -6.000   7.683  1.00  0.00     0.107 A 
HETATM    2  C8  UNL     1       5.966  -6.269   7.204  1.00  0.00     0.096 A 
HETATM    3  C9  UNL     1       6.968  -6.668   8.062  1.00  0.00     0.105 A 
HETATM    4  N6  UNL     1       6.652  -6.780   9.386  1.00  0.00    -0.339 N 
ATOM      5  H6  UNL     1       7.377  -7.073  10.041  1.00  0.00     0.168 HD
HETATM    6  C16 UNL     1       5.423  -6.519   9.856  1.00  0.00     0.183 A 
HETATM    7  N7  UNL     1       4.457  -6.131   9.008  1.00  0.00    -0.339 N 
ATOM      8  H7  UNL     1       3.524  -5.933   9.367  1.00  0.00     0.168 HD
ENDROOT
BRANCH   1   9
HETATM    9  N3  UNL     1       3.701  -5.570   6.798  1.00  0.00    -0.364 N 
HETATM   10  C6  UNL     1       2.337  -5.463   7.287  1.00  0.00     0.154 C 
HETATM   11  C5  UNL     1       1.470  -4.536   6.518  1.00  0.00     0.292 C 
HETATM   12  N2  UNL     1       1.716  -4.454   5.105  1.00  0.00     0.091 N 
HETATM   13  C18 UNL     1       2.650  -5.477   4.672  1.00  0.00     0.292 C 
HETATM   14  C17 UNL     1       3.961  -5.222   5.418  1.00  0.00     0.154 C 
BRANCH  12  15
HETATM   15  C4  UNL     1       0.486  -4.507   4.331  1.00  0.00     0.272 C 
BRANCH  15  16
HETATM   16  C3  UNL     1       0.238  -3.192   3.610  1.00  0.00     0.032 C 
BRANCH  16  17
HETATM   17  C2  UNL     1       1.511  -2.382   3.605  1.00  0.00     0.029 C 
BRANCH  17  18
HETATM   18  C1  UNL     1       1.219  -1.004   4.126  1.00  0.00     0.229 C 
BRANCH  18  19
HETATM   19  N1  UNL     1       1.428  -0.940   5.544  1.00  0.00    -0.079 N 
ATOM     20  H13 UNL     1       1.023  -1.746   6.022  1.00  0.00     0.274 HD
ATOM     21  H12 UNL     1       2.406  -1.091   5.788  1.00  0.00     0.274 HD
ATOM     22  H11 UNL     1       1.076  -0.061   5.922  1.00  0.00     0.274 HD
ENDBRANCH  18  19
ENDBRANCH  17  18
ENDBRANCH  16  17
ENDBRANCH  15  16
ENDBRANCH  12  15
ENDBRANCH   1   9
BRANCH   3  23
HETATM   23  N4  UNL     1       8.153  -6.921   7.617  1.00  0.00    -0.374 N 
ATOM     24  H4  UNL     1       8.532  -6.441   6.800  1.00  0.00     0.161 HD
BRANCH  23  25
HETATM   25  C10 UNL     1       8.914  -7.912   8.329  1.00  0.00     0.146 C 
BRANCH  25  26
HETATM   26  C11 UNL     1      10.359  -7.999   7.870  1.00  0.00     0.098 C 
HETATM   27  C12 UNL     1      10.615  -9.047   6.851  1.00  0.00     0.027 C 
HETATM   28  C13 UNL     1      11.150 -10.347   7.356  1.00  0.00     0.007 C 
HETATM   29  C14 UNL     1      11.366 -10.403   8.835  1.00  0.00     0.044 C 
HETATM   30  C15 UNL     1      11.890  -9.116   9.402  1.00  0.00     0.056 C 
HETATM   31  N5  UNL     1      11.211  -7.951   8.997  1.00  0.00    -0.396 N 
ATOM     32  H5  UNL     1      11.334  -7.079   9.511  1.00  0.00     0.159 HD
ENDBRANCH  25  26
ENDBRANCH  23  25
ENDBRANCH   3  23
TORSDOF 9
ENDMDL
