MODEL 1
REMARK VINA RESULT: -9.233759250      0.000      0.000
REMARK  7 active torsions:
REMARK  status: ('A' for Active; 'I' for Inactive)
REMARK    1  A    between atoms: C2_3  and  N2_4 
REMARK       I    between atoms: N2_4  and  C3_6 
REMARK    2  A    between atoms: C3_6  and  C4_8 
REMARK    3  A    between atoms: N3_10  and  C6_11 
REMARK    4  A    between atoms: C6_11  and  C7_12 
REMARK    5  A    between atoms: C7_12  and  C8_13 
REMARK    6  A    between atoms: C8_13  and  O2_14 
REMARK    7  A    between atoms: O2_14  and  C9_15 
ROOT
HETATM    1  N1  UNL     1      10.413 -10.646   5.676  1.00  0.00    -0.195 NA
HETATM    2  C1  UNL     1      10.723 -10.071   6.642  1.00  0.00     0.091 C 
HETATM    3  C2  UNL     1      11.125  -9.366   7.871  1.00  0.00     0.122 A 
HETATM    4  C17 UNL     1      12.485  -9.654   8.350  1.00  0.00     0.050 A 
HETATM    5  C18 UNL     1      11.320 -10.278   9.061  1.00  0.00     0.050 A 
ENDROOT
BRANCH   3   6
HETATM    6  N2  UNL     1      10.491  -8.088   8.070  1.00  0.00    -0.337 N 
HETATM    7  C3  UNL     1       9.133  -7.960   8.470  1.00  0.00     0.251 C 
HETATM    8  O1  UNL     1       8.472  -9.001   8.651  1.00  0.00    -0.271 OA
ATOM      9  H2  UNL     1      11.039  -7.241   7.919  1.00  0.00     0.164 HD
BRANCH   7  10
HETATM   10  C4  UNL     1       8.476  -6.656   8.677  1.00  0.00     0.307 C 
HETATM   11  C5  UNL     1       7.440  -6.757   9.777  1.00  0.00     0.317 C 
HETATM   12  N3  UNL     1       6.203  -7.038   9.080  1.00  0.00     0.116 N 
HETATM   13  C16 UNL     1       6.353  -6.619   7.730  1.00  0.00     0.503 C 
HETATM   14  N5  UNL     1       7.734  -6.252   7.502  1.00  0.00    -0.034 N 
ATOM     15  H52 UNL     1       7.854  -5.265   7.271  1.00  0.00     0.280 HD
ATOM     16  H51 UNL     1       8.114  -6.634   6.636  1.00  0.00     0.280 HD
BRANCH  12  17
HETATM   17  C6  UNL     1       5.021  -6.605   9.751  1.00  0.00     0.277 C 
BRANCH  17  18
HETATM   18  C7  UNL     1       3.771  -6.624   8.899  1.00  0.00     0.056 C 
BRANCH  18  19
HETATM   19  C8  UNL     1       3.413  -5.181   8.615  1.00  0.00     0.170 C 
BRANCH  19  20
HETATM   20  O2  UNL     1       3.277  -4.886   7.282  1.00  0.00    -0.384 OA
BRANCH  20  21
HETATM   21  C9  UNL     1       2.424  -5.696   6.578  1.00  0.00     0.144 C 
HETATM   22  C10 UNL     1       3.126  -6.172   5.328  1.00  0.00     0.038 C 
HETATM   23  C11 UNL     1       2.346  -5.514   4.199  1.00  0.00    -0.009 C 
HETATM   24  C12 UNL     1       2.815  -4.096   4.114  1.00  0.00     0.024 C 
HETATM   25  C15 UNL     1       0.934  -5.564   4.743  1.00  0.00     0.032 C 
HETATM   26  C13 UNL     1       2.001  -3.100   4.858  1.00  0.00     0.114 C 
HETATM   27  N4  UNL     1       1.323  -3.574   6.021  1.00  0.00    -0.415 N 
HETATM   28  C14 UNL     1       1.167  -4.988   6.129  1.00  0.00     0.105 C 
ATOM     29  H4  UNL     1       0.969  -2.938   6.734  1.00  0.00     0.153 HD
ENDBRANCH  20  21
ENDBRANCH  19  20
ENDBRANCH  18  19
ENDBRANCH  17  18
ENDBRANCH  12  17
ENDBRANCH   7  10
ENDBRANCH   3   6
TORSDOF 7
ENDMDL
MODEL 2
REMARK VINA RESULT: -9.212552251      1.405      1.723
REMARK  7 active torsions:
REMARK  status: ('A' for Active; 'I' for Inactive)
REMARK    1  A    between atoms: C2_3  and  N2_4 
REMARK       I    between atoms: N2_4  and  C3_6 
REMARK    2  A    between atoms: C3_6  and  C4_8 
REMARK    3  A    between atoms: N3_10  and  C6_11 
REMARK    4  A    between atoms: C6_11  and  C7_12 
REMARK    5  A    between atoms: C7_12  and  C8_13 
REMARK    6  A    between atoms: C8_13  and  O2_14 
REMARK    7  A    between atoms: O2_14  and  C9_15 
ROOT
HETATM    1  N1  UNL     1      12.264 -10.825   7.950  1.00  0.00    -0.195 NA
HETATM    2  C1  UNL     1      12.037 -10.075   8.814  1.00  0.00     0.091 C 
HETATM    3  C2  UNL     1      11.775  -9.126   9.909  1.00  0.00     0.122 A 
HETATM    4  C17 UNL     1      12.685  -7.972   9.977  1.00  0.00     0.050 A 
HETATM    5  C18 UNL     1      12.863  -9.093  10.960  1.00  0.00     0.050 A 
ENDROOT
BRANCH   3   6
HETATM    6  N2  UNL     1      10.400  -9.051  10.330  1.00  0.00    -0.337 N 
HETATM    7  C3  UNL     1       9.414  -8.333   9.600  1.00  0.00     0.251 C 
HETATM    8  O1  UNL     1       9.763  -7.747   8.558  1.00  0.00    -0.271 OA
ATOM      9  H2  UNL     1      10.122  -9.533  11.185  1.00  0.00     0.164 HD
BRANCH   7  10
HETATM   10  C4  UNL     1       8.003  -8.251  10.023  1.00  0.00     0.307 C 
HETATM   11  C5  UNL     1       7.102  -8.071   8.819  1.00  0.00     0.317 C 
HETATM   12  N3  UNL     1       6.937  -6.637   8.707  1.00  0.00     0.116 N 
HETATM   13  C16 UNL     1       7.231  -6.059   9.972  1.00  0.00     0.503 C 
HETATM   14  N5  UNL     1       7.770  -7.081  10.843  1.00  0.00    -0.034 N 
ATOM     15  H52 UNL     1       7.179  -7.270  11.653  1.00  0.00     0.280 HD
ATOM     16  H51 UNL     1       8.598  -6.778  11.354  1.00  0.00     0.280 HD
BRANCH  12  17
HETATM   17  C6  UNL     1       5.726  -6.216   8.083  1.00  0.00     0.277 C 
BRANCH  17  18
HETATM   18  C7  UNL     1       4.476  -6.475   8.896  1.00  0.00     0.056 C 
BRANCH  18  19
HETATM   19  C8  UNL     1       3.546  -5.306   8.654  1.00  0.00     0.170 C 
BRANCH  19  20
HETATM   20  O2  UNL     1       3.323  -5.028   7.329  1.00  0.00    -0.384 OA
BRANCH  20  21
HETATM   21  C9  UNL     1       2.317  -5.744   6.732  1.00  0.00     0.144 C 
HETATM   22  C10 UNL     1       2.871  -6.434   5.507  1.00  0.00     0.038 C 
HETATM   23  C11 UNL     1       2.153  -5.755   4.350  1.00  0.00    -0.009 C 
HETATM   24  C12 UNL     1       2.839  -4.446   4.119  1.00  0.00     0.024 C 
HETATM   25  C15 UNL     1       0.779  -5.527   4.945  1.00  0.00     0.032 C 
HETATM   26  C13 UNL     1       2.233  -3.270   4.796  1.00  0.00     0.114 C 
HETATM   27  N4  UNL     1       1.545  -3.526   6.020  1.00  0.00    -0.415 N 
HETATM   28  C14 UNL     1       1.170  -4.880   6.264  1.00  0.00     0.105 C 
ATOM     29  H4  UNL     1       1.334  -2.781   6.684  1.00  0.00     0.153 HD
ENDBRANCH  20  21
ENDBRANCH  19  20
ENDBRANCH  18  19
ENDBRANCH  17  18
ENDBRANCH  12  17
ENDBRANCH   7  10
ENDBRANCH   3   6
TORSDOF 7
ENDMDL
MODEL 3
REMARK VINA RESULT: -8.994710301      1.370      2.028
REMARK  7 active torsions:
REMARK  status: ('A' for Active; 'I' for Inactive)
REMARK    1  A    between atoms: C2_3  and  N2_4 
REMARK       I    between atoms: N2_4  and  C3_6 
REMARK    2  A    between atoms: C3_6  and  C4_8 
REMARK    3  A    between atoms: N3_10  and  C6_11 
REMARK    4  A    between atoms: C6_11  and  C7_12 
REMARK    5  A    between atoms: C7_12  and  C8_13 
REMARK    6  A    between atoms: C8_13  and  O2_14 
REMARK    7  A    between atoms: O2_14  and  C9_15 
ROOT
HETATM    1  N1  UNL     1      12.823  -7.558   9.825  1.00  0.00    -0.195 NA
HETATM    2  C1  UNL     1      12.024  -8.316   9.444  1.00  0.00     0.091 C 
HETATM    3  C2  UNL     1      11.031  -9.285   8.950  1.00  0.00     0.122 A 
HETATM    4  C17 UNL     1      11.462 -10.692   8.958  1.00  0.00     0.050 A 
HETATM    5  C18 UNL     1      11.426  -9.953   7.651  1.00  0.00     0.050 A 
ENDROOT
BRANCH   3   6
HETATM    6  N2  UNL     1       9.657  -8.897   9.143  1.00  0.00    -0.337 N 
HETATM    7  C3  UNL     1       9.125  -8.577  10.421  1.00  0.00     0.251 C 
HETATM    8  O1  UNL     1       9.883  -8.638  11.408  1.00  0.00    -0.271 OA
ATOM      9  H2  UNL     1       9.043  -8.851   8.331  1.00  0.00     0.164 HD
BRANCH   7  10
HETATM   10  C4  UNL     1       7.720  -8.179  10.629  1.00  0.00     0.307 C 
HETATM   11  C5  UNL     1       6.964  -8.209   9.317  1.00  0.00     0.317 C 
HETATM   12  N3  UNL     1       7.059  -6.855   8.817  1.00  0.00     0.116 N 
HETATM   13  C16 UNL     1       7.345  -5.998   9.915  1.00  0.00     0.503 C 
HETATM   14  N5  UNL     1       7.627  -6.807  11.081  1.00  0.00    -0.034 N 
ATOM     15  H52 UNL     1       6.949  -6.677  11.833  1.00  0.00     0.280 HD
ATOM     16  H51 UNL     1       8.451  -6.497  11.595  1.00  0.00     0.280 HD
BRANCH  12  17
HETATM   17  C6  UNL     1       5.993  -6.452   7.959  1.00  0.00     0.277 C 
BRANCH  17  18
HETATM   18  C7  UNL     1       4.610  -6.648   8.539  1.00  0.00     0.056 C 
BRANCH  18  19
HETATM   19  C8  UNL     1       3.870  -5.341   8.358  1.00  0.00     0.170 C 
BRANCH  19  20
HETATM   20  O2  UNL     1       3.530  -5.061   7.058  1.00  0.00    -0.384 OA
BRANCH  20  21
HETATM   21  C9  UNL     1       2.475  -5.776   6.553  1.00  0.00     0.144 C 
HETATM   22  C10 UNL     1       2.887  -6.384   5.232  1.00  0.00     0.038 C 
HETATM   23  C11 UNL     1       2.012  -5.669   4.213  1.00  0.00    -0.009 C 
HETATM   24  C12 UNL     1       2.631  -4.329   3.971  1.00  0.00     0.024 C 
HETATM   25  C15 UNL     1       0.719  -5.515   4.986  1.00  0.00     0.032 C 
HETATM   26  C13 UNL     1       2.086  -3.210   4.782  1.00  0.00     0.114 C 
HETATM   27  N4  UNL     1       1.564  -3.550   6.066  1.00  0.00    -0.415 N 
HETATM   28  C14 UNL     1       1.256  -4.926   6.279  1.00  0.00     0.105 C 
ATOM     29  H4  UNL     1       1.420  -2.847   6.791  1.00  0.00     0.153 HD
ENDBRANCH  20  21
ENDBRANCH  19  20
ENDBRANCH  18  19
ENDBRANCH  17  18
ENDBRANCH  12  17
ENDBRANCH   7  10
ENDBRANCH   3   6
TORSDOF 7
ENDMDL
MODEL 4
REMARK VINA RESULT: -8.975544860      1.634      2.257
REMARK  7 active torsions:
REMARK  status: ('A' for Active; 'I' for Inactive)
REMARK    1  A    between atoms: C2_3  and  N2_4 
REMARK       I    between atoms: N2_4  and  C3_6 
REMARK    2  A    between atoms: C3_6  and  C4_8 
REMARK    3  A    between atoms: N3_10  and  C6_11 
REMARK    4  A    between atoms: C6_11  and  C7_12 
REMARK    5  A    between atoms: C7_12  and  C8_13 
REMARK    6  A    between atoms: C8_13  and  O2_14 
REMARK    7  A    between atoms: O2_14  and  C9_15 
ROOT
HETATM    1  N1  UNL     1      12.161 -10.740   8.004  1.00  0.00    -0.195 NA
HETATM    2  C1  UNL     1      11.929  -9.987   8.864  1.00  0.00     0.091 C 
HETATM    3  C2  UNL     1      11.661  -9.035   9.955  1.00  0.00     0.122 A 
HETATM    4  C17 UNL     1      12.553  -7.865  10.006  1.00  0.00     0.050 A 
HETATM    5  C18 UNL     1      12.757  -8.976  10.996  1.00  0.00     0.050 A 
ENDROOT
BRANCH   3   6
HETATM    6  N2  UNL     1      10.288  -8.978  10.386  1.00  0.00    -0.337 N 
HETATM    7  C3  UNL     1       9.285  -8.280   9.660  1.00  0.00     0.251 C 
HETATM    8  O1  UNL     1       9.617  -7.696   8.610  1.00  0.00    -0.271 OA
ATOM      9  H2  UNL     1      10.025  -9.458  11.247  1.00  0.00     0.164 HD
BRANCH   7  10
HETATM   10  C4  UNL     1       7.877  -8.218  10.093  1.00  0.00     0.307 C 
HETATM   11  C5  UNL     1       6.961  -8.091   8.894  1.00  0.00     0.317 C 
HETATM   12  N3  UNL     1       6.764  -6.665   8.743  1.00  0.00     0.116 N 
HETATM   13  C16 UNL     1       7.056  -6.045   9.988  1.00  0.00     0.503 C 
HETATM   14  N5  UNL     1       7.625  -7.030  10.882  1.00  0.00    -0.034 N 
ATOM     15  H52 UNL     1       7.046  -7.209  11.703  1.00  0.00     0.280 HD
ATOM     16  H51 UNL     1       8.451  -6.695  11.376  1.00  0.00     0.280 HD
BRANCH  12  17
HETATM   17  C6  UNL     1       5.537  -6.289   8.119  1.00  0.00     0.277 C 
BRANCH  17  18
HETATM   18  C7  UNL     1       4.317  -6.414   9.003  1.00  0.00     0.056 C 
BRANCH  18  19
HETATM   19  C8  UNL     1       3.120  -6.046   8.153  1.00  0.00     0.170 C 
BRANCH  19  20
HETATM   20  O2  UNL     1       3.439  -5.574   6.905  1.00  0.00    -0.384 OA
BRANCH  20  21
HETATM   21  C9  UNL     1       2.687  -4.517   6.461  1.00  0.00     0.144 C 
HETATM   22  C10 UNL     1       1.232  -4.793   6.762  1.00  0.00     0.038 C 
HETATM   23  C11 UNL     1       0.598  -4.945   5.387  1.00  0.00    -0.009 C 
HETATM   24  C12 UNL     1       0.925  -6.323   4.906  1.00  0.00     0.024 C 
HETATM   25  C15 UNL     1       1.370  -3.917   4.587  1.00  0.00     0.032 C 
HETATM   26  C13 UNL     1       2.125  -6.437   4.037  1.00  0.00     0.114 C 
HETATM   27  N4  UNL     1       3.159  -5.476   4.251  1.00  0.00    -0.415 N 
HETATM   28  C14 UNL     1       2.790  -4.300   4.969  1.00  0.00     0.105 C 
ATOM     29  H4  UNL     1       4.108  -5.623   3.910  1.00  0.00     0.153 HD
ENDBRANCH  20  21
ENDBRANCH  19  20
ENDBRANCH  18  19
ENDBRANCH  17  18
ENDBRANCH  12  17
ENDBRANCH   7  10
ENDBRANCH   3   6
TORSDOF 7
ENDMDL
MODEL 5
REMARK VINA RESULT: -8.887235183      1.007      1.581
REMARK  7 active torsions:
REMARK  status: ('A' for Active; 'I' for Inactive)
REMARK    1  A    between atoms: C2_3  and  N2_4 
REMARK       I    between atoms: N2_4  and  C3_6 
REMARK    2  A    between atoms: C3_6  and  C4_8 
REMARK    3  A    between atoms: N3_10  and  C6_11 
REMARK    4  A    between atoms: C6_11  and  C7_12 
REMARK    5  A    between atoms: C7_12  and  C8_13 
REMARK    6  A    between atoms: C8_13  and  O2_14 
REMARK    7  A    between atoms: O2_14  and  C9_15 
ROOT
HETATM    1  N1  UNL     1      10.707 -10.719   5.707  1.00  0.00    -0.195 NA
HETATM    2  C1  UNL     1      11.019 -10.196   6.702  1.00  0.00     0.091 C 
HETATM    3  C2  UNL     1      11.422  -9.558   7.966  1.00  0.00     0.122 A 
HETATM    4  C17 UNL     1      12.784  -9.871   8.426  1.00  0.00     0.050 A 
HETATM    5  C18 UNL     1      11.621 -10.534   9.105  1.00  0.00     0.050 A 
ENDROOT
BRANCH   3   6
HETATM    6  N2  UNL     1      10.788  -8.294   8.236  1.00  0.00    -0.337 N 
HETATM    7  C3  UNL     1       9.402  -8.180   8.531  1.00  0.00     0.251 C 
HETATM    8  O1  UNL     1       8.717  -9.221   8.554  1.00  0.00    -0.271 OA
ATOM      9  H2  UNL     1      11.355  -7.446   8.215  1.00  0.00     0.164 HD
BRANCH   7  10
HETATM   10  C4  UNL     1       8.743  -6.890   8.810  1.00  0.00     0.307 C 
HETATM   11  C5  UNL     1       7.706  -7.052   9.901  1.00  0.00     0.317 C 
HETATM   12  N3  UNL     1       6.470  -7.295   9.188  1.00  0.00     0.116 N 
HETATM   13  C16 UNL     1       6.621  -6.802   7.863  1.00  0.00     0.503 C 
HETATM   14  N5  UNL     1       8.003  -6.421   7.658  1.00  0.00    -0.034 N 
ATOM     15  H52 UNL     1       8.122  -5.424   7.482  1.00  0.00     0.280 HD
ATOM     16  H51 UNL     1       8.384  -6.755   6.773  1.00  0.00     0.280 HD
BRANCH  12  17
HETATM   17  C6  UNL     1       5.287  -6.901   9.880  1.00  0.00     0.277 C 
BRANCH  17  18
HETATM   18  C7  UNL     1       4.475  -5.832   9.182  1.00  0.00     0.056 C 
BRANCH  18  19
HETATM   19  C8  UNL     1       3.225  -6.504   8.659  1.00  0.00     0.170 C 
BRANCH  19  20
HETATM   20  O2  UNL     1       3.056  -6.404   7.302  1.00  0.00    -0.384 OA
BRANCH  20  21
HETATM   21  C9  UNL     1       2.825  -5.140   6.823  1.00  0.00     0.144 C 
HETATM   22  C10 UNL     1       1.342  -4.858   6.889  1.00  0.00     0.038 C 
HETATM   23  C11 UNL     1       0.926  -4.754   5.428  1.00  0.00    -0.009 C 
HETATM   24  C12 UNL     1       0.800  -6.151   4.910  1.00  0.00     0.024 C 
HETATM   25  C15 UNL     1       2.138  -4.079   4.821  1.00  0.00     0.032 C 
HETATM   26  C13 UNL     1       1.998  -6.696   4.221  1.00  0.00     0.114 C 
HETATM   27  N4  UNL     1       3.262  -6.189   4.648  1.00  0.00    -0.415 N 
HETATM   28  C14 UNL     1       3.238  -4.965   5.380  1.00  0.00     0.105 C 
ATOM     29  H4  UNL     1       4.134  -6.675   4.441  1.00  0.00     0.153 HD
ENDBRANCH  20  21
ENDBRANCH  19  20
ENDBRANCH  18  19
ENDBRANCH  17  18
ENDBRANCH  12  17
ENDBRANCH   7  10
ENDBRANCH   3   6
TORSDOF 7
ENDMDL
