MODEL 1
REMARK VINA RESULT: -8.140407673      0.000      0.000
REMARK  8 active torsions:
REMARK  status: ('A' for Active; 'I' for Inactive)
REMARK    1  A    between atoms: C4_4  and  C5_5 
REMARK    2  A    between atoms: C5_5  and  N1_6 
REMARK       I    between atoms: N1_6  and  C6_8 
REMARK       I    between atoms: C6_8  and  N3_13 
REMARK    3  A    between atoms: N2_9  and  O1_11 
REMARK    4  A    between atoms: N3_13  and  C7_14 
REMARK    5  A    between atoms: N3_13  and  C13_25 
REMARK    6  A    between atoms: C7_14  and  C8_15 
REMARK    7  A    between atoms: C8_15  and  N4_16 
REMARK    8  A    between atoms: N4_16  and  C9_18 
ROOT
HETATM    1  N1  UNL     1       3.171  -4.763   6.302  1.00  0.00    -0.221 N 
ATOM      2  H1  UNL     1       3.813  -4.028   6.598  1.00  0.00     0.178 HD
HETATM    3  C6  UNL     1       1.940  -4.367   5.749  1.00  0.00     0.696 C 
HETATM    4  N2  UNL     1       0.977  -4.166   6.627  1.00  0.00    -0.099 N 
ATOM      5  H2  UNL     1       0.054  -3.879   6.305  1.00  0.00     0.213 HD
HETATM    6  N3  UNL     1       1.573  -4.168   4.422  1.00  0.00    -0.207 N 
ENDROOT
BRANCH   6   7
HETATM    7  C7  UNL     1       0.981  -2.996   3.892  1.00  0.00     0.186 C 
BRANCH   7   8
HETATM    8  C8  UNL     1       1.716  -1.717   3.924  1.00  0.00     0.078 C 
BRANCH   8   9
HETATM    9  N4  UNL     1       1.080  -0.619   4.529  1.00  0.00    -0.374 N 
ATOM     10  H4  UNL     1       0.556  -0.722   5.398  1.00  0.00     0.161 HD
BRANCH   9  11
HETATM   11  C9  UNL     1       1.200   0.649   3.875  1.00  0.00     0.237 C 
HETATM   12  C10 UNL     1       1.018   1.759   4.839  1.00  0.00     0.167 C 
HETATM   13  N5  UNL     1       1.727   2.977   4.562  1.00  0.00    -0.415 N 
HETATM   14  C11 UNL     1       2.235   3.099   3.227  1.00  0.00     0.140 C 
ATOM     15  H5  UNL     1       1.861   3.703   5.266  1.00  0.00     0.153 HD
HETATM   16  C12 UNL     1       2.826   1.834   2.687  1.00  0.00     0.189 C 
HETATM   17  O2  UNL     1       2.488   0.698   3.350  1.00  0.00    -0.364 OA
ENDBRANCH   9  11
ENDBRANCH   8   9
ENDBRANCH   7   8
ENDBRANCH   6   7
BRANCH   6  18
HETATM   18  C13 UNL     1       1.780  -5.249   3.445  1.00  0.00     0.102 C 
HETATM   19  C14 UNL     1       1.412  -4.851   2.061  1.00  0.00     0.026 C 
HETATM   20  C15 UNL     1       1.728  -5.993   1.108  1.00  0.00     0.002 C 
HETATM   21  C16 UNL     1       0.864  -7.198   1.515  1.00  0.00     0.000 C 
HETATM   22  C17 UNL     1       1.358  -7.598   2.888  1.00  0.00     0.002 C 
HETATM   23  C18 UNL     1       1.063  -6.502   3.874  1.00  0.00     0.026 C 
ENDBRANCH   6  18
BRANCH   1  24
HETATM   24  C5  UNL     1       3.597  -6.139   6.481  1.00  0.00     0.165 C 
BRANCH  24  25
HETATM   25  C4  UNL     1       5.042  -6.217   6.838  1.00  0.00    -0.005 C 
HETATM   26  C2  UNL     1       5.385  -6.339   8.100  1.00  0.00    -0.090 C 
HETATM   27  C1  UNL     1       6.813  -6.416   8.484  1.00  0.00     0.042 C 
HETATM   28  C3  UNL     1       4.352  -6.416   9.177  1.00  0.00     0.042 C 
ENDBRANCH  24  25
ENDBRANCH   1  24
BRANCH   4  29
HETATM   29  O1  UNL     1       1.198  -4.335   7.937  1.00  0.00    -0.276 OA
ATOM     30  H1  UNL     1       2.022  -4.072   8.330  1.00  0.00     0.245 HD
ENDBRANCH   4  29
TORSDOF 8
ENDMDL
MODEL 2
REMARK VINA RESULT: -8.034440612      1.127      1.363
REMARK  8 active torsions:
REMARK  status: ('A' for Active; 'I' for Inactive)
REMARK    1  A    between atoms: C4_4  and  C5_5 
REMARK    2  A    between atoms: C5_5  and  N1_6 
REMARK       I    between atoms: N1_6  and  C6_8 
REMARK       I    between atoms: C6_8  and  N3_13 
REMARK    3  A    between atoms: N2_9  and  O1_11 
REMARK    4  A    between atoms: N3_13  and  C7_14 
REMARK    5  A    between atoms: N3_13  and  C13_25 
REMARK    6  A    between atoms: C7_14  and  C8_15 
REMARK    7  A    between atoms: C8_15  and  N4_16 
REMARK    8  A    between atoms: N4_16  and  C9_18 
ROOT
HETATM    1  N1  UNL     1       3.047  -4.995   6.548  1.00  0.00    -0.221 N 
ATOM      2  H1  UNL     1       3.694  -4.241   6.775  1.00  0.00     0.178 HD
HETATM    3  C6  UNL     1       1.833  -4.647   5.931  1.00  0.00     0.696 C 
HETATM    4  N2  UNL     1       0.857  -4.337   6.762  1.00  0.00    -0.099 N 
ATOM      5  H2  UNL     1      -0.056  -4.075   6.392  1.00  0.00     0.213 HD
HETATM    6  N3  UNL     1       1.494  -4.590   4.583  1.00  0.00    -0.207 N 
ENDROOT
BRANCH   6   7
HETATM    7  C7  UNL     1       0.929  -3.475   3.916  1.00  0.00     0.186 C 
BRANCH   7   8
HETATM    8  C8  UNL     1       1.677  -2.206   3.836  1.00  0.00     0.078 C 
BRANCH   8   9
HETATM    9  N4  UNL     1       1.143  -1.097   4.517  1.00  0.00    -0.374 N 
ATOM     10  H4  UNL     1       0.708  -1.195   5.434  1.00  0.00     0.161 HD
BRANCH   9  11
HETATM   11  C9  UNL     1       1.238   0.177   3.868  1.00  0.00     0.237 C 
HETATM   12  C10 UNL     1       0.065   0.412   2.995  1.00  0.00     0.167 C 
HETATM   13  N5  UNL     1      -0.348   1.777   2.822  1.00  0.00    -0.415 N 
HETATM   14  C11 UNL     1       0.616   2.762   3.217  1.00  0.00     0.140 C 
ATOM     15  H5  UNL     1      -1.262   2.027   2.446  1.00  0.00     0.153 HD
HETATM   16  C12 UNL     1       1.336   2.427   4.487  1.00  0.00     0.189 C 
HETATM   17  O2  UNL     1       1.259   1.130   4.882  1.00  0.00    -0.364 OA
ENDBRANCH   9  11
ENDBRANCH   8   9
ENDBRANCH   7   8
ENDBRANCH   6   7
BRANCH   6  18
HETATM   18  C13 UNL     1       1.701  -5.775   3.735  1.00  0.00     0.102 C 
HETATM   19  C14 UNL     1       1.322  -5.540   2.316  1.00  0.00     0.026 C 
HETATM   20  C15 UNL     1       1.640  -6.781   1.499  1.00  0.00     0.002 C 
HETATM   21  C16 UNL     1       0.787  -7.937   2.047  1.00  0.00     0.000 C 
HETATM   22  C17 UNL     1       1.292  -8.174   3.453  1.00  0.00     0.002 C 
HETATM   23  C18 UNL     1       0.995  -6.974   4.309  1.00  0.00     0.026 C 
ENDBRANCH   6  18
BRANCH   1  24
HETATM   24  C5  UNL     1       3.448  -6.349   6.886  1.00  0.00     0.165 C 
BRANCH  24  25
HETATM   25  C4  UNL     1       3.901  -6.443   8.303  1.00  0.00    -0.005 C 
HETATM   26  C2  UNL     1       5.187  -6.472   8.565  1.00  0.00    -0.090 C 
HETATM   27  C1  UNL     1       5.666  -6.568   9.963  1.00  0.00     0.042 C 
HETATM   28  C3  UNL     1       6.200  -6.400   7.468  1.00  0.00     0.042 C 
ENDBRANCH  24  25
ENDBRANCH   1  24
BRANCH   4  29
HETATM   29  O1  UNL     1       1.051  -4.363   8.087  1.00  0.00    -0.276 OA
ATOM     30  H1  UNL     1       1.439  -3.622   8.537  1.00  0.00     0.245 HD
ENDBRANCH   4  29
TORSDOF 8
ENDMDL
MODEL 3
REMARK VINA RESULT: -7.861945471      1.152      1.286
REMARK  8 active torsions:
REMARK  status: ('A' for Active; 'I' for Inactive)
REMARK    1  A    between atoms: C4_4  and  C5_5 
REMARK    2  A    between atoms: C5_5  and  N1_6 
REMARK       I    between atoms: N1_6  and  C6_8 
REMARK       I    between atoms: C6_8  and  N3_13 
REMARK    3  A    between atoms: N2_9  and  O1_11 
REMARK    4  A    between atoms: N3_13  and  C7_14 
REMARK    5  A    between atoms: N3_13  and  C13_25 
REMARK    6  A    between atoms: C7_14  and  C8_15 
REMARK    7  A    between atoms: C8_15  and  N4_16 
REMARK    8  A    between atoms: N4_16  and  C9_18 
ROOT
HETATM    1  N1  UNL     1       3.076  -4.589   6.226  1.00  0.00    -0.221 N 
ATOM      2  H1  UNL     1       3.660  -3.917   6.724  1.00  0.00     0.178 HD
HETATM    3  C6  UNL     1       1.907  -4.108   5.613  1.00  0.00     0.696 C 
HETATM    4  N2  UNL     1       0.845  -4.075   6.394  1.00  0.00    -0.099 N 
ATOM      5  H2  UNL     1      -0.044  -3.739   6.022  1.00  0.00     0.213 HD
HETATM    6  N3  UNL     1       1.689  -3.673   4.309  1.00  0.00    -0.207 N 
ENDROOT
BRANCH   6   7
HETATM    7  C7  UNL     1       1.129  -2.428   3.933  1.00  0.00     0.186 C 
BRANCH   7   8
HETATM    8  C8  UNL     1       1.663  -1.176   4.501  1.00  0.00     0.078 C 
BRANCH   8   9
HETATM    9  N4  UNL     1       1.753  -0.063   3.646  1.00  0.00    -0.374 N 
ATOM     10  H4  UNL     1       2.507   0.023   2.964  1.00  0.00     0.161 HD
BRANCH   9  11
HETATM   11  C9  UNL     1       0.742   0.943   3.773  1.00  0.00     0.237 C 
HETATM   12  C10 UNL     1       1.276   2.144   4.456  1.00  0.00     0.167 C 
HETATM   13  N5  UNL     1       0.696   3.406   4.091  1.00  0.00    -0.415 N 
HETATM   14  C11 UNL     1      -0.551   3.325   3.387  1.00  0.00     0.140 C 
ATOM     15  H5  UNL     1       1.139   4.297   4.316  1.00  0.00     0.153 HD
HETATM   16  C12 UNL     1      -0.595   2.237   2.359  1.00  0.00     0.189 C 
HETATM   17  O2  UNL     1       0.361   1.279   2.477  1.00  0.00    -0.364 OA
ENDBRANCH   9  11
ENDBRANCH   8   9
ENDBRANCH   7   8
ENDBRANCH   6   7
BRANCH   6  18
HETATM   18  C13 UNL     1       2.035  -4.558   3.185  1.00  0.00     0.102 C 
HETATM   19  C14 UNL     1       2.086  -3.840   1.884  1.00  0.00     0.026 C 
HETATM   20  C15 UNL     1       2.524  -4.806   0.794  1.00  0.00     0.002 C 
HETATM   21  C16 UNL     1       1.468  -5.919   0.698  1.00  0.00     0.000 C 
HETATM   22  C17 UNL     1       1.542  -6.655   2.017  1.00  0.00     0.002 C 
HETATM   23  C18 UNL     1       1.109  -5.743   3.133  1.00  0.00     0.026 C 
ENDBRANCH   6  18
BRANCH   1  24
HETATM   24  C5  UNL     1       3.516  -5.973   6.205  1.00  0.00     0.165 C 
BRANCH  24  25
HETATM   25  C4  UNL     1       4.882  -6.116   6.783  1.00  0.00    -0.005 C 
HETATM   26  C2  UNL     1       5.013  -6.354   8.068  1.00  0.00    -0.090 C 
HETATM   27  C1  UNL     1       6.358  -6.499   8.671  1.00  0.00     0.042 C 
HETATM   28  C3  UNL     1       3.817  -6.498   8.953  1.00  0.00     0.042 C 
ENDBRANCH  24  25
ENDBRANCH   1  24
BRANCH   4  29
HETATM   29  O1  UNL     1       0.918  -4.477   7.669  1.00  0.00    -0.276 OA
ATOM     30  H1  UNL     1       0.560  -3.944   8.369  1.00  0.00     0.245 HD
ENDBRANCH   4  29
TORSDOF 8
ENDMDL
MODEL 4
REMARK VINA RESULT: -7.851144534      2.346      7.160
REMARK  8 active torsions:
REMARK  status: ('A' for Active; 'I' for Inactive)
REMARK    1  A    between atoms: C4_4  and  C5_5 
REMARK    2  A    between atoms: C5_5  and  N1_6 
REMARK       I    between atoms: N1_6  and  C6_8 
REMARK       I    between atoms: C6_8  and  N3_13 
REMARK    3  A    between atoms: N2_9  and  O1_11 
REMARK    4  A    between atoms: N3_13  and  C7_14 
REMARK    5  A    between atoms: N3_13  and  C13_25 
REMARK    6  A    between atoms: C7_14  and  C8_15 
REMARK    7  A    between atoms: C8_15  and  N4_16 
REMARK    8  A    between atoms: N4_16  and  C9_18 
ROOT
HETATM    1  N1  UNL     1       0.226  -1.800   4.172  1.00  0.00    -0.221 N 
ATOM      2  H1  UNL     1      -0.596  -1.471   4.677  1.00  0.00     0.178 HD
HETATM    3  C6  UNL     1       1.075  -2.707   4.829  1.00  0.00     0.696 C 
HETATM    4  N2  UNL     1       2.010  -2.151   5.574  1.00  0.00    -0.099 N 
ATOM      5  H2  UNL     1       2.667  -2.743   6.082  1.00  0.00     0.213 HD
HETATM    6  N3  UNL     1       1.093  -4.098   4.808  1.00  0.00    -0.207 N 
ENDROOT
BRANCH   6   7
HETATM    7  C7  UNL     1       1.058  -4.946   5.942  1.00  0.00     0.186 C 
BRANCH   7   8
HETATM    8  C8  UNL     1       2.206  -5.823   6.244  1.00  0.00     0.078 C 
BRANCH   8   9
HETATM    9  N4  UNL     1       3.228  -5.295   7.053  1.00  0.00    -0.374 N 
ATOM     10  H4  UNL     1       3.231  -4.315   7.334  1.00  0.00     0.161 HD
BRANCH   9  11
HETATM   11  C9  UNL     1       4.265  -6.193   7.465  1.00  0.00     0.237 C 
HETATM   12  C10 UNL     1       5.432  -6.104   6.556  1.00  0.00     0.167 C 
HETATM   13  N5  UNL     1       6.721  -6.368   7.133  1.00  0.00    -0.415 N 
HETATM   14  C11 UNL     1       6.698  -7.022   8.408  1.00  0.00     0.140 C 
ATOM     15  H5  UNL     1       7.590  -6.108   6.668  1.00  0.00     0.153 HD
HETATM   16  C12 UNL     1       5.635  -6.510   9.331  1.00  0.00     0.189 C 
HETATM   17  O2  UNL     1       4.643  -5.792   8.743  1.00  0.00    -0.364 OA
ENDBRANCH   9  11
ENDBRANCH   8   9
ENDBRANCH   7   8
ENDBRANCH   6   7
BRANCH   6  18
HETATM   18  C13 UNL     1       1.176  -4.800   3.517  1.00  0.00     0.102 C 
HETATM   19  C14 UNL     1       2.096  -4.134   2.558  1.00  0.00     0.026 C 
HETATM   20  C15 UNL     1       2.183  -4.962   1.286  1.00  0.00     0.002 C 
HETATM   21  C16 UNL     1       0.778  -5.012   0.661  1.00  0.00     0.000 C 
HETATM   22  C17 UNL     1      -0.071  -5.780   1.649  1.00  0.00     0.002 C 
HETATM   23  C18 UNL     1      -0.195  -4.999   2.928  1.00  0.00     0.026 C 
ENDBRANCH   6  18
BRANCH   1  24
HETATM   24  C5  UNL     1       0.432  -1.296   2.825  1.00  0.00     0.165 C 
BRANCH  24  25
HETATM   25  C4  UNL     1      -0.721  -1.626   1.940  1.00  0.00    -0.005 C 
HETATM   26  C2  UNL     1      -0.544  -1.652   0.640  1.00  0.00    -0.090 C 
HETATM   27  C1  UNL     1      -1.673  -1.974  -0.264  1.00  0.00     0.042 C 
HETATM   28  C3  UNL     1       0.794  -1.372   0.036  1.00  0.00     0.042 C 
ENDBRANCH  24  25
ENDBRANCH   1  24
BRANCH   4  29
HETATM   29  O1  UNL     1       2.108  -0.819   5.671  1.00  0.00    -0.276 OA
ATOM     30  H1  UNL     1       1.337  -0.284   5.815  1.00  0.00     0.245 HD
ENDBRANCH   4  29
TORSDOF 8
ENDMDL
MODEL 5
REMARK VINA RESULT: -7.848809172      1.222      1.511
REMARK  8 active torsions:
REMARK  status: ('A' for Active; 'I' for Inactive)
REMARK    1  A    between atoms: C4_4  and  C5_5 
REMARK    2  A    between atoms: C5_5  and  N1_6 
REMARK       I    between atoms: N1_6  and  C6_8 
REMARK       I    between atoms: C6_8  and  N3_13 
REMARK    3  A    between atoms: N2_9  and  O1_11 
REMARK    4  A    between atoms: N3_13  and  C7_14 
REMARK    5  A    between atoms: N3_13  and  C13_25 
REMARK    6  A    between atoms: C7_14  and  C8_15 
REMARK    7  A    between atoms: C8_15  and  N4_16 
REMARK    8  A    between atoms: N4_16  and  C9_18 
ROOT
HETATM    1  N1  UNL     1       2.976  -4.935   6.417  1.00  0.00    -0.221 N 
ATOM      2  H1  UNL     1       3.620  -4.182   6.656  1.00  0.00     0.178 HD
HETATM    3  C6  UNL     1       1.774  -4.586   5.776  1.00  0.00     0.696 C 
HETATM    4  N2  UNL     1       0.783  -4.275   6.589  1.00  0.00    -0.099 N 
ATOM      5  H2  UNL     1      -0.122  -4.012   6.200  1.00  0.00     0.213 HD
HETATM    6  N3  UNL     1       1.461  -4.529   4.422  1.00  0.00    -0.207 N 
ENDROOT
BRANCH   6   7
HETATM    7  C7  UNL     1       0.911  -3.414   3.744  1.00  0.00     0.186 C 
BRANCH   7   8
HETATM    8  C8  UNL     1       1.598  -2.109   3.790  1.00  0.00     0.078 C 
BRANCH   8   9
HETATM    9  N4  UNL     1       1.036  -1.110   4.605  1.00  0.00    -0.374 N 
ATOM     10  H4  UNL     1       0.819  -1.285   5.586  1.00  0.00     0.161 HD
BRANCH   9  11
HETATM   11  C9  UNL     1       0.784   0.164   4.001  1.00  0.00     0.237 C 
HETATM   12  C10 UNL     1       1.983   0.652   3.281  1.00  0.00     0.167 C 
HETATM   13  N5  UNL     1       1.753   1.483   2.132  1.00  0.00    -0.415 N 
HETATM   14  C11 UNL     1       0.430   2.027   2.026  1.00  0.00     0.140 C 
ATOM     15  H5  UNL     1       2.478   1.673   1.441  1.00  0.00     0.153 HD
HETATM   16  C12 UNL     1      -0.652   1.057   2.389  1.00  0.00     0.189 C 
HETATM   17  O2  UNL     1      -0.252  -0.034   3.093  1.00  0.00    -0.364 OA
ENDBRANCH   9  11
ENDBRANCH   8   9
ENDBRANCH   7   8
ENDBRANCH   6   7
BRANCH   6  18
HETATM   18  C13 UNL     1       1.684  -5.714   3.578  1.00  0.00     0.102 C 
HETATM   19  C14 UNL     1       1.355  -5.472   2.149  1.00  0.00     0.026 C 
HETATM   20  C15 UNL     1       1.686  -6.715   1.338  1.00  0.00     0.002 C 
HETATM   21  C16 UNL     1       0.803  -7.862   1.856  1.00  0.00     0.000 C 
HETATM   22  C17 UNL     1       1.259  -8.108   3.277  1.00  0.00     0.002 C 
HETATM   23  C18 UNL     1       0.947  -6.907   4.126  1.00  0.00     0.026 C 
ENDBRANCH   6  18
BRANCH   1  24
HETATM   24  C5  UNL     1       3.369  -6.290   6.762  1.00  0.00     0.165 C 
BRANCH  24  25
HETATM   25  C4  UNL     1       3.791  -6.384   8.189  1.00  0.00    -0.005 C 
HETATM   26  C2  UNL     1       5.070  -6.428   8.478  1.00  0.00    -0.090 C 
HETATM   27  C1  UNL     1       5.518  -6.525   9.887  1.00  0.00     0.042 C 
HETATM   28  C3  UNL     1       6.108  -6.370   7.404  1.00  0.00     0.042 C 
ENDBRANCH  24  25
ENDBRANCH   1  24
BRANCH   4  29
HETATM   29  O1  UNL     1       0.952  -4.302   7.917  1.00  0.00    -0.276 OA
ATOM     30  H1  UNL     1       0.568  -4.994   8.442  1.00  0.00     0.245 HD
ENDBRANCH   4  29
TORSDOF 8
ENDMDL
