MODEL 1
REMARK VINA RESULT: -6.640528551      0.000      0.000
REMARK  8 active torsions:
REMARK  status: ('A' for Active; 'I' for Inactive)
REMARK    1  A    between atoms: O1_2  and  C2_3 
REMARK    2  A    between atoms: C2_3  and  C3_4 
REMARK    3  A    between atoms: C3_4  and  C4_5 
REMARK    4  A    between atoms: C4_5  and  N1_6 
REMARK       I    between atoms: N1_6  and  C5_8 
REMARK    5  A    between atoms: C5_8  and  C6_10 
REMARK    6  A    between atoms: N2_14  and  C10_15 
REMARK    7  A    between atoms: C13_19  and  C14_20 
REMARK       I    between atoms: C14_20  and  N4_22 
REMARK    8  A    between atoms: N4_22  and  C15_24 
ROOT
HETATM    1  C10 UNL     1      -1.710  -1.323   1.697  1.00  0.00     0.183 C 
HETATM    2  C11 UNL     1      -1.559  -1.087   0.186  1.00  0.00     0.048 C 
HETATM    3  C12 UNL     1      -2.674  -0.358   2.160  1.00  0.00     0.084 C 
HETATM    4  N3  UNL     1      -3.474   0.426   2.522  1.00  0.00    -0.195 NA
ENDROOT
BRANCH   1   5
HETATM    5  N2  UNL     1      -0.464  -1.188   2.297  1.00  0.00    -0.383 N 
HETATM    6  C9  UNL     1       0.560  -0.510   1.643  1.00  0.00     0.119 C 
HETATM    7  C8  UNL     1       1.150   0.446   2.694  1.00  0.00     0.020 C 
HETATM    8  C7  UNL     1       1.783  -0.418   3.712  1.00  0.00     0.018 C 
HETATM    9  C6  UNL     1       0.946  -1.551   4.259  1.00  0.00     0.109 C 
HETATM   10  C13 UNL     1      -0.123  -2.071   3.380  1.00  0.00     0.186 C 
BRANCH   9  11
HETATM   11  C5  UNL     1       1.921  -2.549   4.754  1.00  0.00     0.224 C 
HETATM   12  N1  UNL     1       1.600  -3.379   5.853  1.00  0.00    -0.361 N 
ATOM     13  H1  UNL     1       0.685  -3.252   6.285  1.00  0.00     0.162 HD
HETATM   14  O2  UNL     1       3.075  -2.714   4.229  1.00  0.00    -0.273 OA
BRANCH  12  15
HETATM   15  C4  UNL     1       2.452  -4.378   6.404  1.00  0.00     0.124 C 
BRANCH  15  16
HETATM   16  C3  UNL     1       2.198  -5.769   5.844  1.00  0.00     0.046 C 
BRANCH  16  17
HETATM   17  C2  UNL     1       3.540  -6.452   5.626  1.00  0.00     0.168 C 
BRANCH  17  18
HETATM   18  O1  UNL     1       4.620  -5.656   5.892  1.00  0.00    -0.396 OA
HETATM   19  C1  UNL     1       5.526  -6.136   6.799  1.00  0.00     0.201 C 
ENDBRANCH  17  18
ENDBRANCH  16  17
ENDBRANCH  15  16
ENDBRANCH  12  15
ENDBRANCH   9  11
BRANCH  10  20
HETATM   20  C14 UNL     1      -0.025  -3.464   2.925  1.00  0.00     0.241 C 
HETATM   21  O3  UNL     1      -0.532  -4.352   3.692  1.00  0.00    -0.271 OA
HETATM   22  N4  UNL     1       0.572  -3.935   1.735  1.00  0.00    -0.351 N 
ATOM     23  H4  UNL     1       0.976  -3.242   1.104  1.00  0.00     0.163 HD
BRANCH  22  24
HETATM   24  C15 UNL     1       0.650  -5.306   1.350  1.00  0.00     0.022 C 
HETATM   25  C16 UNL     1      -0.641  -6.043   1.239  1.00  0.00     0.037 C 
HETATM   26  C17 UNL     1       1.296  -5.382  -0.043  1.00  0.00     0.037 C 
HETATM   27  C18 UNL     1       1.587  -6.083   2.257  1.00  0.00     0.037 C 
ENDBRANCH  22  24
ENDBRANCH  10  20
ENDBRANCH   1   5
TORSDOF 8
ENDMDL
MODEL 2
REMARK VINA RESULT: -6.329921420      2.626      6.320
REMARK  8 active torsions:
REMARK  status: ('A' for Active; 'I' for Inactive)
REMARK    1  A    between atoms: O1_2  and  C2_3 
REMARK    2  A    between atoms: C2_3  and  C3_4 
REMARK    3  A    between atoms: C3_4  and  C4_5 
REMARK    4  A    between atoms: C4_5  and  N1_6 
REMARK       I    between atoms: N1_6  and  C5_8 
REMARK    5  A    between atoms: C5_8  and  C6_10 
REMARK    6  A    between atoms: N2_14  and  C10_15 
REMARK    7  A    between atoms: C13_19  and  C14_20 
REMARK       I    between atoms: C14_20  and  N4_22 
REMARK    8  A    between atoms: N4_22  and  C15_24 
ROOT
HETATM    1  C10 UNL     1       3.082  -6.040   6.549  1.00  0.00     0.183 C 
HETATM    2  C11 UNL     1       2.638  -5.554   7.937  1.00  0.00     0.048 C 
HETATM    3  C12 UNL     1       4.523  -6.050   6.569  1.00  0.00     0.084 C 
HETATM    4  N3  UNL     1       5.699  -6.066   6.603  1.00  0.00    -0.195 NA
ENDROOT
BRANCH   1   5
HETATM    5  N2  UNL     1       2.550  -5.192   5.586  1.00  0.00    -0.383 N 
HETATM    6  C9  UNL     1       1.562  -4.274   5.929  1.00  0.00     0.119 C 
HETATM    7  C8  UNL     1       2.010  -2.942   5.303  1.00  0.00     0.020 C 
HETATM    8  C7  UNL     1       1.930  -3.139   3.841  1.00  0.00     0.018 C 
HETATM    9  C6  UNL     1       2.594  -4.377   3.284  1.00  0.00     0.109 C 
HETATM   10  C13 UNL     1       2.723  -5.530   4.199  1.00  0.00     0.186 C 
BRANCH   9  11
HETATM   11  C5  UNL     1       1.905  -4.641   2.000  1.00  0.00     0.224 C 
HETATM   12  N1  UNL     1       0.502  -4.499   1.899  1.00  0.00    -0.361 N 
ATOM     13  H1  UNL     1      -0.004  -4.220   2.740  1.00  0.00     0.162 HD
HETATM   14  O2  UNL     1       2.522  -4.999   0.939  1.00  0.00    -0.273 OA
BRANCH  12  15
HETATM   15  C4  UNL     1      -0.263  -4.714   0.717  1.00  0.00     0.124 C 
BRANCH  15  16
HETATM   16  C3  UNL     1      -0.815  -3.433   0.110  1.00  0.00     0.046 C 
BRANCH  16  17
HETATM   17  C2  UNL     1      -0.544  -2.287   1.075  1.00  0.00     0.168 C 
BRANCH  17  18
HETATM   18  O1  UNL     1      -1.317  -2.315   2.203  1.00  0.00    -0.396 OA
HETATM   19  C1  UNL     1      -1.233  -1.228   3.030  1.00  0.00     0.201 C 
ENDBRANCH  17  18
ENDBRANCH  16  17
ENDBRANCH  15  16
ENDBRANCH  12  15
ENDBRANCH   9  11
BRANCH  10  20
HETATM   20  C14 UNL     1       2.010  -6.767   3.856  1.00  0.00     0.241 C 
HETATM   21  O3  UNL     1       0.751  -6.782   4.079  1.00  0.00    -0.271 OA
HETATM   22  N4  UNL     1       2.560  -7.947   3.309  1.00  0.00    -0.351 N 
ATOM     23  H4  UNL     1       3.562  -7.955   3.116  1.00  0.00     0.163 HD
BRANCH  22  24
HETATM   24  C15 UNL     1       1.819  -9.128   3.007  1.00  0.00     0.022 C 
HETATM   25  C16 UNL     1       0.716  -8.988   2.013  1.00  0.00     0.037 C 
HETATM   26  C17 UNL     1       2.785 -10.168   2.417  1.00  0.00     0.037 C 
HETATM   27  C18 UNL     1       1.270  -9.774   4.266  1.00  0.00     0.037 C 
ENDBRANCH  22  24
ENDBRANCH  10  20
ENDBRANCH   1   5
TORSDOF 8
ENDMDL
MODEL 3
REMARK VINA RESULT: -6.300847227      0.914      1.206
REMARK  8 active torsions:
REMARK  status: ('A' for Active; 'I' for Inactive)
REMARK    1  A    between atoms: O1_2  and  C2_3 
REMARK    2  A    between atoms: C2_3  and  C3_4 
REMARK    3  A    between atoms: C3_4  and  C4_5 
REMARK    4  A    between atoms: C4_5  and  N1_6 
REMARK       I    between atoms: N1_6  and  C5_8 
REMARK    5  A    between atoms: C5_8  and  C6_10 
REMARK    6  A    between atoms: N2_14  and  C10_15 
REMARK    7  A    between atoms: C13_19  and  C14_20 
REMARK       I    between atoms: C14_20  and  N4_22 
REMARK    8  A    between atoms: N4_22  and  C15_24 
ROOT
HETATM    1  C10 UNL     1      -1.694  -0.937   1.533  1.00  0.00     0.183 C 
HETATM    2  C11 UNL     1      -1.518  -0.345   0.127  1.00  0.00     0.048 C 
HETATM    3  C12 UNL     1      -2.755  -0.186   2.155  1.00  0.00     0.084 C 
HETATM    4  N3  UNL     1      -3.633   0.426   2.646  1.00  0.00    -0.195 NA
ENDROOT
BRANCH   1   5
HETATM    5  N2  UNL     1      -0.485  -0.847   2.211  1.00  0.00    -0.383 N 
HETATM    6  C9  UNL     1       0.558  -0.090   1.688  1.00  0.00     0.119 C 
HETATM    7  C8  UNL     1       1.072   0.761   2.863  1.00  0.00     0.020 C 
HETATM    8  C7  UNL     1       1.667  -0.195   3.819  1.00  0.00     0.018 C 
HETATM    9  C6  UNL     1       0.826  -1.390   4.200  1.00  0.00     0.109 C 
HETATM   10  C13 UNL     1      -0.184  -1.832   3.215  1.00  0.00     0.186 C 
BRANCH   9  11
HETATM   11  C5  UNL     1       1.794  -2.420   4.643  1.00  0.00     0.224 C 
HETATM   12  N1  UNL     1       1.448  -3.336   5.663  1.00  0.00    -0.361 N 
ATOM     13  H1  UNL     1       0.520  -3.247   6.078  1.00  0.00     0.162 HD
HETATM   14  O2  UNL     1       2.963  -2.539   4.138  1.00  0.00    -0.273 OA
BRANCH  12  15
HETATM   15  C4  UNL     1       2.291  -4.371   6.158  1.00  0.00     0.124 C 
BRANCH  15  16
HETATM   16  C3  UNL     1       1.915  -5.755   5.650  1.00  0.00     0.046 C 
BRANCH  16  17
HETATM   17  C2  UNL     1       3.187  -6.471   5.219  1.00  0.00     0.168 C 
BRANCH  17  18
HETATM   18  O1  UNL     1       3.024  -7.810   4.993  1.00  0.00    -0.396 OA
HETATM   19  C1  UNL     1       1.882  -8.187   4.339  1.00  0.00     0.201 C 
ENDBRANCH  17  18
ENDBRANCH  16  17
ENDBRANCH  15  16
ENDBRANCH  12  15
ENDBRANCH   9  11
BRANCH  10  20
HETATM   20  C14 UNL     1      -0.034  -3.169   2.625  1.00  0.00     0.241 C 
HETATM   21  O3  UNL     1      -0.571  -4.138   3.262  1.00  0.00    -0.271 OA
HETATM   22  N4  UNL     1       0.643  -3.506   1.432  1.00  0.00    -0.351 N 
ATOM     23  H4  UNL     1       1.073  -2.747   0.903  1.00  0.00     0.163 HD
BRANCH  22  24
HETATM   24  C15 UNL     1       0.769  -4.828   0.912  1.00  0.00     0.022 C 
HETATM   25  C16 UNL     1      -0.497  -5.587   0.704  1.00  0.00     0.037 C 
HETATM   26  C17 UNL     1       1.438  -4.744  -0.469  1.00  0.00     0.037 C 
HETATM   27  C18 UNL     1       1.715  -5.666   1.754  1.00  0.00     0.037 C 
ENDBRANCH  22  24
ENDBRANCH  10  20
ENDBRANCH   1   5
TORSDOF 8
ENDMDL
MODEL 4
REMARK VINA RESULT: -6.187033778      1.028      1.363
REMARK  8 active torsions:
REMARK  status: ('A' for Active; 'I' for Inactive)
REMARK    1  A    between atoms: O1_2  and  C2_3 
REMARK    2  A    between atoms: C2_3  and  C3_4 
REMARK    3  A    between atoms: C3_4  and  C4_5 
REMARK    4  A    between atoms: C4_5  and  N1_6 
REMARK       I    between atoms: N1_6  and  C5_8 
REMARK    5  A    between atoms: C5_8  and  C6_10 
REMARK    6  A    between atoms: N2_14  and  C10_15 
REMARK    7  A    between atoms: C13_19  and  C14_20 
REMARK       I    between atoms: C14_20  and  N4_22 
REMARK    8  A    between atoms: N4_22  and  C15_24 
ROOT
HETATM    1  C10 UNL     1      -1.535  -0.504   1.507  1.00  0.00     0.183 C 
HETATM    2  C11 UNL     1      -1.304   0.462   0.334  1.00  0.00     0.048 C 
HETATM    3  C12 UNL     1      -2.764  -0.089   2.133  1.00  0.00     0.084 C 
HETATM    4  N3  UNL     1      -3.777   0.253   2.627  1.00  0.00    -0.195 NA
ENDROOT
BRANCH   1   5
HETATM    5  N2  UNL     1      -0.437  -0.447   2.356  1.00  0.00    -0.383 N 
HETATM    6  C9  UNL     1       0.545   0.520   2.168  1.00  0.00     0.119 C 
HETATM    7  C8  UNL     1       0.797   1.120   3.563  1.00  0.00     0.020 C 
HETATM    8  C7  UNL     1       1.403   0.035   4.362  1.00  0.00     0.018 C 
HETATM    9  C6  UNL     1       0.696  -1.300   4.345  1.00  0.00     0.109 C 
HETATM   10  C13 UNL     1      -0.121  -1.603   3.151  1.00  0.00     0.186 C 
BRANCH   9  11
HETATM   11  C5  UNL     1       1.739  -2.295   4.686  1.00  0.00     0.224 C 
HETATM   12  N1  UNL     1       1.511  -3.251   5.703  1.00  0.00    -0.361 N 
ATOM     13  H1  UNL     1       0.613  -3.216   6.187  1.00  0.00     0.162 HD
HETATM   14  O2  UNL     1       2.871  -2.346   4.095  1.00  0.00    -0.273 OA
BRANCH  12  15
HETATM   15  C4  UNL     1       2.433  -4.258   6.105  1.00  0.00     0.124 C 
BRANCH  15  16
HETATM   16  C3  UNL     1       2.341  -5.531   5.277  1.00  0.00     0.046 C 
BRANCH  16  17
HETATM   17  C2  UNL     1       3.441  -6.480   5.730  1.00  0.00     0.168 C 
BRANCH  17  18
HETATM   18  O1  UNL     1       4.684  -5.910   5.777  1.00  0.00    -0.396 OA
HETATM   19  C1  UNL     1       5.415  -6.127   6.914  1.00  0.00     0.201 C 
ENDBRANCH  17  18
ENDBRANCH  16  17
ENDBRANCH  15  16
ENDBRANCH  12  15
ENDBRANCH   9  11
BRANCH  10  20
HETATM   20  C14 UNL     1       0.279  -2.739   2.311  1.00  0.00     0.241 C 
HETATM   21  O3  UNL     1       1.095  -2.487   1.360  1.00  0.00    -0.271 OA
HETATM   22  N4  UNL     1      -0.141  -4.082   2.433  1.00  0.00    -0.351 N 
ATOM     23  H4  UNL     1      -0.786  -4.307   3.190  1.00  0.00     0.163 HD
BRANCH  22  24
HETATM   24  C15 UNL     1       0.271  -5.146   1.576  1.00  0.00     0.022 C 
HETATM   25  C16 UNL     1       1.738  -5.294   1.354  1.00  0.00     0.037 C 
HETATM   26  C17 UNL     1      -0.195  -6.474   2.194  1.00  0.00     0.037 C 
HETATM   27  C18 UNL     1      -0.427  -5.075   0.231  1.00  0.00     0.037 C 
ENDBRANCH  22  24
ENDBRANCH  10  20
ENDBRANCH   1   5
TORSDOF 8
ENDMDL
MODEL 5
REMARK VINA RESULT: -6.159689849      3.495      6.286
REMARK  8 active torsions:
REMARK  status: ('A' for Active; 'I' for Inactive)
REMARK    1  A    between atoms: O1_2  and  C2_3 
REMARK    2  A    between atoms: C2_3  and  C3_4 
REMARK    3  A    between atoms: C3_4  and  C4_5 
REMARK    4  A    between atoms: C4_5  and  N1_6 
REMARK       I    between atoms: N1_6  and  C5_8 
REMARK    5  A    between atoms: C5_8  and  C6_10 
REMARK    6  A    between atoms: N2_14  and  C10_15 
REMARK    7  A    between atoms: C13_19  and  C14_20 
REMARK       I    between atoms: C14_20  and  N4_22 
REMARK    8  A    between atoms: N4_22  and  C15_24 
ROOT
HETATM    1  C10 UNL     1       3.182  -5.979   6.658  1.00  0.00     0.183 C 
HETATM    2  C11 UNL     1       2.790  -5.404   8.028  1.00  0.00     0.048 C 
HETATM    3  C12 UNL     1       4.622  -5.994   6.625  1.00  0.00     0.084 C 
HETATM    4  N3  UNL     1       5.799  -6.013   6.617  1.00  0.00    -0.195 NA
ENDROOT
BRANCH   1   5
HETATM    5  N2  UNL     1       2.616  -5.191   5.663  1.00  0.00    -0.383 N 
HETATM    6  C9  UNL     1       1.595  -4.299   5.972  1.00  0.00     0.119 C 
HETATM    7  C8  UNL     1       1.991  -2.977   5.292  1.00  0.00     0.020 C 
HETATM    8  C7  UNL     1       1.916  -3.235   3.839  1.00  0.00     0.018 C 
HETATM    9  C6  UNL     1       2.626  -4.468   3.330  1.00  0.00     0.109 C 
HETATM   10  C13 UNL     1       2.800  -5.578   4.291  1.00  0.00     0.186 C 
BRANCH   9  11
HETATM   11  C5  UNL     1       1.945  -4.810   2.060  1.00  0.00     0.224 C 
HETATM   12  N1  UNL     1       2.682  -5.324   0.969  1.00  0.00    -0.361 N 
ATOM     13  H1  UNL     1       3.688  -5.436   1.093  1.00  0.00     0.162 HD
HETATM   14  O2  UNL     1       0.686  -4.668   1.885  1.00  0.00    -0.273 OA
BRANCH  12  15
HETATM   15  C4  UNL     1       2.133  -5.698  -0.290  1.00  0.00     0.124 C 
BRANCH  15  16
HETATM   16  C3  UNL     1       2.056  -7.203  -0.497  1.00  0.00     0.046 C 
BRANCH  16  17
HETATM   17  C2  UNL     1       3.467  -7.730  -0.717  1.00  0.00     0.168 C 
BRANCH  17  18
HETATM   18  O1  UNL     1       4.373  -6.768  -1.068  1.00  0.00    -0.396 OA
HETATM   19  C1  UNL     1       5.626  -7.201  -1.410  1.00  0.00     0.201 C 
ENDBRANCH  17  18
ENDBRANCH  16  17
ENDBRANCH  15  16
ENDBRANCH  12  15
ENDBRANCH   9  11
BRANCH  10  20
HETATM   20  C14 UNL     1       2.134  -6.854   3.999  1.00  0.00     0.241 C 
HETATM   21  O3  UNL     1       0.921  -6.967   4.388  1.00  0.00    -0.271 OA
HETATM   22  N4  UNL     1       2.685  -7.975   3.340  1.00  0.00    -0.351 N 
ATOM     23  H4  UNL     1       3.649  -7.903   3.014  1.00  0.00     0.163 HD
BRANCH  22  24
HETATM   24  C15 UNL     1       1.993  -9.198   3.095  1.00  0.00     0.022 C 
HETATM   25  C16 UNL     1       0.699  -9.098   2.362  1.00  0.00     0.037 C 
HETATM   26  C17 UNL     1       2.893 -10.100   2.235  1.00  0.00     0.037 C 
HETATM   27  C18 UNL     1       1.774  -9.976   4.380  1.00  0.00     0.037 C 
ENDBRANCH  22  24
ENDBRANCH  10  20
ENDBRANCH   1   5
TORSDOF 8
ENDMDL
