MODEL 1
REMARK VINA RESULT: -5.438277796      0.000      0.000
REMARK  3 active torsions:
REMARK  status: ('A' for Active; 'I' for Inactive)
REMARK       I    between atoms: C1_4  and  N3_6 
REMARK    1  A    between atoms: N3_6  and  N4_8 
REMARK    2  A    between atoms: N4_8  and  C2_9 
REMARK    3  A    between atoms: C2_9  and  C3_10 
ROOT
HETATM    1  C3  UNL     1     -36.050 -30.548  -6.586  1.00  0.00     0.136 C 
HETATM    2  N5  UNL     1     -34.869 -30.561  -7.230  1.00  0.00    -0.302 N 
ATOM      3  H5  UNL     1     -34.115 -30.067  -6.752  1.00  0.00     0.171 HD
HETATM    4  C4  UNL     1     -34.522 -31.125  -8.410  1.00  0.00     0.328 C 
HETATM    5  O1  UNL     1     -33.299 -31.138  -8.626  1.00  0.00    -0.247 OA
HETATM    6  N6  UNL     1     -35.366 -31.635  -9.300  1.00  0.00    -0.260 N 
ATOM      7  H6  UNL     1     -35.003 -31.723 -10.250  1.00  0.00     0.175 HD
HETATM    8  C5  UNL     1     -36.635 -32.054  -9.123  1.00  0.00     0.331 C 
HETATM    9  O2  UNL     1     -37.111 -32.681 -10.103  1.00  0.00    -0.246 OA
HETATM   10  N7  UNL     1     -37.440 -31.894  -8.059  1.00  0.00    -0.273 N 
ATOM     11  H7  UNL     1     -38.409 -32.189  -8.172  1.00  0.00     0.173 HD
HETATM   12  C6  UNL     1     -37.100 -31.386  -6.861  1.00  0.00     0.278 C 
HETATM   13  O3  UNL     1     -37.787 -31.680  -5.853  1.00  0.00    -0.265 OA
ENDROOT
BRANCH   1  14
HETATM   14  C2  UNL     1     -36.198 -29.557  -5.525  1.00  0.00     0.244 C 
BRANCH  14  15
HETATM   15  N4  UNL     1     -37.117 -28.862  -5.346  1.00  0.00    -0.334 NA
BRANCH  15  16
HETATM   16  N3  UNL     1     -38.135 -28.131  -5.097  1.00  0.00    -0.207 N 
HETATM   17  C1  UNL     1     -39.393 -28.730  -4.707  1.00  0.00     0.211 C 
HETATM   18  N1  UNL     1     -39.920 -29.552  -5.495  1.00  0.00    -0.372 N 
HETATM   19  N2  UNL     1     -39.951 -28.367  -3.488  1.00  0.00    -0.062 NA
ATOM     20  H12 UNL     1     -40.806 -29.975  -5.220  1.00  0.00     0.158 HD
ATOM     21  H11 UNL     1     -39.511 -29.819  -6.390  1.00  0.00     0.158 HD
ATOM     22  H3  UNL     1     -38.060 -27.116  -5.173  1.00  0.00     0.204 HD
ENDBRANCH  15  16
ENDBRANCH  14  15
ENDBRANCH   1  14
TORSDOF 3
ENDMDL
MODEL 2
REMARK VINA RESULT: -5.359384084      3.460      5.658
REMARK  3 active torsions:
REMARK  status: ('A' for Active; 'I' for Inactive)
REMARK       I    between atoms: C1_4  and  N3_6 
REMARK    1  A    between atoms: N3_6  and  N4_8 
REMARK    2  A    between atoms: N4_8  and  C2_9 
REMARK    3  A    between atoms: C2_9  and  C3_10 
ROOT
HETATM    1  C3  UNL     1     -40.020 -29.769  -3.545  1.00  0.00     0.136 C 
HETATM    2  N5  UNL     1     -39.633 -31.033  -3.795  1.00  0.00    -0.302 N 
ATOM      3  H5  UNL     1     -40.253 -31.753  -3.423  1.00  0.00     0.171 HD
HETATM    4  C4  UNL     1     -38.551 -31.501  -4.460  1.00  0.00     0.328 C 
HETATM    5  O1  UNL     1     -38.592 -32.720  -4.700  1.00  0.00    -0.247 OA
HETATM    6  N6  UNL     1     -37.509 -30.775  -4.849  1.00  0.00    -0.260 N 
ATOM      7  H6  UNL     1     -36.655 -31.299  -5.040  1.00  0.00     0.175 HD
HETATM    8  C5  UNL     1     -37.424 -29.441  -5.028  1.00  0.00     0.331 C 
HETATM    9  O2  UNL     1     -36.370 -29.066  -5.600  1.00  0.00    -0.246 OA
HETATM   10  N7  UNL     1     -38.299 -28.482  -4.682  1.00  0.00    -0.273 N 
ATOM     11  H7  UNL     1     -37.991 -27.518  -4.804  1.00  0.00     0.173 HD
HETATM   12  C6  UNL     1     -39.539 -28.661  -4.193  1.00  0.00     0.278 C 
HETATM   13  O3  UNL     1     -40.385 -27.744  -4.317  1.00  0.00    -0.265 OA
ENDROOT
BRANCH   1  14
HETATM   14  C2  UNL     1     -41.023 -29.595  -2.499  1.00  0.00     0.244 C 
BRANCH  14  15
HETATM   15  N4  UNL     1     -40.885 -29.809  -1.361  1.00  0.00    -0.334 NA
BRANCH  15  16
HETATM   16  N3  UNL     1     -40.719 -29.983  -0.105  1.00  0.00    -0.207 N 
HETATM   17  C1  UNL     1     -41.860 -30.098   0.778  1.00  0.00     0.211 C 
HETATM   18  N1  UNL     1     -42.675 -29.144   0.810  1.00  0.00    -0.372 N 
HETATM   19  N2  UNL     1     -41.993 -31.250   1.542  1.00  0.00    -0.062 NA
ATOM     20  H12 UNL     1     -43.478 -29.225   1.433  1.00  0.00     0.158 HD
ATOM     21  H11 UNL     1     -42.577 -28.298   0.250  1.00  0.00     0.158 HD
ATOM     22  H3  UNL     1     -39.775 -30.042   0.277  1.00  0.00     0.204 HD
ENDBRANCH  15  16
ENDBRANCH  14  15
ENDBRANCH   1  14
TORSDOF 3
ENDMDL
MODEL 3
REMARK VINA RESULT: -5.284573623      3.295      5.368
REMARK  3 active torsions:
REMARK  status: ('A' for Active; 'I' for Inactive)
REMARK       I    between atoms: C1_4  and  N3_6 
REMARK    1  A    between atoms: N3_6  and  N4_8 
REMARK    2  A    between atoms: N4_8  and  C2_9 
REMARK    3  A    between atoms: C2_9  and  C3_10 
ROOT
HETATM    1  C3  UNL     1     -39.752 -30.578  -6.269  1.00  0.00     0.136 C 
HETATM    2  N5  UNL     1     -40.140 -29.544  -5.501  1.00  0.00    -0.302 N 
ATOM      3  H5  UNL     1     -41.150 -29.427  -5.417  1.00  0.00     0.171 HD
HETATM    4  C4  UNL     1     -39.403 -28.635  -4.822  1.00  0.00     0.328 C 
HETATM    5  O1  UNL     1     -40.062 -27.934  -4.036  1.00  0.00    -0.247 OA
HETATM    6  N6  UNL     1     -38.092 -28.458  -4.941  1.00  0.00    -0.260 N 
ATOM      7  H6  UNL     1     -37.740 -27.554  -4.626  1.00  0.00     0.175 HD
HETATM    8  C5  UNL     1     -37.161 -29.307  -5.421  1.00  0.00     0.331 C 
HETATM    9  O2  UNL     1     -35.977 -28.941  -5.216  1.00  0.00    -0.246 OA
HETATM   10  N7  UNL     1     -37.331 -30.470  -6.074  1.00  0.00    -0.273 N 
ATOM     11  H7  UNL     1     -36.491 -30.905  -6.455  1.00  0.00     0.173 HD
HETATM   12  C6  UNL     1     -38.492 -31.118  -6.277  1.00  0.00     0.278 C 
HETATM   13  O3  UNL     1     -38.473 -32.352  -6.502  1.00  0.00    -0.265 OA
ENDROOT
BRANCH   1  14
HETATM   14  C2  UNL     1     -40.767 -31.145  -7.152  1.00  0.00     0.244 C 
BRANCH  14  15
HETATM   15  N4  UNL     1     -41.633 -30.566  -7.677  1.00  0.00    -0.334 NA
BRANCH  15  16
HETATM   16  N3  UNL     1     -42.582 -29.975  -8.296  1.00  0.00    -0.207 N 
HETATM   17  C1  UNL     1     -43.954 -30.136  -7.864  1.00  0.00     0.211 C 
HETATM   18  N1  UNL     1     -44.426 -31.298  -7.829  1.00  0.00    -0.372 N 
HETATM   19  N2  UNL     1     -44.676 -29.003  -7.513  1.00  0.00    -0.062 NA
ATOM     20  H12 UNL     1     -45.392 -31.411  -7.524  1.00  0.00     0.158 HD
ATOM     21  H11 UNL     1     -43.896 -32.131  -8.087  1.00  0.00     0.158 HD
ATOM     22  H3  UNL     1     -42.371 -29.385  -9.101  1.00  0.00     0.204 HD
ENDBRANCH  15  16
ENDBRANCH  14  15
ENDBRANCH   1  14
TORSDOF 3
ENDMDL
MODEL 4
REMARK VINA RESULT: -5.277582387      3.299      5.284
REMARK  3 active torsions:
REMARK  status: ('A' for Active; 'I' for Inactive)
REMARK       I    between atoms: C1_4  and  N3_6 
REMARK    1  A    between atoms: N3_6  and  N4_8 
REMARK    2  A    between atoms: N4_8  and  C2_9 
REMARK    3  A    between atoms: C2_9  and  C3_10 
ROOT
HETATM    1  C3  UNL     1     -39.927 -29.611  -3.667  1.00  0.00     0.136 C 
HETATM    2  N5  UNL     1     -39.599 -30.904  -3.846  1.00  0.00    -0.302 N 
ATOM      3  H5  UNL     1     -40.265 -31.573  -3.459  1.00  0.00     0.171 HD
HETATM    4  C4  UNL     1     -38.526 -31.457  -4.457  1.00  0.00     0.328 C 
HETATM    5  O1  UNL     1     -38.623 -32.682  -4.640  1.00  0.00    -0.247 OA
HETATM    6  N6  UNL     1     -37.438 -30.804  -4.851  1.00  0.00    -0.260 N 
ATOM      7  H6  UNL     1     -36.607 -31.379  -4.991  1.00  0.00     0.175 HD
HETATM    8  C5  UNL     1     -37.280 -29.487  -5.089  1.00  0.00     0.331 C 
HETATM    9  O2  UNL     1     -36.193 -29.193  -5.648  1.00  0.00    -0.246 OA
HETATM   10  N7  UNL     1     -38.113 -28.469  -4.815  1.00  0.00    -0.273 N 
ATOM     11  H7  UNL     1     -37.752 -27.528  -4.973  1.00  0.00     0.173 HD
HETATM   12  C6  UNL     1     -39.373 -28.561  -4.353  1.00  0.00     0.278 C 
HETATM   13  O3  UNL     1     -40.167 -27.610  -4.545  1.00  0.00    -0.265 OA
ENDROOT
BRANCH   1  14
HETATM   14  C2  UNL     1     -40.947 -29.336  -2.660  1.00  0.00     0.244 C 
BRANCH  14  15
HETATM   15  N4  UNL     1     -42.066 -29.075  -2.858  1.00  0.00    -0.334 NA
BRANCH  15  16
HETATM   16  N3  UNL     1     -43.274 -28.741  -3.110  1.00  0.00    -0.207 N 
HETATM   17  C1  UNL     1     -44.132 -29.611  -3.886  1.00  0.00     0.211 C 
HETATM   18  N1  UNL     1     -43.760 -29.920  -5.044  1.00  0.00    -0.372 N 
HETATM   19  N2  UNL     1     -45.316 -30.057  -3.314  1.00  0.00    -0.062 NA
ATOM     20  H12 UNL     1     -44.364 -30.533  -5.590  1.00  0.00     0.158 HD
ATOM     21  H11 UNL     1     -42.890 -29.593  -5.464  1.00  0.00     0.158 HD
ATOM     22  H3  UNL     1     -43.637 -27.853  -2.761  1.00  0.00     0.204 HD
ENDBRANCH  15  16
ENDBRANCH  14  15
ENDBRANCH   1  14
TORSDOF 3
ENDMDL
MODEL 5
REMARK VINA RESULT: -5.048538484      2.992      5.074
REMARK  3 active torsions:
REMARK  status: ('A' for Active; 'I' for Inactive)
REMARK       I    between atoms: C1_4  and  N3_6 
REMARK    1  A    between atoms: N3_6  and  N4_8 
REMARK    2  A    between atoms: N4_8  and  C2_9 
REMARK    3  A    between atoms: C2_9  and  C3_10 
ROOT
HETATM    1  C3  UNL     1     -40.132 -29.874  -4.705  1.00  0.00     0.136 C 
HETATM    2  N5  UNL     1     -39.817 -30.896  -5.522  1.00  0.00    -0.302 N 
ATOM      3  H5  UNL     1     -40.550 -31.597  -5.633  1.00  0.00     0.171 HD
HETATM    4  C4  UNL     1     -38.684 -31.141  -6.218  1.00  0.00     0.328 C 
HETATM    5  O1  UNL     1     -38.787 -32.062  -7.047  1.00  0.00    -0.247 OA
HETATM    6  N6  UNL     1     -37.533 -30.493  -6.076  1.00  0.00    -0.260 N 
ATOM      7  H6  UNL     1     -36.707 -30.984  -6.418  1.00  0.00     0.175 HD
HETATM    8  C5  UNL     1     -37.306 -29.276  -5.542  1.00  0.00     0.331 C 
HETATM    9  O2  UNL     1     -36.142 -28.841  -5.734  1.00  0.00    -0.246 OA
HETATM   10  N7  UNL     1     -38.142 -28.485  -4.848  1.00  0.00    -0.273 N 
ATOM     11  H7  UNL     1     -37.736 -27.648  -4.431  1.00  0.00     0.173 HD
HETATM   12  C6  UNL     1     -39.457 -28.683  -4.647  1.00  0.00     0.278 C 
HETATM   13  O3  UNL     1     -40.189 -27.702  -4.373  1.00  0.00    -0.265 OA
ENDROOT
BRANCH   1  14
HETATM   14  C2  UNL     1     -41.278 -30.079  -3.824  1.00  0.00     0.244 C 
BRANCH  14  15
HETATM   15  N4  UNL     1     -41.243 -30.352  -2.691  1.00  0.00    -0.334 NA
BRANCH  15  16
HETATM   16  N3  UNL     1     -41.229 -30.595  -1.436  1.00  0.00    -0.207 N 
HETATM   17  C1  UNL     1     -42.255 -30.053  -0.571  1.00  0.00     0.211 C 
HETATM   18  N1  UNL     1     -42.392 -28.806  -0.536  1.00  0.00    -0.372 N 
HETATM   19  N2  UNL     1     -43.028 -30.933   0.174  1.00  0.00    -0.062 NA
ATOM     20  H12 UNL     1     -43.115 -28.423   0.074  1.00  0.00     0.158 HD
ATOM     21  H11 UNL     1     -41.825 -28.159  -1.082  1.00  0.00     0.158 HD
ATOM     22  H3  UNL     1     -40.490 -31.177  -1.042  1.00  0.00     0.204 HD
ENDBRANCH  15  16
ENDBRANCH  14  15
ENDBRANCH   1  14
TORSDOF 3
ENDMDL
