MODEL 1
REMARK VINA RESULT: -4.889216633      0.000      0.000
REMARK  4 active torsions:
REMARK  status: ('A' for Active; 'I' for Inactive)
REMARK    1  A    between atoms: C5_13  and  C6_14 
REMARK    2  A    between atoms: C6_14  and  C7_15 
REMARK    3  A    between atoms: C7_15  and  N4_16 
REMARK    4  A    between atoms: C7_15  and  N5_20 
ROOT
HETATM    1  N1  UNL     1     -40.002 -32.704  -3.880  1.00  0.00    -0.082 NA
HETATM    2  C1  UNL     1     -39.446 -31.443  -4.227  1.00  0.00     0.131 C 
HETATM    3  N2  UNL     1     -38.100 -31.422  -4.440  1.00  0.00    -0.307 N 
ATOM      4  H2  UNL     1     -37.633 -32.329  -4.406  1.00  0.00     0.170 HD
HETATM    5  C2  UNL     1     -37.302 -30.365  -4.690  1.00  0.00     0.315 C 
HETATM    6  O1  UNL     1     -36.075 -30.605  -4.573  1.00  0.00    -0.262 OA
HETATM    7  C3  UNL     1     -37.701 -29.100  -5.047  1.00  0.00     0.316 C 
HETATM    8  O2  UNL     1     -36.826 -28.405  -5.606  1.00  0.00    -0.262 OA
HETATM    9  N3  UNL     1     -38.885 -28.484  -4.895  1.00  0.00    -0.285 N 
ATOM     10  H3  UNL     1     -38.931 -27.511  -5.199  1.00  0.00     0.172 HD
HETATM   11  C4  UNL     1     -40.030 -29.010  -4.381  1.00  0.00     0.258 C 
HETATM   12  O3  UNL     1     -40.875 -28.198  -3.939  1.00  0.00    -0.267 OA
HETATM   13  C5  UNL     1     -40.313 -30.364  -4.318  1.00  0.00     0.055 C 
ENDROOT
BRANCH  13  14
HETATM   14  C6  UNL     1     -41.751 -30.692  -4.364  1.00  0.00     0.110 C 
BRANCH  14  15
HETATM   15  C7  UNL     1     -42.270 -30.757  -5.785  1.00  0.00     0.382 C 
BRANCH  15  16
HETATM   16  N4  UNL     1     -42.255 -32.144  -6.195  1.00  0.00    -0.050 N 
ATOM     17  H43 UNL     1     -41.848 -32.761  -5.493  1.00  0.00     0.276 HD
ATOM     18  H42 UNL     1     -43.186 -32.561  -6.216  1.00  0.00     0.276 HD
ATOM     19  H41 UNL     1     -41.776 -32.196  -7.094  1.00  0.00     0.276 HD
ENDBRANCH  15  16
BRANCH  15  20
HETATM   20  N5  UNL     1     -43.640 -30.274  -5.863  1.00  0.00    -0.050 N 
ATOM     21  H53 UNL     1     -44.199 -30.832  -6.508  1.00  0.00     0.276 HD
ATOM     22  H52 UNL     1     -44.155 -30.466  -5.004  1.00  0.00     0.276 HD
ATOM     23  H51 UNL     1     -43.665 -29.283  -6.103  1.00  0.00     0.276 HD
ENDBRANCH  15  20
ENDBRANCH  14  15
ENDBRANCH  13  14
TORSDOF 4
ENDMDL
MODEL 2
REMARK VINA RESULT: -4.888915987      1.292      1.672
REMARK  4 active torsions:
REMARK  status: ('A' for Active; 'I' for Inactive)
REMARK    1  A    between atoms: C5_13  and  C6_14 
REMARK    2  A    between atoms: C6_14  and  C7_15 
REMARK    3  A    between atoms: C7_15  and  N4_16 
REMARK    4  A    between atoms: C7_15  and  N5_20 
ROOT
HETATM    1  N1  UNL     1     -40.164 -32.319  -3.759  1.00  0.00    -0.082 NA
HETATM    2  C1  UNL     1     -39.450 -31.170  -4.194  1.00  0.00     0.131 C 
HETATM    3  N2  UNL     1     -38.109 -31.333  -4.376  1.00  0.00    -0.307 N 
ATOM      4  H2  UNL     1     -37.760 -32.285  -4.258  1.00  0.00     0.170 HD
HETATM    5  C2  UNL     1     -37.182 -30.408  -4.692  1.00  0.00     0.315 C 
HETATM    6  O1  UNL     1     -35.996 -30.787  -4.527  1.00  0.00    -0.262 OA
HETATM    7  C3  UNL     1     -37.416 -29.136  -5.159  1.00  0.00     0.316 C 
HETATM    8  O2  UNL     1     -36.452 -28.604  -5.752  1.00  0.00    -0.262 OA
HETATM    9  N3  UNL     1     -38.515 -28.369  -5.085  1.00  0.00    -0.285 N 
ATOM     10  H3  UNL     1     -38.435 -27.426  -5.467  1.00  0.00     0.172 HD
HETATM   11  C4  UNL     1     -39.723 -28.705  -4.557  1.00  0.00     0.258 C 
HETATM   12  O3  UNL     1     -40.466 -27.761  -4.202  1.00  0.00    -0.267 OA
HETATM   13  C5  UNL     1     -40.174 -30.004  -4.392  1.00  0.00     0.055 C 
ENDROOT
BRANCH  13  14
HETATM   14  C6  UNL     1     -41.641 -30.155  -4.444  1.00  0.00     0.110 C 
BRANCH  14  15
HETATM   15  C7  UNL     1     -42.279 -29.936  -3.088  1.00  0.00     0.382 C 
BRANCH  15  16
HETATM   16  N4  UNL     1     -43.239 -28.862  -3.223  1.00  0.00    -0.050 N 
ATOM     17  H43 UNL     1     -42.888 -28.084  -3.781  1.00  0.00     0.276 HD
ATOM     18  H42 UNL     1     -44.028 -29.109  -3.820  1.00  0.00     0.276 HD
ATOM     19  H41 UNL     1     -43.522 -28.581  -2.285  1.00  0.00     0.276 HD
ENDBRANCH  15  16
BRANCH  15  20
HETATM   20  N5  UNL     1     -42.988 -31.127  -2.646  1.00  0.00    -0.050 N 
ATOM     21  H53 UNL     1     -42.360 -31.925  -2.554  1.00  0.00     0.276 HD
ATOM     22  H52 UNL     1     -43.284 -31.048  -1.673  1.00  0.00     0.276 HD
ATOM     23  H51 UNL     1     -43.773 -31.334  -3.263  1.00  0.00     0.276 HD
ENDBRANCH  15  20
ENDBRANCH  14  15
ENDBRANCH  13  14
TORSDOF 4
ENDMDL
MODEL 3
REMARK VINA RESULT: -4.865827199      2.204      3.425
REMARK  4 active torsions:
REMARK  status: ('A' for Active; 'I' for Inactive)
REMARK    1  A    between atoms: C5_13  and  C6_14 
REMARK    2  A    between atoms: C6_14  and  C7_15 
REMARK    3  A    between atoms: C7_15  and  N4_16 
REMARK    4  A    between atoms: C7_15  and  N5_20 
ROOT
HETATM    1  N1  UNL     1     -40.975 -28.115  -3.935  1.00  0.00    -0.082 NA
HETATM    2  C1  UNL     1     -39.898 -29.023  -4.121  1.00  0.00     0.131 C 
HETATM    3  N2  UNL     1     -38.728 -28.480  -4.562  1.00  0.00    -0.307 N 
ATOM      4  H2  UNL     1     -38.716 -27.463  -4.641  1.00  0.00     0.170 HD
HETATM    5  C2  UNL     1     -37.586 -29.105  -4.907  1.00  0.00     0.315 C 
HETATM    6  O1  UNL     1     -36.770 -28.382  -5.532  1.00  0.00    -0.262 OA
HETATM    7  C3  UNL     1     -37.251 -30.412  -4.645  1.00  0.00     0.316 C 
HETATM    8  O2  UNL     1     -36.029 -30.667  -4.692  1.00  0.00    -0.262 OA
HETATM    9  N3  UNL     1     -38.027 -31.466  -4.343  1.00  0.00    -0.285 N 
ATOM     10  H3  UNL     1     -37.551 -32.362  -4.237  1.00  0.00     0.172 HD
HETATM   11  C4  UNL     1     -39.376 -31.475  -4.164  1.00  0.00     0.258 C 
HETATM   12  O3  UNL     1     -39.956 -32.575  -4.306  1.00  0.00    -0.267 OA
HETATM   13  C5  UNL     1     -40.132 -30.360  -3.839  1.00  0.00     0.055 C 
ENDROOT
BRANCH  13  14
HETATM   14  C6  UNL     1     -41.360 -30.655  -3.076  1.00  0.00     0.110 C 
BRANCH  14  15
HETATM   15  C7  UNL     1     -41.132 -30.555  -1.582  1.00  0.00     0.382 C 
BRANCH  15  16
HETATM   16  N4  UNL     1     -41.866 -29.405  -1.103  1.00  0.00    -0.050 N 
ATOM     17  H43 UNL     1     -42.839 -29.400  -1.406  1.00  0.00     0.276 HD
ATOM     18  H42 UNL     1     -42.040 -29.435  -0.098  1.00  0.00     0.276 HD
ATOM     19  H41 UNL     1     -41.356 -28.570  -1.392  1.00  0.00     0.276 HD
ENDBRANCH  15  16
BRANCH  15  20
HETATM   20  N5  UNL     1     -41.638 -31.735  -0.897  1.00  0.00    -0.050 N 
ATOM     21  H53 UNL     1     -41.181 -32.585  -1.225  1.00  0.00     0.276 HD
ATOM     22  H52 UNL     1     -41.336 -31.762   0.077  1.00  0.00     0.276 HD
ATOM     23  H51 UNL     1     -42.652 -31.798  -0.978  1.00  0.00     0.276 HD
ENDBRANCH  15  20
ENDBRANCH  14  15
ENDBRANCH  13  14
TORSDOF 4
ENDMDL
MODEL 4
REMARK VINA RESULT: -4.836266033      2.559      4.944
REMARK  4 active torsions:
REMARK  status: ('A' for Active; 'I' for Inactive)
REMARK    1  A    between atoms: C5_13  and  C6_14 
REMARK    2  A    between atoms: C6_14  and  C7_15 
REMARK    3  A    between atoms: C7_15  and  N4_16 
REMARK    4  A    between atoms: C7_15  and  N5_20 
ROOT
HETATM    1  N1  UNL     1     -38.211 -32.304  -7.138  1.00  0.00    -0.082 NA
HETATM    2  C1  UNL     1     -38.350 -31.128  -6.351  1.00  0.00     0.131 C 
HETATM    3  N2  UNL     1     -39.618 -30.819  -5.959  1.00  0.00    -0.307 N 
ATOM      4  H2  UNL     1     -40.335 -31.503  -6.202  1.00  0.00     0.170 HD
HETATM    5  C2  UNL     1     -40.053 -29.731  -5.294  1.00  0.00     0.315 C 
HETATM    6  O1  UNL     1     -41.300 -29.581  -5.308  1.00  0.00    -0.262 OA
HETATM    7  C3  UNL     1     -39.280 -28.811  -4.628  1.00  0.00     0.316 C 
HETATM    8  O2  UNL     1     -39.884 -28.131  -3.770  1.00  0.00    -0.262 OA
HETATM    9  N3  UNL     1     -37.974 -28.520  -4.748  1.00  0.00    -0.285 N 
ATOM     10  H3  UNL     1     -37.627 -27.752  -4.173  1.00  0.00     0.172 HD
HETATM   11  C4  UNL     1     -37.061 -29.133  -5.549  1.00  0.00     0.258 C 
HETATM   12  O3  UNL     1     -36.033 -28.479  -5.836  1.00  0.00    -0.267 OA
HETATM   13  C5  UNL     1     -37.198 -30.414  -6.058  1.00  0.00     0.055 C 
ENDROOT
BRANCH  13  14
HETATM   14  C6  UNL     1     -35.923 -31.111  -6.312  1.00  0.00     0.110 C 
BRANCH  14  15
HETATM   15  C7  UNL     1     -35.502 -31.005  -7.763  1.00  0.00     0.382 C 
BRANCH  15  16
HETATM   16  N4  UNL     1     -34.264 -30.258  -7.807  1.00  0.00    -0.050 N 
ATOM     17  H43 UNL     1     -34.312 -29.379  -7.293  1.00  0.00     0.276 HD
ATOM     18  H42 UNL     1     -33.519 -30.691  -7.261  1.00  0.00     0.276 HD
ATOM     19  H41 UNL     1     -34.014 -30.130  -8.787  1.00  0.00     0.276 HD
ENDBRANCH  15  16
BRANCH  15  20
HETATM   20  N5  UNL     1     -35.259 -32.321  -8.334  1.00  0.00    -0.050 N 
ATOM     21  H53 UNL     1     -35.496 -33.065  -7.678  1.00  0.00     0.276 HD
ATOM     22  H52 UNL     1     -35.932 -32.541  -9.068  1.00  0.00     0.276 HD
ATOM     23  H51 UNL     1     -34.299 -32.404  -8.667  1.00  0.00     0.276 HD
ENDBRANCH  15  20
ENDBRANCH  14  15
ENDBRANCH  13  14
TORSDOF 4
ENDMDL
MODEL 5
REMARK VINA RESULT: -4.773525488      2.900      4.367
REMARK  4 active torsions:
REMARK  status: ('A' for Active; 'I' for Inactive)
REMARK    1  A    between atoms: C5_13  and  C6_14 
REMARK    2  A    between atoms: C6_14  and  C7_15 
REMARK    3  A    between atoms: C7_15  and  N4_16 
REMARK    4  A    between atoms: C7_15  and  N5_20 
ROOT
HETATM    1  N1  UNL     1     -39.723 -31.932  -6.517  1.00  0.00    -0.082 NA
HETATM    2  C1  UNL     1     -38.356 -31.629  -6.758  1.00  0.00     0.131 C 
HETATM    3  N2  UNL     1     -37.843 -32.079  -7.937  1.00  0.00    -0.307 N 
ATOM      4  H2  UNL     1     -38.511 -32.522  -8.568  1.00  0.00     0.170 HD
HETATM    5  C2  UNL     1     -36.573 -32.018  -8.382  1.00  0.00     0.315 C 
HETATM    6  O1  UNL     1     -36.337 -32.749  -9.376  1.00  0.00    -0.262 OA
HETATM    7  C3  UNL     1     -35.555 -31.253  -7.863  1.00  0.00     0.316 C 
HETATM    8  O2  UNL     1     -34.600 -31.042  -8.641  1.00  0.00    -0.262 OA
HETATM    9  N3  UNL     1     -35.419 -30.693  -6.650  1.00  0.00    -0.285 N 
ATOM     10  H3  UNL     1     -34.541 -30.204  -6.475  1.00  0.00     0.172 HD
HETATM   11  C4  UNL     1     -36.318 -30.702  -5.629  1.00  0.00     0.258 C 
HETATM   12  O3  UNL     1     -35.866 -30.507  -4.478  1.00  0.00    -0.267 OA
HETATM   13  C5  UNL     1     -37.679 -30.911  -5.783  1.00  0.00     0.055 C 
ENDROOT
BRANCH  13  14
HETATM   14  C6  UNL     1     -38.517 -30.262  -4.758  1.00  0.00     0.110 C 
BRANCH  14  15
HETATM   15  C7  UNL     1     -38.782 -28.807  -5.083  1.00  0.00     0.382 C 
BRANCH  15  16
HETATM   16  N4  UNL     1     -39.584 -28.257  -4.012  1.00  0.00    -0.050 N 
ATOM     17  H43 UNL     1     -39.190 -27.401  -3.621  1.00  0.00     0.276 HD
ATOM     18  H42 UNL     1     -40.465 -27.861  -4.339  1.00  0.00     0.276 HD
ATOM     19  H41 UNL     1     -39.712 -28.989  -3.314  1.00  0.00     0.276 HD
ENDBRANCH  15  16
BRANCH  15  20
HETATM   20  N5  UNL     1     -37.540 -28.054  -5.155  1.00  0.00    -0.050 N 
ATOM     21  H53 UNL     1     -37.176 -27.839  -4.227  1.00  0.00     0.276 HD
ATOM     22  H52 UNL     1     -36.770 -28.631  -5.494  1.00  0.00     0.276 HD
ATOM     23  H51 UNL     1     -37.655 -27.212  -5.719  1.00  0.00     0.276 HD
ENDBRANCH  15  20
ENDBRANCH  14  15
ENDBRANCH  13  14
TORSDOF 4
ENDMDL
