MODEL 1
REMARK VINA RESULT: -5.400874375      0.000      0.000
REMARK  6 active torsions:
REMARK  status: ('A' for Active; 'I' for Inactive)
REMARK    1  A    between atoms: C2_2  and  C3_3 
REMARK    2  A    between atoms: C3_3  and  N1_4 
REMARK    3  A    between atoms: N1_4  and  C5_6 
REMARK    4  A    between atoms: C6_9  and  N3_11 
REMARK       I    between atoms: N3_11  and  C7_13 
REMARK    5  A    between atoms: C7_13  and  C8_15 
REMARK    6  A    between atoms: N4_21  and  C12_22 
ROOT
HETATM    1  C5  UNL     1      12.857  -7.653  22.973  1.00  0.00     0.276 C 
HETATM    2  N2  UNL     1      13.721  -7.906  21.870  1.00  0.00    -0.354 N 
ATOM      3  H2  UNL     1      14.240  -8.782  21.804  1.00  0.00     0.159 HD
HETATM    4  C6  UNL     1      13.843  -6.919  20.869  1.00  0.00     0.201 C 
HETATM    5 CL1  UNL     1      15.513  -6.238  21.001  1.00  0.00    -0.070 Cl
HETATM    6  C11 UNL     1      12.915  -5.760  20.927  1.00  0.00     0.197 C 
HETATM    7  N4  UNL     1      12.666  -5.290  22.273  1.00  0.00    -0.340 N 
HETATM    8  C15 UNL     1      12.892  -6.220  23.329  1.00  0.00     0.262 C 
HETATM    9  O2  UNL     1      13.102  -5.773  24.487  1.00  0.00    -0.269 OA
ENDROOT
BRANCH   4  10
HETATM   10  N3  UNL     1      13.802  -7.531  19.551  1.00  0.00    -0.320 N 
HETATM   11  C7  UNL     1      12.854  -8.486  19.131  1.00  0.00     0.227 C 
HETATM   12  O1  UNL     1      11.952  -8.873  19.904  1.00  0.00    -0.273 OA
ATOM     13  H3  UNL     1      14.514  -7.246  18.879  1.00  0.00     0.166 HD
BRANCH  11  14
HETATM   14  C8  UNL     1      12.891  -9.063  17.764  1.00  0.00     0.119 A 
HETATM   15  C9  UNL     1      13.272  -8.135  16.642  1.00  0.00     0.060 A 
HETATM   16  C10 UNL     1      11.870  -8.662  16.760  1.00  0.00     0.126 A 
HETATM   17 CL2  UNL     1      10.666  -7.443  17.272  1.00  0.00    -0.101 Cl
HETATM   18 CL3  UNL     1      11.340  -9.769  15.498  1.00  0.00    -0.101 Cl
ENDBRANCH  11  14
ENDBRANCH   4  10
BRANCH   1  19
HETATM   19  N1  UNL     1      13.063  -8.557  24.049  1.00  0.00    -0.369 N 
HETATM   20  C4  UNL     1      11.997  -9.455  24.315  1.00  0.00     0.151 C 
BRANCH  19  21
HETATM   21  C3  UNL     1      14.357  -8.949  24.375  1.00  0.00     0.060 C 
BRANCH  21  22
HETATM   22  C2  UNL     1      14.658  -9.279  25.802  1.00  0.00     0.040 C 
HETATM   23  C1  UNL     1      16.045  -9.749  26.083  1.00  0.00     0.010 C 
ENDBRANCH  21  22
ENDBRANCH  19  21
ENDBRANCH   1  19
BRANCH   7  24
HETATM   24  C12 UNL     1      12.206  -3.929  22.519  1.00  0.00     0.079 C 
HETATM   25  C13 UNL     1      13.362  -2.947  22.316  1.00  0.00     0.032 C 
HETATM   26  C14 UNL     1      11.059  -3.541  21.623  1.00  0.00     0.032 C 
ENDBRANCH   7  24
TORSDOF 6
ENDMDL
MODEL 2
REMARK VINA RESULT: -5.395507133      3.568      6.720
REMARK  6 active torsions:
REMARK  status: ('A' for Active; 'I' for Inactive)
REMARK    1  A    between atoms: C2_2  and  C3_3 
REMARK    2  A    between atoms: C3_3  and  N1_4 
REMARK    3  A    between atoms: N1_4  and  C5_6 
REMARK    4  A    between atoms: C6_9  and  N3_11 
REMARK       I    between atoms: N3_11  and  C7_13 
REMARK    5  A    between atoms: C7_13  and  C8_15 
REMARK    6  A    between atoms: N4_21  and  C12_22 
ROOT
HETATM    1  C5  UNL     1      14.951 -10.806  18.106  1.00  0.00     0.276 C 
HETATM    2  N2  UNL     1      14.625 -10.497  19.458  1.00  0.00    -0.354 N 
ATOM      3  H2  UNL     1      15.288 -10.681  20.210  1.00  0.00     0.159 HD
HETATM    4  C6  UNL     1      13.363  -9.929  19.733  1.00  0.00     0.201 C 
HETATM    5 CL1  UNL     1      12.404 -11.180  20.620  1.00  0.00    -0.070 Cl
HETATM    6  C11 UNL     1      12.529  -9.508  18.577  1.00  0.00     0.197 C 
HETATM    7  N4  UNL     1      12.598 -10.422  17.456  1.00  0.00    -0.340 N 
HETATM    8  C15 UNL     1      13.747 -11.260  17.383  1.00  0.00     0.262 C 
HETATM    9  O2  UNL     1      13.671 -12.324  16.712  1.00  0.00    -0.269 OA
ENDROOT
BRANCH   4  10
HETATM   10  N3  UNL     1      13.499  -8.835  20.680  1.00  0.00    -0.320 N 
HETATM   11  C7  UNL     1      14.334  -7.713  20.507  1.00  0.00     0.227 C 
HETATM   12  O1  UNL     1      15.034  -7.591  19.478  1.00  0.00    -0.273 OA
ATOM     13  H3  UNL     1      12.947  -8.883  21.536  1.00  0.00     0.166 HD
BRANCH  11  14
HETATM   14  C8  UNL     1      14.415  -6.642  21.531  1.00  0.00     0.119 A 
HETATM   15  C9  UNL     1      13.319  -6.599  22.560  1.00  0.00     0.060 A 
HETATM   16  C10 UNL     1      13.435  -5.525  21.517  1.00  0.00     0.126 A 
HETATM   17 CL2  UNL     1      12.164  -5.578  20.260  1.00  0.00    -0.101 Cl
HETATM   18 CL3  UNL     1      13.867  -3.917  22.092  1.00  0.00    -0.101 Cl
ENDBRANCH  11  14
ENDBRANCH   4  10
BRANCH   1  19
HETATM   19  N1  UNL     1      16.088 -11.651  17.997  1.00  0.00    -0.369 N 
HETATM   20  C4  UNL     1      17.035 -11.289  17.004  1.00  0.00     0.151 C 
BRANCH  19  21
HETATM   21  C3  UNL     1      16.534 -12.346  19.116  1.00  0.00     0.060 C 
BRANCH  21  22
HETATM   22  C2  UNL     1      17.983 -12.703  19.195  1.00  0.00     0.040 C 
HETATM   23  C1  UNL     1      18.493 -13.063  20.550  1.00  0.00     0.010 C 
ENDBRANCH  21  22
ENDBRANCH  19  21
ENDBRANCH   1  19
BRANCH   7  24
HETATM   24  C12 UNL     1      11.536 -10.466  16.460  1.00  0.00     0.079 C 
HETATM   25  C13 UNL     1      10.232  -9.945  17.069  1.00  0.00     0.032 C 
HETATM   26  C14 UNL     1      11.868  -9.662  15.230  1.00  0.00     0.032 C 
ENDBRANCH   7  24
TORSDOF 6
ENDMDL
MODEL 3
REMARK VINA RESULT: -5.366661903      1.201      1.286
REMARK  6 active torsions:
REMARK  status: ('A' for Active; 'I' for Inactive)
REMARK    1  A    between atoms: C2_2  and  C3_3 
REMARK    2  A    between atoms: C3_3  and  N1_4 
REMARK    3  A    between atoms: N1_4  and  C5_6 
REMARK    4  A    between atoms: C6_9  and  N3_11 
REMARK       I    between atoms: N3_11  and  C7_13 
REMARK    5  A    between atoms: C7_13  and  C8_15 
REMARK    6  A    between atoms: N4_21  and  C12_22 
ROOT
HETATM    1  C5  UNL     1      12.167  -7.539  22.500  1.00  0.00     0.276 C 
HETATM    2  N2  UNL     1      12.963  -7.754  21.338  1.00  0.00    -0.354 N 
ATOM      3  H2  UNL     1      13.350  -8.675  21.134  1.00  0.00     0.159 HD
HETATM    4  C6  UNL     1      13.205  -6.663  20.477  1.00  0.00     0.201 C 
HETATM    5 CL1  UNL     1      14.957  -6.246  20.632  1.00  0.00    -0.070 Cl
HETATM    6  C11 UNL     1      12.453  -5.406  20.728  1.00  0.00     0.197 C 
HETATM    7  N4  UNL     1      12.302  -5.099  22.135  1.00  0.00    -0.340 N 
HETATM    8  C15 UNL     1      12.414  -6.189  23.045  1.00  0.00     0.262 C 
HETATM    9  O2  UNL     1      12.710  -5.942  24.244  1.00  0.00    -0.269 OA
ENDROOT
BRANCH   4  10
HETATM   10  N3  UNL     1      13.049  -7.073  19.091  1.00  0.00    -0.320 N 
HETATM   11  C7  UNL     1      13.601  -8.239  18.524  1.00  0.00     0.227 C 
HETATM   12  O1  UNL     1      14.283  -9.024  19.217  1.00  0.00    -0.273 OA
ATOM     13  H3  UNL     1      12.497  -6.468  18.482  1.00  0.00     0.166 HD
BRANCH  11  14
HETATM   14  C8  UNL     1      13.395  -8.577  17.094  1.00  0.00     0.119 A 
HETATM   15  C9  UNL     1      12.052  -8.246  16.502  1.00  0.00     0.060 A 
HETATM   16  C10 UNL     1      12.466  -9.674  16.715  1.00  0.00     0.126 A 
HETATM   17 CL2  UNL     1      11.604 -10.500  18.046  1.00  0.00    -0.101 Cl
HETATM   18 CL3  UNL     1      12.728 -10.640  15.266  1.00  0.00    -0.101 Cl
ENDBRANCH  11  14
ENDBRANCH   4  10
BRANCH   1  19
HETATM   19  N1  UNL     1      12.264  -8.604  23.435  1.00  0.00    -0.369 N 
HETATM   20  C4  UNL     1      11.045  -9.254  23.760  1.00  0.00     0.151 C 
BRANCH  19  21
HETATM   21  C3  UNL     1      13.447  -9.331  23.525  1.00  0.00     0.060 C 
BRANCH  21  22
HETATM   22  C2  UNL     1      14.445  -8.931  24.563  1.00  0.00     0.040 C 
HETATM   23  C1  UNL     1      14.007  -9.085  25.980  1.00  0.00     0.010 C 
ENDBRANCH  21  22
ENDBRANCH  19  21
ENDBRANCH   1  19
BRANCH   7  24
HETATM   24  C12 UNL     1      12.047  -3.735  22.581  1.00  0.00     0.079 C 
HETATM   25  C13 UNL     1      13.320  -2.896  22.438  1.00  0.00     0.032 C 
HETATM   26  C14 UNL     1      10.929  -3.079  21.812  1.00  0.00     0.032 C 
ENDBRANCH   7  24
TORSDOF 6
ENDMDL
MODEL 4
REMARK VINA RESULT: -5.341913200      3.532      5.252
REMARK  6 active torsions:
REMARK  status: ('A' for Active; 'I' for Inactive)
REMARK    1  A    between atoms: C2_2  and  C3_3 
REMARK    2  A    between atoms: C3_3  and  N1_4 
REMARK    3  A    between atoms: N1_4  and  C5_6 
REMARK    4  A    between atoms: C6_9  and  N3_11 
REMARK       I    between atoms: N3_11  and  C7_13 
REMARK    5  A    between atoms: C7_13  and  C8_15 
REMARK    6  A    between atoms: N4_21  and  C12_22 
ROOT
HETATM    1  C5  UNL     1      13.630 -10.445  19.270  1.00  0.00     0.276 C 
HETATM    2  N2  UNL     1      13.207 -10.402  17.910  1.00  0.00    -0.354 N 
ATOM      3  H2  UNL     1      13.663 -10.980  17.204  1.00  0.00     0.159 HD
HETATM    4  C6  UNL     1      12.144  -9.543  17.562  1.00  0.00     0.201 C 
HETATM    5 CL1  UNL     1      12.846  -8.214  16.558  1.00  0.00    -0.070 Cl
HETATM    6  C11 UNL     1      11.401  -8.882  18.667  1.00  0.00     0.197 C 
HETATM    7  N4  UNL     1      12.254  -8.450  19.754  1.00  0.00    -0.340 N 
HETATM    8  C15 UNL     1      13.512  -9.106  19.882  1.00  0.00     0.262 C 
HETATM    9  O2  UNL     1      14.435  -8.517  20.503  1.00  0.00    -0.269 OA
ENDROOT
BRANCH   4  10
HETATM   10  N3  UNL     1      11.219 -10.223  16.671  1.00  0.00    -0.320 N 
HETATM   11  C7  UNL     1      11.592 -11.027  15.575  1.00  0.00     0.227 C 
HETATM   12  O1  UNL     1      12.797 -11.210  15.299  1.00  0.00    -0.273 OA
ATOM     13  H3  UNL     1      10.221 -10.110  16.854  1.00  0.00     0.166 HD
BRANCH  11  14
HETATM   14  C8  UNL     1      10.577 -11.680  14.713  1.00  0.00     0.119 A 
HETATM   15  C9  UNL     1      11.069 -12.315  13.440  1.00  0.00     0.060 A 
HETATM   16  C10 UNL     1      10.216 -11.079  13.402  1.00  0.00     0.126 A 
HETATM   17 CL2  UNL     1      11.090  -9.594  12.924  1.00  0.00    -0.101 Cl
HETATM   18 CL3  UNL     1       8.602 -11.262  12.722  1.00  0.00    -0.101 Cl
ENDBRANCH  11  14
ENDBRANCH   4  10
BRANCH   1  19
HETATM   19  N1  UNL     1      14.889 -11.084  19.432  1.00  0.00    -0.369 N 
HETATM   20  C4  UNL     1      14.964 -12.043  20.476  1.00  0.00     0.151 C 
BRANCH  19  21
HETATM   21  C3  UNL     1      15.728 -11.233  18.333  1.00  0.00     0.060 C 
BRANCH  21  22
HETATM   22  C2  UNL     1      16.964 -12.057  18.494  1.00  0.00     0.040 C 
HETATM   23  C1  UNL     1      18.127 -11.658  17.650  1.00  0.00     0.010 C 
ENDBRANCH  21  22
ENDBRANCH  19  21
ENDBRANCH   1  19
BRANCH   7  24
HETATM   24  C12 UNL     1      11.830  -7.394  20.665  1.00  0.00     0.079 C 
HETATM   25  C13 UNL     1      11.783  -6.056  19.921  1.00  0.00     0.032 C 
HETATM   26  C14 UNL     1      10.481  -7.671  21.277  1.00  0.00     0.032 C 
ENDBRANCH   7  24
TORSDOF 6
ENDMDL
MODEL 5
REMARK VINA RESULT: -5.338839253      1.465      1.760
REMARK  6 active torsions:
REMARK  status: ('A' for Active; 'I' for Inactive)
REMARK    1  A    between atoms: C2_2  and  C3_3 
REMARK    2  A    between atoms: C3_3  and  N1_4 
REMARK    3  A    between atoms: N1_4  and  C5_6 
REMARK    4  A    between atoms: C6_9  and  N3_11 
REMARK       I    between atoms: N3_11  and  C7_13 
REMARK    5  A    between atoms: C7_13  and  C8_15 
REMARK    6  A    between atoms: N4_21  and  C12_22 
ROOT
HETATM    1  C5  UNL     1      12.354  -7.684  22.496  1.00  0.00     0.276 C 
HETATM    2  N2  UNL     1      13.102  -7.849  21.295  1.00  0.00    -0.354 N 
ATOM      3  H2  UNL     1      13.504  -8.754  21.051  1.00  0.00     0.159 HD
HETATM    4  C6  UNL     1      13.274  -6.734  20.449  1.00  0.00     0.201 C 
HETATM    5 CL1  UNL     1      15.019  -6.270  20.535  1.00  0.00    -0.070 Cl
HETATM    6  C11 UNL     1      12.501  -5.504  20.765  1.00  0.00     0.197 C 
HETATM    7  N4  UNL     1      12.406  -5.233  22.184  1.00  0.00    -0.340 N 
HETATM    8  C15 UNL     1      12.589  -6.340  23.061  1.00  0.00     0.262 C 
HETATM    9  O2  UNL     1      12.932  -6.112  24.251  1.00  0.00    -0.269 OA
ENDROOT
BRANCH   4  10
HETATM   10  N3  UNL     1      13.066  -7.116  19.063  1.00  0.00    -0.320 N 
HETATM   11  C7  UNL     1      13.624  -8.252  18.443  1.00  0.00     0.227 C 
HETATM   12  O1  UNL     1      14.359  -9.033  19.086  1.00  0.00    -0.273 OA
ATOM     13  H3  UNL     1      12.470  -6.514  18.494  1.00  0.00     0.166 HD
BRANCH  11  14
HETATM   14  C8  UNL     1      13.362  -8.564  17.016  1.00  0.00     0.119 A 
HETATM   15  C9  UNL     1      11.990  -8.242  16.489  1.00  0.00     0.060 A 
HETATM   16  C10 UNL     1      12.435  -9.668  16.654  1.00  0.00     0.126 A 
HETATM   17 CL2  UNL     1      11.644 -10.535  18.002  1.00  0.00    -0.101 Cl
HETATM   18 CL3  UNL     1      12.650 -10.598  15.175  1.00  0.00    -0.101 Cl
ENDBRANCH  11  14
ENDBRANCH   4  10
BRANCH   1  19
HETATM   19  N1  UNL     1      12.523  -8.767  23.400  1.00  0.00    -0.369 N 
HETATM   20  C4  UNL     1      11.328  -9.324  23.926  1.00  0.00     0.151 C 
BRANCH  19  21
HETATM   21  C3  UNL     1      13.642  -9.585  23.287  1.00  0.00     0.060 C 
BRANCH  21  22
HETATM   22  C2  UNL     1      13.431 -11.039  23.016  1.00  0.00     0.040 C 
HETATM   23  C1  UNL     1      13.602 -11.468  21.598  1.00  0.00     0.010 C 
ENDBRANCH  21  22
ENDBRANCH  19  21
ENDBRANCH   1  19
BRANCH   7  24
HETATM   24  C12 UNL     1      12.134  -3.887  22.673  1.00  0.00     0.079 C 
HETATM   25  C13 UNL     1      13.311  -2.967  22.338  1.00  0.00     0.032 C 
HETATM   26  C14 UNL     1      10.869  -3.310  22.093  1.00  0.00     0.032 C 
ENDBRANCH   7  24
TORSDOF 6
ENDMDL
