MODEL 1
REMARK VINA RESULT: -6.872779550      0.000      0.000
REMARK  5 active torsions:
REMARK  status: ('A' for Active; 'I' for Inactive)
REMARK    1  A    between atoms: C3_3  and  C4_5 
REMARK       I    between atoms: C4_5  and  N1_7 
REMARK    2  A    between atoms: N1_7  and  C5_9 
REMARK       I    between atoms: N2_13  and  C8_14 
REMARK    3  A    between atoms: C8_14  and  C9_16 
REMARK    4  A    between atoms: C9_16  and  C10_17 
REMARK       I    between atoms: C10_17  and  N3_19 
REMARK    5  A    between atoms: C15_25  and  C16_26 
ROOT
HETATM    1  C5  UNL     1      13.730  -6.486  21.587  1.00  0.00     0.152 C 
HETATM    2  C6  UNL     1      14.873  -6.208  20.647  1.00  0.00     0.213 C 
HETATM    3  F1  UNL     1      16.102  -6.221  21.293  1.00  0.00    -0.245 F 
HETATM    4  C7  UNL     1      14.790  -7.296  19.625  1.00  0.00     0.166 C 
HETATM    5  N2  UNL     1      13.452  -7.837  19.698  1.00  0.00    -0.334 N 
HETATM    6  C8  UNL     1      12.709  -8.370  18.612  1.00  0.00     0.229 C 
HETATM    7  O2  UNL     1      11.539  -8.819  18.788  1.00  0.00    -0.273 OA
HETATM    8  C15 UNL     1      13.032  -7.726  21.081  1.00  0.00     0.202 C 
ENDROOT
BRANCH   6   9
HETATM    9  C9  UNL     1      13.295  -8.404  17.274  1.00  0.00     0.205 C 
BRANCH   9  10
HETATM   10  C10 UNL     1      13.571  -9.768  16.757  1.00  0.00     0.228 C 
HETATM   11  O3  UNL     1      14.604 -10.416  17.126  1.00  0.00    -0.273 OA
HETATM   12  N3  UNL     1      12.643 -10.327  15.836  1.00  0.00    -0.349 N 
HETATM   13  C11 UNL     1      12.782 -11.644  15.250  1.00  0.00     0.129 C 
HETATM   14  C14 UNL     1      11.433  -9.720  15.325  1.00  0.00     0.162 C 
HETATM   15  C12 UNL     1      11.525 -11.906  14.484  1.00  0.00     0.058 C 
HETATM   16  C13 UNL     1      11.065 -10.510  14.089  1.00  0.00     0.189 C 
HETATM   17  F2  UNL     1      11.760 -10.054  13.013  1.00  0.00    -0.248 F 
ENDBRANCH   9  10
ENDBRANCH   6   9
BRANCH   8  18
HETATM   18  C16 UNL     1      13.400  -8.937  21.858  1.00  0.00     0.256 C 
HETATM   19  N4  UNL     1      14.362  -8.893  22.893  1.00  0.00    -0.060 NA
HETATM   20  O4  UNL     1      12.852 -10.041  21.605  1.00  0.00    -0.274 OA
ENDBRANCH   8  18
BRANCH   1  21
HETATM   21  N1  UNL     1      12.797  -5.384  21.659  1.00  0.00    -0.346 N 
HETATM   22  C4  UNL     1      13.227  -4.062  21.871  1.00  0.00     0.263 C 
HETATM   23  O1  UNL     1      14.453  -3.757  22.009  1.00  0.00    -0.267 OA
ATOM     24  H1  UNL     1      11.800  -5.571  21.555  1.00  0.00     0.163 HD
BRANCH  22  25
HETATM   25  C3  UNL     1      12.258  -2.982  21.937  1.00  0.00     0.097 C 
HETATM   26  C2  UNL     1      10.992  -3.258  22.156  1.00  0.00    -0.001 C 
HETATM   27  C1  UNL     1      10.009  -2.152  22.221  1.00  0.00     0.038 C 
HETATM   28 CL1  UNL     1      12.778  -1.311  21.726  1.00  0.00    -0.079 Cl
ENDBRANCH  22  25
ENDBRANCH   1  21
TORSDOF 5
ENDMDL
MODEL 2
REMARK VINA RESULT: -6.869704767      5.190      9.241
REMARK  5 active torsions:
REMARK  status: ('A' for Active; 'I' for Inactive)
REMARK    1  A    between atoms: C3_3  and  C4_5 
REMARK       I    between atoms: C4_5  and  N1_7 
REMARK    2  A    between atoms: N1_7  and  C5_9 
REMARK       I    between atoms: N2_13  and  C8_14 
REMARK    3  A    between atoms: C8_14  and  C9_16 
REMARK    4  A    between atoms: C9_16  and  C10_17 
REMARK       I    between atoms: C10_17  and  N3_19 
REMARK    5  A    between atoms: C15_25  and  C16_26 
ROOT
HETATM    1  C5  UNL     1      12.344  -2.475  22.558  1.00  0.00     0.152 C 
HETATM    2  C6  UNL     1      11.662  -2.543  23.899  1.00  0.00     0.213 C 
HETATM    3  F1  UNL     1      12.547  -2.349  24.951  1.00  0.00    -0.245 F 
HETATM    4  C7  UNL     1      10.636  -1.455  23.851  1.00  0.00     0.166 C 
HETATM    5  N2  UNL     1      10.428  -1.138  22.457  1.00  0.00    -0.334 N 
HETATM    6  C8  UNL     1       9.209  -0.703  21.875  1.00  0.00     0.229 C 
HETATM    7  O2  UNL     1       9.136  -0.452  20.637  1.00  0.00    -0.273 OA
HETATM    8  C15 UNL     1      11.696  -1.351  21.786  1.00  0.00     0.202 C 
ENDROOT
BRANCH   6   9
HETATM    9  C9  UNL     1       8.019  -0.541  22.708  1.00  0.00     0.205 C 
BRANCH   9  10
HETATM   10  C10 UNL     1       7.133  -1.730  22.756  1.00  0.00     0.228 C 
HETATM   11  O3  UNL     1       7.516  -2.815  23.306  1.00  0.00    -0.273 OA
HETATM   12  N3  UNL     1       5.844  -1.620  22.168  1.00  0.00    -0.349 N 
HETATM   13  C11 UNL     1       4.875  -2.697  22.140  1.00  0.00     0.129 C 
HETATM   14  C14 UNL     1       5.269  -0.466  21.511  1.00  0.00     0.162 C 
HETATM   15  C12 UNL     1       3.610  -2.119  21.591  1.00  0.00     0.058 C 
HETATM   16  C13 UNL     1       4.105  -0.989  20.700  1.00  0.00     0.189 C 
HETATM   17  F2  UNL     1       4.540  -1.466  19.504  1.00  0.00    -0.248 F 
ENDBRANCH   9  10
ENDBRANCH   6   9
BRANCH   8  18
HETATM   18  C16 UNL     1      12.523  -0.116  21.787  1.00  0.00     0.256 C 
HETATM   19  N4  UNL     1      13.592   0.062  22.694  1.00  0.00    -0.060 NA
HETATM   20  O4  UNL     1      12.282   0.805  20.966  1.00  0.00    -0.274 OA
ENDBRANCH   8  18
BRANCH   1  21
HETATM   21  N1  UNL     1      12.232  -3.714  21.821  1.00  0.00    -0.346 N 
HETATM   22  C4  UNL     1      13.365  -4.449  21.432  1.00  0.00     0.263 C 
HETATM   23  O1  UNL     1      14.549  -4.074  21.703  1.00  0.00    -0.267 OA
ATOM     24  H1  UNL     1      11.305  -4.063  21.576  1.00  0.00     0.163 HD
BRANCH  22  25
HETATM   25  C3  UNL     1      13.211  -5.690  20.692  1.00  0.00     0.097 C 
HETATM   26  C2  UNL     1      14.224  -6.524  20.605  1.00  0.00    -0.001 C 
HETATM   27  C1  UNL     1      14.061  -7.786  19.848  1.00  0.00     0.038 C 
HETATM   28 CL1  UNL     1      11.677  -6.074  19.915  1.00  0.00    -0.079 Cl
ENDBRANCH  22  25
ENDBRANCH   1  21
TORSDOF 5
ENDMDL
MODEL 3
REMARK VINA RESULT: -6.681045210      1.156      1.396
REMARK  5 active torsions:
REMARK  status: ('A' for Active; 'I' for Inactive)
REMARK    1  A    between atoms: C3_3  and  C4_5 
REMARK       I    between atoms: C4_5  and  N1_7 
REMARK    2  A    between atoms: N1_7  and  C5_9 
REMARK       I    between atoms: N2_13  and  C8_14 
REMARK    3  A    between atoms: C8_14  and  C9_16 
REMARK    4  A    between atoms: C9_16  and  C10_17 
REMARK       I    between atoms: C10_17  and  N3_19 
REMARK    5  A    between atoms: C15_25  and  C16_26 
ROOT
HETATM    1  C5  UNL     1      13.912  -6.448  21.702  1.00  0.00     0.152 C 
HETATM    2  C6  UNL     1      14.971  -6.184  20.664  1.00  0.00     0.213 C 
HETATM    3  F1  UNL     1      16.235  -6.056  21.222  1.00  0.00    -0.245 F 
HETATM    4  C7  UNL     1      14.902  -7.367  19.751  1.00  0.00     0.166 C 
HETATM    5  N2  UNL     1      13.613  -7.985  19.964  1.00  0.00    -0.334 N 
HETATM    6  C8  UNL     1      12.843  -8.665  18.985  1.00  0.00     0.229 C 
HETATM    7  O2  UNL     1      11.722  -9.171  19.281  1.00  0.00    -0.273 OA
HETATM    8  C15 UNL     1      13.274  -7.773  21.359  1.00  0.00     0.202 C 
ENDROOT
BRANCH   6   9
HETATM    9  C9  UNL     1      13.344  -8.786  17.618  1.00  0.00     0.205 C 
BRANCH   9  10
HETATM   10  C10 UNL     1      12.291  -8.776  16.573  1.00  0.00     0.228 C 
HETATM   11  O3  UNL     1      11.472  -7.806  16.472  1.00  0.00    -0.273 OA
HETATM   12  N3  UNL     1      12.226  -9.886  15.687  1.00  0.00    -0.349 N 
HETATM   13  C11 UNL     1      11.253 -10.014  14.622  1.00  0.00     0.129 C 
HETATM   14  C14 UNL     1      13.078 -11.056  15.674  1.00  0.00     0.162 C 
HETATM   15  C12 UNL     1      11.636 -11.226  13.835  1.00  0.00     0.058 C 
HETATM   16  C13 UNL     1      12.339 -12.098  14.866  1.00  0.00     0.189 C 
HETATM   17  F2  UNL     1      11.438 -12.750  15.648  1.00  0.00    -0.248 F 
ENDBRANCH   9  10
ENDBRANCH   6   9
BRANCH   8  18
HETATM   18  C16 UNL     1      13.777  -8.879  22.213  1.00  0.00     0.256 C 
HETATM   19  N4  UNL     1      14.610  -8.637  23.328  1.00  0.00    -0.060 NA
HETATM   20  O4  UNL     1      13.463 -10.069  21.954  1.00  0.00    -0.274 OA
ENDBRANCH   8  18
BRANCH   1  21
HETATM   21  N1  UNL     1      12.908  -5.408  21.741  1.00  0.00    -0.346 N 
HETATM   22  C4  UNL     1      13.249  -4.058  21.937  1.00  0.00     0.263 C 
HETATM   23  O1  UNL     1      14.450  -3.672  22.091  1.00  0.00    -0.267 OA
ATOM     24  H1  UNL     1      11.927  -5.660  21.623  1.00  0.00     0.163 HD
BRANCH  22  25
HETATM   25  C3  UNL     1      12.212  -3.041  21.970  1.00  0.00     0.097 C 
HETATM   26  C2  UNL     1      10.966  -3.393  22.198  1.00  0.00    -0.001 C 
HETATM   27  C1  UNL     1       9.912  -2.352  22.229  1.00  0.00     0.038 C 
HETATM   28 CL1  UNL     1      12.621  -1.348  21.705  1.00  0.00    -0.079 Cl
ENDBRANCH  22  25
ENDBRANCH   1  21
TORSDOF 5
ENDMDL
MODEL 4
REMARK VINA RESULT: -6.542542337      3.927      8.118
REMARK  5 active torsions:
REMARK  status: ('A' for Active; 'I' for Inactive)
REMARK    1  A    between atoms: C3_3  and  C4_5 
REMARK       I    between atoms: C4_5  and  N1_7 
REMARK    2  A    between atoms: N1_7  and  C5_9 
REMARK       I    between atoms: N2_13  and  C8_14 
REMARK    3  A    between atoms: C8_14  and  C9_16 
REMARK    4  A    between atoms: C9_16  and  C10_17 
REMARK       I    between atoms: C10_17  and  N3_19 
REMARK    5  A    between atoms: C15_25  and  C16_26 
ROOT
HETATM    1  C5  UNL     1      11.374  -6.573  21.974  1.00  0.00     0.152 C 
HETATM    2  C6  UNL     1      10.242  -5.716  22.479  1.00  0.00     0.213 C 
HETATM    3  F1  UNL     1       9.394  -6.412  23.329  1.00  0.00    -0.245 F 
HETATM    4  C7  UNL     1      10.917  -4.590  23.195  1.00  0.00     0.166 C 
HETATM    5  N2  UNL     1      12.281  -4.550  22.720  1.00  0.00    -0.334 N 
HETATM    6  C8  UNL     1      13.081  -3.386  22.580  1.00  0.00     0.229 C 
HETATM    7  O2  UNL     1      14.269  -3.464  22.152  1.00  0.00    -0.273 OA
HETATM    8  C15 UNL     1      12.659  -5.918  22.420  1.00  0.00     0.202 C 
ENDROOT
BRANCH   6   9
HETATM    9  C9  UNL     1      12.533  -2.078  22.934  1.00  0.00     0.205 C 
BRANCH   9  10
HETATM   10  C10 UNL     1      12.392  -1.140  21.793  1.00  0.00     0.228 C 
HETATM   11  O3  UNL     1      13.416  -0.654  21.210  1.00  0.00    -0.273 OA
HETATM   12  N3  UNL     1      11.078  -0.802  21.371  1.00  0.00    -0.349 N 
HETATM   13  C11 UNL     1      10.788   0.099  20.274  1.00  0.00     0.129 C 
HETATM   14  C14 UNL     1       9.826  -1.267  21.927  1.00  0.00     0.162 C 
HETATM   15  C12 UNL     1       9.310   0.047  20.056  1.00  0.00     0.058 C 
HETATM   16  C13 UNL     1       8.771  -0.301  21.436  1.00  0.00     0.189 C 
HETATM   17  F2  UNL     1       8.729   0.799  22.235  1.00  0.00    -0.248 F 
ENDBRANCH   9  10
ENDBRANCH   6   9
BRANCH   8  18
HETATM   18  C16 UNL     1      13.252  -6.588  23.605  1.00  0.00     0.256 C 
HETATM   19  N4  UNL     1      14.028  -7.764  23.484  1.00  0.00    -0.060 NA
HETATM   20  O4  UNL     1      13.073  -6.113  24.756  1.00  0.00    -0.274 OA
ENDBRANCH   8  18
BRANCH   1  21
HETATM   21  N1  UNL     1      11.359  -6.711  20.535  1.00  0.00    -0.346 N 
HETATM   22  C4  UNL     1      11.983  -7.793  19.889  1.00  0.00     0.263 C 
HETATM   23  O1  UNL     1      12.593  -8.708  20.525  1.00  0.00    -0.267 OA
ATOM     24  H1  UNL     1      10.884  -6.005  19.973  1.00  0.00     0.163 HD
BRANCH  22  25
HETATM   25  C3  UNL     1      11.946  -7.897  18.440  1.00  0.00     0.097 C 
HETATM   26  C2  UNL     1      10.800  -7.773  17.810  1.00  0.00    -0.001 C 
HETATM   27  C1  UNL     1      10.769  -7.882  16.333  1.00  0.00     0.038 C 
HETATM   28 CL1  UNL     1      13.430  -8.190  17.535  1.00  0.00    -0.079 Cl
ENDBRANCH  22  25
ENDBRANCH   1  21
TORSDOF 5
ENDMDL
MODEL 5
REMARK VINA RESULT: -6.483677378      4.543      6.381
REMARK  5 active torsions:
REMARK  status: ('A' for Active; 'I' for Inactive)
REMARK    1  A    between atoms: C3_3  and  C4_5 
REMARK       I    between atoms: C4_5  and  N1_7 
REMARK    2  A    between atoms: N1_7  and  C5_9 
REMARK       I    between atoms: N2_13  and  C8_14 
REMARK    3  A    between atoms: C8_14  and  C9_16 
REMARK    4  A    between atoms: C9_16  and  C10_17 
REMARK       I    between atoms: C10_17  and  N3_19 
REMARK    5  A    between atoms: C15_25  and  C16_26 
ROOT
HETATM    1  C5  UNL     1      13.217  -9.432  18.883  1.00  0.00     0.152 C 
HETATM    2  C6  UNL     1      12.903 -10.686  19.655  1.00  0.00     0.213 C 
HETATM    3  F1  UNL     1      11.547 -10.982  19.651  1.00  0.00    -0.245 F 
HETATM    4  C7  UNL     1      13.689 -11.755  18.966  1.00  0.00     0.166 C 
HETATM    5  N2  UNL     1      14.718 -11.090  18.200  1.00  0.00    -0.334 N 
HETATM    6  C8  UNL     1      16.015 -11.599  17.929  1.00  0.00     0.229 C 
HETATM    7  O2  UNL     1      16.843 -10.930  17.244  1.00  0.00    -0.273 OA
HETATM    8  C15 UNL     1      14.165  -9.819  17.774  1.00  0.00     0.202 C 
ENDROOT
BRANCH   6   9
HETATM    9  C9  UNL     1      16.406 -12.911  18.441  1.00  0.00     0.205 C 
BRANCH   9  10
HETATM   10  C10 UNL     1      17.249 -12.869  19.661  1.00  0.00     0.228 C 
HETATM   11  O3  UNL     1      16.728 -12.757  20.819  1.00  0.00    -0.273 OA
HETATM   12  N3  UNL     1      18.658 -12.957  19.496  1.00  0.00    -0.349 N 
HETATM   13  C11 UNL     1      19.603 -12.929  20.594  1.00  0.00     0.129 C 
HETATM   14  C14 UNL     1      19.395 -13.085  18.258  1.00  0.00     0.162 C 
HETATM   15  C12 UNL     1      20.948 -13.215  20.008  1.00  0.00     0.058 C 
HETATM   16  C13 UNL     1      20.820 -12.698  18.582  1.00  0.00     0.189 C 
HETATM   17  F2  UNL     1      20.963 -11.346  18.539  1.00  0.00    -0.248 F 
ENDBRANCH   9  10
ENDBRANCH   6   9
BRANCH   8  18
HETATM   18  C16 UNL     1      13.479  -9.940  16.462  1.00  0.00     0.256 C 
HETATM   19  N4  UNL     1      12.428  -9.072  16.090  1.00  0.00    -0.060 NA
HETATM   20  O4  UNL     1      13.829 -10.830  15.645  1.00  0.00    -0.274 OA
ENDBRANCH   8  18
BRANCH   1  21
HETATM   21  N1  UNL     1      13.813  -8.409  19.713  1.00  0.00    -0.346 N 
HETATM   22  C4  UNL     1      13.283  -7.109  19.782  1.00  0.00     0.263 C 
HETATM   23  O1  UNL     1      12.255  -6.755  19.124  1.00  0.00    -0.267 OA
ATOM     24  H1  UNL     1      14.641  -8.638  20.263  1.00  0.00     0.163 HD
BRANCH  22  25
HETATM   25  C3  UNL     1      13.911  -6.109  20.628  1.00  0.00     0.097 C 
HETATM   26  C2  UNL     1      13.179  -5.155  21.158  1.00  0.00    -0.001 C 
HETATM   27  C1  UNL     1      13.825  -4.137  22.019  1.00  0.00     0.038 C 
HETATM   28 CL1  UNL     1      15.644  -6.174  20.941  1.00  0.00    -0.079 Cl
ENDBRANCH  22  25
ENDBRANCH   1  21
TORSDOF 5
ENDMDL
