MODEL 1
REMARK VINA RESULT: -5.401402037      0.000      0.000
REMARK  8 active torsions:
REMARK  status: ('A' for Active; 'I' for Inactive)
REMARK    1  A    between atoms: C2_2  and  C3_3 
REMARK    2  A    between atoms: C3_3  and  N1_4 
REMARK    3  A    between atoms: C3_3  and  C14_23 
REMARK    4  A    between atoms: N1_4  and  C4_6 
REMARK    5  A    between atoms: C4_6  and  O1_7 
REMARK    6  A    between atoms: C4_6  and  C5_9 
REMARK    7  A    between atoms: C8_14  and  N2_15 
REMARK       I    between atoms: N3_19  and  C12_20 
REMARK    8  A    between atoms: C14_23  and  O3_25 
ROOT
HETATM    1  C5  UNL     1      14.018 -10.206  16.519  1.00  0.00     0.181 C 
HETATM    2  C6  UNL     1      13.451 -11.478  15.796  1.00  0.00     0.126 C 
HETATM    3 BR1  UNL     1      13.396 -12.936  17.042  1.00  0.00    -0.085 Br
HETATM    4  C7  UNL     1      11.977 -11.025  15.654  1.00  0.00     0.237 C 
HETATM    5  F1  UNL     1      11.912 -10.010  14.766  1.00  0.00    -0.244 F 
HETATM    6  C8  UNL     1      11.760 -10.617  17.110  1.00  0.00     0.328 C 
HETATM    7  N3  UNL     1      13.044 -10.062  17.558  1.00  0.00    -0.308 N 
HETATM    8  C12 UNL     1      13.236  -9.407  18.795  1.00  0.00     0.218 C 
HETATM    9  C13 UNL     1      14.457  -8.600  19.141  1.00  0.00     0.117 C 
HETATM   10  O2  UNL     1      12.392  -9.420  19.757  1.00  0.00    -0.274 OA
ENDROOT
BRANCH   1  11
HETATM   11  C4  UNL     1      15.388 -10.519  16.788  1.00  0.00     0.136 C 
BRANCH  11  12
HETATM   12  N1  UNL     1      16.041 -10.923  17.949  1.00  0.00    -0.366 N 
ATOM     13  H1  UNL     1      15.911 -10.354  18.786  1.00  0.00     0.161 HD
BRANCH  12  14
HETATM   14  C3  UNL     1      16.888 -12.083  18.057  1.00  0.00     0.111 C 
BRANCH  14  15
HETATM   15  C2  UNL     1      16.842 -12.619  19.468  1.00  0.00     0.023 C 
HETATM   16  C1  UNL     1      15.606 -12.332  20.229  1.00  0.00     0.007 C 
ENDBRANCH  14  15
BRANCH  14  17
HETATM   17  C14 UNL     1      18.313 -11.726  17.758  1.00  0.00     0.136 C 
HETATM   18  C15 UNL     1      19.324 -12.261  18.701  1.00  0.00     0.041 C 
BRANCH  17  19
HETATM   19  O3  UNL     1      18.702 -11.905  16.458  1.00  0.00    -0.394 OA
ATOM     20  H3  UNL     1      19.586 -11.623  16.255  1.00  0.00     0.210 HD
ENDBRANCH  17  19
ENDBRANCH  14  17
ENDBRANCH  12  14
ENDBRANCH  11  12
BRANCH  11  21
HETATM   21  O1  UNL     1      16.182 -10.412  15.746  1.00  0.00    -0.348 OA
ATOM     22  H1  UNL     1      16.787  -9.682  15.802  1.00  0.00     0.219 HD
ENDBRANCH  11  21
ENDBRANCH   1  11
BRANCH   6  23
HETATM   23  N2  UNL     1      10.623  -9.785  17.228  1.00  0.00    -0.055 N 
HETATM   24  C9  UNL     1       9.969  -9.897  18.536  1.00  0.00     0.274 C 
HETATM   25  C10 UNL     1       9.585 -10.187  16.276  1.00  0.00     0.274 C 
HETATM   26  C11 UNL     1      10.830  -8.375  16.976  1.00  0.00     0.274 C 
ENDBRANCH   6  23
TORSDOF 8
ENDMDL
MODEL 2
REMARK VINA RESULT: -5.212791855      2.865      5.022
REMARK  8 active torsions:
REMARK  status: ('A' for Active; 'I' for Inactive)
REMARK    1  A    between atoms: C2_2  and  C3_3 
REMARK    2  A    between atoms: C3_3  and  N1_4 
REMARK    3  A    between atoms: C3_3  and  C14_23 
REMARK    4  A    between atoms: N1_4  and  C4_6 
REMARK    5  A    between atoms: C4_6  and  O1_7 
REMARK    6  A    between atoms: C4_6  and  C5_9 
REMARK    7  A    between atoms: C8_14  and  N2_15 
REMARK       I    between atoms: N3_19  and  C12_20 
REMARK    8  A    between atoms: C14_23  and  O3_25 
ROOT
HETATM    1  C5  UNL     1      11.573 -10.076  18.574  1.00  0.00     0.181 C 
HETATM    2  C6  UNL     1      10.339  -9.164  18.245  1.00  0.00     0.126 C 
HETATM    3 BR1  UNL     1      10.961  -7.534  17.443  1.00  0.00    -0.085 Br
HETATM    4  C7  UNL     1       9.754  -9.982  17.069  1.00  0.00     0.237 C 
HETATM    5  F1  UNL     1       9.261 -11.146  17.545  1.00  0.00    -0.244 F 
HETATM    6  C8  UNL     1      11.045 -10.115  16.264  1.00  0.00     0.328 C 
HETATM    7  N3  UNL     1      12.118 -10.232  17.259  1.00  0.00    -0.308 N 
HETATM    8  C12 UNL     1      13.460 -10.545  16.947  1.00  0.00     0.218 C 
HETATM    9  C13 UNL     1      14.494 -10.937  17.966  1.00  0.00     0.117 C 
HETATM   10  O2  UNL     1      13.944 -10.537  15.763  1.00  0.00    -0.274 OA
ENDROOT
BRANCH   1  11
HETATM   11  C4  UNL     1      12.268  -9.389  19.618  1.00  0.00     0.136 C 
BRANCH  11  12
HETATM   12  N1  UNL     1      13.124  -8.292  19.603  1.00  0.00    -0.366 N 
ATOM     13  H1  UNL     1      13.626  -8.097  18.736  1.00  0.00     0.161 HD
BRANCH  12  14
HETATM   14  C3  UNL     1      13.355  -7.410  20.718  1.00  0.00     0.111 C 
BRANCH  14  15
HETATM   15  C2  UNL     1      13.096  -5.981  20.302  1.00  0.00     0.023 C 
HETATM   16  C1  UNL     1      11.782  -5.423  20.692  1.00  0.00     0.007 C 
ENDBRANCH  14  15
BRANCH  14  17
HETATM   17  C14 UNL     1      14.782  -7.494  21.170  1.00  0.00     0.136 C 
HETATM   18  C15 UNL     1      15.610  -6.289  20.922  1.00  0.00     0.041 C 
BRANCH  17  19
HETATM   19  O3  UNL     1      14.968  -7.973  22.438  1.00  0.00    -0.394 OA
ATOM     20  H3  UNL     1      15.045  -8.917  22.509  1.00  0.00     0.210 HD
ENDBRANCH  17  19
ENDBRANCH  14  17
ENDBRANCH  12  14
ENDBRANCH  11  12
BRANCH  11  21
HETATM   21  O1  UNL     1      12.058  -9.877  20.821  1.00  0.00    -0.348 OA
ATOM     22  H1  UNL     1      11.993 -10.825  20.841  1.00  0.00     0.219 HD
ENDBRANCH  11  21
ENDBRANCH   1  11
BRANCH   6  23
HETATM   23  N2  UNL     1      10.932 -11.156  15.313  1.00  0.00    -0.055 N 
HETATM   24  C9  UNL     1      11.642 -10.864  14.063  1.00  0.00     0.274 C 
HETATM   25  C10 UNL     1       9.538 -11.332  14.898  1.00  0.00     0.274 C 
HETATM   26  C11 UNL     1      11.357 -12.470  15.747  1.00  0.00     0.274 C 
ENDBRANCH   6  23
TORSDOF 8
ENDMDL
MODEL 3
REMARK VINA RESULT: -5.091571962      4.071      6.153
REMARK  8 active torsions:
REMARK  status: ('A' for Active; 'I' for Inactive)
REMARK    1  A    between atoms: C2_2  and  C3_3 
REMARK    2  A    between atoms: C3_3  and  N1_4 
REMARK    3  A    between atoms: C3_3  and  C14_23 
REMARK    4  A    between atoms: N1_4  and  C4_6 
REMARK    5  A    between atoms: C4_6  and  O1_7 
REMARK    6  A    between atoms: C4_6  and  C5_9 
REMARK    7  A    between atoms: C8_14  and  N2_15 
REMARK       I    between atoms: N3_19  and  C12_20 
REMARK    8  A    between atoms: C14_23  and  O3_25 
ROOT
HETATM    1  C5  UNL     1      13.882  -7.843  20.449  1.00  0.00     0.181 C 
HETATM    2  C6  UNL     1      13.423  -6.363  20.203  1.00  0.00     0.126 C 
HETATM    3 BR1  UNL     1      11.592  -6.363  19.628  1.00  0.00    -0.085 Br
HETATM    4  C7  UNL     1      13.373  -5.888  21.675  1.00  0.00     0.237 C 
HETATM    5  F1  UNL     1      14.631  -5.829  22.161  1.00  0.00    -0.244 F 
HETATM    6  C8  UNL     1      12.529  -7.038  22.221  1.00  0.00     0.328 C 
HETATM    7  N3  UNL     1      12.943  -8.224  21.461  1.00  0.00    -0.308 N 
HETATM    8  C12 UNL     1      12.534  -9.542  21.762  1.00  0.00     0.218 C 
HETATM    9  C13 UNL     1      13.162 -10.776  21.174  1.00  0.00     0.117 C 
HETATM   10  O2  UNL     1      11.589  -9.836  22.573  1.00  0.00    -0.274 OA
ENDROOT
BRANCH   1  11
HETATM   11  C4  UNL     1      13.899  -8.443  19.151  1.00  0.00     0.136 C 
BRANCH  11  12
HETATM   12  N1  UNL     1      12.882  -8.748  18.252  1.00  0.00    -0.366 N 
ATOM     13  H1  UNL     1      11.965  -8.976  18.637  1.00  0.00     0.161 HD
BRANCH  12  14
HETATM   14  C3  UNL     1      13.025  -8.768  16.819  1.00  0.00     0.111 C 
BRANCH  14  15
HETATM   15  C2  UNL     1      11.683  -8.537  16.168  1.00  0.00     0.023 C 
HETATM   16  C1  UNL     1      10.520  -8.493  17.082  1.00  0.00     0.007 C 
ENDBRANCH  14  15
BRANCH  14  17
HETATM   17  C14 UNL     1      13.524 -10.104  16.357  1.00  0.00     0.136 C 
HETATM   18  C15 UNL     1      12.718 -10.766  15.303  1.00  0.00     0.041 C 
BRANCH  17  19
HETATM   19  O3  UNL     1      14.861 -10.164  16.071  1.00  0.00    -0.394 OA
ATOM     20  H3  UNL     1      15.205 -11.036  15.913  1.00  0.00     0.210 HD
ENDBRANCH  17  19
ENDBRANCH  14  17
ENDBRANCH  12  14
ENDBRANCH  11  12
BRANCH  11  21
HETATM   21  O1  UNL     1      15.099  -8.761  18.717  1.00  0.00    -0.348 OA
ATOM     22  H1  UNL     1      15.480  -9.507  19.165  1.00  0.00     0.219 HD
ENDBRANCH  11  21
ENDBRANCH   1  11
BRANCH   6  23
HETATM   23  N2  UNL     1      12.635  -7.106  23.629  1.00  0.00    -0.055 N 
HETATM   24  C9  UNL     1      11.406  -7.588  24.269  1.00  0.00     0.274 C 
HETATM   25  C10 UNL     1      12.835  -5.773  24.201  1.00  0.00     0.274 C 
HETATM   26  C11 UNL     1      13.727  -7.900  24.153  1.00  0.00     0.274 C 
ENDBRANCH   6  23
TORSDOF 8
ENDMDL
MODEL 4
REMARK VINA RESULT: -5.067371501      3.001      5.217
REMARK  8 active torsions:
REMARK  status: ('A' for Active; 'I' for Inactive)
REMARK    1  A    between atoms: C2_2  and  C3_3 
REMARK    2  A    between atoms: C3_3  and  N1_4 
REMARK    3  A    between atoms: C3_3  and  C14_23 
REMARK    4  A    between atoms: N1_4  and  C4_6 
REMARK    5  A    between atoms: C4_6  and  O1_7 
REMARK    6  A    between atoms: C4_6  and  C5_9 
REMARK    7  A    between atoms: C8_14  and  N2_15 
REMARK       I    between atoms: N3_19  and  C12_20 
REMARK    8  A    between atoms: C14_23  and  O3_25 
ROOT
HETATM    1  C5  UNL     1      13.513  -9.095  17.566  1.00  0.00     0.181 C 
HETATM    2  C6  UNL     1      14.237 -10.351  18.166  1.00  0.00     0.126 C 
HETATM    3 BR1  UNL     1      13.220 -11.009  19.655  1.00  0.00    -0.085 Br
HETATM    4  C7  UNL     1      13.950 -11.353  17.021  1.00  0.00     0.237 C 
HETATM    5  F1  UNL     1      14.652 -10.985  15.928  1.00  0.00    -0.244 F 
HETATM    6  C8  UNL     1      12.445 -11.112  16.926  1.00  0.00     0.328 C 
HETATM    7  N3  UNL     1      12.257  -9.685  17.213  1.00  0.00    -0.308 N 
HETATM    8  C12 UNL     1      11.029  -9.000  17.064  1.00  0.00     0.218 C 
HETATM    9  C13 UNL     1      10.891  -7.503  17.084  1.00  0.00     0.117 C 
HETATM   10  O2  UNL     1       9.900  -9.576  16.888  1.00  0.00    -0.274 OA
ENDROOT
BRANCH   1  11
HETATM   11  C4  UNL     1      13.633  -8.088  18.573  1.00  0.00     0.136 C 
BRANCH  11  12
HETATM   12  N1  UNL     1      12.695  -7.251  19.172  1.00  0.00    -0.366 N 
ATOM     13  H1  UNL     1      12.011  -6.799  18.564  1.00  0.00     0.161 HD
BRANCH  12  14
HETATM   14  C3  UNL     1      12.618  -6.976  20.583  1.00  0.00     0.111 C 
BRANCH  14  15
HETATM   15  C2  UNL     1      11.181  -7.053  21.040  1.00  0.00     0.023 C 
HETATM   16  C1  UNL     1      10.462  -8.301  20.705  1.00  0.00     0.007 C 
ENDBRANCH  14  15
BRANCH  14  17
HETATM   17  C14 UNL     1      13.109  -5.590  20.878  1.00  0.00     0.136 C 
HETATM   18  C15 UNL     1      12.067  -4.598  21.236  1.00  0.00     0.041 C 
BRANCH  17  19
HETATM   19  O3  UNL     1      14.180  -5.516  21.727  1.00  0.00    -0.394 OA
ATOM     20  H3  UNL     1      14.762  -4.779  21.584  1.00  0.00     0.210 HD
ENDBRANCH  17  19
ENDBRANCH  14  17
ENDBRANCH  12  14
ENDBRANCH  11  12
BRANCH  11  21
HETATM   21  O1  UNL     1      14.855  -7.919  19.027  1.00  0.00    -0.348 OA
ATOM     22  H1  UNL     1      15.310  -7.184  18.633  1.00  0.00     0.219 HD
ENDBRANCH  11  21
ENDBRANCH   1  11
BRANCH   6  23
HETATM   23  N2  UNL     1      11.942 -11.594  15.696  1.00  0.00    -0.055 N 
HETATM   24  C9  UNL     1      10.586 -12.143  15.812  1.00  0.00     0.274 C 
HETATM   25  C10 UNL     1      12.741 -12.722  15.214  1.00  0.00     0.274 C 
HETATM   26  C11 UNL     1      11.927 -10.654  14.596  1.00  0.00     0.274 C 
ENDBRANCH   6  23
TORSDOF 8
ENDMDL
MODEL 5
REMARK VINA RESULT: -5.063084284      2.972      5.108
REMARK  8 active torsions:
REMARK  status: ('A' for Active; 'I' for Inactive)
REMARK    1  A    between atoms: C2_2  and  C3_3 
REMARK    2  A    between atoms: C3_3  and  N1_4 
REMARK    3  A    between atoms: C3_3  and  C14_23 
REMARK    4  A    between atoms: N1_4  and  C4_6 
REMARK    5  A    between atoms: C4_6  and  O1_7 
REMARK    6  A    between atoms: C4_6  and  C5_9 
REMARK    7  A    between atoms: C8_14  and  N2_15 
REMARK       I    between atoms: N3_19  and  C12_20 
REMARK    8  A    between atoms: C14_23  and  O3_25 
ROOT
HETATM    1  C5  UNL     1      13.821  -8.746  18.289  1.00  0.00     0.181 C 
HETATM    2  C6  UNL     1      14.580 -10.105  18.483  1.00  0.00     0.126 C 
HETATM    3 BR1  UNL     1      13.753 -11.087  19.910  1.00  0.00    -0.085 Br
HETATM    4  C7  UNL     1      14.109 -10.818  17.192  1.00  0.00     0.237 C 
HETATM    5  F1  UNL     1      14.669 -10.210  16.124  1.00  0.00    -0.244 F 
HETATM    6  C8  UNL     1      12.613 -10.563  17.364  1.00  0.00     0.328 C 
HETATM    7  N3  UNL     1      12.511  -9.239  17.989  1.00  0.00    -0.308 N 
HETATM    8  C12 UNL     1      11.297  -8.539  18.170  1.00  0.00     0.218 C 
HETATM    9  C13 UNL     1      11.209  -7.086  18.548  1.00  0.00     0.117 C 
HETATM   10  O2  UNL     1      10.137  -9.059  18.027  1.00  0.00    -0.274 OA
ENDROOT
BRANCH   1  11
HETATM   11  C4  UNL     1      14.108  -7.995  19.471  1.00  0.00     0.136 C 
BRANCH  11  12
HETATM   12  N1  UNL     1      13.332  -7.670  20.581  1.00  0.00    -0.366 N 
ATOM     13  H1  UNL     1      12.414  -8.108  20.658  1.00  0.00     0.161 HD
BRANCH  12  14
HETATM   14  C3  UNL     1      13.728  -6.765  21.628  1.00  0.00     0.111 C 
BRANCH  14  15
HETATM   15  C2  UNL     1      12.847  -6.966  22.838  1.00  0.00     0.023 C 
HETATM   16  C1  UNL     1      12.072  -8.225  22.870  1.00  0.00     0.007 C 
ENDBRANCH  14  15
BRANCH  14  17
HETATM   17  C14 UNL     1      13.564  -5.342  21.185  1.00  0.00     0.136 C 
HETATM   18  C15 UNL     1      12.189  -4.793  21.272  1.00  0.00     0.041 C 
BRANCH  17  19
HETATM   19  O3  UNL     1      14.484  -4.461  21.685  1.00  0.00    -0.394 OA
ATOM     20  H3  UNL     1      15.117  -4.133  21.058  1.00  0.00     0.210 HD
ENDBRANCH  17  19
ENDBRANCH  14  17
ENDBRANCH  12  14
ENDBRANCH  11  12
BRANCH  11  21
HETATM   21  O1  UNL     1      15.334  -7.526  19.531  1.00  0.00    -0.348 OA
ATOM     22  H1  UNL     1      15.935  -7.956  18.934  1.00  0.00     0.219 HD
ENDBRANCH  11  21
ENDBRANCH   1  11
BRANCH   6  23
HETATM   23  N2  UNL     1      11.934 -10.751  16.138  1.00  0.00    -0.055 N 
HETATM   24  C9  UNL     1      10.594 -11.324  16.312  1.00  0.00     0.274 C 
HETATM   25  C10 UNL     1      12.632 -11.730  15.301  1.00  0.00     0.274 C 
HETATM   26  C11 UNL     1      11.791  -9.581  15.297  1.00  0.00     0.274 C 
ENDBRANCH   6  23
TORSDOF 8
ENDMDL
