MODEL 1
REMARK VINA RESULT: -5.276592833      0.000      0.000
REMARK  8 active torsions:
REMARK  status: ('A' for Active; 'I' for Inactive)
REMARK    1  A    between atoms: C2_3  and  O2_4 
REMARK    2  A    between atoms: C3_6  and  O3_7 
REMARK    3  A    between atoms: C4_9  and  C5_11 
REMARK    4  A    between atoms: N1_14  and  C7_15 
REMARK    5  A    between atoms: C7_15  and  C8_16 
REMARK    6  A    between atoms: C8_16  and  C9_17 
REMARK    7  A    between atoms: C9_17  and  C10_18 
REMARK    8  A    between atoms: C10_18  and  C11_19 
ROOT
HETATM    1  O1  UNL     1      13.903  -2.744  21.958  1.00  0.00    -0.270 OA
HETATM    2  C1  UNL     1      12.837  -2.256  22.360  1.00  0.00     0.251 C 
HETATM    3  C2  UNL     1      12.821  -1.054  23.202  1.00  0.00     0.240 C 
HETATM    4  C3  UNL     1      11.409  -0.633  23.521  1.00  0.00     0.177 C 
HETATM    5  C4  UNL     1      10.478  -0.783  22.371  1.00  0.00     0.072 C 
HETATM    6 BR1  UNL     1       8.665  -0.551  23.094  1.00  0.00    -0.080 Br
HETATM    7  C6  UNL     1      10.506  -2.069  21.636  1.00  0.00     0.150 C 
HETATM    8  N1  UNL     1      11.636  -2.882  21.992  1.00  0.00    -0.348 N 
ENDROOT
BRANCH   8   9
HETATM    9  C7  UNL     1      11.447  -4.296  21.925  1.00  0.00     0.126 C 
BRANCH   9  10
HETATM   10  C8  UNL     1      11.792  -5.049  20.726  1.00  0.00     0.020 C 
BRANCH  10  11
HETATM   11  C9  UNL     1      13.105  -5.786  20.777  1.00  0.00     0.003 C 
BRANCH  11  12
HETATM   12  C10 UNL     1      13.198  -6.839  19.675  1.00  0.00     0.015 C 
BRANCH  12  13
HETATM   13  C11 UNL     1      14.543  -7.519  19.674  1.00  0.00     0.114 C 
HETATM   14 CL1  UNL     1      15.727  -6.510  20.531  1.00  0.00    -0.130 Cl
ENDBRANCH  12  13
ENDBRANCH  11  12
ENDBRANCH  10  11
ENDBRANCH   9  10
ENDBRANCH   8   9
BRANCH   3  15
HETATM   15  O2  UNL     1      13.570  -0.046  22.600  1.00  0.00    -0.383 OA
ATOM     16  H2  UNL     1      13.729   0.653  23.223  1.00  0.00     0.210 HD
ENDBRANCH   3  15
BRANCH   5  17
HETATM   17  C5  UNL     1      10.726   0.364  21.383  1.00  0.00     0.110 C 
HETATM   18 BR2  UNL     1       9.513   0.143  19.888  1.00  0.00    -0.095 Br
ENDBRANCH   5  17
BRANCH   4  19
HETATM   19  O3  UNL     1      10.996  -1.254  24.689  1.00  0.00    -0.391 OA
ATOM     20  H3  UNL     1      10.331  -1.900  24.484  1.00  0.00     0.210 HD
ENDBRANCH   4  19
TORSDOF 8
ENDMDL
MODEL 2
REMARK VINA RESULT: -5.225310083      1.346      1.452
REMARK  8 active torsions:
REMARK  status: ('A' for Active; 'I' for Inactive)
REMARK    1  A    between atoms: C2_3  and  O2_4 
REMARK    2  A    between atoms: C3_6  and  O3_7 
REMARK    3  A    between atoms: C4_9  and  C5_11 
REMARK    4  A    between atoms: N1_14  and  C7_15 
REMARK    5  A    between atoms: C7_15  and  C8_16 
REMARK    6  A    between atoms: C8_16  and  C9_17 
REMARK    7  A    between atoms: C9_17  and  C10_18 
REMARK    8  A    between atoms: C10_18  and  C11_19 
ROOT
HETATM    1  O1  UNL     1      13.804  -2.691  21.747  1.00  0.00    -0.270 OA
HETATM    2  C1  UNL     1      12.813  -2.073  22.163  1.00  0.00     0.251 C 
HETATM    3  C2  UNL     1      12.886  -0.640  22.473  1.00  0.00     0.240 C 
HETATM    4  C3  UNL     1      11.546  -0.111  22.916  1.00  0.00     0.177 C 
HETATM    5  C4  UNL     1      10.407  -0.677  22.144  1.00  0.00     0.072 C 
HETATM    6 BR1  UNL     1       8.775  -0.163  23.110  1.00  0.00    -0.080 Br
HETATM    7  C6  UNL     1      10.374  -2.146  21.958  1.00  0.00     0.150 C 
HETATM    8  N1  UNL     1      11.611  -2.777  22.332  1.00  0.00    -0.348 N 
ENDROOT
BRANCH   8   9
HETATM    9  C7  UNL     1      11.515  -4.106  22.844  1.00  0.00     0.126 C 
BRANCH   9  10
HETATM   10  C8  UNL     1      11.178  -5.228  21.977  1.00  0.00     0.020 C 
BRANCH  10  11
HETATM   11  C9  UNL     1      11.780  -5.186  20.597  1.00  0.00     0.003 C 
BRANCH  11  12
HETATM   12  C10 UNL     1      13.086  -5.975  20.532  1.00  0.00     0.015 C 
BRANCH  12  13
HETATM   13  C11 UNL     1      13.037  -7.038  19.466  1.00  0.00     0.114 C 
HETATM   14 CL1  UNL     1      11.429  -7.058  18.710  1.00  0.00    -0.130 Cl
ENDBRANCH  12  13
ENDBRANCH  11  12
ENDBRANCH  10  11
ENDBRANCH   9  10
ENDBRANCH   8   9
BRANCH   3  15
HETATM   15  O2  UNL     1      13.417   0.051  21.387  1.00  0.00    -0.383 OA
ATOM     16  H2  UNL     1      13.013   0.909  21.324  1.00  0.00     0.210 HD
ENDBRANCH   3  15
BRANCH   5  17
HETATM   17  C5  UNL     1      10.359   0.003  20.770  1.00  0.00     0.110 C 
HETATM   18 BR2  UNL     1       8.508   0.422  20.372  1.00  0.00    -0.095 Br
ENDBRANCH   5  17
BRANCH   4  19
HETATM   19  O3  UNL     1      11.434  -0.234  24.291  1.00  0.00    -0.391 OA
ATOM     20  H3  UNL     1      11.142  -1.112  24.507  1.00  0.00     0.210 HD
ENDBRANCH   4  19
TORSDOF 8
ENDMDL
MODEL 3
REMARK VINA RESULT: -5.122081988      6.672      9.285
REMARK  8 active torsions:
REMARK  status: ('A' for Active; 'I' for Inactive)
REMARK    1  A    between atoms: C2_3  and  O2_4 
REMARK    2  A    between atoms: C3_6  and  O3_7 
REMARK    3  A    between atoms: C4_9  and  C5_11 
REMARK    4  A    between atoms: N1_14  and  C7_15 
REMARK    5  A    between atoms: C7_15  and  C8_16 
REMARK    6  A    between atoms: C8_16  and  C9_17 
REMARK    7  A    between atoms: C9_17  and  C10_18 
REMARK    8  A    between atoms: C10_18  and  C11_19 
ROOT
HETATM    1  O1  UNL     1      14.460 -10.285  16.127  1.00  0.00    -0.270 OA
HETATM    2  C1  UNL     1      13.282  -9.991  16.374  1.00  0.00     0.251 C 
HETATM    3  C2  UNL     1      12.307  -9.789  15.295  1.00  0.00     0.240 C 
HETATM    4  C3  UNL     1      10.939  -9.485  15.849  1.00  0.00     0.177 C 
HETATM    5  C4  UNL     1      10.602 -10.290  17.054  1.00  0.00     0.072 C 
HETATM    6 BR1  UNL     1       8.980  -9.485  17.820  1.00  0.00    -0.080 Br
HETATM    7  C6  UNL     1      11.617 -10.362  18.130  1.00  0.00     0.150 C 
HETATM    8  N1  UNL     1      12.896  -9.853  17.716  1.00  0.00    -0.348 N 
ENDROOT
BRANCH   8   9
HETATM    9  C7  UNL     1      13.696  -9.247  18.731  1.00  0.00     0.126 C 
BRANCH   9  10
HETATM   10  C8  UNL     1      13.731  -7.800  18.903  1.00  0.00     0.020 C 
BRANCH  10  11
HETATM   11  C9  UNL     1      12.389  -7.124  19.001  1.00  0.00     0.003 C 
BRANCH  11  12
HETATM   12  C10 UNL     1      12.364  -6.089  20.123  1.00  0.00     0.015 C 
BRANCH  12  13
HETATM   13  C11 UNL     1      13.689  -6.017  20.837  1.00  0.00     0.114 C 
HETATM   14 CL1  UNL     1      13.832  -4.461  21.683  1.00  0.00    -0.130 Cl
ENDBRANCH  12  13
ENDBRANCH  11  12
ENDBRANCH  10  11
ENDBRANCH   9  10
ENDBRANCH   8   9
BRANCH   3  15
HETATM   15  O2  UNL     1      12.320 -10.885  14.436  1.00  0.00    -0.383 OA
ATOM     16  H2  UNL     1      11.514 -10.909  13.933  1.00  0.00     0.210 HD
ENDBRANCH   3  15
BRANCH   5  17
HETATM   17  C5  UNL     1      10.240 -11.713  16.610  1.00  0.00     0.110 C 
HETATM   18 BR2  UNL     1       8.805 -11.592  15.312  1.00  0.00    -0.095 Br
ENDBRANCH   5  17
BRANCH   4  19
HETATM   19  O3  UNL     1      10.799  -8.116  16.007  1.00  0.00    -0.391 OA
ATOM     20  H3  UNL     1       9.882  -7.881  15.927  1.00  0.00     0.210 HD
ENDBRANCH   4  19
TORSDOF 8
ENDMDL
MODEL 4
REMARK VINA RESULT: -5.104486832      4.413      5.568
REMARK  8 active torsions:
REMARK  status: ('A' for Active; 'I' for Inactive)
REMARK    1  A    between atoms: C2_3  and  O2_4 
REMARK    2  A    between atoms: C3_6  and  O3_7 
REMARK    3  A    between atoms: C4_9  and  C5_11 
REMARK    4  A    between atoms: N1_14  and  C7_15 
REMARK    5  A    between atoms: C7_15  and  C8_16 
REMARK    6  A    between atoms: C8_16  and  C9_17 
REMARK    7  A    between atoms: C9_17  and  C10_18 
REMARK    8  A    between atoms: C10_18  and  C11_19 
ROOT
HETATM    1  O1  UNL     1      14.959  -7.810  19.358  1.00  0.00    -0.270 OA
HETATM    2  C1  UNL     1      14.212  -7.399  20.258  1.00  0.00     0.251 C 
HETATM    3  C2  UNL     1      14.722  -7.143  21.611  1.00  0.00     0.240 C 
HETATM    4  C3  UNL     1      13.636  -6.608  22.509  1.00  0.00     0.177 C 
HETATM    5  C4  UNL     1      12.735  -5.640  21.828  1.00  0.00     0.072 C 
HETATM    6 BR1  UNL     1      11.205  -5.369  23.032  1.00  0.00    -0.080 Br
HETATM    7  C6  UNL     1      12.199  -6.026  20.502  1.00  0.00     0.150 C 
HETATM    8  N1  UNL     1      12.859  -7.181  19.956  1.00  0.00    -0.348 N 
ENDROOT
BRANCH   8   9
HETATM    9  C7  UNL     1      12.071  -8.025  19.117  1.00  0.00     0.126 C 
BRANCH   9  10
HETATM   10  C8  UNL     1      11.126  -7.467  18.157  1.00  0.00     0.020 C 
BRANCH  10  11
HETATM   11  C9  UNL     1      11.332  -7.885  16.725  1.00  0.00     0.003 C 
BRANCH  11  12
HETATM   12  C10 UNL     1      12.720  -8.483  16.510  1.00  0.00     0.015 C 
BRANCH  12  13
HETATM   13  C11 UNL     1      12.643  -9.840  15.861  1.00  0.00     0.114 C 
HETATM   14 CL1  UNL     1      11.545  -9.777  14.465  1.00  0.00    -0.130 Cl
ENDBRANCH  12  13
ENDBRANCH  11  12
ENDBRANCH  10  11
ENDBRANCH   9  10
ENDBRANCH   8   9
BRANCH   3  15
HETATM   15  O2  UNL     1      15.838  -6.312  21.546  1.00  0.00    -0.383 OA
ATOM     16  H2  UNL     1      16.187  -6.310  20.662  1.00  0.00     0.210 HD
ENDBRANCH   3  15
BRANCH   5  17
HETATM   17  C5  UNL     1      13.462  -4.296  21.702  1.00  0.00     0.110 C 
HETATM   18 BR2  UNL     1      12.200  -2.887  22.127  1.00  0.00    -0.095 Br
ENDBRANCH   5  17
BRANCH   4  19
HETATM   19  O3  UNL     1      12.991  -7.665  23.131  1.00  0.00    -0.391 OA
ATOM     20  H3  UNL     1      13.627  -8.185  23.609  1.00  0.00     0.210 HD
ENDBRANCH   4  19
TORSDOF 8
ENDMDL
MODEL 5
REMARK VINA RESULT: -5.042561511      5.870      7.028
REMARK  8 active torsions:
REMARK  status: ('A' for Active; 'I' for Inactive)
REMARK    1  A    between atoms: C2_3  and  O2_4 
REMARK    2  A    between atoms: C3_6  and  O3_7 
REMARK    3  A    between atoms: C4_9  and  C5_11 
REMARK    4  A    between atoms: N1_14  and  C7_15 
REMARK    5  A    between atoms: C7_15  and  C8_16 
REMARK    6  A    between atoms: C8_16  and  C9_17 
REMARK    7  A    between atoms: C9_17  and  C10_18 
REMARK    8  A    between atoms: C10_18  and  C11_19 
ROOT
HETATM    1  O1  UNL     1      14.850 -10.555  20.406  1.00  0.00    -0.270 OA
HETATM    2  C1  UNL     1      14.085  -9.583  20.474  1.00  0.00     0.251 C 
HETATM    3  C2  UNL     1      13.480  -9.179  21.749  1.00  0.00     0.240 C 
HETATM    4  C3  UNL     1      12.628  -7.947  21.581  1.00  0.00     0.177 C 
HETATM    5  C4  UNL     1      13.222  -6.945  20.656  1.00  0.00     0.072 C 
HETATM    6 BR1  UNL     1      11.810  -5.628  20.289  1.00  0.00    -0.080 Br
HETATM    7  C6  UNL     1      13.726  -7.436  19.352  1.00  0.00     0.150 C 
HETATM    8  N1  UNL     1      13.805  -8.870  19.298  1.00  0.00    -0.348 N 
ENDROOT
BRANCH   8   9
HETATM    9  C7  UNL     1      13.603  -9.468  18.017  1.00  0.00     0.126 C 
BRANCH   9  10
HETATM   10  C8  UNL     1      13.308  -8.658  16.842  1.00  0.00     0.020 C 
BRANCH  10  11
HETATM   11  C9  UNL     1      11.916  -8.803  16.285  1.00  0.00     0.003 C 
BRANCH  11  12
HETATM   12  C10 UNL     1      10.967  -7.762  16.875  1.00  0.00     0.015 C 
BRANCH  12  13
HETATM   13  C11 UNL     1      10.105  -8.354  17.960  1.00  0.00     0.114 C 
HETATM   14 CL1  UNL     1       8.769  -9.273  17.232  1.00  0.00    -0.130 Cl
ENDBRANCH  12  13
ENDBRANCH  11  12
ENDBRANCH  10  11
ENDBRANCH   9  10
ENDBRANCH   8   9
BRANCH   3  15
HETATM   15  O2  UNL     1      14.472  -9.031  22.715  1.00  0.00    -0.383 OA
ATOM     16  H2  UNL     1      14.817  -9.883  22.956  1.00  0.00     0.210 HD
ENDBRANCH   3  15
BRANCH   5  17
HETATM   17  C5  UNL     1      14.353  -6.211  21.386  1.00  0.00     0.110 C 
HETATM   18 BR2  UNL     1      13.687  -4.476  21.938  1.00  0.00    -0.095 Br
ENDBRANCH   5  17
BRANCH   4  19
HETATM   19  O3  UNL     1      11.330  -8.324  21.275  1.00  0.00    -0.391 OA
ATOM     20  H3  UNL     1      10.762  -8.122  22.010  1.00  0.00     0.210 HD
ENDBRANCH   4  19
TORSDOF 8
ENDMDL
