MODEL 1
REMARK VINA RESULT: -5.188112591      0.000      0.000
REMARK  7 active torsions:
REMARK  status: ('A' for Active; 'I' for Inactive)
REMARK    1  A    between atoms: N2_5  and  C3_6 
REMARK    2  A    between atoms: C3_6  and  C4_7 
REMARK    3  A    between atoms: C4_7  and  O1_8 
REMARK    4  A    between atoms: C4_7  and  C5_10 
REMARK    5  A    between atoms: C5_10  and  N3_11 
REMARK    6  A    between atoms: N3_11  and  C8_14 
REMARK    7  A    between atoms: C9_18  and  C10_19 
ROOT
HETATM    1  C1  UNL     1      12.473  -5.238  20.637  1.00  0.00     0.055 C 
HETATM    2  C2  UNL     1      13.667  -5.237  21.568  1.00  0.00     0.146 C 
HETATM    3 BR1  UNL     1      15.095  -6.329  20.855  1.00  0.00    -0.058 Br
HETATM    4  N1  UNL     1      14.119  -3.910  21.873  1.00  0.00    -0.095 NA
HETATM    5  N2  UNL     1      13.452  -3.578  23.049  1.00  0.00    -0.234 N 
HETATM    6  N4  UNL     1      13.094  -4.770  23.672  1.00  0.00    -0.291 N 
ATOM      7  H4  UNL     1      12.788  -4.845  24.643  1.00  0.00     0.187 HD
HETATM    8  C9  UNL     1      13.198  -5.761  22.869  1.00  0.00     0.051 C 
ENDROOT
BRANCH   5   9
HETATM    9  C3  UNL     1      13.178  -2.251  23.540  1.00  0.00     0.198 C 
BRANCH   9  10
HETATM   10  C4  UNL     1      12.588  -1.340  22.486  1.00  0.00     0.165 C 
BRANCH  10  11
HETATM   11  O1  UNL     1      13.421  -1.203  21.385  1.00  0.00    -0.392 OA
ATOM     12  H1  UNL     1      12.999  -0.741  20.670  1.00  0.00     0.210 HD
ENDBRANCH  10  11
BRANCH  10  13
HETATM   13  C5  UNL     1      11.243  -1.888  22.123  1.00  0.00     0.271 C 
BRANCH  13  14
HETATM   14  N3  UNL     1      10.212  -0.886  22.030  1.00  0.00    -0.060 N 
HETATM   15  C6  UNL     1       8.953  -1.335  22.580  1.00  0.00     0.273 C 
HETATM   16  C7  UNL     1      10.649   0.234  22.880  1.00  0.00     0.273 C 
BRANCH  14  17
HETATM   17  C8  UNL     1      10.027  -0.365  20.717  1.00  0.00     0.350 C 
HETATM   18 CL1  UNL     1       8.328   0.070  20.375  1.00  0.00    -0.101 Cl
ENDBRANCH  14  17
ENDBRANCH  13  14
ENDBRANCH  10  13
ENDBRANCH   9  10
ENDBRANCH   5   9
BRANCH   8  19
HETATM   19  C10 UNL     1      12.901  -7.215  23.166  1.00  0.00     0.142 C 
HETATM   20 BR2  UNL     1      13.211  -7.600  25.032  1.00  0.00    -0.090 Br
ENDBRANCH   8  19
TORSDOF 7
ENDMDL
MODEL 2
REMARK VINA RESULT: -4.995981966      2.335      3.212
REMARK  7 active torsions:
REMARK  status: ('A' for Active; 'I' for Inactive)
REMARK    1  A    between atoms: N2_5  and  C3_6 
REMARK    2  A    between atoms: C3_6  and  C4_7 
REMARK    3  A    between atoms: C4_7  and  O1_8 
REMARK    4  A    between atoms: C4_7  and  C5_10 
REMARK    5  A    between atoms: C5_10  and  N3_11 
REMARK    6  A    between atoms: N3_11  and  C8_14 
REMARK    7  A    between atoms: C9_18  and  C10_19 
ROOT
HETATM    1  C1  UNL     1      15.163  -6.369  20.953  1.00  0.00     0.055 C 
HETATM    2  C2  UNL     1      13.774  -6.908  21.226  1.00  0.00     0.146 C 
HETATM    3 BR1  UNL     1      13.838  -8.797  21.633  1.00  0.00    -0.058 Br
HETATM    4  N1  UNL     1      13.095  -6.169  22.252  1.00  0.00    -0.095 NA
HETATM    5  N2  UNL     1      12.369  -5.203  21.560  1.00  0.00    -0.234 N 
HETATM    6  N4  UNL     1      12.187  -5.672  20.262  1.00  0.00    -0.291 N 
ATOM      7  H4  UNL     1      11.518  -5.283  19.597  1.00  0.00     0.187 HD
HETATM    8  C9  UNL     1      12.969  -6.654  20.012  1.00  0.00     0.051 C 
ENDROOT
BRANCH   5   9
HETATM    9  C3  UNL     1      11.890  -3.948  22.082  1.00  0.00     0.198 C 
BRANCH   9  10
HETATM   10  C4  UNL     1      13.001  -2.959  22.360  1.00  0.00     0.165 C 
BRANCH  10  11
HETATM   11  O1  UNL     1      14.218  -3.377  21.841  1.00  0.00    -0.392 OA
ATOM     12  H1  UNL     1      14.956  -2.993  22.301  1.00  0.00     0.210 HD
ENDBRANCH  10  11
BRANCH  10  13
HETATM   13  C5  UNL     1      12.568  -1.634  21.812  1.00  0.00     0.271 C 
BRANCH  13  14
HETATM   14  N3  UNL     1      12.344  -0.633  22.822  1.00  0.00    -0.060 N 
HETATM   15  C6  UNL     1      12.957  -0.974  24.086  1.00  0.00     0.273 C 
HETATM   16  C7  UNL     1      13.030   0.583  22.355  1.00  0.00     0.273 C 
BRANCH  14  17
HETATM   17  C8  UNL     1      10.972  -0.292  23.007  1.00  0.00     0.350 C 
HETATM   18 CL1  UNL     1       9.927  -0.868  21.678  1.00  0.00    -0.101 Cl
ENDBRANCH  14  17
ENDBRANCH  13  14
ENDBRANCH  10  13
ENDBRANCH   9  10
ENDBRANCH   5   9
BRANCH   8  19
HETATM   19  C10 UNL     1      13.074  -7.432  18.718  1.00  0.00     0.142 C 
HETATM   20 BR2  UNL     1      11.321  -7.743  17.972  1.00  0.00    -0.090 Br
ENDBRANCH   8  19
TORSDOF 7
ENDMDL
MODEL 3
REMARK VINA RESULT: -4.958453322      3.058      3.933
REMARK  7 active torsions:
REMARK  status: ('A' for Active; 'I' for Inactive)
REMARK    1  A    between atoms: N2_5  and  C3_6 
REMARK    2  A    between atoms: C3_6  and  C4_7 
REMARK    3  A    between atoms: C4_7  and  O1_8 
REMARK    4  A    between atoms: C4_7  and  C5_10 
REMARK    5  A    between atoms: C5_10  and  N3_11 
REMARK    6  A    between atoms: N3_11  and  C8_14 
REMARK    7  A    between atoms: C9_18  and  C10_19 
ROOT
HETATM    1  C1  UNL     1      15.159  -6.579  20.543  1.00  0.00     0.055 C 
HETATM    2  C2  UNL     1      13.776  -7.105  20.870  1.00  0.00     0.146 C 
HETATM    3 BR1  UNL     1      13.859  -8.951  21.438  1.00  0.00    -0.058 Br
HETATM    4  N1  UNL     1      13.095  -6.285  21.831  1.00  0.00    -0.095 NA
HETATM    5  N2  UNL     1      12.358  -5.389  21.062  1.00  0.00    -0.234 N 
HETATM    6  N4  UNL     1      12.174  -5.970  19.811  1.00  0.00    -0.291 N 
ATOM      7  H4  UNL     1      11.498  -5.647  19.118  1.00  0.00     0.187 HD
HETATM    8  C9  UNL     1      12.963  -6.964  19.642  1.00  0.00     0.051 C 
ENDROOT
BRANCH   5   9
HETATM    9  C3  UNL     1      11.870  -4.097  21.476  1.00  0.00     0.198 C 
BRANCH   9  10
HETATM   10  C4  UNL     1      12.900  -3.290  22.233  1.00  0.00     0.165 C 
BRANCH  10  11
HETATM   11  O1  UNL     1      14.193  -3.558  21.809  1.00  0.00    -0.392 OA
ATOM     12  H1  UNL     1      14.666  -4.108  22.423  1.00  0.00     0.210 HD
ENDBRANCH  10  11
BRANCH  10  13
HETATM   13  C5  UNL     1      12.535  -1.845  22.083  1.00  0.00     0.271 C 
BRANCH  13  14
HETATM   14  N3  UNL     1      12.250  -1.184  23.330  1.00  0.00    -0.060 N 
HETATM   15  C6  UNL     1      13.092  -0.030  23.549  1.00  0.00     0.273 C 
HETATM   16  C7  UNL     1      10.876  -0.667  23.216  1.00  0.00     0.273 C 
BRANCH  14  17
HETATM   17  C8  UNL     1      12.278  -2.047  24.464  1.00  0.00     0.350 C 
HETATM   18 CL1  UNL     1      13.782  -1.896  25.415  1.00  0.00    -0.101 Cl
ENDBRANCH  14  17
ENDBRANCH  13  14
ENDBRANCH  10  13
ENDBRANCH   9  10
ENDBRANCH   5   9
BRANCH   8  19
HETATM   19  C10 UNL     1      13.069  -7.850  18.420  1.00  0.00     0.142 C 
HETATM   20 BR2  UNL     1      11.388  -7.899  17.473  1.00  0.00    -0.090 Br
ENDBRANCH   8  19
TORSDOF 7
ENDMDL
MODEL 4
REMARK VINA RESULT: -4.866405210      2.816      3.710
REMARK  7 active torsions:
REMARK  status: ('A' for Active; 'I' for Inactive)
REMARK    1  A    between atoms: N2_5  and  C3_6 
REMARK    2  A    between atoms: C3_6  and  C4_7 
REMARK    3  A    between atoms: C4_7  and  O1_8 
REMARK    4  A    between atoms: C4_7  and  C5_10 
REMARK    5  A    between atoms: C5_10  and  N3_11 
REMARK    6  A    between atoms: N3_11  and  C8_14 
REMARK    7  A    between atoms: C9_18  and  C10_19 
ROOT
HETATM    1  C1  UNL     1      15.071  -6.655  20.497  1.00  0.00     0.055 C 
HETATM    2  C2  UNL     1      13.678  -7.145  20.837  1.00  0.00     0.146 C 
HETATM    3 BR1  UNL     1      13.710  -9.014  21.332  1.00  0.00    -0.058 Br
HETATM    4  N1  UNL     1      13.049  -6.341  21.846  1.00  0.00    -0.095 NA
HETATM    5  N2  UNL     1      12.326  -5.390  21.130  1.00  0.00    -0.234 N 
HETATM    6  N4  UNL     1      12.093  -5.915  19.862  1.00  0.00    -0.291 N 
ATOM      7  H4  UNL     1      11.414  -5.542  19.199  1.00  0.00     0.187 HD
HETATM    8  C9  UNL     1      12.843  -6.928  19.636  1.00  0.00     0.051 C 
ENDROOT
BRANCH   5   9
HETATM    9  C3  UNL     1      11.894  -4.100  21.605  1.00  0.00     0.198 C 
BRANCH   9  10
HETATM   10  C4  UNL     1      12.994  -3.324  22.295  1.00  0.00     0.165 C 
BRANCH  10  11
HETATM   11  O1  UNL     1      14.241  -3.578  21.744  1.00  0.00    -0.392 OA
ATOM     12  H1  UNL     1      14.687  -4.296  22.178  1.00  0.00     0.210 HD
ENDBRANCH  10  11
BRANCH  10  13
HETATM   13  C5  UNL     1      12.623  -1.875  22.237  1.00  0.00     0.271 C 
BRANCH  13  14
HETATM   14  N3  UNL     1      12.486  -1.256  23.530  1.00  0.00    -0.060 N 
HETATM   15  C6  UNL     1      11.113  -1.211  23.978  1.00  0.00     0.273 C 
HETATM   16  C7  UNL     1      13.195  -2.128  24.481  1.00  0.00     0.273 C 
BRANCH  14  17
HETATM   17  C8  UNL     1      13.085   0.034  23.622  1.00  0.00     0.350 C 
HETATM   18 CL1  UNL     1      13.433   0.755  22.025  1.00  0.00    -0.101 Cl
ENDBRANCH  14  17
ENDBRANCH  13  14
ENDBRANCH  10  13
ENDBRANCH   9  10
ENDBRANCH   5   9
BRANCH   8  19
HETATM   19  C10 UNL     1      12.889  -7.769  18.379  1.00  0.00     0.142 C 
HETATM   20 BR2  UNL     1      11.165  -7.781  17.510  1.00  0.00    -0.090 Br
ENDBRANCH   8  19
TORSDOF 7
ENDMDL
MODEL 5
REMARK VINA RESULT: -4.825478379      6.131      7.823
REMARK  7 active torsions:
REMARK  status: ('A' for Active; 'I' for Inactive)
REMARK    1  A    between atoms: N2_5  and  C3_6 
REMARK    2  A    between atoms: C3_6  and  C4_7 
REMARK    3  A    between atoms: C4_7  and  O1_8 
REMARK    4  A    between atoms: C4_7  and  C5_10 
REMARK    5  A    between atoms: C5_10  and  N3_11 
REMARK    6  A    between atoms: N3_11  and  C8_14 
REMARK    7  A    between atoms: C9_18  and  C10_19 
ROOT
HETATM    1  C1  UNL     1      15.647  -6.549  20.539  1.00  0.00     0.055 C 
HETATM    2  C2  UNL     1      14.230  -7.076  20.439  1.00  0.00     0.146 C 
HETATM    3 BR1  UNL     1      12.948  -5.663  20.759  1.00  0.00    -0.058 Br
HETATM    4  N1  UNL     1      13.983  -7.741  19.192  1.00  0.00    -0.095 NA
HETATM    5  N2  UNL     1      14.252  -9.082  19.456  1.00  0.00    -0.234 N 
HETATM    6  N4  UNL     1      14.118  -9.269  20.829  1.00  0.00    -0.291 N 
ATOM      7  H4  UNL     1      14.044 -10.180  21.283  1.00  0.00     0.187 HD
HETATM    8  C9  UNL     1      14.099  -8.149  21.448  1.00  0.00     0.051 C 
ENDROOT
BRANCH   5   9
HETATM    9  C3  UNL     1      14.604 -10.096  18.494  1.00  0.00     0.198 C 
BRANCH   9  10
HETATM   10  C4  UNL     1      14.063  -9.812  17.110  1.00  0.00     0.165 C 
BRANCH  10  11
HETATM   11  O1  UNL     1      14.954 -10.181  16.112  1.00  0.00    -0.392 OA
ATOM     12  H1  UNL     1      15.153 -11.109  16.134  1.00  0.00     0.210 HD
ENDBRANCH  10  11
BRANCH  10  13
HETATM   13  C5  UNL     1      12.745 -10.513  16.992  1.00  0.00     0.271 C 
BRANCH  13  14
HETATM   14  N3  UNL     1      11.763  -9.782  16.235  1.00  0.00    -0.060 N 
HETATM   15  C6  UNL     1      11.678 -10.228  14.863  1.00  0.00     0.273 C 
HETATM   16  C7  UNL     1      10.459 -10.094  16.844  1.00  0.00     0.273 C 
BRANCH  14  17
HETATM   17  C8  UNL     1      11.921  -8.367  16.292  1.00  0.00     0.350 C 
HETATM   18 CL1  UNL     1      10.801  -7.588  17.445  1.00  0.00    -0.101 Cl
ENDBRANCH  14  17
ENDBRANCH  13  14
ENDBRANCH  10  13
ENDBRANCH   9  10
ENDBRANCH   5   9
BRANCH   8  19
HETATM   19  C10 UNL     1      13.969  -7.931  22.941  1.00  0.00     0.142 C 
HETATM   20 BR2  UNL     1      12.196  -8.404  23.541  1.00  0.00    -0.090 Br
ENDBRANCH   8  19
TORSDOF 7
ENDMDL
