MODEL 1
REMARK VINA RESULT: -8.797083351      0.000      0.000
REMARK  4 active torsions:
REMARK  status: ('A' for Active; 'I' for Inactive)
REMARK    1  A    between atoms: C5_5  and  C6_6 
REMARK    2  A    between atoms: C7_7  and  C8_8 
REMARK    3  A    between atoms: C8_8  and  C9_9 
REMARK    4  A    between atoms: C9_9  and  C10_10 
ROOT
HETATM    1  C1  UNL     1      -2.494   7.304  13.187  1.00  0.00     0.017 C 
HETATM    2  C2  UNL     1      -3.017   6.213  13.657  1.00  0.00    -0.053 C 
HETATM    3  C3  UNL     1      -4.108   6.340  14.729  1.00  0.00     0.037 C 
HETATM    4  C4  UNL     1      -5.397   5.742  14.232  1.00  0.00     0.016 C 
HETATM    5  C5  UNL     1      -5.516   4.243  14.210  1.00  0.00     0.043 C 
HETATM    6  C11 UNL     1      -4.343   3.529  13.703  1.00  0.00     0.069 A 
HETATM    7  C12 UNL     1      -4.381   2.382  12.767  1.00  0.00     0.040 C 
HETATM    8  C13 UNL     1      -2.942   2.186  12.284  1.00  0.00     0.016 C 
HETATM    9  C14 UNL     1      -2.260   3.179  11.496  1.00  0.00     0.011 C 
HETATM   10  C15 UNL     1      -0.994   2.534  10.895  1.00  0.00     0.019 C 
HETATM   11  C16 UNL     1      -2.978   3.895  10.396  1.00  0.00     0.244 C 
HETATM   12  N1  UNL     1      -2.342   5.123  10.865  1.00  0.00    -0.066 N 
ATOM     13  H11 UNL     1      -2.914   5.964  10.943  1.00  0.00     0.277 HD
ATOM     14  H12 UNL     1      -1.679   5.590  10.246  1.00  0.00     0.277 HD
HETATM   15  C17 UNL     1      -1.829   4.508  12.103  1.00  0.00     0.234 C 
HETATM   16  C18 UNL     1      -2.646   4.869  13.243  1.00  0.00     0.114 A 
HETATM   17  C19 UNL     1      -2.223   4.113  14.447  1.00  0.00     0.048 A 
HETATM   18  C20 UNL     1      -3.377   3.264  14.771  1.00  0.00     0.042 A 
HETATM   19  O3  UNL     1      -3.875   4.432  12.769  1.00  0.00    -0.362 OA
ENDROOT
BRANCH   5  20
HETATM   20  C6  UNL     1      -6.058   3.762  15.496  1.00  0.00    -0.023 C 
HETATM   21  C7  UNL     1      -6.770   2.676  15.698  1.00  0.00    -0.030 C 
BRANCH  21  22
HETATM   22  C8  UNL     1      -7.271   2.274  17.023  1.00  0.00     0.037 C 
BRANCH  22  23
HETATM   23  C9  UNL     1      -6.171   1.772  17.931  1.00  0.00     0.117 C 
BRANCH  23  24
HETATM   24  C10 UNL     1      -5.559   0.578  17.297  1.00  0.00     0.172 C 
HETATM   25  O1  UNL     1      -6.157  -0.516  17.254  1.00  0.00    -0.648 OA
HETATM   26  O2  UNL     1      -4.286   0.716  16.744  1.00  0.00    -0.648 OA
ENDBRANCH  23  24
ENDBRANCH  22  23
ENDBRANCH  21  22
ENDBRANCH   5  20
TORSDOF 4
ENDMDL
MODEL 2
REMARK VINA RESULT: -8.214299215      1.652      3.260
REMARK  4 active torsions:
REMARK  status: ('A' for Active; 'I' for Inactive)
REMARK    1  A    between atoms: C5_5  and  C6_6 
REMARK    2  A    between atoms: C7_7  and  C8_8 
REMARK    3  A    between atoms: C8_8  and  C9_9 
REMARK    4  A    between atoms: C9_9  and  C10_10 
ROOT
HETATM    1  C1  UNL     1      -3.221   0.394  10.556  1.00  0.00     0.017 C 
HETATM    2  C2  UNL     1      -3.484   1.389  11.348  1.00  0.00    -0.053 C 
HETATM    3  C3  UNL     1      -4.389   1.128  12.560  1.00  0.00     0.037 C 
HETATM    4  C4  UNL     1      -3.643   1.407  13.837  1.00  0.00     0.016 C 
HETATM    5  C5  UNL     1      -3.437   2.843  14.232  1.00  0.00     0.043 C 
HETATM    6  C11 UNL     1      -3.033   3.740  13.148  1.00  0.00     0.069 A 
HETATM    7  C12 UNL     1      -1.980   4.776  13.244  1.00  0.00     0.040 C 
HETATM    8  C13 UNL     1      -1.697   5.224  11.809  1.00  0.00     0.016 C 
HETATM    9  C14 UNL     1      -1.135   4.333  10.829  1.00  0.00     0.011 C 
HETATM   10  C15 UNL     1      -0.660   5.173   9.625  1.00  0.00     0.019 C 
HETATM   11  C16 UNL     1      -0.027   3.399  11.204  1.00  0.00     0.244 C 
HETATM   12  N1  UNL     1      -0.718   2.369  10.434  1.00  0.00    -0.066 N 
ATOM     13  H11 UNL     1      -0.804   1.438  10.841  1.00  0.00     0.277 HD
ATOM     14  H12 UNL     1      -0.260   1.999   9.600  1.00  0.00     0.277 HD
HETATM   15  C17 UNL     1      -1.943   3.173  10.262  1.00  0.00     0.234 C 
HETATM   16  C18 UNL     1      -2.982   2.744  11.174  1.00  0.00     0.114 A 
HETATM   17  C19 UNL     1      -4.144   3.664  11.110  1.00  0.00     0.048 A 
HETATM   18  C20 UNL     1      -4.197   4.282  12.442  1.00  0.00     0.042 A 
HETATM   19  O3  UNL     1      -2.285   2.880  12.367  1.00  0.00    -0.362 OA
ENDROOT
BRANCH   5  20
HETATM   20  C6  UNL     1      -4.566   3.304  15.063  1.00  0.00    -0.023 C 
HETATM   21  C7  UNL     1      -5.655   2.632  15.361  1.00  0.00    -0.030 C 
BRANCH  21  22
HETATM   22  C8  UNL     1      -6.734   3.176  16.203  1.00  0.00     0.037 C 
BRANCH  22  23
HETATM   23  C9  UNL     1      -6.830   2.484  17.543  1.00  0.00     0.117 C 
BRANCH  23  24
HETATM   24  C10 UNL     1      -6.532   1.044  17.340  1.00  0.00     0.172 C 
HETATM   25  O1  UNL     1      -7.294   0.308  16.680  1.00  0.00    -0.648 OA
HETATM   26  O2  UNL     1      -5.367   0.533  17.912  1.00  0.00    -0.648 OA
ENDBRANCH  23  24
ENDBRANCH  22  23
ENDBRANCH  21  22
ENDBRANCH   5  20
TORSDOF 4
ENDMDL
MODEL 3
REMARK VINA RESULT: -7.613694778      1.099      1.391
REMARK  4 active torsions:
REMARK  status: ('A' for Active; 'I' for Inactive)
REMARK    1  A    between atoms: C5_5  and  C6_6 
REMARK    2  A    between atoms: C7_7  and  C8_8 
REMARK    3  A    between atoms: C8_8  and  C9_9 
REMARK    4  A    between atoms: C9_9  and  C10_10 
ROOT
HETATM    1  C1  UNL     1      -2.833   7.779  12.106  1.00  0.00     0.017 C 
HETATM    2  C2  UNL     1      -2.986   6.620  12.672  1.00  0.00    -0.053 C 
HETATM    3  C3  UNL     1      -4.111   6.464  13.704  1.00  0.00     0.037 C 
HETATM    4  C4  UNL     1      -5.099   5.427  13.243  1.00  0.00     0.016 C 
HETATM    5  C5  UNL     1      -4.710   3.979  13.369  1.00  0.00     0.043 C 
HETATM    6  C11 UNL     1      -3.342   3.661  12.958  1.00  0.00     0.069 A 
HETATM    7  C12 UNL     1      -2.945   2.492  12.140  1.00  0.00     0.040 C 
HETATM    8  C13 UNL     1      -1.501   2.750  11.708  1.00  0.00     0.016 C 
HETATM    9  C14 UNL     1      -1.149   3.843  10.840  1.00  0.00     0.011 C 
HETATM   10  C15 UNL     1       0.290   3.612  10.330  1.00  0.00     0.019 C 
HETATM   11  C16 UNL     1      -2.006   4.176   9.659  1.00  0.00     0.244 C 
HETATM   12  N1  UNL     1      -1.842   5.582  10.016  1.00  0.00    -0.066 N 
ATOM     13  H11 UNL     1      -2.664   6.184   9.999  1.00  0.00     0.277 HD
ATOM     14  H12 UNL     1      -1.341   6.190   9.367  1.00  0.00     0.277 HD
HETATM   15  C17 UNL     1      -1.218   5.287  11.320  1.00  0.00     0.234 C 
HETATM   16  C18 UNL     1      -2.167   5.449  12.401  1.00  0.00     0.114 A 
HETATM   17  C19 UNL     1      -1.579   4.987  13.683  1.00  0.00     0.048 A 
HETATM   18  C20 UNL     1      -2.399   3.831  14.067  1.00  0.00     0.042 A 
HETATM   19  O3  UNL     1      -3.153   4.584  11.949  1.00  0.00    -0.362 OA
ENDROOT
BRANCH   5  20
HETATM   20  C6  UNL     1      -5.127   3.457  14.684  1.00  0.00    -0.023 C 
HETATM   21  C7  UNL     1      -6.314   3.565  15.239  1.00  0.00    -0.030 C 
BRANCH  21  22
HETATM   22  C8  UNL     1      -6.640   3.009  16.563  1.00  0.00     0.037 C 
BRANCH  22  23
HETATM   23  C9  UNL     1      -5.659   1.947  17.004  1.00  0.00     0.117 C 
BRANCH  23  24
HETATM   24  C10 UNL     1      -6.361   0.640  16.996  1.00  0.00     0.172 C 
HETATM   25  O1  UNL     1      -5.774  -0.417  17.306  1.00  0.00    -0.648 OA
HETATM   26  O2  UNL     1      -7.707   0.627  16.630  1.00  0.00    -0.648 OA
ENDBRANCH  23  24
ENDBRANCH  22  23
ENDBRANCH  21  22
ENDBRANCH   5  20
TORSDOF 4
ENDMDL
MODEL 4
REMARK VINA RESULT: -7.467315563      1.270      1.530
REMARK  4 active torsions:
REMARK  status: ('A' for Active; 'I' for Inactive)
REMARK    1  A    between atoms: C5_5  and  C6_6 
REMARK    2  A    between atoms: C7_7  and  C8_8 
REMARK    3  A    between atoms: C8_8  and  C9_9 
REMARK    4  A    between atoms: C9_9  and  C10_10 
ROOT
HETATM    1  C1  UNL     1      -1.929   7.852  13.138  1.00  0.00     0.017 C 
HETATM    2  C2  UNL     1      -2.445   6.666  13.250  1.00  0.00    -0.053 C 
HETATM    3  C3  UNL     1      -3.460   6.425  14.375  1.00  0.00     0.037 C 
HETATM    4  C4  UNL     1      -4.792   6.029  13.798  1.00  0.00     0.016 C 
HETATM    5  C5  UNL     1      -4.947   4.624  13.284  1.00  0.00     0.043 C 
HETATM    6  C11 UNL     1      -3.827   4.122  12.486  1.00  0.00     0.069 A 
HETATM    7  C12 UNL     1      -3.952   3.357  11.225  1.00  0.00     0.040 C 
HETATM    8  C13 UNL     1      -2.553   3.334  10.605  1.00  0.00     0.016 C 
HETATM    9  C14 UNL     1      -1.902   4.534  10.150  1.00  0.00     0.011 C 
HETATM   10  C15 UNL     1      -0.693   4.129   9.280  1.00  0.00     0.019 C 
HETATM   11  C16 UNL     1      -2.674   5.578   9.407  1.00  0.00     0.244 C 
HETATM   12  N1  UNL     1      -1.981   6.578  10.213  1.00  0.00    -0.066 N 
ATOM     13  H11 UNL     1      -2.527   7.343  10.609  1.00  0.00     0.277 HD
ATOM     14  H12 UNL     1      -1.349   7.226   9.742  1.00  0.00     0.277 HD
HETATM   15  C17 UNL     1      -1.401   5.582  11.136  1.00  0.00     0.234 C 
HETATM   16  C18 UNL     1      -2.133   5.540  12.385  1.00  0.00     0.114 A 
HETATM   17  C19 UNL     1      -1.649   4.423  13.233  1.00  0.00     0.048 A 
HETATM   18  C20 UNL     1      -2.798   3.514  13.334  1.00  0.00     0.042 A 
HETATM   19  O3  UNL     1      -3.400   5.287  11.878  1.00  0.00    -0.362 OA
ENDROOT
BRANCH   5  20
HETATM   20  C6  UNL     1      -5.415   3.739  14.368  1.00  0.00    -0.023 C 
HETATM   21  C7  UNL     1      -6.284   4.031  15.308  1.00  0.00    -0.030 C 
BRANCH  21  22
HETATM   22  C8  UNL     1      -6.693   3.078  16.354  1.00  0.00     0.037 C 
BRANCH  22  23
HETATM   23  C9  UNL     1      -5.744   1.908  16.476  1.00  0.00     0.117 C 
BRANCH  23  24
HETATM   24  C10 UNL     1      -6.527   0.723  16.905  1.00  0.00     0.172 C 
HETATM   25  O1  UNL     1      -7.773   0.748  16.956  1.00  0.00    -0.648 OA
HETATM   26  O2  UNL     1      -5.824  -0.431  17.251  1.00  0.00    -0.648 OA
ENDBRANCH  23  24
ENDBRANCH  22  23
ENDBRANCH  21  22
ENDBRANCH   5  20
TORSDOF 4
ENDMDL
MODEL 5
REMARK VINA RESULT: -7.387592701      1.577      3.664
REMARK  4 active torsions:
REMARK  status: ('A' for Active; 'I' for Inactive)
REMARK    1  A    between atoms: C5_5  and  C6_6 
REMARK    2  A    between atoms: C7_7  and  C8_8 
REMARK    3  A    between atoms: C8_8  and  C9_9 
REMARK    4  A    between atoms: C9_9  and  C10_10 
ROOT
HETATM    1  C1  UNL     1      -3.641   4.633   9.594  1.00  0.00     0.017 C 
HETATM    2  C2  UNL     1      -3.678   4.745  10.887  1.00  0.00    -0.053 C 
HETATM    3  C3  UNL     1      -3.906   3.472  11.715  1.00  0.00     0.037 C 
HETATM    4  C4  UNL     1      -2.727   3.219  12.615  1.00  0.00     0.016 C 
HETATM    5  C5  UNL     1      -2.591   4.065  13.852  1.00  0.00     0.043 C 
HETATM    6  C11 UNL     1      -2.848   5.494  13.665  1.00  0.00     0.069 A 
HETATM    7  C12 UNL     1      -2.034   6.590  14.236  1.00  0.00     0.040 C 
HETATM    8  C13 UNL     1      -2.484   7.866  13.522  1.00  0.00     0.016 C 
HETATM    9  C14 UNL     1      -2.281   8.061  12.111  1.00  0.00     0.011 C 
HETATM   10  C15 UNL     1      -2.520   9.552  11.789  1.00  0.00     0.019 C 
HETATM   11  C16 UNL     1      -0.993   7.653  11.469  1.00  0.00     0.244 C 
HETATM   12  N1  UNL     1      -1.784   7.109  10.370  1.00  0.00    -0.066 N 
ATOM     13  H11 UNL     1      -1.538   6.188  10.006  1.00  0.00     0.277 HD
ATOM     14  H12 UNL     1      -1.690   7.536   9.448  1.00  0.00     0.277 HD
HETATM   15  C17 UNL     1      -3.068   7.259  11.082  1.00  0.00     0.234 C 
HETATM   16  C18 UNL     1      -3.519   5.992  11.618  1.00  0.00     0.114 A 
HETATM   17  C19 UNL     1      -4.717   6.186  12.472  1.00  0.00     0.048 A 
HETATM   18  C20 UNL     1      -4.272   5.804  13.819  1.00  0.00     0.042 A 
HETATM   19  O3  UNL     1      -2.399   5.671  12.371  1.00  0.00    -0.362 OA
ENDROOT
BRANCH   5  20
HETATM   20  C6  UNL     1      -3.295   3.424  14.979  1.00  0.00    -0.023 C 
HETATM   21  C7  UNL     1      -3.597   2.152  15.104  1.00  0.00    -0.030 C 
BRANCH  21  22
HETATM   22  C8  UNL     1      -4.304   1.600  16.272  1.00  0.00     0.037 C 
BRANCH  22  23
HETATM   23  C9  UNL     1      -5.753   2.025  16.327  1.00  0.00     0.117 C 
BRANCH  23  24
HETATM   24  C10 UNL     1      -6.554   0.870  16.803  1.00  0.00     0.172 C 
HETATM   25  O1  UNL     1      -7.797   0.932  16.896  1.00  0.00    -0.648 OA
HETATM   26  O2  UNL     1      -5.872  -0.298  17.146  1.00  0.00    -0.648 OA
ENDBRANCH  23  24
ENDBRANCH  22  23
ENDBRANCH  21  22
ENDBRANCH   5  20
TORSDOF 4
ENDMDL
