MODEL 1
REMARK VINA RESULT: -6.509929102      0.000      0.000
REMARK  6 active torsions:
REMARK  status: ('A' for Active; 'I' for Inactive)
REMARK    1  A    between atoms: C12_13  and  N2_14 
REMARK    2  A    between atoms: N2_14  and  C13_16 
REMARK    3  A    between atoms: C13_16  and  N3_18 
REMARK    4  A    between atoms: N3_18  and  C14_20 
REMARK    5  A    between atoms: C14_20  and  C15_21 
REMARK    6  A    between atoms: C15_21  and  C16_22 
ROOT
HETATM    1  C1  UNL     1      -2.045   5.086   9.845  1.00  0.00     0.060 C 
HETATM    2  C2  UNL     1      -2.341   4.069  10.927  1.00  0.00     0.024 C 
HETATM    3  C3  UNL     1      -1.775   2.788  10.668  1.00  0.00     0.095 C 
HETATM    4  N1  UNL     1      -1.265   1.747  10.416  1.00  0.00    -0.192 NA
HETATM    5  C4  UNL     1      -2.987   4.446  11.979  1.00  0.00    -0.032 C 
HETATM    6  C5  UNL     1      -3.366   5.923  11.985  1.00  0.00     0.019 C 
HETATM    7  C6  UNL     1      -2.413   6.509  13.031  1.00  0.00     0.014 C 
HETATM    8  C7  UNL     1      -2.726   5.881  14.353  1.00  0.00    -0.011 C 
HETATM    9  C8  UNL     1      -4.168   6.197  14.699  1.00  0.00     0.009 C 
HETATM   10  C9  UNL     1      -5.046   5.465  13.728  1.00  0.00    -0.011 C 
HETATM   11  C10 UNL     1      -4.800   6.069  12.336  1.00  0.00     0.014 C 
HETATM   12  C11 UNL     1      -4.802   3.995  13.659  1.00  0.00     0.040 C 
HETATM   13  C12 UNL     1      -3.368   3.732  13.188  1.00  0.00     0.058 C 
HETATM   14  C17 UNL     1      -2.525   4.400  14.312  1.00  0.00     0.040 C 
ENDROOT
BRANCH  13  15
HETATM   15  N2  UNL     1      -3.116   2.329  13.243  1.00  0.00    -0.354 N 
ATOM     16  H2  UNL     1      -2.143   2.071  13.405  1.00  0.00     0.163 HD
BRANCH  15  17
HETATM   17  C13 UNL     1      -3.998   1.251  13.110  1.00  0.00     0.168 C 
HETATM   18  S1  UNL     1      -4.672   0.688  11.744  1.00  0.00    -0.041 SA
BRANCH  17  19
HETATM   19  N3  UNL     1      -4.365   0.517  14.306  1.00  0.00    -0.367 N 
ATOM     20  H3  UNL     1      -5.017  -0.265  14.251  1.00  0.00     0.161 HD
BRANCH  19  21
HETATM   21  C14 UNL     1      -3.800   0.904  15.566  1.00  0.00     0.123 C 
BRANCH  21  22
HETATM   22  C15 UNL     1      -4.783   1.709  16.374  1.00  0.00     0.031 C 
BRANCH  22  23
HETATM   23  C16 UNL     1      -5.687   0.787  17.136  1.00  0.00     0.088 C 
HETATM   24  S2  UNL     1      -7.436   1.262  16.952  1.00  0.00    -0.098 SA
ENDBRANCH  22  23
ENDBRANCH  21  22
ENDBRANCH  19  21
ENDBRANCH  17  19
ENDBRANCH  15  17
ENDBRANCH  13  15
TORSDOF 6
ENDMDL
MODEL 2
REMARK VINA RESULT: -6.431966145      1.746      4.887
REMARK  6 active torsions:
REMARK  status: ('A' for Active; 'I' for Inactive)
REMARK    1  A    between atoms: C12_13  and  N2_14 
REMARK    2  A    between atoms: N2_14  and  C13_16 
REMARK    3  A    between atoms: C13_16  and  N3_18 
REMARK    4  A    between atoms: N3_18  and  C14_20 
REMARK    5  A    between atoms: C14_20  and  C15_21 
REMARK    6  A    between atoms: C15_21  and  C16_22 
ROOT
HETATM    1  C1  UNL     1      -6.348   3.627  15.979  1.00  0.00     0.060 C 
HETATM    2  C2  UNL     1      -5.233   3.069  15.119  1.00  0.00     0.024 C 
HETATM    3  C3  UNL     1      -5.166   1.647  15.135  1.00  0.00     0.095 C 
HETATM    4  N1  UNL     1      -5.166   0.461  15.165  1.00  0.00    -0.192 NA
HETATM    5  C4  UNL     1      -4.517   3.884  14.419  1.00  0.00    -0.032 C 
HETATM    6  C5  UNL     1      -4.919   5.348  14.556  1.00  0.00     0.019 C 
HETATM    7  C6  UNL     1      -5.585   5.641  13.208  1.00  0.00     0.014 C 
HETATM    8  C7  UNL     1      -4.556   5.477  12.133  1.00  0.00    -0.011 C 
HETATM    9  C8  UNL     1      -3.428   6.455  12.403  1.00  0.00     0.009 C 
HETATM   10  C9  UNL     1      -2.726   6.015  13.653  1.00  0.00    -0.011 C 
HETATM   11  C10 UNL     1      -3.715   6.174  14.819  1.00  0.00     0.014 C 
HETATM   12  C11 UNL     1      -2.242   4.605  13.628  1.00  0.00     0.040 C 
HETATM   13  C12 UNL     1      -3.434   3.653  13.476  1.00  0.00     0.058 C 
HETATM   14  C17 UNL     1      -4.022   4.081  12.100  1.00  0.00     0.040 C 
ENDROOT
BRANCH  13  15
HETATM   15  N2  UNL     1      -2.942   2.321  13.334  1.00  0.00    -0.354 N 
ATOM     16  H2  UNL     1      -2.531   1.921  14.177  1.00  0.00     0.163 HD
BRANCH  15  17
HETATM   17  C13 UNL     1      -2.937   1.479  12.217  1.00  0.00     0.168 C 
HETATM   18  S1  UNL     1      -4.191   0.661  11.589  1.00  0.00    -0.041 SA
BRANCH  17  19
HETATM   19  N3  UNL     1      -1.688   1.301  11.501  1.00  0.00    -0.367 N 
ATOM     20  H3  UNL     1      -1.051   0.546  11.755  1.00  0.00     0.161 HD
BRANCH  19  21
HETATM   21  C14 UNL     1      -1.359   2.200  10.433  1.00  0.00     0.123 C 
BRANCH  21  22
HETATM   22  C15 UNL     1      -0.215   3.100  10.819  1.00  0.00     0.031 C 
BRANCH  22  23
HETATM   23  C16 UNL     1      -0.509   4.505  10.387  1.00  0.00     0.088 C 
HETATM   24  S2  UNL     1      -1.736   4.548   9.040  1.00  0.00    -0.098 SA
ENDBRANCH  22  23
ENDBRANCH  21  22
ENDBRANCH  19  21
ENDBRANCH  17  19
ENDBRANCH  15  17
ENDBRANCH  13  15
TORSDOF 6
ENDMDL
MODEL 3
REMARK VINA RESULT: -6.221115861      2.115      4.088
REMARK  6 active torsions:
REMARK  status: ('A' for Active; 'I' for Inactive)
REMARK    1  A    between atoms: C12_13  and  N2_14 
REMARK    2  A    between atoms: N2_14  and  C13_16 
REMARK    3  A    between atoms: C13_16  and  N3_18 
REMARK    4  A    between atoms: N3_18  and  C14_20 
REMARK    5  A    between atoms: C14_20  and  C15_21 
REMARK    6  A    between atoms: C15_21  and  C16_22 
ROOT
HETATM    1  C1  UNL     1      -3.894   6.466  11.881  1.00  0.00     0.060 C 
HETATM    2  C2  UNL     1      -4.152   4.984  11.704  1.00  0.00     0.024 C 
HETATM    3  C3  UNL     1      -3.962   4.534  10.367  1.00  0.00     0.095 C 
HETATM    4  N1  UNL     1      -3.770   4.205   9.243  1.00  0.00    -0.192 NA
HETATM    5  C4  UNL     1      -4.437   4.272  12.743  1.00  0.00    -0.032 C 
HETATM    6  C5  UNL     1      -4.465   5.055  14.051  1.00  0.00     0.019 C 
HETATM    7  C6  UNL     1      -3.189   4.578  14.754  1.00  0.00     0.014 C 
HETATM    8  C7  UNL     1      -3.321   3.110  15.017  1.00  0.00    -0.011 C 
HETATM    9  C8  UNL     1      -4.537   2.893  15.897  1.00  0.00     0.009 C 
HETATM   10  C9  UNL     1      -5.756   3.233  15.092  1.00  0.00    -0.011 C 
HETATM   11  C10 UNL     1      -5.709   4.740  14.795  1.00  0.00     0.014 C 
HETATM   12  C11 UNL     1      -5.869   2.497  13.800  1.00  0.00     0.040 C 
HETATM   13  C12 UNL     1      -4.678   2.846  12.901  1.00  0.00     0.058 C 
HETATM   14  C17 UNL     1      -3.472   2.341  13.743  1.00  0.00     0.040 C 
ENDROOT
BRANCH  13  15
HETATM   15  N2  UNL     1      -4.741   2.044  11.723  1.00  0.00    -0.354 N 
ATOM     16  H2  UNL     1      -5.457   2.320  11.050  1.00  0.00     0.163 HD
BRANCH  15  17
HETATM   17  C13 UNL     1      -3.974   0.936  11.346  1.00  0.00     0.168 C 
HETATM   18  S1  UNL     1      -4.181  -0.610  11.798  1.00  0.00    -0.041 SA
BRANCH  17  19
HETATM   19  N3  UNL     1      -2.865   1.152  10.437  1.00  0.00    -0.367 N 
ATOM     20  H3  UNL     1      -3.031   1.259   9.437  1.00  0.00     0.161 HD
BRANCH  19  21
HETATM   21  C14 UNL     1      -1.531   1.212  10.961  1.00  0.00     0.123 C 
BRANCH  21  22
HETATM   22  C15 UNL     1      -0.832   2.469  10.515  1.00  0.00     0.031 C 
BRANCH  22  23
HETATM   23  C16 UNL     1      -0.720   3.422  11.666  1.00  0.00     0.088 C 
HETATM   24  S2  UNL     1      -0.212   5.082  11.113  1.00  0.00    -0.098 SA
ENDBRANCH  22  23
ENDBRANCH  21  22
ENDBRANCH  19  21
ENDBRANCH  17  19
ENDBRANCH  15  17
ENDBRANCH  13  15
TORSDOF 6
ENDMDL
MODEL 4
REMARK VINA RESULT: -6.145983273      1.624      2.794
REMARK  6 active torsions:
REMARK  status: ('A' for Active; 'I' for Inactive)
REMARK    1  A    between atoms: C12_13  and  N2_14 
REMARK    2  A    between atoms: N2_14  and  C13_16 
REMARK    3  A    between atoms: C13_16  and  N3_18 
REMARK    4  A    between atoms: N3_18  and  C14_20 
REMARK    5  A    between atoms: C14_20  and  C15_21 
REMARK    6  A    between atoms: C15_21  and  C16_22 
ROOT
HETATM    1  C1  UNL     1      -1.354   4.523   9.817  1.00  0.00     0.060 C 
HETATM    2  C2  UNL     1      -1.776   3.810  11.084  1.00  0.00     0.024 C 
HETATM    3  C3  UNL     1      -1.408   2.435  11.108  1.00  0.00     0.095 C 
HETATM    4  N1  UNL     1      -1.060   1.301  11.089  1.00  0.00    -0.192 NA
HETATM    5  C4  UNL     1      -2.342   4.491  12.024  1.00  0.00    -0.032 C 
HETATM    6  C5  UNL     1      -2.501   5.976  11.714  1.00  0.00     0.019 C 
HETATM    7  C6  UNL     1      -1.455   6.622  12.627  1.00  0.00     0.014 C 
HETATM    8  C7  UNL     1      -1.833   6.339  14.047  1.00  0.00    -0.011 C 
HETATM    9  C8  UNL     1      -3.208   6.927  14.298  1.00  0.00     0.009 C 
HETATM   10  C9  UNL     1      -4.200   6.145  13.490  1.00  0.00    -0.011 C 
HETATM   11  C10 UNL     1      -3.893   6.400  12.007  1.00  0.00     0.014 C 
HETATM   12  C11 UNL     1      -4.174   4.674  13.736  1.00  0.00     0.040 C 
HETATM   13  C12 UNL     1      -2.802   4.110  13.351  1.00  0.00     0.058 C 
HETATM   14  C17 UNL     1      -1.851   4.869  14.321  1.00  0.00     0.040 C 
ENDROOT
BRANCH  13  15
HETATM   15  N2  UNL     1      -2.757   2.729  13.704  1.00  0.00    -0.354 N 
ATOM     16  H2  UNL     1      -1.873   2.261  13.504  1.00  0.00     0.163 HD
BRANCH  15  17
HETATM   17  C13 UNL     1      -3.739   1.915  14.281  1.00  0.00     0.168 C 
HETATM   18  S1  UNL     1      -4.166   1.841  15.846  1.00  0.00    -0.041 SA
BRANCH  17  19
HETATM   19  N3  UNL     1      -4.493   1.034  13.411  1.00  0.00    -0.367 N 
ATOM     20  H3  UNL     1      -4.801   0.120  13.744  1.00  0.00     0.161 HD
BRANCH  19  21
HETATM   21  C14 UNL     1      -4.802   1.461  12.077  1.00  0.00     0.123 C 
BRANCH  21  22
HETATM   22  C15 UNL     1      -4.513   0.370  11.081  1.00  0.00     0.031 C 
BRANCH  22  23
HETATM   23  C16 UNL     1      -4.465  -0.955  11.781  1.00  0.00     0.088 C 
HETATM   24  S2  UNL     1      -2.977  -1.900  11.322  1.00  0.00    -0.098 SA
ENDBRANCH  22  23
ENDBRANCH  21  22
ENDBRANCH  19  21
ENDBRANCH  17  19
ENDBRANCH  15  17
ENDBRANCH  13  15
TORSDOF 6
ENDMDL
MODEL 5
REMARK VINA RESULT: -6.104180742      2.314      4.198
REMARK  6 active torsions:
REMARK  status: ('A' for Active; 'I' for Inactive)
REMARK    1  A    between atoms: C12_13  and  N2_14 
REMARK    2  A    between atoms: N2_14  and  C13_16 
REMARK    3  A    between atoms: C13_16  and  N3_18 
REMARK    4  A    between atoms: N3_18  and  C14_20 
REMARK    5  A    between atoms: C14_20  and  C15_21 
REMARK    6  A    between atoms: C15_21  and  C16_22 
ROOT
HETATM    1  C1  UNL     1      -6.281   3.665  15.493  1.00  0.00     0.060 C 
HETATM    2  C2  UNL     1      -4.980   3.353  14.781  1.00  0.00     0.024 C 
HETATM    3  C3  UNL     1      -4.716   1.958  14.675  1.00  0.00     0.095 C 
HETATM    4  N1  UNL     1      -4.552   0.786  14.593  1.00  0.00    -0.192 NA
HETATM    5  C4  UNL     1      -4.289   4.326  14.290  1.00  0.00    -0.032 C 
HETATM    6  C5  UNL     1      -4.910   5.704  14.496  1.00  0.00     0.019 C 
HETATM    7  C6  UNL     1      -5.398   6.064  13.089  1.00  0.00     0.014 C 
HETATM    8  C7  UNL     1      -4.205   6.155  12.190  1.00  0.00    -0.011 C 
HETATM    9  C8  UNL     1      -3.282   7.228  12.734  1.00  0.00     0.009 C 
HETATM   10  C9  UNL     1      -2.723   6.739  14.036  1.00  0.00    -0.011 C 
HETATM   11  C10 UNL     1      -3.889   6.637  15.031  1.00  0.00     0.014 C 
HETATM   12  C11 UNL     1      -2.046   5.412  13.959  1.00  0.00     0.040 C 
HETATM   13  C12 UNL     1      -3.053   4.343  13.522  1.00  0.00     0.058 C 
HETATM   14  C17 UNL     1      -3.480   4.850  12.115  1.00  0.00     0.040 C 
ENDROOT
BRANCH  13  15
HETATM   15  N2  UNL     1      -2.362   3.108  13.339  1.00  0.00    -0.354 N 
ATOM     16  H2  UNL     1      -2.057   2.654  14.200  1.00  0.00     0.163 HD
BRANCH  15  17
HETATM   17  C13 UNL     1      -2.039   2.424  12.162  1.00  0.00     0.168 C 
HETATM   18  S1  UNL     1      -0.881   2.798  11.087  1.00  0.00    -0.041 SA
BRANCH  17  19
HETATM   19  N3  UNL     1      -2.793   1.229  11.838  1.00  0.00    -0.367 N 
ATOM     20  H3  UNL     1      -2.501   0.321  12.200  1.00  0.00     0.161 HD
BRANCH  19  21
HETATM   21  C14 UNL     1      -3.956   1.338  11.005  1.00  0.00     0.123 C 
BRANCH  21  22
HETATM   22  C15 UNL     1      -4.475  -0.022  10.623  1.00  0.00     0.031 C 
BRANCH  22  23
HETATM   23  C16 UNL     1      -4.285  -0.976  11.764  1.00  0.00     0.088 C 
HETATM   24  S2  UNL     1      -3.071  -2.272  11.357  1.00  0.00    -0.098 SA
ENDBRANCH  22  23
ENDBRANCH  21  22
ENDBRANCH  19  21
ENDBRANCH  17  19
ENDBRANCH  15  17
ENDBRANCH  13  15
TORSDOF 6
ENDMDL
