MODEL 1
REMARK VINA RESULT: -7.786626064      0.000      0.000
REMARK  5 active torsions:
REMARK  status: ('A' for Active; 'I' for Inactive)
REMARK    1  A    between atoms: C2_2  and  C3_3 
REMARK    2  A    between atoms: C9_9  and  C10_10 
REMARK    3  A    between atoms: C13_13  and  O1_14 
REMARK    4  A    between atoms: C14_16  and  O2_17 
REMARK    5  A    between atoms: C15_19  and  C17_21 
ROOT
HETATM    1  C10 UNL     1      -3.321   5.002  14.644  1.00  0.00     0.003 C 
HETATM    2  C11 UNL     1      -3.728   3.839  14.221  1.00  0.00    -0.076 C 
HETATM    3  C12 UNL     1      -4.754   3.076  14.979  1.00  0.00     0.068 C 
HETATM    4  C13 UNL     1      -4.272   1.628  14.956  1.00  0.00     0.152 C 
HETATM    5  C14 UNL     1      -4.442   1.150  13.540  1.00  0.00     0.166 C 
HETATM    6  C15 UNL     1      -3.851   2.012  12.505  1.00  0.00     0.076 C 
HETATM    7  C16 UNL     1      -5.005   2.493  11.603  1.00  0.00     0.030 C 
HETATM    8  C18 UNL     1      -3.184   3.264  12.997  1.00  0.00     0.057 C 
ENDROOT
BRANCH   1   9
HETATM    9  C9  UNL     1      -2.319   5.808  13.957  1.00  0.00     0.003 C 
HETATM   10  C8  UNL     1      -2.209   7.102  14.120  1.00  0.00    -0.075 C 
HETATM   11  C7  UNL     1      -1.230   7.995  13.469  1.00  0.00     0.027 C 
HETATM   12  C19 UNL     1      -3.027   7.967  14.985  1.00  0.00     0.036 C 
HETATM   13  C3  UNL     1      -1.133   9.193  14.369  1.00  0.00    -0.016 C 
HETATM   14  C6  UNL     1      -1.788   8.466  12.149  1.00  0.00     0.010 C 
HETATM   15  C4  UNL     1      -1.798  10.339  13.687  1.00  0.00     0.014 C 
HETATM   16  C20 UNL     1      -1.934   8.850  15.609  1.00  0.00     0.018 C 
HETATM   17  C5  UNL     1      -2.041   9.932  12.254  1.00  0.00     0.002 C 
BRANCH  13  18
HETATM   18  C2  UNL     1       0.296   9.456  14.710  1.00  0.00    -0.027 C 
HETATM   19  C1  UNL     1       0.682  10.546  15.353  1.00  0.00     0.008 C 
ENDBRANCH  13  18
ENDBRANCH   1   9
BRANCH   4  20
HETATM   20  O1  UNL     1      -2.969   1.577  15.400  1.00  0.00    -0.393 OA
ATOM     21  H1  UNL     1      -2.959   1.652  16.347  1.00  0.00     0.210 HD
ENDBRANCH   4  20
BRANCH   6  22
HETATM   22  C17 UNL     1      -2.920   1.349  11.560  1.00  0.00     0.184 C 
HETATM   23  O3  UNL     1      -1.686   1.256  11.717  1.00  0.00    -0.647 OA
HETATM   24  O4  UNL     1      -3.468   0.791  10.420  1.00  0.00    -0.647 OA
ENDBRANCH   6  22
BRANCH   5  25
HETATM   25  O2  UNL     1      -3.945  -0.153  13.503  1.00  0.00    -0.392 OA
ATOM     26  H2  UNL     1      -4.702  -0.726  13.459  1.00  0.00     0.210 HD
ENDBRANCH   5  25
TORSDOF 5
ENDMDL
MODEL 2
REMARK VINA RESULT: -7.356245299      0.911      1.210
REMARK  5 active torsions:
REMARK  status: ('A' for Active; 'I' for Inactive)
REMARK    1  A    between atoms: C2_2  and  C3_3 
REMARK    2  A    between atoms: C9_9  and  C10_10 
REMARK    3  A    between atoms: C13_13  and  O1_14 
REMARK    4  A    between atoms: C14_16  and  O2_17 
REMARK    5  A    between atoms: C15_19  and  C17_21 
ROOT
HETATM    1  C10 UNL     1      -3.137   4.723  14.772  1.00  0.00     0.003 C 
HETATM    2  C11 UNL     1      -3.689   3.571  14.515  1.00  0.00    -0.076 C 
HETATM    3  C12 UNL     1      -4.726   3.012  15.421  1.00  0.00     0.068 C 
HETATM    4  C13 UNL     1      -4.394   1.526  15.539  1.00  0.00     0.152 C 
HETATM    5  C14 UNL     1      -4.717   0.916  14.202  1.00  0.00     0.166 C 
HETATM    6  C15 UNL     1      -4.122   1.589  13.037  1.00  0.00     0.076 C 
HETATM    7  C16 UNL     1      -5.287   2.090  12.159  1.00  0.00     0.030 C 
HETATM    8  C18 UNL     1      -3.298   2.809  13.336  1.00  0.00     0.057 C 
ENDROOT
BRANCH   1   9
HETATM    9  C9  UNL     1      -2.114   5.335  13.933  1.00  0.00     0.003 C 
HETATM   10  C8  UNL     1      -2.007   6.629  13.766  1.00  0.00    -0.075 C 
HETATM   11  C7  UNL     1      -1.007   7.335  12.939  1.00  0.00     0.027 C 
HETATM   12  C19 UNL     1      -2.849   7.680  14.359  1.00  0.00     0.036 C 
HETATM   13  C3  UNL     1      -0.936   8.722  13.509  1.00  0.00    -0.016 C 
HETATM   14  C6  UNL     1      -1.525   7.452  11.527  1.00  0.00     0.010 C 
HETATM   15  C4  UNL     1      -1.579   9.653  12.539  1.00  0.00     0.014 C 
HETATM   16  C20 UNL     1      -1.775   8.699  14.770  1.00  0.00     0.018 C 
HETATM   17  C5  UNL     1      -1.779   8.895  11.250  1.00  0.00     0.002 C 
BRANCH  13  18
HETATM   18  C2  UNL     1       0.482   9.071  13.814  1.00  0.00    -0.027 C 
HETATM   19  C1  UNL     1       1.477   8.775  12.994  1.00  0.00     0.008 C 
ENDBRANCH  13  18
ENDBRANCH   1   9
BRANCH   4  20
HETATM   20  O1  UNL     1      -3.073   1.385  15.903  1.00  0.00    -0.393 OA
ATOM     21  H1  UNL     1      -2.547   1.256  15.122  1.00  0.00     0.210 HD
ENDBRANCH   4  20
BRANCH   6  22
HETATM   22  C17 UNL     1      -3.335   0.729  12.121  1.00  0.00     0.184 C 
HETATM   23  O3  UNL     1      -3.737  -0.339  11.619  1.00  0.00    -0.647 OA
HETATM   24  O4  UNL     1      -2.057   1.149  11.804  1.00  0.00    -0.647 OA
ENDBRANCH   6  22
BRANCH   5  25
HETATM   25  O2  UNL     1      -4.357  -0.429  14.288  1.00  0.00    -0.392 OA
ATOM     26  H2  UNL     1      -4.136  -0.703  13.406  1.00  0.00     0.210 HD
ENDBRANCH   5  25
TORSDOF 5
ENDMDL
MODEL 3
REMARK VINA RESULT: -7.352080104      1.083      1.407
REMARK  5 active torsions:
REMARK  status: ('A' for Active; 'I' for Inactive)
REMARK    1  A    between atoms: C2_2  and  C3_3 
REMARK    2  A    between atoms: C9_9  and  C10_10 
REMARK    3  A    between atoms: C13_13  and  O1_14 
REMARK    4  A    between atoms: C14_16  and  O2_17 
REMARK    5  A    between atoms: C15_19  and  C17_21 
ROOT
HETATM    1  C10 UNL     1      -3.604   6.071  14.013  1.00  0.00     0.003 C 
HETATM    2  C11 UNL     1      -3.783   4.822  13.687  1.00  0.00    -0.076 C 
HETATM    3  C12 UNL     1      -4.716   3.965  14.462  1.00  0.00     0.068 C 
HETATM    4  C13 UNL     1      -3.999   2.624  14.607  1.00  0.00     0.152 C 
HETATM    5  C14 UNL     1      -3.992   2.001  13.239  1.00  0.00     0.166 C 
HETATM    6  C15 UNL     1      -3.484   2.856  12.155  1.00  0.00     0.076 C 
HETATM    7  C16 UNL     1      -4.639   3.050  11.152  1.00  0.00     0.030 C 
HETATM    8  C18 UNL     1      -3.069   4.243  12.555  1.00  0.00     0.057 C 
ENDROOT
BRANCH   1   9
HETATM    9  C9  UNL     1      -2.706   6.973  13.302  1.00  0.00     0.003 C 
HETATM   10  C8  UNL     1      -2.251   8.084  13.821  1.00  0.00    -0.075 C 
HETATM   11  C7  UNL     1      -1.342   9.055  13.178  1.00  0.00     0.027 C 
HETATM   12  C19 UNL     1      -2.534   8.627  15.160  1.00  0.00     0.036 C 
HETATM   13  C3  UNL     1      -0.694   9.795  14.312  1.00  0.00    -0.016 C 
HETATM   14  C6  UNL     1      -2.157  10.053  12.394  1.00  0.00     0.010 C 
HETATM   15  C4  UNL     1      -1.250  11.177  14.341  1.00  0.00     0.014 C 
HETATM   16  C20 UNL     1      -1.127   9.083  15.578  1.00  0.00     0.018 C 
HETATM   17  C5  UNL     1      -2.014  11.382  13.056  1.00  0.00     0.002 C 
BRANCH  13  18
HETATM   18  C2  UNL     1       0.790   9.757  14.158  1.00  0.00    -0.027 C 
HETATM   19  C1  UNL     1       1.386   9.067  13.199  1.00  0.00     0.008 C 
ENDBRANCH  13  18
ENDBRANCH   1   9
BRANCH   4  20
HETATM   20  O1  UNL     1      -2.739   2.838  15.121  1.00  0.00    -0.393 OA
ATOM     21  H1  UNL     1      -2.091   2.585  14.473  1.00  0.00     0.210 HD
ENDBRANCH   4  20
BRANCH   6  22
HETATM   22  C17 UNL     1      -2.394   2.282  11.330  1.00  0.00     0.184 C 
HETATM   23  O3  UNL     1      -2.557   1.641  10.273  1.00  0.00    -0.647 OA
HETATM   24  O4  UNL     1      -1.099   2.475  11.773  1.00  0.00    -0.647 OA
ENDBRANCH   6  22
BRANCH   5  25
HETATM   25  O2  UNL     1      -3.284   0.804  13.356  1.00  0.00    -0.392 OA
ATOM     26  H2  UNL     1      -3.062   0.538  12.472  1.00  0.00     0.210 HD
ENDBRANCH   5  25
TORSDOF 5
ENDMDL
MODEL 4
REMARK VINA RESULT: -7.284728072      0.834      1.228
REMARK  5 active torsions:
REMARK  status: ('A' for Active; 'I' for Inactive)
REMARK    1  A    between atoms: C2_2  and  C3_3 
REMARK    2  A    between atoms: C9_9  and  C10_10 
REMARK    3  A    between atoms: C13_13  and  O1_14 
REMARK    4  A    between atoms: C14_16  and  O2_17 
REMARK    5  A    between atoms: C15_19  and  C17_21 
ROOT
HETATM    1  C10 UNL     1      -2.990   4.673  14.535  1.00  0.00     0.003 C 
HETATM    2  C11 UNL     1      -3.531   3.614  14.002  1.00  0.00    -0.076 C 
HETATM    3  C12 UNL     1      -4.748   3.005  14.601  1.00  0.00     0.068 C 
HETATM    4  C13 UNL     1      -4.510   1.498  14.541  1.00  0.00     0.152 C 
HETATM    5  C14 UNL     1      -4.594   1.116  13.089  1.00  0.00     0.166 C 
HETATM    6  C15 UNL     1      -3.757   1.908  12.175  1.00  0.00     0.076 C 
HETATM    7  C16 UNL     1      -4.707   2.616  11.188  1.00  0.00     0.030 C 
HETATM    8  C18 UNL     1      -2.953   3.007  12.809  1.00  0.00     0.057 C 
ENDROOT
BRANCH   1   9
HETATM    9  C9  UNL     1      -1.798   5.325  14.006  1.00  0.00     0.003 C 
HETATM   10  C8  UNL     1      -1.788   6.566  13.592  1.00  0.00    -0.075 C 
HETATM   11  C7  UNL     1      -0.634   7.307  13.043  1.00  0.00     0.027 C 
HETATM   12  C19 UNL     1      -2.915   7.513  13.575  1.00  0.00     0.036 C 
HETATM   13  C3  UNL     1      -0.959   8.756  13.259  1.00  0.00    -0.016 C 
HETATM   14  C6  UNL     1      -0.559   7.077  11.555  1.00  0.00     0.010 C 
HETATM   15  C4  UNL     1      -1.271   9.363  11.934  1.00  0.00     0.014 C 
HETATM   16  C20 UNL     1      -2.220   8.781  14.099  1.00  0.00     0.018 C 
HETATM   17  C5  UNL     1      -0.851   8.372  10.875  1.00  0.00     0.002 C 
BRANCH  13  18
HETATM   18  C2  UNL     1       0.169   9.429  13.967  1.00  0.00    -0.027 C 
HETATM   19  C1  UNL     1       0.026   9.989  15.158  1.00  0.00     0.008 C 
ENDBRANCH  13  18
ENDBRANCH   1   9
BRANCH   4  20
HETATM   20  O1  UNL     1      -3.291   1.209  15.115  1.00  0.00    -0.393 OA
ATOM     21  H1  UNL     1      -3.161   0.267  15.111  1.00  0.00     0.210 HD
ENDBRANCH   4  20
BRANCH   6  22
HETATM   22  C17 UNL     1      -2.846   1.136  11.295  1.00  0.00     0.184 C 
HETATM   23  O3  UNL     1      -3.201   0.476  10.299  1.00  0.00    -0.647 OA
HETATM   24  O4  UNL     1      -1.500   1.154  11.609  1.00  0.00    -0.647 OA
ENDBRANCH   6  22
BRANCH   5  25
HETATM   25  O2  UNL     1      -4.317  -0.250  13.026  1.00  0.00    -0.392 OA
ATOM     26  H2  UNL     1      -3.559  -0.342  12.462  1.00  0.00     0.210 HD
ENDBRANCH   5  25
TORSDOF 5
ENDMDL
MODEL 5
REMARK VINA RESULT: -7.270057875      3.085      4.937
REMARK  5 active torsions:
REMARK  status: ('A' for Active; 'I' for Inactive)
REMARK    1  A    between atoms: C2_2  and  C3_3 
REMARK    2  A    between atoms: C9_9  and  C10_10 
REMARK    3  A    between atoms: C13_13  and  O1_14 
REMARK    4  A    between atoms: C14_16  and  O2_17 
REMARK    5  A    between atoms: C15_19  and  C17_21 
ROOT
HETATM    1  C10 UNL     1      -3.529   4.030  11.701  1.00  0.00     0.003 C 
HETATM    2  C11 UNL     1      -3.617   3.043  12.547  1.00  0.00    -0.076 C 
HETATM    3  C12 UNL     1      -3.049   1.711  12.214  1.00  0.00     0.068 C 
HETATM    4  C13 UNL     1      -4.087   0.701  12.699  1.00  0.00     0.152 C 
HETATM    5  C14 UNL     1      -4.046   0.745  14.202  1.00  0.00     0.166 C 
HETATM    6  C15 UNL     1      -4.162   2.083  14.801  1.00  0.00     0.076 C 
HETATM    7  C16 UNL     1      -2.859   2.343  15.585  1.00  0.00     0.030 C 
HETATM    8  C18 UNL     1      -4.277   3.226  13.834  1.00  0.00     0.057 C 
ENDROOT
BRANCH   1   9
HETATM    9  C9  UNL     1      -4.062   5.363  11.956  1.00  0.00     0.003 C 
HETATM   10  C8  UNL     1      -4.395   6.194  11.001  1.00  0.00    -0.075 C 
HETATM   11  C7  UNL     1      -4.939   7.557  11.163  1.00  0.00     0.027 C 
HETATM   12  C19 UNL     1      -4.306   5.969   9.549  1.00  0.00     0.036 C 
HETATM   13  C3  UNL     1      -5.661   7.846   9.879  1.00  0.00    -0.016 C 
HETATM   14  C6  UNL     1      -3.798   8.537  11.272  1.00  0.00     0.010 C 
HETATM   15  C4  UNL     1      -4.867   8.853   9.119  1.00  0.00     0.014 C 
HETATM   16  C20 UNL     1      -5.655   6.550   9.095  1.00  0.00     0.018 C 
HETATM   17  C5  UNL     1      -3.821   9.403  10.057  1.00  0.00     0.002 C 
BRANCH  13  18
HETATM   18  C2  UNL     1      -7.056   8.290  10.171  1.00  0.00    -0.027 C 
HETATM   19  C1  UNL     1      -7.676   7.982  11.298  1.00  0.00     0.008 C 
ENDBRANCH  13  18
ENDBRANCH   1   9
BRANCH   4  20
HETATM   20  O1  UNL     1      -5.318   1.029  12.174  1.00  0.00    -0.393 OA
ATOM     21  H1  UNL     1      -5.865   1.387  12.863  1.00  0.00     0.210 HD
ENDBRANCH   4  20
BRANCH   6  22
HETATM   22  C17 UNL     1      -5.225   2.249  15.821  1.00  0.00     0.184 C 
HETATM   23  O3  UNL     1      -6.279   2.896  15.658  1.00  0.00    -0.647 OA
HETATM   24  O4  UNL     1      -5.028   1.636  17.044  1.00  0.00    -0.647 OA
ENDBRANCH   6  22
BRANCH   5  25
HETATM   25  O2  UNL     1      -5.035  -0.132  14.647  1.00  0.00    -0.392 OA
ATOM     26  H2  UNL     1      -4.714  -1.008  14.471  1.00  0.00     0.210 HD
ENDBRANCH   5  25
TORSDOF 5
ENDMDL
