MODEL 1
REMARK VINA RESULT: -7.351782577      0.000      0.000
REMARK  6 active torsions:
REMARK  status: ('A' for Active; 'I' for Inactive)
REMARK    1  A    between atoms: C3_3  and  O1_4 
REMARK    2  A    between atoms: C7_9  and  O2_10 
REMARK    3  A    between atoms: C7_9  and  C8_12 
REMARK    4  A    between atoms: C8_12  and  N1_13 
REMARK    5  A    between atoms: N1_13  and  C9_15 
REMARK    6  A    between atoms: C9_15  and  C10_16 
ROOT
HETATM    1  C1  UNL     1      -2.903  -1.975  11.392  1.00  0.00     0.017 C 
HETATM    2  C2  UNL     1      -3.269  -0.720  11.492  1.00  0.00    -0.056 C 
HETATM    3  C3  UNL     1      -4.355   0.003  12.199  1.00  0.00     0.151 C 
HETATM    4  C4  UNL     1      -3.394   1.170  12.279  1.00  0.00     0.027 C 
HETATM    5  C5  UNL     1      -3.856   2.522  12.006  1.00  0.00     0.011 C 
HETATM    6  C6  UNL     1      -3.411   3.186  10.732  1.00  0.00     0.044 C 
HETATM    7  C7  UNL     1      -1.974   3.284  10.483  1.00  0.00     0.089 C 
HETATM    8  C19 UNL     1      -1.143   2.361  11.419  1.00  0.00     0.044 C 
HETATM    9  C20 UNL     1      -1.362   0.918  11.023  1.00  0.00     0.013 C 
HETATM   10  C21 UNL     1      -2.821   0.571  10.984  1.00  0.00     0.023 C 
ENDROOT
BRANCH   7  11
HETATM   11  O2  UNL     1      -1.686   2.722   9.210  1.00  0.00    -0.384 OA
ATOM     12  H2  UNL     1      -1.093   1.990   9.323  1.00  0.00     0.211 HD
ENDBRANCH   7  11
BRANCH   7  13
HETATM   13  C8  UNL     1      -1.432   4.668  10.596  1.00  0.00     0.097 C 
BRANCH  13  14
HETATM   14  N1  UNL     1      -0.633   5.060  11.631  1.00  0.00    -0.379 N 
ATOM     15  H1  UNL     1       0.050   4.354  11.906  1.00  0.00     0.164 HD
BRANCH  14  16
HETATM   16  C9  UNL     1      -0.561   6.200  12.371  1.00  0.00     0.070 C 
BRANCH  16  17
HETATM   17  C10 UNL     1      -1.552   6.600  13.388  1.00  0.00    -0.004 C 
HETATM   18  C11 UNL     1      -2.216   5.364  14.038  1.00  0.00     0.020 C 
HETATM   19  C12 UNL     1      -3.624   5.713  14.374  1.00  0.00    -0.013 C 
HETATM   20  C13 UNL     1      -4.397   5.861  13.087  1.00  0.00     0.005 C 
HETATM   21  C17 UNL     1      -3.614   7.037  15.101  1.00  0.00     0.010 C 
HETATM   22  C14 UNL     1      -3.814   7.027  12.344  1.00  0.00     0.006 C 
HETATM   23  C15 UNL     1      -2.598   7.602  12.947  1.00  0.00     0.003 C 
HETATM   24  C16 UNL     1      -2.712   8.008  14.392  1.00  0.00    -0.008 C 
HETATM   25  C18 UNL     1      -1.235   7.557  14.488  1.00  0.00     0.020 C 
ENDBRANCH  16  17
ENDBRANCH  14  16
ENDBRANCH  13  14
ENDBRANCH   7  13
BRANCH   3  26
HETATM   26  O1  UNL     1      -4.652  -0.520  13.448  1.00  0.00    -0.391 OA
ATOM     27  H1  UNL     1      -5.485  -0.225  13.797  1.00  0.00     0.210 HD
ENDBRANCH   3  26
TORSDOF 6
ENDMDL
MODEL 2
REMARK VINA RESULT: -7.250620929      2.967      5.353
REMARK  6 active torsions:
REMARK  status: ('A' for Active; 'I' for Inactive)
REMARK    1  A    between atoms: C3_3  and  O1_4 
REMARK    2  A    between atoms: C7_9  and  O2_10 
REMARK    3  A    between atoms: C7_9  and  C8_12 
REMARK    4  A    between atoms: C8_12  and  N1_13 
REMARK    5  A    between atoms: N1_13  and  C9_15 
REMARK    6  A    between atoms: C9_15  and  C10_16 
ROOT
HETATM    1  C1  UNL     1      -7.387   1.219  17.006  1.00  0.00     0.017 C 
HETATM    2  C2  UNL     1      -6.276   1.642  16.455  1.00  0.00    -0.056 C 
HETATM    3  C3  UNL     1      -4.970   1.022  16.118  1.00  0.00     0.151 C 
HETATM    4  C4  UNL     1      -4.905   2.011  14.974  1.00  0.00     0.027 C 
HETATM    5  C5  UNL     1      -3.665   2.710  14.677  1.00  0.00     0.011 C 
HETATM    6  C6  UNL     1      -3.581   4.179  14.988  1.00  0.00     0.044 C 
HETATM    7  C7  UNL     1      -4.590   5.059  14.402  1.00  0.00     0.089 C 
HETATM    8  C19 UNL     1      -5.805   4.273  13.832  1.00  0.00     0.044 C 
HETATM    9  C20 UNL     1      -6.613   3.701  14.977  1.00  0.00     0.013 C 
HETATM   10  C21 UNL     1      -5.759   2.889  15.904  1.00  0.00     0.023 C 
ENDROOT
BRANCH   7  11
HETATM   11  O2  UNL     1      -5.206   5.811  15.438  1.00  0.00    -0.384 OA
ATOM     12  H2  UNL     1      -4.561   6.395  15.820  1.00  0.00     0.211 HD
ENDBRANCH   7  11
BRANCH   7  13
HETATM   13  C8  UNL     1      -4.068   5.949  13.326  1.00  0.00     0.097 C 
BRANCH  13  14
HETATM   14  N1  UNL     1      -4.113   5.606  12.006  1.00  0.00    -0.379 N 
ATOM     15  H1  UNL     1      -5.054   5.622  11.614  1.00  0.00     0.164 HD
BRANCH  14  16
HETATM   16  C9  UNL     1      -3.157   5.248  11.105  1.00  0.00     0.070 C 
BRANCH  16  17
HETATM   17  C10 UNL     1      -2.474   3.940  11.087  1.00  0.00    -0.004 C 
HETATM   18  C11 UNL     1      -1.226   3.950  11.999  1.00  0.00     0.020 C 
HETATM   19  C12 UNL     1      -0.198   3.060  11.393  1.00  0.00    -0.013 C 
HETATM   20  C13 UNL     1       0.314   3.714  10.134  1.00  0.00     0.005 C 
HETATM   21  C17 UNL     1      -0.865   1.752  11.037  1.00  0.00     0.010 C 
HETATM   22  C14 UNL     1      -0.834   3.791   9.169  1.00  0.00     0.006 C 
HETATM   23  C15 UNL     1      -2.137   3.379   9.722  1.00  0.00     0.003 C 
HETATM   24  C16 UNL     1      -2.179   2.014  10.355  1.00  0.00    -0.008 C 
HETATM   25  C18 UNL     1      -3.190   2.655  11.335  1.00  0.00     0.020 C 
ENDBRANCH  16  17
ENDBRANCH  14  16
ENDBRANCH  13  14
ENDBRANCH   7  13
BRANCH   3  26
HETATM   26  O1  UNL     1      -5.071  -0.288  15.676  1.00  0.00    -0.391 OA
ATOM     27  H1  UNL     1      -5.791  -0.768  16.068  1.00  0.00     0.210 HD
ENDBRANCH   3  26
TORSDOF 6
ENDMDL
MODEL 3
REMARK VINA RESULT: -7.232446910      3.866      5.484
REMARK  6 active torsions:
REMARK  status: ('A' for Active; 'I' for Inactive)
REMARK    1  A    between atoms: C3_3  and  O1_4 
REMARK    2  A    between atoms: C7_9  and  O2_10 
REMARK    3  A    between atoms: C7_9  and  C8_12 
REMARK    4  A    between atoms: C8_12  and  N1_13 
REMARK    5  A    between atoms: N1_13  and  C9_15 
REMARK    6  A    between atoms: C9_15  and  C10_16 
ROOT
HETATM    1  C1  UNL     1      -7.290   1.480  16.983  1.00  0.00     0.017 C 
HETATM    2  C2  UNL     1      -6.149   1.777  16.411  1.00  0.00    -0.056 C 
HETATM    3  C3  UNL     1      -4.897   1.034  16.120  1.00  0.00     0.151 C 
HETATM    4  C4  UNL     1      -4.755   1.940  14.916  1.00  0.00     0.027 C 
HETATM    5  C5  UNL     1      -3.463   2.518  14.580  1.00  0.00     0.011 C 
HETATM    6  C6  UNL     1      -3.260   3.992  14.799  1.00  0.00     0.044 C 
HETATM    7  C7  UNL     1      -4.196   4.910  14.153  1.00  0.00     0.089 C 
HETATM    8  C19 UNL     1      -5.471   4.190  13.630  1.00  0.00     0.044 C 
HETATM    9  C20 UNL     1      -6.321   3.758  14.805  1.00  0.00     0.013 C 
HETATM   10  C21 UNL     1      -5.534   2.941  15.785  1.00  0.00     0.023 C 
ENDROOT
BRANCH   7  11
HETATM   11  O2  UNL     1      -4.749   5.774  15.138  1.00  0.00    -0.384 OA
ATOM     12  H2  UNL     1      -5.105   6.543  14.709  1.00  0.00     0.211 HD
ENDBRANCH   7  11
BRANCH   7  13
HETATM   13  C8  UNL     1      -3.606   5.686  13.026  1.00  0.00     0.097 C 
BRANCH  13  14
HETATM   14  N1  UNL     1      -4.324   6.028  11.917  1.00  0.00    -0.379 N 
ATOM     15  H1  UNL     1      -4.730   5.227  11.433  1.00  0.00     0.164 HD
BRANCH  14  16
HETATM   16  C9  UNL     1      -4.610   7.221  11.325  1.00  0.00     0.070 C 
BRANCH  16  17
HETATM   17  C10 UNL     1      -5.875   7.527  10.631  1.00  0.00    -0.004 C 
HETATM   18  C11 UNL     1      -6.108   6.565   9.444  1.00  0.00     0.020 C 
HETATM   19  C12 UNL     1      -6.823   7.311   8.372  1.00  0.00    -0.013 C 
HETATM   20  C13 UNL     1      -5.874   8.327   7.787  1.00  0.00     0.005 C 
HETATM   21  C17 UNL     1      -7.991   8.029   9.004  1.00  0.00     0.010 C 
HETATM   22  C14 UNL     1      -5.545   9.311   8.871  1.00  0.00     0.006 C 
HETATM   23  C15 UNL     1      -6.073   8.966  10.204  1.00  0.00     0.003 C 
HETATM   24  C16 UNL     1      -7.554   8.705  10.274  1.00  0.00    -0.008 C 
HETATM   25  C18 UNL     1      -7.176   7.660  11.351  1.00  0.00     0.020 C 
ENDBRANCH  16  17
ENDBRANCH  14  16
ENDBRANCH  13  14
ENDBRANCH   7  13
BRANCH   3  26
HETATM   26  O1  UNL     1      -5.104  -0.289  15.761  1.00  0.00    -0.391 OA
ATOM     27  H1  UNL     1      -4.305  -0.756  15.547  1.00  0.00     0.210 HD
ENDBRANCH   3  26
TORSDOF 6
ENDMDL
MODEL 4
REMARK VINA RESULT: -7.141163469      3.049      5.843
REMARK  6 active torsions:
REMARK  status: ('A' for Active; 'I' for Inactive)
REMARK    1  A    between atoms: C3_3  and  O1_4 
REMARK    2  A    between atoms: C7_9  and  O2_10 
REMARK    3  A    between atoms: C7_9  and  C8_12 
REMARK    4  A    between atoms: C8_12  and  N1_13 
REMARK    5  A    between atoms: N1_13  and  C9_15 
REMARK    6  A    between atoms: C9_15  and  C10_16 
ROOT
HETATM    1  C1  UNL     1      -7.812   1.542  17.008  1.00  0.00     0.017 C 
HETATM    2  C2  UNL     1      -6.575   1.755  16.630  1.00  0.00    -0.056 C 
HETATM    3  C3  UNL     1      -5.307   0.985  16.705  1.00  0.00     0.151 C 
HETATM    4  C4  UNL     1      -4.914   1.696  15.428  1.00  0.00     0.027 C 
HETATM    5  C5  UNL     1      -3.568   2.225  15.267  1.00  0.00     0.011 C 
HETATM    6  C6  UNL     1      -3.377   3.716  15.295  1.00  0.00     0.044 C 
HETATM    7  C7  UNL     1      -4.149   4.518  14.348  1.00  0.00     0.089 C 
HETATM    8  C19 UNL     1      -5.315   3.718  13.701  1.00  0.00     0.044 C 
HETATM    9  C20 UNL     1      -6.386   3.466  14.739  1.00  0.00     0.013 C 
HETATM   10  C21 UNL     1      -5.823   2.814  15.967  1.00  0.00     0.023 C 
ENDROOT
BRANCH   7  11
HETATM   11  O2  UNL     1      -4.861   5.519  15.063  1.00  0.00    -0.384 OA
ATOM     12  H2  UNL     1      -5.652   5.737  14.584  1.00  0.00     0.211 HD
ENDBRANCH   7  11
BRANCH   7  13
HETATM   13  C8  UNL     1      -3.333   5.116  13.252  1.00  0.00     0.097 C 
BRANCH  13  14
HETATM   14  N1  UNL     1      -2.991   4.419  12.130  1.00  0.00    -0.379 N 
ATOM     15  H1  UNL     1      -3.422   4.782  11.280  1.00  0.00     0.164 HD
BRANCH  14  16
HETATM   16  C9  UNL     1      -2.192   3.338  11.914  1.00  0.00     0.070 C 
BRANCH  16  17
HETATM   17  C10 UNL     1      -2.590   2.146  11.140  1.00  0.00    -0.004 C 
HETATM   18  C11 UNL     1      -4.045   2.270  10.632  1.00  0.00     0.020 C 
HETATM   19  C12 UNL     1      -4.649   0.909  10.612  1.00  0.00    -0.013 C 
HETATM   20  C13 UNL     1      -4.838   0.453  12.037  1.00  0.00     0.005 C 
HETATM   21  C17 UNL     1      -3.681  -0.020   9.918  1.00  0.00     0.010 C 
HETATM   22  C14 UNL     1      -3.476   0.326  12.653  1.00  0.00     0.006 C 
HETATM   23  C15 UNL     1      -2.366   0.807  11.810  1.00  0.00     0.003 C 
HETATM   24  C16 UNL     1      -2.287   0.213  10.430  1.00  0.00    -0.008 C 
HETATM   25  C18 UNL     1      -1.774   1.612  10.011  1.00  0.00     0.020 C 
ENDBRANCH  16  17
ENDBRANCH  14  16
ENDBRANCH  13  14
ENDBRANCH   7  13
BRANCH   3  26
HETATM   26  O1  UNL     1      -5.472  -0.379  16.518  1.00  0.00    -0.391 OA
ATOM     27  H1  UNL     1      -4.709  -0.808  16.150  1.00  0.00     0.210 HD
ENDBRANCH   3  26
TORSDOF 6
ENDMDL
MODEL 5
REMARK VINA RESULT: -7.099202839      2.926      3.908
REMARK  6 active torsions:
REMARK  status: ('A' for Active; 'I' for Inactive)
REMARK    1  A    between atoms: C3_3  and  O1_4 
REMARK    2  A    between atoms: C7_9  and  O2_10 
REMARK    3  A    between atoms: C7_9  and  C8_12 
REMARK    4  A    between atoms: C8_12  and  N1_13 
REMARK    5  A    between atoms: N1_13  and  C9_15 
REMARK    6  A    between atoms: C9_15  and  C10_16 
ROOT
HETATM    1  C1  UNL     1      -5.894   1.366  18.130  1.00  0.00     0.017 C 
HETATM    2  C2  UNL     1      -5.949   1.915  16.941  1.00  0.00    -0.056 C 
HETATM    3  C3  UNL     1      -6.870   2.862  16.264  1.00  0.00     0.151 C 
HETATM    4  C4  UNL     1      -5.662   3.327  15.480  1.00  0.00     0.027 C 
HETATM    5  C5  UNL     1      -5.762   3.565  14.049  1.00  0.00     0.011 C 
HETATM    6  C6  UNL     1      -5.086   2.599  13.114  1.00  0.00     0.044 C 
HETATM    7  C7  UNL     1      -3.656   2.363  13.298  1.00  0.00     0.089 C 
HETATM    8  C19 UNL     1      -3.137   2.887  14.667  1.00  0.00     0.044 C 
HETATM    9  C20 UNL     1      -3.675   2.008  15.776  1.00  0.00     0.013 C 
HETATM   10  C21 UNL     1      -5.168   1.888  15.710  1.00  0.00     0.023 C 
ENDROOT
BRANCH   7  11
HETATM   11  O2  UNL     1      -3.431   0.966  13.430  1.00  0.00    -0.384 OA
ATOM     12  H2  UNL     1      -2.497   0.798  13.393  1.00  0.00     0.211 HD
ENDBRANCH   7  11
BRANCH   7  13
HETATM   13  C8  UNL     1      -2.802   2.946  12.224  1.00  0.00     0.097 C 
BRANCH  13  14
HETATM   14  N1  UNL     1      -1.629   3.592  12.491  1.00  0.00    -0.379 N 
ATOM     15  H1  UNL     1      -1.049   3.112  13.179  1.00  0.00     0.164 HD
BRANCH  14  16
HETATM   16  C9  UNL     1      -1.077   4.747  12.027  1.00  0.00     0.070 C 
BRANCH  16  17
HETATM   17  C10 UNL     1      -1.400   6.092  12.539  1.00  0.00    -0.004 C 
HETATM   18  C11 UNL     1      -1.461   6.103  14.084  1.00  0.00     0.020 C 
HETATM   19  C12 UNL     1      -2.493   7.090  14.503  1.00  0.00    -0.013 C 
HETATM   20  C13 UNL     1      -3.849   6.548  14.127  1.00  0.00     0.005 C 
HETATM   21  C17 UNL     1      -2.245   8.374  13.747  1.00  0.00     0.010 C 
HETATM   22  C14 UNL     1      -3.899   6.461  12.630  1.00  0.00     0.006 C 
HETATM   23  C15 UNL     1      -2.625   6.757  11.948  1.00  0.00     0.003 C 
HETATM   24  C16 UNL     1      -1.987   8.075  12.296  1.00  0.00    -0.008 C 
HETATM   25  C18 UNL     1      -0.651   7.313  12.120  1.00  0.00     0.020 C 
ENDBRANCH  16  17
ENDBRANCH  14  16
ENDBRANCH  13  14
ENDBRANCH   7  13
BRANCH   3  26
HETATM   26  O1  UNL     1      -7.366   3.851  17.100  1.00  0.00    -0.391 OA
ATOM     27  H1  UNL     1      -7.374   4.715  16.706  1.00  0.00     0.210 HD
ENDBRANCH   3  26
TORSDOF 6
ENDMDL
