MODEL 1
REMARK VINA RESULT: -7.692347137      0.000      0.000
REMARK  6 active torsions:
REMARK  status: ('A' for Active; 'I' for Inactive)
REMARK    1  A    between atoms: O1_1  and  C1_3 
REMARK    2  A    between atoms: N1_10  and  C7_12 
REMARK    3  A    between atoms: C7_12  and  C8_13 
REMARK    4  A    between atoms: C8_13  and  C9_14 
REMARK    5  A    between atoms: C9_14  and  N2_15 
REMARK    6  A    between atoms: N2_15  and  C10_17 
ROOT
HETATM    1  C9  UNL     1      -4.707   5.425  13.333  1.00  0.00     0.123 C 
ENDROOT
BRANCH   1   2
HETATM    2  C8  UNL     1      -3.871   5.546  12.074  1.00  0.00     0.039 C 
BRANCH   2   3
HETATM    3  C7  UNL     1      -4.283   4.478  11.057  1.00  0.00     0.121 C 
BRANCH   3   4
HETATM    4  N1  UNL     1      -3.252   3.523  10.865  1.00  0.00    -0.392 N 
HETATM    5  C6  UNL     1      -3.247   2.297  11.129  1.00  0.00     0.045 C 
HETATM    6  C1  UNL     1      -2.040   1.482  10.838  1.00  0.00     0.166 C 
HETATM    7  C5  UNL     1      -4.428   1.645  11.727  1.00  0.00     0.217 C 
HETATM    8  C2  UNL     1      -2.393   0.002  10.740  1.00  0.00     0.038 C 
HETATM    9  C3  UNL     1      -3.738  -0.093  10.058  1.00  0.00     0.006 C 
HETATM   10  C4  UNL     1      -4.840   0.404  10.960  1.00  0.00     0.043 C 
HETATM   11  F1  UNL     1      -4.086   1.295  13.039  1.00  0.00    -0.243 F 
ATOM     12  H1  UNL     1      -2.393   3.885  10.452  1.00  0.00     0.159 HD
BRANCH   6  13
HETATM   13  O1  UNL     1      -1.113   1.719  11.853  1.00  0.00    -0.390 OA
ATOM     14  H1  UNL     1      -1.293   1.184  12.617  1.00  0.00     0.210 HD
ENDBRANCH   6  13
ENDBRANCH   3   4
ENDBRANCH   2   3
ENDBRANCH   1   2
BRANCH   1  15
HETATM   15  N2  UNL     1      -3.963   4.999  14.460  1.00  0.00    -0.375 N 
ATOM     16  H2  UNL     1      -3.392   5.731  14.883  1.00  0.00     0.161 HD
BRANCH  15  17
HETATM   17  C10 UNL     1      -3.879   3.889  15.031  1.00  0.00     0.124 A 
HETATM   18  N3  UNL     1      -2.733   3.243  15.285  1.00  0.00    -0.285 N 
HETATM   19  N4  UNL     1      -3.003   2.106  15.895  1.00  0.00    -0.303 N 
ATOM     20  H3  UNL     1      -1.800   3.578  15.044  1.00  0.00     0.188 HD
HETATM   21  C11 UNL     1      -4.312   1.960  16.066  1.00  0.00     0.036 A 
ATOM     22  H4  UNL     1      -2.300   1.431  16.196  1.00  0.00     0.186 HD
HETATM   23  C12 UNL     1      -4.896   3.106  15.512  1.00  0.00     0.011 A 
HETATM   24  C16 UNL     1      -5.230   0.961  16.650  1.00  0.00     0.059 C 
HETATM   25  C13 UNL     1      -6.367   3.162  15.590  1.00  0.00     0.044 C 
HETATM   26  C14 UNL     1      -6.765   2.899  17.048  1.00  0.00     0.005 C 
HETATM   27  C15 UNL     1      -6.279   1.570  17.522  1.00  0.00     0.006 C 
ENDBRANCH  15  17
ENDBRANCH   1  15
TORSDOF 6
ENDMDL
MODEL 2
REMARK VINA RESULT: -7.691466105      2.122      5.278
REMARK  6 active torsions:
REMARK  status: ('A' for Active; 'I' for Inactive)
REMARK    1  A    between atoms: O1_1  and  C1_3 
REMARK    2  A    between atoms: N1_10  and  C7_12 
REMARK    3  A    between atoms: C7_12  and  C8_13 
REMARK    4  A    between atoms: C8_13  and  C9_14 
REMARK    5  A    between atoms: C9_14  and  N2_15 
REMARK    6  A    between atoms: N2_15  and  C10_17 
ROOT
HETATM    1  C9  UNL     1      -2.274   1.243  11.265  1.00  0.00     0.123 C 
ENDROOT
BRANCH   1   2
HETATM    2  C8  UNL     1      -3.670   0.657  11.357  1.00  0.00     0.039 C 
BRANCH   2   3
HETATM    3  C7  UNL     1      -4.541   1.504  12.290  1.00  0.00     0.121 C 
BRANCH   3   4
HETATM    4  N1  UNL     1      -4.470   1.036  13.627  1.00  0.00    -0.392 N 
HETATM    5  C6  UNL     1      -4.669   1.659  14.697  1.00  0.00     0.045 C 
HETATM    6  C1  UNL     1      -4.537   0.956  15.999  1.00  0.00     0.166 C 
HETATM    7  C5  UNL     1      -5.036   3.088  14.686  1.00  0.00     0.217 C 
HETATM    8  C2  UNL     1      -5.292   1.697  17.097  1.00  0.00     0.038 C 
HETATM    9  C3  UNL     1      -6.563   2.235  16.481  1.00  0.00     0.006 C 
HETATM   10  C4  UNL     1      -6.267   3.365  15.526  1.00  0.00     0.043 C 
HETATM   11  F1  UNL     1      -3.945   3.799  15.201  1.00  0.00    -0.243 F 
ATOM     12  H1  UNL     1      -4.222   0.053  13.734  1.00  0.00     0.159 HD
BRANCH   6  13
HETATM   13  O1  UNL     1      -3.177   0.860  16.292  1.00  0.00    -0.390 OA
ATOM     14  H1  UNL     1      -2.783   0.107  15.867  1.00  0.00     0.210 HD
ENDBRANCH   6  13
ENDBRANCH   3   4
ENDBRANCH   2   3
ENDBRANCH   1   2
BRANCH   1  15
HETATM   15  N2  UNL     1      -2.266   2.656  11.169  1.00  0.00    -0.375 N 
ATOM     16  H2  UNL     1      -2.627   3.016  10.286  1.00  0.00     0.161 HD
BRANCH  15  17
HETATM   17  C10 UNL     1      -1.897   3.542  11.972  1.00  0.00     0.124 A 
HETATM   18  N3  UNL     1      -0.733   3.539  12.634  1.00  0.00    -0.285 N 
HETATM   19  N4  UNL     1      -0.664   4.615  13.393  1.00  0.00    -0.303 N 
ATOM     20  H3  UNL     1      -0.014   2.818  12.563  1.00  0.00     0.188 HD
HETATM   21  C11 UNL     1      -1.758   5.357  13.264  1.00  0.00     0.036 A 
ATOM     22  H4  UNL     1       0.124   4.846  13.998  1.00  0.00     0.186 HD
HETATM   23  C12 UNL     1      -2.569   4.677  12.347  1.00  0.00     0.011 A 
HETATM   24  C16 UNL     1      -2.287   6.623  13.810  1.00  0.00     0.059 C 
HETATM   25  C13 UNL     1      -3.857   5.327  12.044  1.00  0.00     0.044 C 
HETATM   26  C14 UNL     1      -3.563   6.783  11.661  1.00  0.00     0.005 C 
HETATM   27  C15 UNL     1      -2.869   7.514  12.761  1.00  0.00     0.006 C 
ENDBRANCH  15  17
ENDBRANCH   1  15
TORSDOF 6
ENDMDL
MODEL 3
REMARK VINA RESULT: -7.519621087      1.638      1.994
REMARK  6 active torsions:
REMARK  status: ('A' for Active; 'I' for Inactive)
REMARK    1  A    between atoms: O1_1  and  C1_3 
REMARK    2  A    between atoms: N1_10  and  C7_12 
REMARK    3  A    between atoms: C7_12  and  C8_13 
REMARK    4  A    between atoms: C8_13  and  C9_14 
REMARK    5  A    between atoms: C9_14  and  N2_15 
REMARK    6  A    between atoms: N2_15  and  C10_17 
ROOT
HETATM    1  C9  UNL     1      -3.079   5.167  13.548  1.00  0.00     0.123 C 
ENDROOT
BRANCH   1   2
HETATM    2  C8  UNL     1      -1.622   4.920  13.205  1.00  0.00     0.039 C 
BRANCH   2   3
HETATM    3  C7  UNL     1      -1.495   3.724  12.256  1.00  0.00     0.121 C 
BRANCH   3   4
HETATM    4  N1  UNL     1      -2.764   3.167  11.955  1.00  0.00    -0.392 N 
HETATM    5  C6  UNL     1      -3.043   2.048  11.464  1.00  0.00     0.045 C 
HETATM    6  C1  UNL     1      -4.462   1.673  11.232  1.00  0.00     0.166 C 
HETATM    7  C5  UNL     1      -1.979   1.088  11.111  1.00  0.00     0.217 C 
HETATM    8  C2  UNL     1      -4.616   0.159  11.133  1.00  0.00     0.038 C 
HETATM    9  C3  UNL     1      -3.667  -0.453  12.138  1.00  0.00     0.006 C 
HETATM   10  C4  UNL     1      -2.233  -0.284  11.703  1.00  0.00     0.043 C 
HETATM   11  F1  UNL     1      -1.951   0.999   9.714  1.00  0.00    -0.243 F 
ATOM     12  H1  UNL     1      -3.564   3.763  12.167  1.00  0.00     0.159 HD
BRANCH   6  13
HETATM   13  O1  UNL     1      -4.882   2.305  10.062  1.00  0.00    -0.390 OA
ATOM     14  H1  UNL     1      -5.821   2.230   9.946  1.00  0.00     0.210 HD
ENDBRANCH   6  13
ENDBRANCH   3   4
ENDBRANCH   2   3
ENDBRANCH   1   2
BRANCH   1  15
HETATM   15  N2  UNL     1      -3.432   4.717  14.843  1.00  0.00    -0.375 N 
ATOM     16  H2  UNL     1      -3.490   5.458  15.541  1.00  0.00     0.161 HD
BRANCH  15  17
HETATM   17  C10 UNL     1      -3.686   3.574  15.286  1.00  0.00     0.124 A 
HETATM   18  N3  UNL     1      -2.770   2.627  15.532  1.00  0.00    -0.285 N 
HETATM   19  N4  UNL     1      -3.374   1.549  15.990  1.00  0.00    -0.303 N 
ATOM     20  H3  UNL     1      -1.765   2.726  15.388  1.00  0.00     0.188 HD
HETATM   21  C11 UNL     1      -4.687   1.737  16.063  1.00  0.00     0.036 A 
ATOM     22  H4  UNL     1      -2.898   0.686  16.252  1.00  0.00     0.186 HD
HETATM   23  C12 UNL     1      -4.908   3.044  15.611  1.00  0.00     0.011 A 
HETATM   24  C16 UNL     1      -5.878   0.965  16.472  1.00  0.00     0.059 C 
HETATM   25  C13 UNL     1      -6.316   3.479  15.606  1.00  0.00     0.044 C 
HETATM   26  C14 UNL     1      -6.895   3.193  16.998  1.00  0.00     0.005 C 
HETATM   27  C15 UNL     1      -6.810   1.744  17.343  1.00  0.00     0.006 C 
ENDBRANCH  15  17
ENDBRANCH   1  15
TORSDOF 6
ENDMDL
MODEL 4
REMARK VINA RESULT: -7.473667691      3.031      6.447
REMARK  6 active torsions:
REMARK  status: ('A' for Active; 'I' for Inactive)
REMARK    1  A    between atoms: O1_1  and  C1_3 
REMARK    2  A    between atoms: N1_10  and  C7_12 
REMARK    3  A    between atoms: C7_12  and  C8_13 
REMARK    4  A    between atoms: C8_13  and  C9_14 
REMARK    5  A    between atoms: C9_14  and  N2_15 
REMARK    6  A    between atoms: N2_15  and  C10_17 
ROOT
HETATM    1  C9  UNL     1      -2.124   0.854  11.373  1.00  0.00     0.123 C 
ENDROOT
BRANCH   1   2
HETATM    2  C8  UNL     1      -3.608   0.546  11.319  1.00  0.00     0.039 C 
BRANCH   2   3
HETATM    3  C7  UNL     1      -4.383   1.501  12.233  1.00  0.00     0.121 C 
BRANCH   3   4
HETATM    4  N1  UNL     1      -4.377   1.047  13.577  1.00  0.00    -0.392 N 
HETATM    5  C6  UNL     1      -4.586   1.691  14.633  1.00  0.00     0.045 C 
HETATM    6  C1  UNL     1      -4.527   0.999  15.946  1.00  0.00     0.166 C 
HETATM    7  C5  UNL     1      -4.893   3.134  14.593  1.00  0.00     0.217 C 
HETATM    8  C2  UNL     1      -5.287   1.784  17.009  1.00  0.00     0.038 C 
HETATM    9  C3  UNL     1      -6.514   2.366  16.344  1.00  0.00     0.006 C 
HETATM   10  C4  UNL     1      -6.139   3.471  15.387  1.00  0.00     0.043 C 
HETATM   11  F1  UNL     1      -3.791   3.805  15.138  1.00  0.00    -0.243 F 
ATOM     12  H1  UNL     1      -4.174   0.056  13.703  1.00  0.00     0.159 HD
BRANCH   6  13
HETATM   13  O1  UNL     1      -3.183   0.851  16.287  1.00  0.00    -0.390 OA
ATOM     14  H1  UNL     1      -2.662   0.588  15.537  1.00  0.00     0.210 HD
ENDBRANCH   6  13
ENDBRANCH   3   4
ENDBRANCH   2   3
ENDBRANCH   1   2
BRANCH   1  15
HETATM   15  N2  UNL     1      -1.804   2.145  10.888  1.00  0.00    -0.375 N 
ATOM     16  H2  UNL     1      -2.128   2.327   9.938  1.00  0.00     0.161 HD
BRANCH  15  17
HETATM   17  C10 UNL     1      -1.195   3.104  11.414  1.00  0.00     0.124 A 
HETATM   18  N3  UNL     1      -1.435   3.583  12.642  1.00  0.00    -0.285 N 
HETATM   19  N4  UNL     1      -0.619   4.591  12.881  1.00  0.00    -0.303 N 
ATOM     20  H3  UNL     1      -2.137   3.224  13.289  1.00  0.00     0.188 HD
HETATM   21  C11 UNL     1       0.176   4.813  11.840  1.00  0.00     0.036 A 
ATOM     22  H4  UNL     1      -0.602   5.127  13.748  1.00  0.00     0.186 HD
HETATM   23  C12 UNL     1      -0.183   3.859  10.880  1.00  0.00     0.011 A 
HETATM   24  C16 UNL     1       1.260   5.748  11.477  1.00  0.00     0.059 C 
HETATM   25  C13 UNL     1       0.582   3.916   9.620  1.00  0.00     0.044 C 
HETATM   26  C14 UNL     1       2.073   3.910   9.982  1.00  0.00     0.005 C 
HETATM   27  C15 UNL     1       2.434   5.067  10.851  1.00  0.00     0.006 C 
ENDBRANCH  15  17
ENDBRANCH   1  15
TORSDOF 6
ENDMDL
MODEL 5
REMARK VINA RESULT: -7.440116954      1.967      5.247
REMARK  6 active torsions:
REMARK  status: ('A' for Active; 'I' for Inactive)
REMARK    1  A    between atoms: O1_1  and  C1_3 
REMARK    2  A    between atoms: N1_10  and  C7_12 
REMARK    3  A    between atoms: C7_12  and  C8_13 
REMARK    4  A    between atoms: C8_13  and  C9_14 
REMARK    5  A    between atoms: C9_14  and  N2_15 
REMARK    6  A    between atoms: N2_15  and  C10_17 
ROOT
HETATM    1  C9  UNL     1      -2.416   5.175  13.126  1.00  0.00     0.123 C 
ENDROOT
BRANCH   1   2
HETATM    2  C8  UNL     1      -1.703   4.833  14.420  1.00  0.00     0.039 C 
BRANCH   2   3
HETATM    3  C7  UNL     1      -2.388   3.648  15.107  1.00  0.00     0.121 C 
BRANCH   3   4
HETATM    4  N1  UNL     1      -3.790   3.844  15.198  1.00  0.00    -0.392 N 
HETATM    5  C6  UNL     1      -4.691   3.016  15.474  1.00  0.00     0.045 C 
HETATM    6  C1  UNL     1      -6.111   3.452  15.512  1.00  0.00     0.166 C 
HETATM    7  C5  UNL     1      -4.364   1.608  15.765  1.00  0.00     0.217 C 
HETATM    8  C2  UNL     1      -6.955   2.487  16.337  1.00  0.00     0.038 C 
HETATM    9  C3  UNL     1      -6.109   2.045  17.510  1.00  0.00     0.006 C 
HETATM   10  C4  UNL     1      -4.993   1.135  17.060  1.00  0.00     0.043 C 
HETATM   11  F1  UNL     1      -4.850   0.842  14.699  1.00  0.00    -0.243 F 
ATOM     12  H1  UNL     1      -4.112   4.794  15.012  1.00  0.00     0.159 HD
BRANCH   6  13
HETATM   13  O1  UNL     1      -6.566   3.529  14.196  1.00  0.00    -0.390 OA
ATOM     14  H1  UNL     1      -6.464   2.699  13.745  1.00  0.00     0.210 HD
ENDBRANCH   6  13
ENDBRANCH   3   4
ENDBRANCH   2   3
ENDBRANCH   1   2
BRANCH   1  15
HETATM   15  N2  UNL     1      -1.888   4.497  12.001  1.00  0.00    -0.375 N 
ATOM     16  H2  UNL     1      -1.458   5.109  11.308  1.00  0.00     0.161 HD
BRANCH  15  17
HETATM   17  C10 UNL     1      -1.853   3.282  11.703  1.00  0.00     0.124 A 
HETATM   18  N3  UNL     1      -0.766   2.503  11.790  1.00  0.00    -0.285 N 
HETATM   19  N4  UNL     1      -1.076   1.282  11.400  1.00  0.00    -0.303 N 
ATOM     20  H3  UNL     1       0.154   2.806  12.108  1.00  0.00     0.188 HD
HETATM   21  C11 UNL     1      -2.355   1.208  11.047  1.00  0.00     0.036 A 
ATOM     22  H4  UNL     1      -0.422   0.500  11.372  1.00  0.00     0.186 HD
HETATM   23  C12 UNL     1      -2.875   2.495  11.237  1.00  0.00     0.011 A 
HETATM   24  C16 UNL     1      -3.288   0.181  10.541  1.00  0.00     0.059 C 
HETATM   25  C13 UNL     1      -4.302   2.652  10.905  1.00  0.00     0.044 C 
HETATM   26  C14 UNL     1      -5.074   1.550  11.642  1.00  0.00     0.005 C 
HETATM   27  C15 UNL     1      -4.605   0.190  11.248  1.00  0.00     0.006 C 
ENDBRANCH  15  17
ENDBRANCH   1  15
TORSDOF 6
ENDMDL
