MODEL 1
REMARK VINA RESULT: -7.651178206      0.000      0.000
REMARK  6 active torsions:
REMARK  status: ('A' for Active; 'I' for Inactive)
REMARK    1  A    between atoms: C7_7  and  C8_8 
REMARK    2  A    between atoms: C8_8  and  N2_12 
REMARK       I    between atoms: N2_12  and  C9_14 
REMARK    3  A    between atoms: C9_14  and  C10_16 
REMARK    4  A    between atoms: C10_16  and  C11_17 
REMARK    5  A    between atoms: C11_17  and  N3_18 
REMARK    6  A    between atoms: C14_21  and  O2_22 
ROOT
HETATM    1  N2  UNL     1      -3.513   3.790  12.845  1.00  0.00    -0.316 N 
ATOM      2  H2  UNL     1      -2.881   3.299  13.477  1.00  0.00     0.170 HD
HETATM    3  C9  UNL     1      -4.527   4.564  13.414  1.00  0.00     0.227 C 
HETATM    4  O1  UNL     1      -5.352   5.210  12.782  1.00  0.00    -0.273 OA
ENDROOT
BRANCH   1   5
HETATM    5  C8  UNL     1      -3.304   3.642  11.474  1.00  0.00     0.081 C 
HETATM    6  N1  UNL     1      -3.031   4.702  10.749  1.00  0.00    -0.388 N 
ATOM      7  H12 UNL     1      -2.879   4.594   9.746  1.00  0.00     0.157 HD
ATOM      8  H11 UNL     1      -3.008   5.598  11.235  1.00  0.00     0.157 HD
BRANCH   5   9
HETATM    9  C7  UNL     1      -3.336   2.369  10.783  1.00  0.00     0.056 C 
HETATM   10  C2  UNL     1      -2.272   1.436  11.395  1.00  0.00    -0.007 C 
HETATM   11  C1  UNL     1      -0.918   1.973  11.000  1.00  0.00     0.011 C 
HETATM   12  C3  UNL     1      -2.536   0.072  10.798  1.00  0.00     0.005 C 
HETATM   13  C4  UNL     1      -3.704  -0.514  11.599  1.00  0.00     0.000 C 
HETATM   14  C5  UNL     1      -4.648   0.574  11.967  1.00  0.00     0.001 C 
HETATM   15  C6  UNL     1      -4.697   1.717  10.976  1.00  0.00     0.013 C 
ENDBRANCH   5   9
ENDBRANCH   1   5
BRANCH   3  16
HETATM   16  C10 UNL     1      -4.601   4.599  14.921  1.00  0.00     0.148 C 
BRANCH  16  17
HETATM   17  C11 UNL     1      -6.053   4.431  15.298  1.00  0.00     0.077 C 
BRANCH  17  18
HETATM   18  N3  UNL     1      -6.291   3.099  15.685  1.00  0.00    -0.354 N 
HETATM   19  C12 UNL     1      -5.329   2.127  15.383  1.00  0.00     0.070 C 
HETATM   20  C13 UNL     1      -4.736   1.618  16.697  1.00  0.00     0.077 C 
HETATM   21  C14 UNL     1      -5.825   0.931  17.503  1.00  0.00     0.127 C 
HETATM   22  C15 UNL     1      -7.200   1.384  17.079  1.00  0.00     0.077 C 
HETATM   23  C16 UNL     1      -7.229   2.843  16.688  1.00  0.00     0.070 C 
BRANCH  21  24
HETATM   24  O2  UNL     1      -5.738  -0.432  17.189  1.00  0.00    -0.395 OA
ATOM     25  H2  UNL     1      -5.889  -0.497  16.254  1.00  0.00     0.210 HD
ENDBRANCH  21  24
ENDBRANCH  17  18
ENDBRANCH  16  17
ENDBRANCH   3  16
TORSDOF 6
ENDMDL
MODEL 2
REMARK VINA RESULT: -7.282812202      3.168      7.384
REMARK  6 active torsions:
REMARK  status: ('A' for Active; 'I' for Inactive)
REMARK    1  A    between atoms: C7_7  and  C8_8 
REMARK    2  A    between atoms: C8_8  and  N2_12 
REMARK       I    between atoms: N2_12  and  C9_14 
REMARK    3  A    between atoms: C9_14  and  C10_16 
REMARK    4  A    between atoms: C10_16  and  C11_17 
REMARK    5  A    between atoms: C11_17  and  N3_18 
REMARK    6  A    between atoms: C14_21  and  O2_22 
ROOT
HETATM    1  N2  UNL     1      -2.798   3.238  14.436  1.00  0.00    -0.316 N 
ATOM      2  H2  UNL     1      -2.006   3.218  15.079  1.00  0.00     0.170 HD
HETATM    3  C9  UNL     1      -2.679   4.022  13.286  1.00  0.00     0.227 C 
HETATM    4  O1  UNL     1      -3.543   4.138  12.428  1.00  0.00    -0.273 OA
ENDROOT
BRANCH   1   5
HETATM    5  C8  UNL     1      -3.922   2.482  14.768  1.00  0.00     0.081 C 
HETATM    6  N1  UNL     1      -4.314   1.526  13.958  1.00  0.00    -0.388 N 
ATOM      7  H12 UNL     1      -5.136   0.974  14.200  1.00  0.00     0.157 HD
ATOM      8  H11 UNL     1      -3.776   1.402  13.101  1.00  0.00     0.157 HD
BRANCH   5   9
HETATM    9  C7  UNL     1      -4.686   2.659  15.986  1.00  0.00     0.056 C 
HETATM   10  C2  UNL     1      -6.145   3.002  15.620  1.00  0.00    -0.007 C 
HETATM   11  C1  UNL     1      -6.150   4.395  15.040  1.00  0.00     0.011 C 
HETATM   12  C3  UNL     1      -6.918   2.925  16.918  1.00  0.00     0.005 C 
HETATM   13  C4  UNL     1      -7.186   1.436  17.156  1.00  0.00     0.000 C 
HETATM   14  C5  UNL     1      -6.022   0.641  16.681  1.00  0.00     0.001 C 
HETATM   15  C6  UNL     1      -4.695   1.361  16.778  1.00  0.00     0.013 C 
ENDBRANCH   5   9
ENDBRANCH   1   5
BRANCH   3  16
HETATM   16  C10 UNL     1      -1.386   4.777  13.099  1.00  0.00     0.148 C 
BRANCH  16  17
HETATM   17  C11 UNL     1      -1.129   4.856  11.613  1.00  0.00     0.077 C 
BRANCH  17  18
HETATM   18  N3  UNL     1       0.178   4.414  11.336  1.00  0.00    -0.354 N 
HETATM   19  C12 UNL     1       0.363   3.424  10.362  1.00  0.00     0.070 C 
HETATM   20  C13 UNL     1       1.124   4.044   9.190  1.00  0.00     0.077 C 
HETATM   21  C14 UNL     1       2.504   4.469   9.660  1.00  0.00     0.127 C 
HETATM   22  C15 UNL     1       2.548   4.658  11.157  1.00  0.00     0.077 C 
HETATM   23  C16 UNL     1       1.257   5.221  11.702  1.00  0.00     0.070 C 
BRANCH  21  24
HETATM   24  O2  UNL     1       3.360   3.399   9.366  1.00  0.00    -0.395 OA
ATOM     25  H2  UNL     1       3.507   3.430   8.428  1.00  0.00     0.210 HD
ENDBRANCH  21  24
ENDBRANCH  17  18
ENDBRANCH  16  17
ENDBRANCH   3  16
TORSDOF 6
ENDMDL
MODEL 3
REMARK VINA RESULT: -7.254557115      0.616      1.233
REMARK  6 active torsions:
REMARK  status: ('A' for Active; 'I' for Inactive)
REMARK    1  A    between atoms: C7_7  and  C8_8 
REMARK    2  A    between atoms: C8_8  and  N2_12 
REMARK       I    between atoms: N2_12  and  C9_14 
REMARK    3  A    between atoms: C9_14  and  C10_16 
REMARK    4  A    between atoms: C10_16  and  C11_17 
REMARK    5  A    between atoms: C11_17  and  N3_18 
REMARK    6  A    between atoms: C14_21  and  O2_22 
ROOT
HETATM    1  N2  UNL     1      -3.825   4.273  12.765  1.00  0.00    -0.316 N 
ATOM      2  H2  UNL     1      -3.378   3.721  13.497  1.00  0.00     0.170 HD
HETATM    3  C9  UNL     1      -4.806   5.189  13.152  1.00  0.00     0.227 C 
HETATM    4  O1  UNL     1      -5.422   5.918  12.387  1.00  0.00    -0.273 OA
ENDROOT
BRANCH   1   5
HETATM    5  C8  UNL     1      -3.416   4.058  11.449  1.00  0.00     0.081 C 
HETATM    6  N1  UNL     1      -3.033   5.083  10.722  1.00  0.00    -0.388 N 
ATOM      7  H12 UNL     1      -2.734   4.926   9.760  1.00  0.00     0.157 HD
ATOM      8  H11 UNL     1      -3.079   6.001  11.162  1.00  0.00     0.157 HD
BRANCH   5   9
HETATM    9  C7  UNL     1      -3.352   2.754  10.823  1.00  0.00     0.056 C 
HETATM   10  C2  UNL     1      -2.272   1.908  11.530  1.00  0.00    -0.007 C 
HETATM   11  C1  UNL     1      -0.930   2.496  11.169  1.00  0.00     0.011 C 
HETATM   12  C3  UNL     1      -2.439   0.505  10.992  1.00  0.00     0.005 C 
HETATM   13  C4  UNL     1      -3.612  -0.102  11.768  1.00  0.00     0.000 C 
HETATM   14  C5  UNL     1      -4.627   0.952  12.037  1.00  0.00     0.001 C 
HETATM   15  C6  UNL     1      -4.686   2.041  10.988  1.00  0.00     0.013 C 
ENDBRANCH   5   9
ENDBRANCH   1   5
BRANCH   3  16
HETATM   16  C10 UNL     1      -5.121   5.276  14.625  1.00  0.00     0.148 C 
BRANCH  16  17
HETATM   17  C11 UNL     1      -6.210   4.268  14.907  1.00  0.00     0.077 C 
BRANCH  17  18
HETATM   18  N3  UNL     1      -5.728   3.287  15.793  1.00  0.00    -0.354 N 
HETATM   19  C12 UNL     1      -6.531   2.901  16.874  1.00  0.00     0.070 C 
HETATM   20  C13 UNL     1      -6.943   1.444  16.665  1.00  0.00     0.077 C 
HETATM   21  C14 UNL     1      -5.704   0.566  16.696  1.00  0.00     0.127 C 
HETATM   22  C15 UNL     1      -4.455   1.356  16.394  1.00  0.00     0.077 C 
HETATM   23  C16 UNL     1      -4.697   2.444  15.374  1.00  0.00     0.070 C 
BRANCH  21  24
HETATM   24  O2  UNL     1      -5.582   0.113  18.017  1.00  0.00    -0.395 OA
ATOM     25  H2  UNL     1      -4.809  -0.438  18.036  1.00  0.00     0.210 HD
ENDBRANCH  21  24
ENDBRANCH  17  18
ENDBRANCH  16  17
ENDBRANCH   3  16
TORSDOF 6
ENDMDL
MODEL 4
REMARK VINA RESULT: -7.248064074      1.971      6.366
REMARK  6 active torsions:
REMARK  status: ('A' for Active; 'I' for Inactive)
REMARK    1  A    between atoms: C7_7  and  C8_8 
REMARK    2  A    between atoms: C8_8  and  N2_12 
REMARK       I    between atoms: N2_12  and  C9_14 
REMARK    3  A    between atoms: C9_14  and  C10_16 
REMARK    4  A    between atoms: C10_16  and  C11_17 
REMARK    5  A    between atoms: C11_17  and  N3_18 
REMARK    6  A    between atoms: C14_21  and  O2_22 
ROOT
HETATM    1  N2  UNL     1      -4.020   1.746  14.280  1.00  0.00    -0.316 N 
ATOM      2  H2  UNL     1      -3.960   2.427  13.523  1.00  0.00     0.170 HD
HETATM    3  C9  UNL     1      -4.277   0.416  13.937  1.00  0.00     0.227 C 
HETATM    4  O1  UNL     1      -4.372  -0.506  14.735  1.00  0.00    -0.273 OA
ENDROOT
BRANCH   1   5
HETATM    5  C8  UNL     1      -3.841   2.208  15.584  1.00  0.00     0.081 C 
HETATM    6  N1  UNL     1      -2.623   2.392  16.036  1.00  0.00    -0.388 N 
ATOM      7  H12 UNL     1      -2.491   2.730  16.989  1.00  0.00     0.157 HD
ATOM      8  H11 UNL     1      -1.858   2.162  15.403  1.00  0.00     0.157 HD
BRANCH   5   9
HETATM    9  C7  UNL     1      -4.928   2.535  16.483  1.00  0.00     0.056 C 
HETATM   10  C2  UNL     1      -6.205   2.796  15.658  1.00  0.00    -0.007 C 
HETATM   11  C1  UNL     1      -6.006   4.097  14.918  1.00  0.00     0.011 C 
HETATM   12  C3  UNL     1      -7.329   2.883  16.665  1.00  0.00     0.005 C 
HETATM   13  C4  UNL     1      -7.689   1.434  17.013  1.00  0.00     0.000 C 
HETATM   14  C5  UNL     1      -6.455   0.604  17.018  1.00  0.00     0.001 C 
HETATM   15  C6  UNL     1      -5.201   1.356  17.406  1.00  0.00     0.013 C 
ENDBRANCH   5   9
ENDBRANCH   1   5
BRANCH   3  16
HETATM   16  C10 UNL     1      -4.450   0.106  12.470  1.00  0.00     0.148 C 
BRANCH  16  17
HETATM   17  C11 UNL     1      -4.779   1.407  11.777  1.00  0.00     0.077 C 
BRANCH  17  18
HETATM   18  N3  UNL     1      -3.638   1.888  11.108  1.00  0.00    -0.354 N 
HETATM   19  C12 UNL     1      -3.427   3.272  11.045  1.00  0.00     0.070 C 
HETATM   20  C13 UNL     1      -2.173   3.600  11.855  1.00  0.00     0.077 C 
HETATM   21  C14 UNL     1      -0.971   2.936  11.206  1.00  0.00     0.127 C 
HETATM   22  C15 UNL     1      -1.381   1.776  10.332  1.00  0.00     0.077 C 
HETATM   23  C16 UNL     1      -2.563   1.023  10.895  1.00  0.00     0.070 C 
BRANCH  21  24
HETATM   24  O2  UNL     1      -0.408   3.898  10.356  1.00  0.00    -0.395 OA
ATOM     25  H2  UNL     1      -0.903   4.696  10.499  1.00  0.00     0.210 HD
ENDBRANCH  21  24
ENDBRANCH  17  18
ENDBRANCH  16  17
ENDBRANCH   3  16
TORSDOF 6
ENDMDL
MODEL 5
REMARK VINA RESULT: -7.096333604      2.722      6.974
REMARK  6 active torsions:
REMARK  status: ('A' for Active; 'I' for Inactive)
REMARK    1  A    between atoms: C7_7  and  C8_8 
REMARK    2  A    between atoms: C8_8  and  N2_12 
REMARK       I    between atoms: N2_12  and  C9_14 
REMARK    3  A    between atoms: C9_14  and  C10_16 
REMARK    4  A    between atoms: C10_16  and  C11_17 
REMARK    5  A    between atoms: C11_17  and  N3_18 
REMARK    6  A    between atoms: C14_21  and  O2_22 
ROOT
HETATM    1  N2  UNL     1      -3.591   1.634  14.052  1.00  0.00    -0.316 N 
ATOM      2  H2  UNL     1      -2.978   2.447  14.103  1.00  0.00     0.170 HD
HETATM    3  C9  UNL     1      -3.843   1.091  12.789  1.00  0.00     0.227 C 
HETATM    4  O1  UNL     1      -4.553   0.117  12.576  1.00  0.00    -0.273 OA
ENDROOT
BRANCH   1   5
HETATM    5  C8  UNL     1      -4.119   1.142  15.246  1.00  0.00     0.081 C 
HETATM    6  N1  UNL     1      -4.002  -0.137  15.519  1.00  0.00    -0.388 N 
ATOM      7  H12 UNL     1      -4.388  -0.497  16.391  1.00  0.00     0.157 HD
ATOM      8  H11 UNL     1      -3.543  -0.717  14.817  1.00  0.00     0.157 HD
BRANCH   5   9
HETATM    9  C7  UNL     1      -4.772   1.965  16.242  1.00  0.00     0.056 C 
HETATM   10  C2  UNL     1      -5.892   2.782  15.566  1.00  0.00    -0.007 C 
HETATM   11  C1  UNL     1      -5.230   3.816  14.688  1.00  0.00     0.011 C 
HETATM   12  C3  UNL     1      -6.673   3.414  16.696  1.00  0.00     0.005 C 
HETATM   13  C4  UNL     1      -7.606   2.317  17.221  1.00  0.00     0.000 C 
HETATM   14  C5  UNL     1      -6.916   1.002  17.147  1.00  0.00     0.001 C 
HETATM   15  C6  UNL     1      -5.413   1.077  17.298  1.00  0.00     0.013 C 
ENDBRANCH   5   9
ENDBRANCH   1   5
BRANCH   3  16
HETATM   16  C10 UNL     1      -3.188   1.765  11.609  1.00  0.00     0.148 C 
BRANCH  16  17
HETATM   17  C11 UNL     1      -2.656   3.092  12.095  1.00  0.00     0.077 C 
BRANCH  17  18
HETATM   18  N3  UNL     1      -1.307   3.227  11.718  1.00  0.00    -0.354 N 
HETATM   19  C12 UNL     1      -0.808   2.413  10.692  1.00  0.00     0.070 C 
HETATM   20  C13 UNL     1      -0.455   3.308   9.503  1.00  0.00     0.077 C 
HETATM   21  C14 UNL     1       0.664   4.252   9.906  1.00  0.00     0.127 C 
HETATM   22  C15 UNL     1       0.740   4.420  11.403  1.00  0.00     0.077 C 
HETATM   23  C16 UNL     1      -0.624   4.398  12.052  1.00  0.00     0.070 C 
BRANCH  21  24
HETATM   24  O2  UNL     1       1.857   3.630   9.511  1.00  0.00    -0.395 OA
ATOM     25  H2  UNL     1       2.394   4.311   9.124  1.00  0.00     0.210 HD
ENDBRANCH  21  24
ENDBRANCH  17  18
ENDBRANCH  16  17
ENDBRANCH   3  16
TORSDOF 6
ENDMDL
