MODEL 1
REMARK VINA RESULT: -7.337775780      0.000      0.000
REMARK  5 active torsions:
REMARK  status: ('A' for Active; 'I' for Inactive)
REMARK    1  A    between atoms: C2_2  and  N1_3 
REMARK    2  A    between atoms: N1_3  and  C3_5 
REMARK    3  A    between atoms: C4_8  and  N3_9 
REMARK    4  A    between atoms: N3_9  and  C5_11 
REMARK    5  A    between atoms: N5_17  and  C9_19 
ROOT
HETATM    1  C3  UNL     1      -4.559   1.248  15.641  1.00  0.00     0.707 A 
HETATM    2  N2  UNL     1      -4.242   0.651  14.466  1.00  0.00    -0.022 N 
ATOM      3  H2  UNL     1      -4.418  -0.347  14.343  1.00  0.00     0.203 HD
HETATM    4  C4  UNL     1      -3.697   1.360  13.462  1.00  0.00     0.707 A 
HETATM    5  N4  UNL     1      -3.474   2.674  13.655  1.00  0.00    -0.021 N 
ATOM      6  H4  UNL     1      -3.060   3.217  12.897  1.00  0.00     0.203 HD
HETATM    7  C8  UNL     1      -3.776   3.298  14.805  1.00  0.00     0.707 A 
HETATM    8  N5  UNL     1      -3.595   4.515  15.046  1.00  0.00    -0.216 N 
ATOM      9  H5  UNL     1      -3.893   4.792  15.981  1.00  0.00     0.178 HD
HETATM   10  N6  UNL     1      -4.330   2.561  15.816  1.00  0.00    -0.021 N 
ATOM     11  H6  UNL     1      -4.569   3.007  16.701  1.00  0.00     0.203 HD
ENDROOT
BRANCH   8  12
HETATM   12  C9  UNL     1      -3.063   5.586  14.286  1.00  0.00     0.043 C 
HETATM   13  C10 UNL     1      -3.922   5.813  13.066  1.00  0.00     0.039 C 
HETATM   14  C11 UNL     1      -1.599   5.433  13.938  1.00  0.00     0.031 C 
HETATM   15  C12 UNL     1      -1.193   6.524  13.006  1.00  0.00     0.002 C 
HETATM   16  C13 UNL     1      -1.693   7.880  13.417  1.00  0.00     0.000 C 
HETATM   17  C14 UNL     1      -2.277   7.929  14.782  1.00  0.00     0.002 C 
HETATM   18  C15 UNL     1      -3.226   6.847  15.129  1.00  0.00     0.031 C 
ENDBRANCH   8  12
BRANCH   4  19
HETATM   19  N3  UNL     1      -3.418   0.761  12.387  1.00  0.00    -0.221 N 
ATOM     20  H3  UNL     1      -2.598   1.123  11.901  1.00  0.00     0.178 HD
BRANCH  19  21
HETATM   21  C5  UNL     1      -4.052  -0.330  11.741  1.00  0.00     0.091 C 
HETATM   22  C6  UNL     1      -3.169  -1.478  11.377  1.00  0.00     0.032 C 
HETATM   23  C7  UNL     1      -4.856   0.136  10.543  1.00  0.00     0.032 C 
ENDBRANCH  19  21
ENDBRANCH   4  19
BRANCH   1  24
HETATM   24  N1  UNL     1      -5.083   0.542  16.593  1.00  0.00    -0.225 N 
ATOM     25  H1  UNL     1      -4.886  -0.457  16.651  1.00  0.00     0.177 HD
BRANCH  24  26
HETATM   26  C2  UNL     1      -5.945   1.163  17.569  1.00  0.00     0.133 C 
HETATM   27  C1  UNL     1      -7.367   1.188  17.052  1.00  0.00     0.027 C 
ENDBRANCH  24  26
ENDBRANCH   1  24
TORSDOF 5
ENDMDL
MODEL 2
REMARK VINA RESULT: -7.034534145      1.181      4.077
REMARK  5 active torsions:
REMARK  status: ('A' for Active; 'I' for Inactive)
REMARK    1  A    between atoms: C2_2  and  N1_3 
REMARK    2  A    between atoms: N1_3  and  C3_5 
REMARK    3  A    between atoms: C4_8  and  N3_9 
REMARK    4  A    between atoms: N3_9  and  C5_11 
REMARK    5  A    between atoms: N5_17  and  C9_19 
ROOT
HETATM    1  C3  UNL     1      -4.035   0.811  12.895  1.00  0.00     0.707 A 
HETATM    2  N2  UNL     1      -4.233   0.738  14.234  1.00  0.00    -0.022 N 
ATOM      3  H2  UNL     1      -4.588  -0.126  14.646  1.00  0.00     0.203 HD
HETATM    4  C4  UNL     1      -3.966   1.792  15.026  1.00  0.00     0.707 A 
HETATM    5  N4  UNL     1      -3.500   2.919  14.454  1.00  0.00    -0.021 N 
ATOM      6  H4  UNL     1      -3.297   3.722  15.049  1.00  0.00     0.203 HD
HETATM    7  C8  UNL     1      -3.292   3.027  13.132  1.00  0.00     0.707 A 
HETATM    8  N5  UNL     1      -2.859   4.044  12.541  1.00  0.00    -0.216 N 
ATOM      9  H5  UNL     1      -2.772   3.920  11.532  1.00  0.00     0.178 HD
HETATM   10  N6  UNL     1      -3.568   1.944  12.342  1.00  0.00    -0.021 N 
ATOM     11  H6  UNL     1      -3.421   1.996  11.334  1.00  0.00     0.203 HD
ENDROOT
BRANCH   8  12
HETATM   12  C9  UNL     1      -2.467   5.331  12.985  1.00  0.00     0.043 C 
HETATM   13  C10 UNL     1      -1.022   5.294  13.419  1.00  0.00     0.039 C 
HETATM   14  C11 UNL     1      -3.370   5.926  14.042  1.00  0.00     0.031 C 
HETATM   15  C12 UNL     1      -2.774   7.194  14.549  1.00  0.00     0.002 C 
HETATM   16  C13 UNL     1      -2.260   8.093  13.460  1.00  0.00     0.000 C 
HETATM   17  C14 UNL     1      -2.656   7.680  12.089  1.00  0.00     0.002 C 
HETATM   18  C15 UNL     1      -2.493   6.244  11.764  1.00  0.00     0.031 C 
ENDBRANCH   8  12
BRANCH   4  19
HETATM   19  N3  UNL     1      -4.166   1.676  16.266  1.00  0.00    -0.221 N 
ATOM     20  H3  UNL     1      -3.326   1.494  16.815  1.00  0.00     0.178 HD
BRANCH  19  21
HETATM   21  C5  UNL     1      -5.360   1.757  17.026  1.00  0.00     0.091 C 
HETATM   22  C6  UNL     1      -5.976   0.453  17.417  1.00  0.00     0.032 C 
HETATM   23  C7  UNL     1      -6.378   2.656  16.351  1.00  0.00     0.032 C 
ENDBRANCH  19  21
ENDBRANCH   4  19
BRANCH   1  24
HETATM   24  N1  UNL     1      -4.299  -0.219  12.155  1.00  0.00    -0.225 N 
ATOM     25  H1  UNL     1      -5.174  -0.727  12.287  1.00  0.00     0.177 HD
BRANCH  24  26
HETATM   26  C2  UNL     1      -3.361  -0.650  11.147  1.00  0.00     0.133 C 
HETATM   27  C1  UNL     1      -2.843  -2.030  11.490  1.00  0.00     0.027 C 
ENDBRANCH  24  26
ENDBRANCH   1  24
TORSDOF 5
ENDMDL
MODEL 3
REMARK VINA RESULT: -7.024329537      0.447      1.262
REMARK  5 active torsions:
REMARK  status: ('A' for Active; 'I' for Inactive)
REMARK    1  A    between atoms: C2_2  and  N1_3 
REMARK    2  A    between atoms: N1_3  and  C3_5 
REMARK    3  A    between atoms: C4_8  and  N3_9 
REMARK    4  A    between atoms: N3_9  and  C5_11 
REMARK    5  A    between atoms: N5_17  and  C9_19 
ROOT
HETATM    1  C3  UNL     1      -4.566   1.251  15.661  1.00  0.00     0.707 A 
HETATM    2  N2  UNL     1      -4.239   0.642  14.494  1.00  0.00    -0.022 N 
ATOM      3  H2  UNL     1      -4.397  -0.360  14.386  1.00  0.00     0.203 HD
HETATM    4  C4  UNL     1      -3.709   1.347  13.479  1.00  0.00     0.707 A 
HETATM    5  N4  UNL     1      -3.511   2.668  13.652  1.00  0.00    -0.021 N 
ATOM      6  H4  UNL     1      -3.108   3.207  12.885  1.00  0.00     0.203 HD
HETATM    7  C8  UNL     1      -3.823   3.303  14.793  1.00  0.00     0.707 A 
HETATM    8  N5  UNL     1      -3.664   4.526  15.016  1.00  0.00    -0.216 N 
ATOM      9  H5  UNL     1      -3.966   4.811  15.947  1.00  0.00     0.178 HD
HETATM   10  N6  UNL     1      -4.362   2.570  15.816  1.00  0.00    -0.021 N 
ATOM     11  H6  UNL     1      -4.608   3.025  16.695  1.00  0.00     0.203 HD
ENDROOT
BRANCH   8  12
HETATM   12  C9  UNL     1      -3.152   5.595  14.239  1.00  0.00     0.043 C 
HETATM   13  C10 UNL     1      -3.213   6.873  15.041  1.00  0.00     0.039 C 
HETATM   14  C11 UNL     1      -3.796   5.739  12.878  1.00  0.00     0.031 C 
HETATM   15  C12 UNL     1      -3.302   6.983  12.224  1.00  0.00     0.002 C 
HETATM   16  C13 UNL     1      -1.815   7.170  12.335  1.00  0.00     0.000 C 
HETATM   17  C14 UNL     1      -1.086   5.981  12.847  1.00  0.00     0.002 C 
HETATM   18  C15 UNL     1      -1.666   5.320  14.040  1.00  0.00     0.031 C 
ENDBRANCH   8  12
BRANCH   4  19
HETATM   19  N3  UNL     1      -3.421   0.737  12.412  1.00  0.00    -0.221 N 
ATOM     20  H3  UNL     1      -2.577   1.072  11.948  1.00  0.00     0.178 HD
BRANCH  19  21
HETATM   21  C5  UNL     1      -4.073  -0.334  11.750  1.00  0.00     0.091 C 
HETATM   22  C6  UNL     1      -3.207  -1.491  11.370  1.00  0.00     0.032 C 
HETATM   23  C7  UNL     1      -4.868   0.163  10.559  1.00  0.00     0.032 C 
ENDBRANCH  19  21
ENDBRANCH   4  19
BRANCH   1  24
HETATM   24  N1  UNL     1      -5.076   0.549  16.623  1.00  0.00    -0.225 N 
ATOM     25  H1  UNL     1      -4.855  -0.443  16.700  1.00  0.00     0.177 HD
BRANCH  24  26
HETATM   26  C2  UNL     1      -5.955   1.167  17.587  1.00  0.00     0.133 C 
HETATM   27  C1  UNL     1      -7.369   1.189  17.047  1.00  0.00     0.027 C 
ENDBRANCH  24  26
ENDBRANCH   1  24
TORSDOF 5
ENDMDL
MODEL 4
REMARK VINA RESULT: -7.013621023      0.881      1.519
REMARK  5 active torsions:
REMARK  status: ('A' for Active; 'I' for Inactive)
REMARK    1  A    between atoms: C2_2  and  N1_3 
REMARK    2  A    between atoms: N1_3  and  C3_5 
REMARK    3  A    between atoms: C4_8  and  N3_9 
REMARK    4  A    between atoms: N3_9  and  C5_11 
REMARK    5  A    between atoms: N5_17  and  C9_19 
ROOT
HETATM    1  C3  UNL     1      -4.406   1.176  15.324  1.00  0.00     0.707 A 
HETATM    2  N2  UNL     1      -4.430   0.687  14.059  1.00  0.00    -0.022 N 
ATOM      3  H2  UNL     1      -4.735  -0.273  13.895  1.00  0.00     0.203 HD
HETATM    4  C4  UNL     1      -4.054   1.454  13.020  1.00  0.00     0.707 A 
HETATM    5  N4  UNL     1      -3.656   2.716  13.269  1.00  0.00    -0.021 N 
ATOM      6  H4  UNL     1      -3.369   3.302  12.485  1.00  0.00     0.203 HD
HETATM    7  C8  UNL     1      -3.620   3.233  14.507  1.00  0.00     0.707 A 
HETATM    8  N5  UNL     1      -3.261   4.398  14.804  1.00  0.00    -0.216 N 
ATOM      9  H5  UNL     1      -3.307   4.594  15.803  1.00  0.00     0.178 HD
HETATM   10  N6  UNL     1      -4.005   2.438  15.553  1.00  0.00    -0.021 N 
ATOM     11  H6  UNL     1      -3.988   2.803  16.505  1.00  0.00     0.203 HD
ENDROOT
BRANCH   8  12
HETATM   12  C9  UNL     1      -2.803   5.497  14.035  1.00  0.00     0.043 C 
HETATM   13  C10 UNL     1      -1.431   5.190  13.487  1.00  0.00     0.039 C 
HETATM   14  C11 UNL     1      -2.850   6.823  14.759  1.00  0.00     0.031 C 
HETATM   15  C12 UNL     1      -2.197   7.870  13.922  1.00  0.00     0.002 C 
HETATM   16  C13 UNL     1      -2.611   7.827  12.478  1.00  0.00     0.000 C 
HETATM   17  C14 UNL     1      -3.763   6.932  12.198  1.00  0.00     0.002 C 
HETATM   18  C15 UNL     1      -3.711   5.585  12.812  1.00  0.00     0.031 C 
ENDBRANCH   8  12
BRANCH   4  19
HETATM   19  N3  UNL     1      -4.093   0.955  11.862  1.00  0.00    -0.221 N 
ATOM     20  H3  UNL     1      -4.968   1.113  11.363  1.00  0.00     0.178 HD
BRANCH  19  21
HETATM   21  C5  UNL     1      -3.127   0.213  11.138  1.00  0.00     0.091 C 
HETATM   22  C6  UNL     1      -3.075  -1.252  11.426  1.00  0.00     0.032 C 
HETATM   23  C7  UNL     1      -1.751   0.839  11.262  1.00  0.00     0.032 C 
ENDBRANCH  19  21
ENDBRANCH   4  19
BRANCH   1  24
HETATM   24  N1  UNL     1      -4.773   0.416  16.307  1.00  0.00    -0.225 N 
ATOM     25  H1  UNL     1      -4.513  -0.570  16.310  1.00  0.00     0.177 HD
BRANCH  24  26
HETATM   26  C2  UNL     1      -5.547   0.960  17.396  1.00  0.00     0.133 C 
HETATM   27  C1  UNL     1      -7.013   0.986  17.017  1.00  0.00     0.027 C 
ENDBRANCH  24  26
ENDBRANCH   1  24
TORSDOF 5
ENDMDL
MODEL 5
REMARK VINA RESULT: -6.940057066      1.098      3.919
REMARK  5 active torsions:
REMARK  status: ('A' for Active; 'I' for Inactive)
REMARK    1  A    between atoms: C2_2  and  N1_3 
REMARK    2  A    between atoms: N1_3  and  C3_5 
REMARK    3  A    between atoms: C4_8  and  N3_9 
REMARK    4  A    between atoms: N3_9  and  C5_11 
REMARK    5  A    between atoms: N5_17  and  C9_19 
ROOT
HETATM    1  C3  UNL     1      -4.069   0.824  12.892  1.00  0.00     0.707 A 
HETATM    2  N2  UNL     1      -4.244   0.736  14.234  1.00  0.00    -0.022 N 
ATOM      3  H2  UNL     1      -4.532  -0.152  14.648  1.00  0.00     0.203 HD
HETATM    4  C4  UNL     1      -4.043   1.805  15.023  1.00  0.00     0.707 A 
HETATM    5  N4  UNL     1      -3.666   2.963  14.447  1.00  0.00    -0.021 N 
ATOM      6  H4  UNL     1      -3.513   3.778  15.041  1.00  0.00     0.203 HD
HETATM    7  C8  UNL     1      -3.483   3.087  13.123  1.00  0.00     0.707 A 
HETATM    8  N5  UNL     1      -3.132   4.133  12.528  1.00  0.00    -0.216 N 
ATOM      9  H5  UNL     1      -3.049   4.016  11.518  1.00  0.00     0.178 HD
HETATM   10  N6  UNL     1      -3.692   1.987  12.335  1.00  0.00    -0.021 N 
ATOM     11  H6  UNL     1      -3.562   2.051  11.326  1.00  0.00     0.203 HD
ENDROOT
BRANCH   8  12
HETATM   12  C9  UNL     1      -2.827   5.444  12.969  1.00  0.00     0.043 C 
HETATM   13  C10 UNL     1      -3.092   6.425  11.853  1.00  0.00     0.039 C 
HETATM   14  C11 UNL     1      -1.440   5.597  13.552  1.00  0.00     0.031 C 
HETATM   15  C12 UNL     1      -1.172   7.037  13.827  1.00  0.00     0.002 C 
HETATM   16  C13 UNL     1      -2.314   7.742  14.504  1.00  0.00     0.000 C 
HETATM   17  C14 UNL     1      -3.385   6.837  14.995  1.00  0.00     0.002 C 
HETATM   18  C15 UNL     1      -3.843   5.790  14.053  1.00  0.00     0.031 C 
ENDBRANCH   8  12
BRANCH   4  19
HETATM   19  N3  UNL     1      -4.218   1.675  16.266  1.00  0.00    -0.221 N 
ATOM     20  H3  UNL     1      -3.367   1.493  16.796  1.00  0.00     0.178 HD
BRANCH  19  21
HETATM   21  C5  UNL     1      -5.398   1.739  17.049  1.00  0.00     0.091 C 
HETATM   22  C6  UNL     1      -6.007   0.427  17.424  1.00  0.00     0.032 C 
HETATM   23  C7  UNL     1      -6.428   2.653  16.414  1.00  0.00     0.032 C 
ENDBRANCH  19  21
ENDBRANCH   4  19
BRANCH   1  24
HETATM   24  N1  UNL     1      -4.269  -0.222  12.154  1.00  0.00    -0.225 N 
ATOM     25  H1  UNL     1      -5.132  -0.756  12.255  1.00  0.00     0.177 HD
BRANCH  24  26
HETATM   26  C2  UNL     1      -3.276  -0.633  11.192  1.00  0.00     0.133 C 
HETATM   27  C1  UNL     1      -2.843  -2.054  11.481  1.00  0.00     0.027 C 
ENDBRANCH  24  26
ENDBRANCH   1  24
TORSDOF 5
ENDMDL
