MODEL 1
REMARK VINA RESULT: -6.946639361      0.000      0.000
REMARK  6 active torsions:
REMARK  status: ('A' for Active; 'I' for Inactive)
REMARK    1  A    between atoms: C2_2  and  N1_3 
REMARK    2  A    between atoms: C2_2  and  C10_17 
REMARK    3  A    between atoms: N1_3  and  N2_5 
REMARK    4  A    between atoms: N2_5  and  C3_7 
REMARK    5  A    between atoms: C3_7  and  N3_9 
REMARK    6  A    between atoms: N3_9  and  C4_11 
ROOT
HETATM    1  N1  UNL     1      -1.553   4.208  14.664  1.00  0.00    -0.301 N 
ATOM      2  H1  UNL     1      -0.989   3.886  15.451  1.00  0.00     0.186 HD
ENDROOT
BRANCH   1   3
HETATM    3  C2  UNL     1      -2.816   4.300  14.793  1.00  0.00     0.051 C 
HETATM    4  C1  UNL     1      -3.411   5.606  14.504  1.00  0.00     0.072 C 
BRANCH   3   5
HETATM    5  C10 UNL     1      -3.587   3.145  15.227  1.00  0.00     0.096 A 
HETATM    6  N4  UNL     1      -3.155   1.947  15.641  1.00  0.00    -0.348 N 
HETATM    7  C11 UNL     1      -4.146   1.139  15.969  1.00  0.00     0.182 A 
ATOM      8  H4  UNL     1      -2.171   1.687  15.696  1.00  0.00     0.167 HD
HETATM    9  N5  UNL     1      -5.269   1.851  15.758  1.00  0.00    -0.341 N 
HETATM   10  C12 UNL     1      -4.986   3.076  15.308  1.00  0.00     0.133 A 
ATOM     11  H5  UNL     1      -6.213   1.500  15.921  1.00  0.00     0.167 HD
HETATM   12 CL1  UNL     1      -6.089   4.359  14.890  1.00  0.00    -0.062 Cl
ENDBRANCH   3   5
ENDBRANCH   1   3
BRANCH   1  13
HETATM   13  N2  UNL     1      -0.934   4.538  13.475  1.00  0.00    -0.276 N 
ATOM     14  H2  UNL     1      -0.324   5.355  13.498  1.00  0.00     0.189 HD
BRANCH  13  15
HETATM   15  C3  UNL     1      -1.043   3.883  12.239  1.00  0.00     0.186 C 
HETATM   16  S1  UNL     1      -0.813   4.812  10.858  1.00  0.00    -0.040 SA
BRANCH  15  17
HETATM   17  N3  UNL     1      -1.321   2.542  12.001  1.00  0.00    -0.361 N 
ATOM     18  H3  UNL     1      -0.766   1.870  12.530  1.00  0.00     0.162 HD
BRANCH  17  19
HETATM   19  C4  UNL     1      -2.284   1.993  11.113  1.00  0.00     0.083 C 
HETATM   20  C5  UNL     1      -3.669   2.471  11.519  1.00  0.00     0.025 C 
HETATM   21  C6  UNL     1      -4.389   1.294  12.195  1.00  0.00     0.002 C 
HETATM   22  C7  UNL     1      -4.646   0.166  11.227  1.00  0.00     0.000 C 
HETATM   23  C8  UNL     1      -3.428  -0.072  10.363  1.00  0.00     0.002 C 
HETATM   24  C9  UNL     1      -2.230   0.470  11.102  1.00  0.00     0.025 C 
ENDBRANCH  17  19
ENDBRANCH  15  17
ENDBRANCH  13  15
ENDBRANCH   1  13
TORSDOF 6
ENDMDL
MODEL 2
REMARK VINA RESULT: -6.829803594      2.330      4.799
REMARK  6 active torsions:
REMARK  status: ('A' for Active; 'I' for Inactive)
REMARK    1  A    between atoms: C2_2  and  N1_3 
REMARK    2  A    between atoms: C2_2  and  C10_17 
REMARK    3  A    between atoms: N1_3  and  N2_5 
REMARK    4  A    between atoms: N2_5  and  C3_7 
REMARK    5  A    between atoms: C3_7  and  N3_9 
REMARK    6  A    between atoms: N3_9  and  C4_11 
ROOT
HETATM    1  N1  UNL     1      -2.038   2.861  12.556  1.00  0.00    -0.301 N 
ATOM      2  H1  UNL     1      -1.296   2.620  13.213  1.00  0.00     0.186 HD
ENDROOT
BRANCH   1   3
HETATM    3  C2  UNL     1      -2.142   2.216  11.463  1.00  0.00     0.051 C 
HETATM    4  C1  UNL     1      -1.594   2.860  10.268  1.00  0.00     0.072 C 
BRANCH   3   5
HETATM    5  C10 UNL     1      -2.798   0.917  11.446  1.00  0.00     0.096 A 
HETATM    6  N4  UNL     1      -2.252  -0.305  11.434  1.00  0.00    -0.348 N 
HETATM    7  C11 UNL     1      -3.160  -1.264  11.430  1.00  0.00     0.182 A 
ATOM      8  H4  UNL     1      -1.247  -0.477  11.427  1.00  0.00     0.167 HD
HETATM    9  N5  UNL     1      -4.347  -0.628  11.442  1.00  0.00    -0.341 N 
HETATM   10  C12 UNL     1      -4.183   0.698  11.453  1.00  0.00     0.133 A 
ATOM     11  H5  UNL     1      -5.252  -1.097  11.443  1.00  0.00     0.167 HD
HETATM   12 CL1  UNL     1      -5.405   1.940  11.470  1.00  0.00    -0.062 Cl
ENDBRANCH   3   5
ENDBRANCH   1   3
BRANCH   1  13
HETATM   13  N2  UNL     1      -2.913   3.882  12.865  1.00  0.00    -0.276 N 
ATOM     14  H2  UNL     1      -3.268   4.424  12.076  1.00  0.00     0.189 HD
BRANCH  13  15
HETATM   15  C3  UNL     1      -3.376   4.264  14.134  1.00  0.00     0.186 C 
HETATM   16  S1  UNL     1      -3.576   5.909  14.412  1.00  0.00    -0.040 SA
BRANCH  15  17
HETATM   17  N3  UNL     1      -3.695   3.445  15.211  1.00  0.00    -0.361 N 
ATOM     18  H3  UNL     1      -3.123   3.563  16.047  1.00  0.00     0.162 HD
BRANCH  17  19
HETATM   19  C4  UNL     1      -4.721   2.465  15.291  1.00  0.00     0.083 C 
HETATM   20  C5  UNL     1      -6.075   3.149  15.194  1.00  0.00     0.025 C 
HETATM   21  C6  UNL     1      -6.695   3.159  16.599  1.00  0.00     0.002 C 
HETATM   22  C7  UNL     1      -7.008   1.763  17.080  1.00  0.00     0.000 C 
HETATM   23  C8  UNL     1      -5.869   0.825  16.748  1.00  0.00     0.002 C 
HETATM   24  C9  UNL     1      -4.624   1.659  16.580  1.00  0.00     0.025 C 
ENDBRANCH  17  19
ENDBRANCH  15  17
ENDBRANCH  13  15
ENDBRANCH   1  13
TORSDOF 6
ENDMDL
MODEL 3
REMARK VINA RESULT: -6.724270981      2.706      5.010
REMARK  6 active torsions:
REMARK  status: ('A' for Active; 'I' for Inactive)
REMARK    1  A    between atoms: C2_2  and  N1_3 
REMARK    2  A    between atoms: C2_2  and  C10_17 
REMARK    3  A    between atoms: N1_3  and  N2_5 
REMARK    4  A    between atoms: N2_5  and  C3_7 
REMARK    5  A    between atoms: C3_7  and  N3_9 
REMARK    6  A    between atoms: N3_9  and  C4_11 
ROOT
HETATM    1  N1  UNL     1      -2.431   3.924  12.107  1.00  0.00    -0.301 N 
ATOM      2  H1  UNL     1      -1.636   4.455  11.753  1.00  0.00     0.186 HD
ENDROOT
BRANCH   1   3
HETATM    3  C2  UNL     1      -3.386   3.624  11.320  1.00  0.00     0.051 C 
HETATM    4  C1  UNL     1      -4.078   4.741  10.674  1.00  0.00     0.072 C 
BRANCH   3   5
HETATM    5  C10 UNL     1      -3.750   2.230  11.119  1.00  0.00     0.096 A 
HETATM    6  N4  UNL     1      -4.965   1.681  11.002  1.00  0.00    -0.348 N 
HETATM    7  C11 UNL     1      -4.915   0.375  10.817  1.00  0.00     0.182 A 
ATOM      8  H4  UNL     1      -5.834   2.213  11.051  1.00  0.00     0.167 HD
HETATM    9  N5  UNL     1      -3.604   0.068  10.813  1.00  0.00    -0.341 N 
HETATM   10  C12 UNL     1      -2.853   1.158  10.992  1.00  0.00     0.133 A 
ATOM     11  H5  UNL     1      -3.233  -0.874  10.690  1.00  0.00     0.167 HD
HETATM   12 CL1  UNL     1      -1.116   1.278  11.063  1.00  0.00    -0.062 Cl
ENDBRANCH   3   5
ENDBRANCH   1   3
BRANCH   1  13
HETATM   13  N2  UNL     1      -2.457   3.542  13.433  1.00  0.00    -0.276 N 
ATOM     14  H2  UNL     1      -1.840   2.772  13.690  1.00  0.00     0.189 HD
BRANCH  13  15
HETATM   15  C3  UNL     1      -3.230   4.087  14.470  1.00  0.00     0.186 C 
HETATM   16  S1  UNL     1      -3.490   5.746  14.440  1.00  0.00    -0.040 SA
BRANCH  15  17
HETATM   17  N3  UNL     1      -3.819   3.422  15.539  1.00  0.00    -0.361 N 
ATOM     18  H3  UNL     1      -3.458   3.654  16.464  1.00  0.00     0.162 HD
BRANCH  17  19
HETATM   19  C4  UNL     1      -4.863   2.459  15.502  1.00  0.00     0.083 C 
HETATM   20  C5  UNL     1      -6.204   3.176  15.486  1.00  0.00     0.025 C 
HETATM   21  C6  UNL     1      -6.827   3.030  16.883  1.00  0.00     0.002 C 
HETATM   22  C7  UNL     1      -7.169   1.594  17.195  1.00  0.00     0.000 C 
HETATM   23  C8  UNL     1      -6.047   0.680  16.754  1.00  0.00     0.002 C 
HETATM   24  C9  UNL     1      -4.786   1.504  16.686  1.00  0.00     0.025 C 
ENDBRANCH  17  19
ENDBRANCH  15  17
ENDBRANCH  13  15
ENDBRANCH   1  13
TORSDOF 6
ENDMDL
MODEL 4
REMARK VINA RESULT: -6.671923321      1.639      2.553
REMARK  6 active torsions:
REMARK  status: ('A' for Active; 'I' for Inactive)
REMARK    1  A    between atoms: C2_2  and  N1_3 
REMARK    2  A    between atoms: C2_2  and  C10_17 
REMARK    3  A    between atoms: N1_3  and  N2_5 
REMARK    4  A    between atoms: N2_5  and  C3_7 
REMARK    5  A    between atoms: C3_7  and  N3_9 
REMARK    6  A    between atoms: N3_9  and  C4_11 
ROOT
HETATM    1  N1  UNL     1      -3.024   2.035  15.618  1.00  0.00    -0.301 N 
ATOM      2  H1  UNL     1      -2.193   1.537  15.937  1.00  0.00     0.186 HD
ENDROOT
BRANCH   1   3
HETATM    3  C2  UNL     1      -4.148   1.436  15.604  1.00  0.00     0.051 C 
HETATM    4  C1  UNL     1      -4.281   0.317  14.670  1.00  0.00     0.072 C 
BRANCH   3   5
HETATM    5  C10 UNL     1      -5.223   1.888  16.474  1.00  0.00     0.096 A 
HETATM    6  N4  UNL     1      -5.483   1.548  17.743  1.00  0.00    -0.348 N 
HETATM    7  C11 UNL     1      -6.545   2.168  18.224  1.00  0.00     0.182 A 
ATOM      8  H4  UNL     1      -4.924   0.884  18.277  1.00  0.00     0.167 HD
HETATM    9  N5  UNL     1      -6.988   2.945  17.218  1.00  0.00    -0.341 N 
HETATM   10  C12 UNL     1      -6.221   2.813  16.133  1.00  0.00     0.133 A 
ATOM     11  H5  UNL     1      -7.803   3.555  17.277  1.00  0.00     0.167 HD
HETATM   12 CL1  UNL     1      -6.384   3.603  14.588  1.00  0.00    -0.062 Cl
ENDBRANCH   3   5
ENDBRANCH   1   3
BRANCH   1  13
HETATM   13  N2  UNL     1      -2.914   3.348  15.208  1.00  0.00    -0.276 N 
ATOM     14  H2  UNL     1      -2.890   4.049  15.949  1.00  0.00     0.189 HD
BRANCH  13  15
HETATM   15  C3  UNL     1      -2.831   3.835  13.894  1.00  0.00     0.186 C 
HETATM   16  S1  UNL     1      -1.578   4.899  13.550  1.00  0.00    -0.040 SA
BRANCH  15  17
HETATM   17  N3  UNL     1      -3.665   3.547  12.820  1.00  0.00    -0.361 N 
ATOM     18  H3  UNL     1      -4.624   3.889  12.894  1.00  0.00     0.162 HD
BRANCH  17  19
HETATM   19  C4  UNL     1      -3.348   2.836  11.632  1.00  0.00     0.083 C 
HETATM   20  C5  UNL     1      -4.631   2.335  10.990  1.00  0.00     0.025 C 
HETATM   21  C6  UNL     1      -4.724   0.823  11.248  1.00  0.00     0.002 C 
HETATM   22  C7  UNL     1      -3.626   0.068  10.540  1.00  0.00     0.000 C 
HETATM   23  C8  UNL     1      -2.308   0.795  10.689  1.00  0.00     0.002 C 
HETATM   24  C9  UNL     1      -2.405   1.672  11.912  1.00  0.00     0.025 C 
ENDBRANCH  17  19
ENDBRANCH  15  17
ENDBRANCH  13  15
ENDBRANCH   1  13
TORSDOF 6
ENDMDL
MODEL 5
REMARK VINA RESULT: -6.662419947      2.099      4.365
REMARK  6 active torsions:
REMARK  status: ('A' for Active; 'I' for Inactive)
REMARK    1  A    between atoms: C2_2  and  N1_3 
REMARK    2  A    between atoms: C2_2  and  C10_17 
REMARK    3  A    between atoms: N1_3  and  N2_5 
REMARK    4  A    between atoms: N2_5  and  C3_7 
REMARK    5  A    between atoms: C3_7  and  N3_9 
REMARK    6  A    between atoms: N3_9  and  C4_11 
ROOT
HETATM    1  N1  UNL     1      -1.261   3.959  12.731  1.00  0.00    -0.301 N 
ATOM      2  H1  UNL     1      -0.625   4.724  12.505  1.00  0.00     0.186 HD
ENDROOT
BRANCH   1   3
HETATM    3  C2  UNL     1      -1.517   3.076  11.849  1.00  0.00     0.051 C 
HETATM    4  C1  UNL     1      -0.477   2.830  10.848  1.00  0.00     0.072 C 
BRANCH   3   5
HETATM    5  C10 UNL     1      -2.798   2.386  11.863  1.00  0.00     0.096 A 
HETATM    6  N4  UNL     1      -3.088   1.148  12.282  1.00  0.00    -0.348 N 
HETATM    7  C11 UNL     1      -4.369   0.858  12.153  1.00  0.00     0.182 A 
ATOM      8  H4  UNL     1      -2.396   0.501  12.660  1.00  0.00     0.167 HD
HETATM    9  N5  UNL     1      -4.931   1.962  11.626  1.00  0.00    -0.341 N 
HETATM   10  C12 UNL     1      -4.021   2.920  11.430  1.00  0.00     0.133 A 
ATOM     11  H5  UNL     1      -5.923   2.055  11.405  1.00  0.00     0.167 HD
HETATM   12 CL1  UNL     1      -4.254   4.518  10.776  1.00  0.00    -0.062 Cl
ENDBRANCH   3   5
ENDBRANCH   1   3
BRANCH   1  13
HETATM   13  N2  UNL     1      -1.833   3.897  13.985  1.00  0.00    -0.276 N 
ATOM     14  H2  UNL     1      -1.428   3.218  14.630  1.00  0.00     0.189 HD
BRANCH  13  15
HETATM   15  C3  UNL     1      -2.904   4.656  14.480  1.00  0.00     0.186 C 
HETATM   16  S1  UNL     1      -2.898   6.301  14.141  1.00  0.00    -0.040 SA
BRANCH  15  17
HETATM   17  N3  UNL     1      -3.990   4.218  15.229  1.00  0.00    -0.361 N 
ATOM     18  H3  UNL     1      -4.333   4.864  15.940  1.00  0.00     0.162 HD
BRANCH  17  19
HETATM   19  C4  UNL     1      -4.682   2.981  15.126  1.00  0.00     0.083 C 
HETATM   20  C5  UNL     1      -6.171   3.224  15.313  1.00  0.00     0.025 C 
HETATM   21  C6  UNL     1      -6.553   2.723  16.714  1.00  0.00     0.002 C 
HETATM   22  C7  UNL     1      -6.394   1.227  16.835  1.00  0.00     0.000 C 
HETATM   23  C8  UNL     1      -5.103   0.782  16.185  1.00  0.00     0.002 C 
HETATM   24  C9  UNL     1      -4.176   1.971  16.149  1.00  0.00     0.025 C 
ENDBRANCH  17  19
ENDBRANCH  15  17
ENDBRANCH  13  15
ENDBRANCH   1  13
TORSDOF 6
ENDMDL
