MODEL 1
REMARK VINA RESULT: -9.515891699      0.000      0.000
REMARK  6 active torsions:
REMARK  status: ('A' for Active; 'I' for Inactive)
REMARK    1  A    between atoms: C3_4  and  N2_5 
REMARK    2  A    between atoms: N2_5  and  C4_7 
REMARK    3  A    between atoms: C4_7  and  C5_8 
REMARK    4  A    between atoms: C5_8  and  C6_9 
REMARK    5  A    between atoms: C6_9  and  N3_10 
REMARK    6  A    between atoms: C13_20  and  N5_21 
ROOT
HETATM    1  N1  UNL     1     -35.280 -60.854 -45.433  1.00  0.00    -0.191 NA
HETATM    2  C1  UNL     1     -36.196 -61.002 -44.740  1.00  0.00     0.109 C 
HETATM    3  C2  UNL     1     -37.354 -61.170 -43.888  1.00  0.00     0.157 A 
HETATM    4  C3  UNL     1     -38.624 -60.843 -44.352  1.00  0.00     0.143 A 
HETATM    5  N4  UNL     1     -39.626 -61.033 -43.493  1.00  0.00    -0.175 N 
ATOM      6  H4  UNL     1     -40.578 -60.809 -43.785  1.00  0.00     0.186 HD
HETATM    7  C13 UNL     1     -39.416 -61.519 -42.233  1.00  0.00     0.680 A 
HETATM    8  N6  UNL     1     -38.197 -61.840 -41.771  1.00  0.00    -0.155 N 
ATOM      9  H6  UNL     1     -38.056 -62.203 -40.828  1.00  0.00     0.187 HD
HETATM   10  C14 UNL     1     -37.172 -61.656 -42.620  1.00  0.00     0.284 A 
HETATM   11  O2  UNL     1     -36.016 -61.953 -42.199  1.00  0.00    -0.266 OA
ENDROOT
BRANCH   4  12
HETATM   12  N2  UNL     1     -38.768 -60.314 -45.644  1.00  0.00    -0.374 N 
ATOM     13  H2  UNL     1     -37.898 -60.053 -46.107  1.00  0.00     0.161 HD
BRANCH  12  14
HETATM   14  C4  UNL     1     -39.949 -60.089 -46.400  1.00  0.00     0.123 C 
BRANCH  14  15
HETATM   15  C5  UNL     1     -39.814 -59.401 -47.706  1.00  0.00     0.039 C 
BRANCH  15  16
HETATM   16  C6  UNL     1     -40.608 -59.965 -48.840  1.00  0.00     0.127 C 
BRANCH  16  17
HETATM   17  N3  UNL     1     -39.732 -60.365 -49.954  1.00  0.00    -0.352 N 
HETATM   18  C7  UNL     1     -38.424 -59.756 -50.030  1.00  0.00     0.125 C 
HETATM   19  C8  UNL     1     -37.359 -60.758 -50.421  1.00  0.00     0.020 C 
HETATM   20  C9  UNL     1     -37.412 -61.141 -51.865  1.00  0.00     0.002 C 
HETATM   21  C10 UNL     1     -38.394 -62.250 -52.158  1.00  0.00     0.009 C 
HETATM   22  C11 UNL     1     -39.785 -61.642 -52.267  1.00  0.00     0.103 C 
HETATM   23  C12 UNL     1     -40.249 -61.323 -50.870  1.00  0.00     0.219 C 
HETATM   24  O1  UNL     1     -41.225 -61.983 -50.435  1.00  0.00    -0.273 OA
ENDBRANCH  16  17
ENDBRANCH  15  16
ENDBRANCH  14  15
ENDBRANCH  12  14
ENDBRANCH   4  12
BRANCH   7  25
HETATM   25  N5  UNL     1     -40.419 -61.690 -41.428  1.00  0.00    -0.234 N 
ATOM     26  H52 UNL     1     -41.329 -61.351 -41.740  1.00  0.00     0.174 HD
ATOM     27  H51 UNL     1     -40.277 -62.146 -40.527  1.00  0.00     0.174 HD
ENDBRANCH   7  25
TORSDOF 6
ENDMDL
MODEL 2
REMARK VINA RESULT: -8.992725930      1.169      2.550
REMARK  6 active torsions:
REMARK  status: ('A' for Active; 'I' for Inactive)
REMARK    1  A    between atoms: C3_4  and  N2_5 
REMARK    2  A    between atoms: N2_5  and  C4_7 
REMARK    3  A    between atoms: C4_7  and  C5_8 
REMARK    4  A    between atoms: C5_8  and  C6_9 
REMARK    5  A    between atoms: C6_9  and  N3_10 
REMARK    6  A    between atoms: C13_20  and  N5_21 
ROOT
HETATM    1  N1  UNL     1     -40.045 -60.189 -42.340  1.00  0.00    -0.191 NA
HETATM    2  C1  UNL     1     -39.022 -60.614 -42.674  1.00  0.00     0.109 C 
HETATM    3  C2  UNL     1     -37.747 -61.141 -43.115  1.00  0.00     0.157 A 
HETATM    4  C3  UNL     1     -37.251 -60.821 -44.375  1.00  0.00     0.143 A 
HETATM    5  N4  UNL     1     -36.070 -61.355 -44.690  1.00  0.00    -0.175 N 
ATOM      6  H4  UNL     1     -35.662 -61.151 -45.602  1.00  0.00     0.186 HD
HETATM    7  C13 UNL     1     -35.391 -62.167 -43.825  1.00  0.00     0.680 A 
HETATM    8  N6  UNL     1     -35.856 -62.484 -42.606  1.00  0.00    -0.155 N 
ATOM      9  H6  UNL     1     -35.336 -63.092 -41.972  1.00  0.00     0.187 HD
HETATM   10  C14 UNL     1     -37.045 -61.957 -42.269  1.00  0.00     0.284 A 
HETATM   11  O2  UNL     1     -37.498 -62.247 -41.123  1.00  0.00    -0.266 OA
ENDROOT
BRANCH   4  12
HETATM   12  N2  UNL     1     -38.015 -60.011 -45.229  1.00  0.00    -0.374 N 
ATOM     13  H2  UNL     1     -37.951 -59.009 -45.052  1.00  0.00     0.161 HD
BRANCH  12  14
HETATM   14  C4  UNL     1     -38.865 -60.384 -46.304  1.00  0.00     0.123 C 
BRANCH  14  15
HETATM   15  C5  UNL     1     -39.148 -59.370 -47.347  1.00  0.00     0.039 C 
BRANCH  15  16
HETATM   16  C6  UNL     1     -40.184 -59.729 -48.362  1.00  0.00     0.127 C 
BRANCH  16  17
HETATM   17  N3  UNL     1     -39.564 -60.142 -49.631  1.00  0.00    -0.352 N 
HETATM   18  C7  UNL     1     -38.201 -59.728 -49.878  1.00  0.00     0.125 C 
HETATM   19  C8  UNL     1     -37.384 -60.833 -50.511  1.00  0.00     0.020 C 
HETATM   20  C9  UNL     1     -37.717 -61.061 -51.952  1.00  0.00     0.002 C 
HETATM   21  C10 UNL     1     -38.898 -61.978 -52.158  1.00  0.00     0.009 C 
HETATM   22  C11 UNL     1     -40.173 -61.164 -51.991  1.00  0.00     0.103 C 
HETATM   23  C12 UNL     1     -40.361 -60.918 -50.518  1.00  0.00     0.219 C 
HETATM   24  O1  UNL     1     -41.354 -61.466 -49.977  1.00  0.00    -0.273 OA
ENDBRANCH  16  17
ENDBRANCH  15  16
ENDBRANCH  14  15
ENDBRANCH  12  14
ENDBRANCH   4  12
BRANCH   7  25
HETATM   25  N5  UNL     1     -34.244 -62.666 -44.170  1.00  0.00    -0.234 N 
ATOM     26  H52 UNL     1     -34.064 -63.638 -43.918  1.00  0.00     0.174 HD
ATOM     27  H51 UNL     1     -33.567 -62.090 -44.671  1.00  0.00     0.174 HD
ENDBRANCH   7  25
TORSDOF 6
ENDMDL
MODEL 3
REMARK VINA RESULT: -8.975539763      2.113      7.793
REMARK  6 active torsions:
REMARK  status: ('A' for Active; 'I' for Inactive)
REMARK    1  A    between atoms: C3_4  and  N2_5 
REMARK    2  A    between atoms: N2_5  and  C4_7 
REMARK    3  A    between atoms: C4_7  and  C5_8 
REMARK    4  A    between atoms: C5_8  and  C6_9 
REMARK    5  A    between atoms: C6_9  and  N3_10 
REMARK    6  A    between atoms: C13_20  and  N5_21 
ROOT
HETATM    1  N1  UNL     1     -43.417 -59.842 -50.827  1.00  0.00    -0.191 NA
HETATM    2  C1  UNL     1     -42.279 -60.056 -50.827  1.00  0.00     0.109 C 
HETATM    3  C2  UNL     1     -40.854 -60.314 -50.804  1.00  0.00     0.157 A 
HETATM    4  C3  UNL     1     -40.176 -60.413 -49.594  1.00  0.00     0.143 A 
HETATM    5  N4  UNL     1     -38.867 -60.652 -49.677  1.00  0.00    -0.175 N 
ATOM      6  H4  UNL     1     -38.323 -60.734 -48.818  1.00  0.00     0.186 HD
HETATM    7  C13 UNL     1     -38.233 -60.792 -50.880  1.00  0.00     0.680 A 
HETATM    8  N6  UNL     1     -38.874 -60.700 -52.056  1.00  0.00    -0.155 N 
ATOM      9  H6  UNL     1     -38.386 -60.807 -52.946  1.00  0.00     0.187 HD
HETATM   10  C14 UNL     1     -40.194 -60.459 -51.996  1.00  0.00     0.284 A 
HETATM   11  O2  UNL     1     -40.813 -60.368 -53.096  1.00  0.00    -0.266 OA
ENDROOT
BRANCH   4  12
HETATM   12  N2  UNL     1     -40.879 -60.223 -48.395  1.00  0.00    -0.374 N 
ATOM     13  H2  UNL     1     -41.768 -60.719 -48.328  1.00  0.00     0.161 HD
BRANCH  12  14
HETATM   14  C4  UNL     1     -40.534 -59.442 -47.260  1.00  0.00     0.123 C 
BRANCH  14  15
HETATM   15  C5  UNL     1     -39.736 -60.088 -46.191  1.00  0.00     0.039 C 
BRANCH  15  16
HETATM   16  C6  UNL     1     -38.254 -59.920 -46.273  1.00  0.00     0.127 C 
BRANCH  16  17
HETATM   17  N3  UNL     1     -37.589 -60.492 -45.091  1.00  0.00    -0.352 N 
HETATM   18  C7  UNL     1     -38.382 -60.671 -43.896  1.00  0.00     0.125 C 
HETATM   19  C8  UNL     1     -38.074 -61.983 -43.208  1.00  0.00     0.020 C 
HETATM   20  C9  UNL     1     -36.759 -61.982 -42.497  1.00  0.00     0.002 C 
HETATM   21  C10 UNL     1     -35.590 -62.314 -43.392  1.00  0.00     0.009 C 
HETATM   22  C11 UNL     1     -35.187 -61.053 -44.142  1.00  0.00     0.103 C 
HETATM   23  C12 UNL     1     -36.211 -60.823 -45.221  1.00  0.00     0.219 C 
HETATM   24  O1  UNL     1     -35.815 -60.934 -46.408  1.00  0.00    -0.273 OA
ENDBRANCH  16  17
ENDBRANCH  15  16
ENDBRANCH  14  15
ENDBRANCH  12  14
ENDBRANCH   4  12
BRANCH   7  25
HETATM   25  N5  UNL     1     -36.957 -61.025 -50.917  1.00  0.00    -0.234 N 
ATOM     26  H52 UNL     1     -36.340 -60.221 -51.028  1.00  0.00     0.174 HD
ATOM     27  H51 UNL     1     -36.611 -61.981 -50.838  1.00  0.00     0.174 HD
ENDBRANCH   7  25
TORSDOF 6
ENDMDL
MODEL 4
REMARK VINA RESULT: -8.897755937      1.861      7.500
REMARK  6 active torsions:
REMARK  status: ('A' for Active; 'I' for Inactive)
REMARK    1  A    between atoms: C3_4  and  N2_5 
REMARK    2  A    between atoms: N2_5  and  C4_7 
REMARK    3  A    between atoms: C4_7  and  C5_8 
REMARK    4  A    between atoms: C5_8  and  C6_9 
REMARK    5  A    between atoms: C6_9  and  N3_10 
REMARK    6  A    between atoms: C13_20  and  N5_21 
ROOT
HETATM    1  N1  UNL     1     -42.820 -60.086 -51.071  1.00  0.00    -0.191 NA
HETATM    2  C1  UNL     1     -41.686 -60.213 -50.875  1.00  0.00     0.109 C 
HETATM    3  C2  UNL     1     -40.269 -60.357 -50.611  1.00  0.00     0.157 A 
HETATM    4  C3  UNL     1     -39.746 -60.011 -49.370  1.00  0.00     0.143 A 
HETATM    5  N4  UNL     1     -38.431 -60.179 -49.224  1.00  0.00    -0.175 N 
ATOM      6  H4  UNL     1     -37.997 -59.939 -48.332  1.00  0.00     0.186 HD
HETATM    7  C13 UNL     1     -37.647 -60.661 -50.234  1.00  0.00     0.680 A 
HETATM    8  N6  UNL     1     -38.138 -61.000 -51.437  1.00  0.00    -0.155 N 
ATOM      9  H6  UNL     1     -37.540 -61.360 -52.182  1.00  0.00     0.187 HD
HETATM   10  C14 UNL     1     -39.461 -60.839 -51.606  1.00  0.00     0.284 A 
HETATM   11  O2  UNL     1     -39.939 -61.153 -52.735  1.00  0.00    -0.266 OA
ENDROOT
BRANCH   4  12
HETATM   12  N2  UNL     1     -40.598 -59.486 -48.386  1.00  0.00    -0.374 N 
ATOM     13  H2  UNL     1     -41.505 -59.163 -48.723  1.00  0.00     0.161 HD
BRANCH  12  14
HETATM   14  C4  UNL     1     -40.383 -59.340 -46.990  1.00  0.00     0.123 C 
BRANCH  14  15
HETATM   15  C5  UNL     1     -40.144 -60.567 -46.194  1.00  0.00     0.039 C 
BRANCH  15  16
HETATM   16  C6  UNL     1     -39.708 -60.367 -44.778  1.00  0.00     0.127 C 
BRANCH  16  17
HETATM   17  N3  UNL     1     -38.359 -60.913 -44.557  1.00  0.00    -0.352 N 
HETATM   18  C7  UNL     1     -37.391 -60.762 -45.620  1.00  0.00     0.125 C 
HETATM   19  C8  UNL     1     -36.022 -60.400 -45.086  1.00  0.00     0.020 C 
HETATM   20  C9  UNL     1     -35.323 -61.548 -44.430  1.00  0.00     0.002 C 
HETATM   21  C10 UNL     1     -35.705 -61.738 -42.982  1.00  0.00     0.009 C 
HETATM   22  C11 UNL     1     -37.017 -62.506 -42.930  1.00  0.00     0.103 C 
HETATM   23  C12 UNL     1     -38.116 -61.549 -43.307  1.00  0.00     0.219 C 
HETATM   24  O1  UNL     1     -38.944 -61.258 -42.408  1.00  0.00    -0.273 OA
ENDBRANCH  16  17
ENDBRANCH  15  16
ENDBRANCH  14  15
ENDBRANCH  12  14
ENDBRANCH   4  12
BRANCH   7  25
HETATM   25  N5  UNL     1     -36.371 -60.810 -50.051  1.00  0.00    -0.234 N 
ATOM     26  H52 UNL     1     -36.060 -61.689 -49.639  1.00  0.00     0.174 HD
ATOM     27  H51 UNL     1     -35.728 -60.064 -50.316  1.00  0.00     0.174 HD
ENDBRANCH   7  25
TORSDOF 6
ENDMDL
MODEL 5
REMARK VINA RESULT: -8.759082391      2.066      7.535
REMARK  6 active torsions:
REMARK  status: ('A' for Active; 'I' for Inactive)
REMARK    1  A    between atoms: C3_4  and  N2_5 
REMARK    2  A    between atoms: N2_5  and  C4_7 
REMARK    3  A    between atoms: C4_7  and  C5_8 
REMARK    4  A    between atoms: C5_8  and  C6_9 
REMARK    5  A    between atoms: C6_9  and  N3_10 
REMARK    6  A    between atoms: C13_20  and  N5_21 
ROOT
HETATM    1  N1  UNL     1     -36.012 -60.801 -50.078  1.00  0.00    -0.191 NA
HETATM    2  C1  UNL     1     -37.106 -60.925 -50.433  1.00  0.00     0.109 C 
HETATM    3  C2  UNL     1     -38.484 -61.070 -50.855  1.00  0.00     0.157 A 
HETATM    4  C3  UNL     1     -39.493 -60.348 -50.225  1.00  0.00     0.143 A 
HETATM    5  N4  UNL     1     -40.729 -60.551 -50.685  1.00  0.00    -0.175 N 
ATOM      6  H4  UNL     1     -41.505 -60.045 -50.258  1.00  0.00     0.186 HD
HETATM    7  C13 UNL     1     -40.985 -61.416 -51.712  1.00  0.00     0.680 A 
HETATM    8  N6  UNL     1     -40.022 -62.119 -52.329  1.00  0.00    -0.155 N 
ATOM      9  H6  UNL     1     -40.230 -62.761 -53.095  1.00  0.00     0.187 HD
HETATM   10  C14 UNL     1     -38.769 -61.930 -51.882  1.00  0.00     0.284 A 
HETATM   11  O2  UNL     1     -37.850 -62.587 -52.453  1.00  0.00    -0.266 OA
ENDROOT
BRANCH   4  12
HETATM   12  N2  UNL     1     -39.168 -59.504 -49.153  1.00  0.00    -0.374 N 
ATOM     13  H2  UNL     1     -38.324 -58.946 -49.279  1.00  0.00     0.161 HD
BRANCH  12  14
HETATM   14  C4  UNL     1     -39.843 -59.313 -47.919  1.00  0.00     0.123 C 
BRANCH  14  15
HETATM   15  C5  UNL     1     -39.371 -60.084 -46.744  1.00  0.00     0.039 C 
BRANCH  15  16
HETATM   16  C6  UNL     1     -37.927 -59.940 -46.390  1.00  0.00     0.127 C 
BRANCH  16  17
HETATM   17  N3  UNL     1     -37.651 -60.489 -45.052  1.00  0.00    -0.352 N 
HETATM   18  C7  UNL     1     -38.744 -60.536 -44.108  1.00  0.00     0.125 C 
HETATM   19  C8  UNL     1     -38.747 -61.825 -43.315  1.00  0.00     0.020 C 
HETATM   20  C9  UNL     1     -37.672 -61.881 -42.277  1.00  0.00     0.002 C 
HETATM   21  C10 UNL     1     -36.342 -62.354 -42.813  1.00  0.00     0.009 C 
HETATM   22  C11 UNL     1     -35.645 -61.174 -43.474  1.00  0.00     0.103 C 
HETATM   23  C12 UNL     1     -36.323 -60.931 -44.796  1.00  0.00     0.219 C 
HETATM   24  O1  UNL     1     -35.639 -61.143 -45.828  1.00  0.00    -0.273 OA
ENDBRANCH  16  17
ENDBRANCH  15  16
ENDBRANCH  14  15
ENDBRANCH  12  14
ENDBRANCH   4  12
BRANCH   7  25
HETATM   25  N5  UNL     1     -42.202 -61.584 -52.130  1.00  0.00    -0.234 N 
ATOM     26  H52 UNL     1     -42.953 -61.382 -51.470  1.00  0.00     0.174 HD
ATOM     27  H51 UNL     1     -42.374 -61.905 -53.082  1.00  0.00     0.174 HD
ENDBRANCH   7  25
TORSDOF 6
ENDMDL
