MODEL 1
REMARK VINA RESULT: -7.458141505      0.000      0.000
REMARK  5 active torsions:
REMARK  status: ('A' for Active; 'I' for Inactive)
REMARK    1  A    between atoms: C2_2  and  N1_3 
REMARK    2  A    between atoms: N1_3  and  C3_4 
REMARK    3  A    between atoms: N1_3  and  C8_15 
REMARK    4  A    between atoms: C3_4  and  C4_5 
REMARK    5  A    between atoms: C5_8  and  N3_9 
ROOT
HETATM    1  N1  UNL     1     -39.508 -59.727 -47.404  1.00  0.00    -0.344 N 
ENDROOT
BRANCH   1   2
HETATM    2  C2  UNL     1     -39.925 -58.389 -47.435  1.00  0.00     0.064 C 
HETATM    3  C1  UNL     1     -41.434 -58.290 -47.376  1.00  0.00     0.055 C 
ENDBRANCH   1   2
BRANCH   1   4
HETATM    4  C3  UNL     1     -38.577 -60.162 -48.355  1.00  0.00     0.126 C 
BRANCH   4   5
HETATM    5  C4  UNL     1     -39.098 -60.628 -49.688  1.00  0.00     0.063 A 
HETATM    6  N2  UNL     1     -40.372 -60.780 -49.973  1.00  0.00    -0.335 N 
HETATM    7  C5  UNL     1     -40.703 -61.232 -51.181  1.00  0.00     0.143 A 
ATOM      8  H2  UNL     1     -41.090 -60.557 -49.284  1.00  0.00     0.168 HD
HETATM    9  S1  UNL     1     -39.205 -61.455 -51.949  1.00  0.00    -0.057 SA
HETATM   10  C6  UNL     1     -38.197 -60.952 -50.674  1.00  0.00     0.010 A 
HETATM   11  C7  UNL     1     -36.690 -60.873 -50.613  1.00  0.00     0.059 C 
BRANCH   7  12
HETATM   12  N3  UNL     1     -41.884 -61.465 -51.702  1.00  0.00    -0.380 N 
ATOM     13  H32 UNL     1     -42.711 -61.788 -51.200  1.00  0.00     0.158 HD
ATOM     14  H31 UNL     1     -42.206 -61.378 -52.665  1.00  0.00     0.158 HD
ENDBRANCH   7  12
ENDBRANCH   4   5
ENDBRANCH   1   4
BRANCH   1  15
HETATM   15  C8  UNL     1     -39.846 -60.585 -46.367  1.00  0.00     0.114 C 
HETATM   16  C9  UNL     1     -39.010 -60.840 -45.216  1.00  0.00     0.070 A 
HETATM   17  C10 UNL     1     -39.604 -61.685 -44.239  1.00  0.00     0.027 A 
HETATM   18  C13 UNL     1     -37.755 -60.390 -45.048  1.00  0.00     0.262 A 
HETATM   19  C11 UNL     1     -40.989 -62.187 -44.419  1.00  0.00     0.069 C 
HETATM   20  N4  UNL     1     -38.875 -62.003 -43.169  1.00  0.00    -0.312 N 
HETATM   21  C12 UNL     1     -37.613 -61.546 -43.005  1.00  0.00     0.327 A 
ATOM     22  H4  UNL     1     -39.280 -62.607 -42.455  1.00  0.00     0.170 HD
HETATM   23  O1  UNL     1     -36.916 -61.839 -42.000  1.00  0.00    -0.247 OA
HETATM   24  N5  UNL     1     -37.050 -60.744 -43.935  1.00  0.00    -0.275 N 
ATOM     25  H5  UNL     1     -36.097 -60.402 -43.806  1.00  0.00     0.173 HD
HETATM   26  O2  UNL     1     -37.187 -59.657 -45.868  1.00  0.00    -0.267 OA
ENDBRANCH   1  15
TORSDOF 5
ENDMDL
MODEL 2
REMARK VINA RESULT: -7.231200514      2.854      6.224
REMARK  5 active torsions:
REMARK  status: ('A' for Active; 'I' for Inactive)
REMARK    1  A    between atoms: C2_2  and  N1_3 
REMARK    2  A    between atoms: N1_3  and  C3_4 
REMARK    3  A    between atoms: N1_3  and  C8_15 
REMARK    4  A    between atoms: C3_4  and  C4_5 
REMARK    5  A    between atoms: C5_8  and  N3_9 
ROOT
HETATM    1  N1  UNL     1     -40.472 -59.777 -47.363  1.00  0.00    -0.344 N 
ENDROOT
BRANCH   1   2
HETATM    2  C2  UNL     1     -40.449 -58.392 -47.147  1.00  0.00     0.064 C 
HETATM    3  C1  UNL     1     -41.847 -57.814 -47.190  1.00  0.00     0.055 C 
ENDBRANCH   1   2
BRANCH   1   4
HETATM    4  C3  UNL     1     -40.444 -60.629 -46.253  1.00  0.00     0.126 C 
BRANCH   4   5
HETATM    5  C4  UNL     1     -39.162 -60.719 -45.468  1.00  0.00     0.063 A 
HETATM    6  N2  UNL     1     -37.983 -60.372 -45.934  1.00  0.00    -0.335 N 
HETATM    7  C5  UNL     1     -36.919 -60.531 -45.149  1.00  0.00     0.143 A 
ATOM      8  H2  UNL     1     -37.886 -59.990 -46.874  1.00  0.00     0.168 HD
HETATM    9  S1  UNL     1     -37.568 -61.181 -43.721  1.00  0.00    -0.057 SA
HETATM   10  C6  UNL     1     -39.203 -61.224 -44.190  1.00  0.00     0.010 A 
HETATM   11  C7  UNL     1     -40.412 -61.695 -43.419  1.00  0.00     0.059 C 
BRANCH   7  12
HETATM   12  N3  UNL     1     -35.654 -60.264 -45.376  1.00  0.00    -0.380 N 
ATOM     13  H32 UNL     1     -34.865 -60.546 -44.793  1.00  0.00     0.158 HD
ATOM     14  H31 UNL     1     -35.217 -59.748 -46.139  1.00  0.00     0.158 HD
ENDBRANCH   7  12
ENDBRANCH   4   5
ENDBRANCH   1   4
BRANCH   1  15
HETATM   15  C8  UNL     1     -40.700 -60.329 -48.617  1.00  0.00     0.114 C 
HETATM   16  C9  UNL     1     -39.684 -60.488 -49.633  1.00  0.00     0.070 A 
HETATM   17  C10 UNL     1     -40.131 -61.161 -50.803  1.00  0.00     0.027 A 
HETATM   18  C13 UNL     1     -38.427 -60.020 -49.559  1.00  0.00     0.262 A 
HETATM   19  C11 UNL     1     -41.518 -61.678 -50.891  1.00  0.00     0.069 C 
HETATM   20  N4  UNL     1     -39.261 -61.305 -51.803  1.00  0.00    -0.312 N 
HETATM   21  C12 UNL     1     -37.997 -60.833 -51.723  1.00  0.00     0.327 A 
ATOM     22  H4  UNL     1     -39.558 -61.785 -52.653  1.00  0.00     0.170 HD
HETATM   23  O1  UNL     1     -37.168 -60.964 -52.660  1.00  0.00    -0.247 OA
HETATM   24  N5  UNL     1     -37.575 -60.193 -50.610  1.00  0.00    -0.275 N 
ATOM     25  H5  UNL     1     -36.619 -59.839 -50.556  1.00  0.00     0.173 HD
HETATM   26  O2  UNL     1     -37.987 -59.422 -48.568  1.00  0.00    -0.267 OA
ENDBRANCH   1  15
TORSDOF 5
ENDMDL
MODEL 3
REMARK VINA RESULT: -7.229490503      1.291      2.014
REMARK  5 active torsions:
REMARK  status: ('A' for Active; 'I' for Inactive)
REMARK    1  A    between atoms: C2_2  and  N1_3 
REMARK    2  A    between atoms: N1_3  and  C3_4 
REMARK    3  A    between atoms: N1_3  and  C8_15 
REMARK    4  A    between atoms: C3_4  and  C4_5 
REMARK    5  A    between atoms: C5_8  and  N3_9 
ROOT
HETATM    1  N1  UNL     1     -38.913 -59.693 -47.382  1.00  0.00    -0.344 N 
ENDROOT
BRANCH   1   2
HETATM    2  C2  UNL     1     -39.446 -58.405 -47.533  1.00  0.00     0.064 C 
HETATM    3  C1  UNL     1     -40.948 -58.416 -47.352  1.00  0.00     0.055 C 
ENDBRANCH   1   2
BRANCH   1   4
HETATM    4  C3  UNL     1     -39.382 -60.715 -48.215  1.00  0.00     0.126 C 
BRANCH   4   5
HETATM    5  C4  UNL     1     -39.383 -60.468 -49.700  1.00  0.00     0.063 A 
HETATM    6  N2  UNL     1     -40.462 -60.223 -50.408  1.00  0.00    -0.335 N 
HETATM    7  C5  UNL     1     -40.333 -60.054 -51.723  1.00  0.00     0.143 A 
ATOM      8  H2  UNL     1     -41.377 -60.163 -49.962  1.00  0.00     0.168 HD
HETATM    9  S1  UNL     1     -38.666 -60.239 -51.989  1.00  0.00    -0.057 SA
HETATM   10  C6  UNL     1     -38.191 -60.530 -50.381  1.00  0.00     0.010 A 
HETATM   11  C7  UNL     1     -36.816 -60.795 -49.818  1.00  0.00     0.059 C 
BRANCH   7  12
HETATM   12  N3  UNL     1     -41.241 -59.801 -52.636  1.00  0.00    -0.380 N 
ATOM     13  H32 UNL     1     -42.247 -59.726 -52.482  1.00  0.00     0.158 HD
ATOM     14  H31 UNL     1     -41.139 -59.637 -53.637  1.00  0.00     0.158 HD
ENDBRANCH   7  12
ENDBRANCH   4   5
ENDBRANCH   1   4
BRANCH   1  15
HETATM   15  C8  UNL     1     -37.820 -59.951 -46.566  1.00  0.00     0.114 C 
HETATM   16  C9  UNL     1     -37.909 -60.530 -45.244  1.00  0.00     0.070 A 
HETATM   17  C10 UNL     1     -36.651 -60.786 -44.634  1.00  0.00     0.027 A 
HETATM   18  C13 UNL     1     -39.049 -60.780 -44.577  1.00  0.00     0.262 A 
HETATM   19  C11 UNL     1     -35.389 -60.511 -45.364  1.00  0.00     0.069 C 
HETATM   20  N4  UNL     1     -36.654 -61.279 -43.394  1.00  0.00    -0.312 N 
HETATM   21  C12 UNL     1     -37.803 -61.529 -42.728  1.00  0.00     0.327 A 
ATOM     22  H4  UNL     1     -35.763 -61.471 -42.936  1.00  0.00     0.170 HD
HETATM   23  O1  UNL     1     -37.818 -61.993 -41.560  1.00  0.00    -0.247 OA
HETATM   24  N5  UNL     1     -38.998 -61.283 -43.310  1.00  0.00    -0.275 N 
ATOM     25  H5  UNL     1     -39.862 -61.475 -42.803  1.00  0.00     0.173 HD
HETATM   26  O2  UNL     1     -40.170 -60.570 -45.058  1.00  0.00    -0.267 OA
ENDBRANCH   1  15
TORSDOF 5
ENDMDL
MODEL 4
REMARK VINA RESULT: -6.945682691      1.586      2.613
REMARK  5 active torsions:
REMARK  status: ('A' for Active; 'I' for Inactive)
REMARK    1  A    between atoms: C2_2  and  N1_3 
REMARK    2  A    between atoms: N1_3  and  C3_4 
REMARK    3  A    between atoms: N1_3  and  C8_15 
REMARK    4  A    between atoms: C3_4  and  C4_5 
REMARK    5  A    between atoms: C5_8  and  N3_9 
ROOT
HETATM    1  N1  UNL     1     -39.535 -59.522 -47.362  1.00  0.00    -0.344 N 
ENDROOT
BRANCH   1   2
HETATM    2  C2  UNL     1     -40.009 -58.204 -47.411  1.00  0.00     0.064 C 
HETATM    3  C1  UNL     1     -41.514 -58.163 -47.258  1.00  0.00     0.055 C 
ENDBRANCH   1   2
BRANCH   1   4
HETATM    4  C3  UNL     1     -40.162 -60.490 -48.156  1.00  0.00     0.126 C 
BRANCH   4   5
HETATM    5  C4  UNL     1     -39.832 -60.515 -49.625  1.00  0.00     0.063 A 
HETATM    6  N2  UNL     1     -38.627 -60.714 -50.109  1.00  0.00    -0.335 N 
HETATM    7  C5  UNL     1     -38.460 -60.679 -51.430  1.00  0.00     0.143 A 
ATOM      8  H2  UNL     1     -37.838 -60.890 -49.488  1.00  0.00     0.168 HD
HETATM    9  S1  UNL     1     -40.019 -60.362 -52.023  1.00  0.00    -0.057 SA
HETATM   10  C6  UNL     1     -40.838 -60.285 -50.533  1.00  0.00     0.010 A 
HETATM   11  C7  UNL     1     -42.299 -60.029 -50.251  1.00  0.00     0.059 C 
BRANCH   7  12
HETATM   12  N3  UNL     1     -37.375 -60.845 -52.150  1.00  0.00    -0.380 N 
ATOM     13  H32 UNL     1     -36.538 -61.356 -51.870  1.00  0.00     0.158 HD
ATOM     14  H31 UNL     1     -37.153 -60.516 -53.089  1.00  0.00     0.158 HD
ENDBRANCH   7  12
ENDBRANCH   4   5
ENDBRANCH   1   4
BRANCH   1  15
HETATM   15  C8  UNL     1     -38.367 -59.867 -46.696  1.00  0.00     0.114 C 
HETATM   16  C9  UNL     1     -38.326 -60.483 -45.389  1.00  0.00     0.070 A 
HETATM   17  C10 UNL     1     -37.019 -60.827 -44.948  1.00  0.00     0.027 A 
HETATM   18  C13 UNL     1     -39.386 -60.693 -44.592  1.00  0.00     0.262 A 
HETATM   19  C11 UNL     1     -35.843 -60.595 -45.823  1.00  0.00     0.069 C 
HETATM   20  N4  UNL     1     -36.896 -61.359 -43.732  1.00  0.00    -0.312 N 
HETATM   21  C12 UNL     1     -37.967 -61.569 -42.934  1.00  0.00     0.327 A 
ATOM     22  H4  UNL     1     -35.968 -61.614 -43.394  1.00  0.00     0.170 HD
HETATM   23  O1  UNL     1     -37.864 -62.070 -41.785  1.00  0.00    -0.247 OA
HETATM   24  N5  UNL     1     -39.209 -61.241 -43.355  1.00  0.00    -0.275 N 
ATOM     25  H5  UNL     1     -40.013 -61.402 -42.749  1.00  0.00     0.173 HD
HETATM   26  O2  UNL     1     -40.545 -60.408 -44.923  1.00  0.00    -0.267 OA
ENDBRANCH   1  15
TORSDOF 5
ENDMDL
MODEL 5
REMARK VINA RESULT: -6.926104079      3.201      6.863
REMARK  5 active torsions:
REMARK  status: ('A' for Active; 'I' for Inactive)
REMARK    1  A    between atoms: C2_2  and  N1_3 
REMARK    2  A    between atoms: N1_3  and  C3_4 
REMARK    3  A    between atoms: N1_3  and  C8_15 
REMARK    4  A    between atoms: C3_4  and  C4_5 
REMARK    5  A    between atoms: C5_8  and  N3_9 
ROOT
HETATM    1  N1  UNL     1     -39.441 -59.535 -47.568  1.00  0.00    -0.344 N 
ENDROOT
BRANCH   1   2
HETATM    2  C2  UNL     1     -39.890 -58.208 -47.504  1.00  0.00     0.064 C 
HETATM    3  C1  UNL     1     -41.307 -58.141 -46.977  1.00  0.00     0.055 C 
ENDBRANCH   1   2
BRANCH   1   4
HETATM    4  C3  UNL     1     -39.730 -60.393 -46.500  1.00  0.00     0.126 C 
BRANCH   4   5
HETATM    5  C4  UNL     1     -38.647 -60.639 -45.483  1.00  0.00     0.063 A 
HETATM    6  N2  UNL     1     -37.376 -60.366 -45.675  1.00  0.00    -0.335 N 
HETATM    7  C5  UNL     1     -36.511 -60.663 -44.707  1.00  0.00     0.143 A 
ATOM      8  H2  UNL     1     -37.061 -59.937 -46.544  1.00  0.00     0.168 HD
HETATM    9  S1  UNL     1     -37.484 -61.342 -43.493  1.00  0.00    -0.057 SA
HETATM   10  C6  UNL     1     -38.986 -61.217 -44.283  1.00  0.00     0.010 A 
HETATM   11  C7  UNL     1     -40.359 -61.630 -43.809  1.00  0.00     0.059 C 
BRANCH   7  12
HETATM   12  N3  UNL     1     -35.210 -60.492 -44.654  1.00  0.00    -0.380 N 
ATOM     13  H32 UNL     1     -34.569 -60.944 -44.002  1.00  0.00     0.158 HD
ATOM     14  H31 UNL     1     -34.601 -59.903 -45.221  1.00  0.00     0.158 HD
ENDBRANCH   7  12
ENDBRANCH   4   5
ENDBRANCH   1   4
BRANCH   1  15
HETATM   15  C8  UNL     1     -38.880 -60.073 -48.718  1.00  0.00     0.114 C 
HETATM   16  C9  UNL     1     -39.597 -60.268 -49.958  1.00  0.00     0.070 A 
HETATM   17  C10 UNL     1     -38.791 -60.751 -51.026  1.00  0.00     0.027 A 
HETATM   18  C13 UNL     1     -40.914 -60.077 -50.137  1.00  0.00     0.262 A 
HETATM   19  C11 UNL     1     -37.336 -60.966 -50.834  1.00  0.00     0.069 C 
HETATM   20  N4  UNL     1     -39.391 -60.999 -52.190  1.00  0.00    -0.312 N 
HETATM   21  C12 UNL     1     -40.718 -60.803 -52.365  1.00  0.00     0.327 A 
ATOM     22  H4  UNL     1     -38.834 -61.345 -52.971  1.00  0.00     0.170 HD
HETATM   23  O1  UNL     1     -41.294 -61.033 -53.459  1.00  0.00    -0.247 OA
HETATM   24  N5  UNL     1     -41.481 -60.345 -51.348  1.00  0.00    -0.275 N 
ATOM     25  H5  UNL     1     -42.481 -60.200 -51.486  1.00  0.00     0.173 HD
HETATM   26  O2  UNL     1     -41.662 -59.664 -49.241  1.00  0.00    -0.267 OA
ENDBRANCH   1  15
TORSDOF 5
ENDMDL
