MODEL 1
REMARK VINA RESULT: -7.425722743      0.000      0.000
REMARK  7 active torsions:
REMARK  status: ('A' for Active; 'I' for Inactive)
REMARK    1  A    between atoms: N1_2  and  C2_4 
REMARK    2  A    between atoms: C3_7  and  N3_8 
REMARK    3  A    between atoms: N5_15  and  C5_16 
REMARK    4  A    between atoms: C5_16  and  C6_17 
REMARK    5  A    between atoms: C6_17  and  C7_18 
REMARK    6  A    between atoms: C7_18  and  S1_19 
REMARK    7  A    between atoms: S1_19  and  C8_20 
ROOT
HETATM    1  C2  UNL     1     -37.802 -60.834 -44.145  1.00  0.00     0.698 A 
HETATM    2  N2  UNL     1     -38.335 -61.171 -42.940  1.00  0.00    -0.022 N 
ATOM      3  H2  UNL     1     -37.736 -61.238 -42.117  1.00  0.00     0.203 HD
HETATM    4  C3  UNL     1     -39.654 -61.417 -42.839  1.00  0.00     0.694 A 
HETATM    5  N4  UNL     1     -40.411 -61.321 -43.946  1.00  0.00    -0.140 N 
ATOM      6  H4  UNL     1     -41.411 -61.508 -43.873  1.00  0.00     0.189 HD
HETATM    7  C4  UNL     1     -39.896 -60.986 -45.158  1.00  0.00     0.355 A 
HETATM    8  O1  UNL     1     -40.621 -60.901 -46.182  1.00  0.00    -0.245 OA
HETATM    9  N5  UNL     1     -38.576 -60.744 -45.233  1.00  0.00    -0.132 N 
ENDROOT
BRANCH   9  10
HETATM   10  C5  UNL     1     -37.956 -60.382 -46.488  1.00  0.00     0.153 C 
BRANCH  10  11
HETATM   11  C6  UNL     1     -38.406 -58.992 -46.837  1.00  0.00     0.031 C 
BRANCH  11  12
HETATM   12  C7  UNL     1     -39.047 -58.890 -48.187  1.00  0.00     0.081 C 
BRANCH  12  13
HETATM   13  S1  UNL     1     -38.034 -59.607 -49.499  1.00  0.00    -0.128 SA
BRANCH  13  14
HETATM   14  C8  UNL     1     -39.056 -60.585 -50.580  1.00  0.00     0.024 A 
HETATM   15  C9  UNL     1     -40.433 -60.584 -50.661  1.00  0.00     0.045 A 
HETATM   16  C10 UNL     1     -40.816 -61.484 -51.625  1.00  0.00     0.006 A 
HETATM   17  C11 UNL     1     -42.220 -61.789 -52.027  1.00  0.00     0.068 C 
HETATM   18  N6  UNL     1     -39.681 -62.031 -52.129  1.00  0.00    -0.362 N 
HETATM   19  C12 UNL     1     -38.602 -61.505 -51.516  1.00  0.00     0.022 A 
ATOM     20  H6  UNL     1     -39.649 -62.738 -52.865  1.00  0.00     0.165 HD
HETATM   21  C13 UNL     1     -37.196 -61.872 -51.814  1.00  0.00     0.069 C 
ENDBRANCH  13  14
ENDBRANCH  12  13
ENDBRANCH  11  12
ENDBRANCH  10  11
ENDBRANCH   9  10
BRANCH   1  22
HETATM   22  N1  UNL     1     -36.546 -60.591 -44.279  1.00  0.00    -0.230 N 
HETATM   23  C1  UNL     1     -35.602 -61.554 -43.781  1.00  0.00     0.165 C 
ATOM     24  H1  UNL     1     -36.226 -59.734 -44.729  1.00  0.00     0.177 HD
ENDBRANCH   1  22
BRANCH   4  25
HETATM   25  N3  UNL     1     -40.181 -61.744 -41.685  1.00  0.00    -0.234 N 
ATOM     26  H32 UNL     1     -39.858 -61.315 -40.818  1.00  0.00     0.174 HD
ATOM     27  H31 UNL     1     -40.929 -62.436 -41.636  1.00  0.00     0.174 HD
ENDBRANCH   4  25
TORSDOF 7
ENDMDL
MODEL 2
REMARK VINA RESULT: -7.341599447      1.296      1.470
REMARK  7 active torsions:
REMARK  status: ('A' for Active; 'I' for Inactive)
REMARK    1  A    between atoms: N1_2  and  C2_4 
REMARK    2  A    between atoms: C3_7  and  N3_8 
REMARK    3  A    between atoms: N5_15  and  C5_16 
REMARK    4  A    between atoms: C5_16  and  C6_17 
REMARK    5  A    between atoms: C6_17  and  C7_18 
REMARK    6  A    between atoms: C7_18  and  S1_19 
REMARK    7  A    between atoms: S1_19  and  C8_20 
ROOT
HETATM    1  C2  UNL     1     -37.632 -60.690 -44.388  1.00  0.00     0.698 A 
HETATM    2  N2  UNL     1     -37.169 -60.848 -43.120  1.00  0.00    -0.022 N 
ATOM      3  H2  UNL     1     -36.216 -60.573 -42.885  1.00  0.00     0.203 HD
HETATM    4  C3  UNL     1     -37.974 -61.371 -42.177  1.00  0.00     0.694 A 
HETATM    5  N4  UNL     1     -39.224 -61.724 -42.524  1.00  0.00    -0.140 N 
ATOM      6  H4  UNL     1     -39.836 -62.121 -41.812  1.00  0.00     0.189 HD
HETATM    7  C4  UNL     1     -39.703 -61.573 -43.787  1.00  0.00     0.355 A 
HETATM    8  O1  UNL     1     -40.876 -61.909 -44.092  1.00  0.00    -0.245 OA
HETATM    9  N5  UNL     1     -38.880 -61.048 -44.710  1.00  0.00    -0.132 N 
ENDROOT
BRANCH   9  10
HETATM   10  C5  UNL     1     -39.319 -60.857 -46.075  1.00  0.00     0.153 C 
BRANCH  10  11
HETATM   11  C6  UNL     1     -40.283 -59.705 -46.089  1.00  0.00     0.031 C 
BRANCH  11  12
HETATM   12  C7  UNL     1     -40.244 -58.906 -47.356  1.00  0.00     0.081 C 
BRANCH  12  13
HETATM   13  S1  UNL     1     -38.820 -59.306 -48.392  1.00  0.00    -0.128 SA
BRANCH  13  14
HETATM   14  C8  UNL     1     -39.347 -60.280 -49.787  1.00  0.00     0.024 A 
HETATM   15  C9  UNL     1     -40.641 -60.555 -50.177  1.00  0.00     0.045 A 
HETATM   16  C10 UNL     1     -40.602 -61.340 -51.304  1.00  0.00     0.006 A 
HETATM   17  C11 UNL     1     -41.786 -61.861 -52.046  1.00  0.00     0.068 C 
HETATM   18  N6  UNL     1     -39.293 -61.543 -51.599  1.00  0.00    -0.362 N 
HETATM   19  C12 UNL     1     -38.512 -60.913 -50.699  1.00  0.00     0.022 A 
ATOM     20  H6  UNL     1     -38.950 -62.092 -52.388  1.00  0.00     0.165 HD
HETATM   21  C13 UNL     1     -37.029 -60.920 -50.713  1.00  0.00     0.069 C 
ENDBRANCH  13  14
ENDBRANCH  12  13
ENDBRANCH  11  12
ENDBRANCH  10  11
ENDBRANCH   9  10
BRANCH   1  22
HETATM   22  N1  UNL     1     -36.890 -60.193 -45.316  1.00  0.00    -0.230 N 
HETATM   23  C1  UNL     1     -35.574 -60.737 -45.510  1.00  0.00     0.165 C 
ATOM     24  H1  UNL     1     -37.230 -59.430 -45.901  1.00  0.00     0.177 HD
ENDBRANCH   1  22
BRANCH   4  25
HETATM   25  N3  UNL     1     -37.542 -61.530 -40.950  1.00  0.00    -0.234 N 
ATOM     26  H32 UNL     1     -37.916 -60.970 -40.183  1.00  0.00     0.174 HD
ATOM     27  H31 UNL     1     -36.823 -62.223 -40.742  1.00  0.00     0.174 HD
ENDBRANCH   4  25
TORSDOF 7
ENDMDL
MODEL 3
REMARK VINA RESULT: -7.303013395      1.878      7.324
REMARK  7 active torsions:
REMARK  status: ('A' for Active; 'I' for Inactive)
REMARK    1  A    between atoms: N1_2  and  C2_4 
REMARK    2  A    between atoms: C3_7  and  N3_8 
REMARK    3  A    between atoms: N5_15  and  C5_16 
REMARK    4  A    between atoms: C5_16  and  C6_17 
REMARK    5  A    between atoms: C6_17  and  C7_18 
REMARK    6  A    between atoms: C7_18  and  S1_19 
REMARK    7  A    between atoms: S1_19  and  C8_20 
ROOT
HETATM    1  C2  UNL     1     -39.142 -60.551 -51.169  1.00  0.00     0.698 A 
HETATM    2  N2  UNL     1     -40.052 -61.168 -51.969  1.00  0.00    -0.022 N 
ATOM      3  H2  UNL     1     -39.751 -61.623 -52.830  1.00  0.00     0.203 HD
HETATM    4  C3  UNL     1     -41.351 -61.174 -51.620  1.00  0.00     0.694 A 
HETATM    5  N4  UNL     1     -41.712 -60.563 -50.478  1.00  0.00    -0.140 N 
ATOM      6  H4  UNL     1     -42.696 -60.565 -50.211  1.00  0.00     0.189 HD
HETATM    7  C4  UNL     1     -40.816 -59.941 -49.666  1.00  0.00     0.355 A 
HETATM    8  O1  UNL     1     -41.173 -59.374 -48.602  1.00  0.00    -0.245 OA
HETATM    9  N5  UNL     1     -39.525 -59.949 -50.036  1.00  0.00    -0.132 N 
ENDROOT
BRANCH   9  10
HETATM   10  C5  UNL     1     -38.514 -59.309 -49.224  1.00  0.00     0.153 C 
BRANCH  10  11
HETATM   11  C6  UNL     1     -38.083 -60.290 -48.171  1.00  0.00     0.031 C 
BRANCH  11  12
HETATM   12  C7  UNL     1     -38.118 -59.732 -46.782  1.00  0.00     0.081 C 
BRANCH  12  13
HETATM   13  S1  UNL     1     -36.840 -60.431 -45.714  1.00  0.00    -0.128 SA
BRANCH  13  14
HETATM   14  C8  UNL     1     -37.571 -60.992 -44.190  1.00  0.00     0.024 A 
HETATM   15  C9  UNL     1     -38.872 -60.809 -43.767  1.00  0.00     0.045 A 
HETATM   16  C10 UNL     1     -39.019 -61.401 -42.536  1.00  0.00     0.006 A 
HETATM   17  C11 UNL     1     -40.271 -61.432 -41.726  1.00  0.00     0.068 C 
HETATM   18  N6  UNL     1     -37.817 -61.940 -42.210  1.00  0.00    -0.362 N 
HETATM   19  C12 UNL     1     -36.924 -61.708 -43.193  1.00  0.00     0.022 A 
ATOM     20  H6  UNL     1     -37.618 -62.447 -41.347  1.00  0.00     0.165 HD
HETATM   21  C13 UNL     1     -35.509 -62.154 -43.173  1.00  0.00     0.069 C 
ENDBRANCH  13  14
ENDBRANCH  12  13
ENDBRANCH  11  12
ENDBRANCH  10  11
ENDBRANCH   9  10
BRANCH   1  22
HETATM   22  N1  UNL     1     -37.892 -60.526 -51.470  1.00  0.00    -0.230 N 
HETATM   23  C1  UNL     1     -37.207 -61.773 -51.674  1.00  0.00     0.165 C 
ATOM     24  H1  UNL     1     -37.396 -59.638 -51.564  1.00  0.00     0.177 HD
ENDBRANCH   1  22
BRANCH   4  25
HETATM   25  N3  UNL     1     -42.240 -61.764 -52.381  1.00  0.00    -0.234 N 
ATOM     26  H32 UNL     1     -42.113 -61.821 -53.392  1.00  0.00     0.174 HD
ATOM     27  H31 UNL     1     -43.078 -62.178 -51.971  1.00  0.00     0.174 HD
ENDBRANCH   4  25
TORSDOF 7
ENDMDL
MODEL 4
REMARK VINA RESULT: -7.171027525      1.531      3.164
REMARK  7 active torsions:
REMARK  status: ('A' for Active; 'I' for Inactive)
REMARK    1  A    between atoms: N1_2  and  C2_4 
REMARK    2  A    between atoms: C3_7  and  N3_8 
REMARK    3  A    between atoms: N5_15  and  C5_16 
REMARK    4  A    between atoms: C5_16  and  C6_17 
REMARK    5  A    between atoms: C6_17  and  C7_18 
REMARK    6  A    between atoms: C7_18  and  S1_19 
REMARK    7  A    between atoms: S1_19  and  C8_20 
ROOT
HETATM    1  C2  UNL     1     -38.722 -61.624 -43.599  1.00  0.00     0.698 A 
HETATM    2  N2  UNL     1     -37.579 -62.156 -43.091  1.00  0.00    -0.022 N 
ATOM      3  H2  UNL     1     -37.623 -62.826 -42.324  1.00  0.00     0.203 HD
HETATM    4  C3  UNL     1     -36.389 -61.793 -43.605  1.00  0.00     0.694 A 
HETATM    5  N4  UNL     1     -36.369 -60.906 -44.614  1.00  0.00    -0.140 N 
ATOM      6  H4  UNL     1     -35.469 -60.628 -45.005  1.00  0.00     0.189 HD
HETATM    7  C4  UNL     1     -37.502 -60.364 -45.134  1.00  0.00     0.355 A 
HETATM    8  O1  UNL     1     -37.463 -59.535 -46.080  1.00  0.00    -0.245 OA
HETATM    9  N5  UNL     1     -38.677 -60.743 -44.606  1.00  0.00    -0.132 N 
ENDROOT
BRANCH   9  10
HETATM   10  C5  UNL     1     -39.925 -60.209 -45.106  1.00  0.00     0.153 C 
BRANCH  10  11
HETATM   11  C6  UNL     1     -39.970 -60.462 -46.586  1.00  0.00     0.031 C 
BRANCH  11  12
HETATM   12  C7  UNL     1     -40.539 -59.320 -47.372  1.00  0.00     0.081 C 
BRANCH  12  13
HETATM   13  S1  UNL     1     -41.237 -59.839 -48.954  1.00  0.00    -0.128 SA
BRANCH  13  14
HETATM   14  C8  UNL     1     -39.953 -60.522 -49.982  1.00  0.00     0.024 A 
HETATM   15  C9  UNL     1     -38.591 -60.340 -49.855  1.00  0.00     0.045 A 
HETATM   16  C10 UNL     1     -37.960 -61.044 -50.852  1.00  0.00     0.006 A 
HETATM   17  C11 UNL     1     -36.487 -61.115 -51.073  1.00  0.00     0.068 C 
HETATM   18  N6  UNL     1     -38.930 -61.651 -51.582  1.00  0.00    -0.362 N 
HETATM   19  C12 UNL     1     -40.144 -61.353 -51.078  1.00  0.00     0.022 A 
ATOM     20  H6  UNL     1     -38.764 -62.246 -52.395  1.00  0.00     0.165 HD
HETATM   21  C13 UNL     1     -41.432 -61.843 -51.627  1.00  0.00     0.069 C 
ENDBRANCH  13  14
ENDBRANCH  12  13
ENDBRANCH  11  12
ENDBRANCH  10  11
ENDBRANCH   9  10
BRANCH   1  22
HETATM   22  N1  UNL     1     -39.877 -61.947 -43.134  1.00  0.00    -0.230 N 
HETATM   23  C1  UNL     1     -40.245 -61.486 -41.824  1.00  0.00     0.165 C 
ATOM     24  H1  UNL     1     -40.519 -62.520 -43.683  1.00  0.00     0.177 HD
ENDBRANCH   1  22
BRANCH   4  25
HETATM   25  N3  UNL     1     -35.278 -62.297 -43.125  1.00  0.00    -0.234 N 
ATOM     26  H32 UNL     1     -34.421 -61.744 -43.089  1.00  0.00     0.174 HD
ATOM     27  H31 UNL     1     -35.254 -63.255 -42.777  1.00  0.00     0.174 HD
ENDBRANCH   4  25
TORSDOF 7
ENDMDL
MODEL 5
REMARK VINA RESULT: -7.132215071      1.470      2.364
REMARK  7 active torsions:
REMARK  status: ('A' for Active; 'I' for Inactive)
REMARK    1  A    between atoms: N1_2  and  C2_4 
REMARK    2  A    between atoms: C3_7  and  N3_8 
REMARK    3  A    between atoms: N5_15  and  C5_16 
REMARK    4  A    between atoms: C5_16  and  C6_17 
REMARK    5  A    between atoms: C6_17  and  C7_18 
REMARK    6  A    between atoms: C7_18  and  S1_19 
REMARK    7  A    between atoms: S1_19  and  C8_20 
ROOT
HETATM    1  C2  UNL     1     -37.653 -60.654 -44.451  1.00  0.00     0.698 A 
HETATM    2  N2  UNL     1     -37.214 -60.846 -43.179  1.00  0.00    -0.022 N 
ATOM      3  H2  UNL     1     -36.261 -60.591 -42.923  1.00  0.00     0.203 HD
HETATM    4  C3  UNL     1     -38.043 -61.373 -42.260  1.00  0.00     0.694 A 
HETATM    5  N4  UNL     1     -39.293 -61.698 -42.634  1.00  0.00    -0.140 N 
ATOM      6  H4  UNL     1     -39.923 -62.099 -41.940  1.00  0.00     0.189 HD
HETATM    7  C4  UNL     1     -39.749 -61.514 -43.901  1.00  0.00     0.355 A 
HETATM    8  O1  UNL     1     -40.922 -61.825 -44.232  1.00  0.00    -0.245 OA
HETATM    9  N5  UNL     1     -38.902 -60.985 -44.801  1.00  0.00    -0.132 N 
ENDROOT
BRANCH   9  10
HETATM   10  C5  UNL     1     -39.315 -60.759 -46.168  1.00  0.00     0.153 C 
BRANCH  10  11
HETATM   11  C6  UNL     1     -40.313 -59.637 -46.166  1.00  0.00     0.031 C 
BRANCH  11  12
HETATM   12  C7  UNL     1     -40.345 -58.861 -47.447  1.00  0.00     0.081 C 
BRANCH  12  13
HETATM   13  S1  UNL     1     -41.135 -59.768 -48.795  1.00  0.00    -0.128 SA
BRANCH  13  14
HETATM   14  C8  UNL     1     -39.890 -60.441 -49.876  1.00  0.00     0.024 A 
HETATM   15  C9  UNL     1     -38.521 -60.344 -49.741  1.00  0.00     0.045 A 
HETATM   16  C10 UNL     1     -37.929 -61.004 -50.791  1.00  0.00     0.006 A 
HETATM   17  C11 UNL     1     -36.463 -61.138 -51.024  1.00  0.00     0.068 C 
HETATM   18  N6  UNL     1     -38.931 -61.500 -51.561  1.00  0.00    -0.362 N 
HETATM   19  C12 UNL     1     -40.127 -61.175 -51.031  1.00  0.00     0.022 A 
ATOM     20  H6  UNL     1     -38.798 -62.040 -52.417  1.00  0.00     0.165 HD
HETATM   21  C13 UNL     1     -41.440 -61.552 -51.609  1.00  0.00     0.069 C 
ENDBRANCH  13  14
ENDBRANCH  12  13
ENDBRANCH  11  12
ENDBRANCH  10  11
ENDBRANCH   9  10
BRANCH   1  22
HETATM   22  N1  UNL     1     -36.889 -60.152 -45.356  1.00  0.00    -0.230 N 
HETATM   23  C1  UNL     1     -35.562 -60.682 -45.508  1.00  0.00     0.165 C 
ATOM     24  H1  UNL     1     -37.218 -59.394 -45.954  1.00  0.00     0.177 HD
ENDBRANCH   1  22
BRANCH   4  25
HETATM   25  N3  UNL     1     -37.635 -61.564 -41.030  1.00  0.00    -0.234 N 
ATOM     26  H32 UNL     1     -37.467 -62.505 -40.671  1.00  0.00     0.174 HD
ATOM     27  H31 UNL     1     -37.476 -60.770 -40.409  1.00  0.00     0.174 HD
ENDBRANCH   4  25
TORSDOF 7
ENDMDL
