MODEL 1
REMARK VINA RESULT: -6.792233621      0.000      0.000
REMARK  7 active torsions:
REMARK  status: ('A' for Active; 'I' for Inactive)
REMARK    1  A    between atoms: C2_2  and  N1_3 
REMARK    2  A    between atoms: N1_3  and  C3_5 
REMARK    3  A    between atoms: C4_6  and  N2_7 
REMARK    4  A    between atoms: N3_10  and  C7_11 
REMARK    5  A    between atoms: C11_17  and  N5_18 
REMARK    6  A    between atoms: C12_23  and  N7_24 
REMARK    7  A    between atoms: N7_24  and  C13_26 
ROOT
HETATM    1  C3  UNL     1     -38.537 -60.502 -45.181  1.00  0.00     0.118 A 
HETATM    2  C4  UNL     1     -39.530 -60.725 -46.091  1.00  0.00     0.150 A 
HETATM    3  N4  UNL     1     -40.581 -61.528 -45.702  1.00  0.00    -0.175 N 
ATOM      4  H4  UNL     1     -41.340 -61.719 -46.356  1.00  0.00     0.186 HD
HETATM    5  C11 UNL     1     -40.612 -62.063 -44.468  1.00  0.00     0.679 A 
HETATM    6  N6  UNL     1     -39.649 -61.855 -43.563  1.00  0.00    -0.175 N 
ATOM      7  H6  UNL     1     -39.708 -62.278 -42.637  1.00  0.00     0.186 HD
HETATM    8  C12 UNL     1     -38.603 -61.080 -43.893  1.00  0.00     0.147 A 
ENDROOT
BRANCH   2   9
HETATM    9  N2  UNL     1     -39.553 -60.136 -47.375  1.00  0.00    -0.359 N 
HETATM   10  C5  UNL     1     -40.756 -59.377 -47.716  1.00  0.00     0.168 C 
HETATM   11  C6  UNL     1     -41.276 -59.769 -49.096  1.00  0.00     0.078 C 
HETATM   12  N3  UNL     1     -40.320 -60.599 -49.702  1.00  0.00    -0.391 N 
HETATM   13  C9  UNL     1     -38.971 -60.173 -49.728  1.00  0.00     0.141 C 
HETATM   14  C10 UNL     1     -38.455 -60.286 -48.275  1.00  0.00     0.144 C 
BRANCH  12  15
HETATM   15  C7  UNL     1     -40.740 -61.463 -50.743  1.00  0.00     0.117 C 
HETATM   16  C8  UNL     1     -39.739 -61.692 -51.829  1.00  0.00     0.026 C 
ENDBRANCH  12  15
ENDBRANCH   2   9
BRANCH   1  17
HETATM   17  N1  UNL     1     -37.403 -59.724 -45.534  1.00  0.00    -0.384 N 
ATOM     18  H1  UNL     1     -37.395 -58.711 -45.416  1.00  0.00     0.159 HD
BRANCH  17  19
HETATM   19  C2  UNL     1     -36.252 -60.432 -46.070  1.00  0.00     0.115 C 
HETATM   20  C1  UNL     1     -35.039 -60.356 -45.182  1.00  0.00     0.026 C 
ENDBRANCH  17  19
ENDBRANCH   1  17
BRANCH   8  21
HETATM   21  N7  UNL     1     -37.622 -60.800 -43.140  1.00  0.00    -0.370 N 
ATOM     22  H7  UNL     1     -37.515 -59.805 -42.943  1.00  0.00     0.161 HD
BRANCH  21  23
HETATM   23  C13 UNL     1     -36.654 -61.624 -42.526  1.00  0.00     0.075 C 
HETATM   24  C14 UNL     1     -36.277 -62.865 -43.316  1.00  0.00     0.031 C 
HETATM   25  C15 UNL     1     -37.274 -62.132 -41.215  1.00  0.00     0.031 C 
ENDBRANCH  21  23
ENDBRANCH   8  21
BRANCH   5  26
HETATM   26  N5  UNL     1     -41.606 -62.830 -44.124  1.00  0.00    -0.234 N 
ATOM     27  H52 UNL     1     -42.488 -62.379 -43.882  1.00  0.00     0.174 HD
ATOM     28  H51 UNL     1     -41.477 -63.841 -44.095  1.00  0.00     0.174 HD
ENDBRANCH   5  26
TORSDOF 7
ENDMDL
MODEL 2
REMARK VINA RESULT: -5.715973365      0.954      1.373
REMARK  7 active torsions:
REMARK  status: ('A' for Active; 'I' for Inactive)
REMARK    1  A    between atoms: C2_2  and  N1_3 
REMARK    2  A    between atoms: N1_3  and  C3_5 
REMARK    3  A    between atoms: C4_6  and  N2_7 
REMARK    4  A    between atoms: N3_10  and  C7_11 
REMARK    5  A    between atoms: C11_17  and  N5_18 
REMARK    6  A    between atoms: C12_23  and  N7_24 
REMARK    7  A    between atoms: N7_24  and  C13_26 
ROOT
HETATM    1  C3  UNL     1     -38.835 -60.694 -45.102  1.00  0.00     0.118 A 
HETATM    2  C4  UNL     1     -39.832 -60.782 -46.030  1.00  0.00     0.150 A 
HETATM    3  N4  UNL     1     -40.895 -61.613 -45.746  1.00  0.00    -0.175 N 
ATOM      4  H4  UNL     1     -41.658 -61.706 -46.417  1.00  0.00     0.186 HD
HETATM    5  C11 UNL     1     -40.934 -62.302 -44.591  1.00  0.00     0.679 A 
HETATM    6  N6  UNL     1     -39.968 -62.228 -43.669  1.00  0.00    -0.175 N 
ATOM      7  H6  UNL     1     -40.033 -62.766 -42.805  1.00  0.00     0.186 HD
HETATM    8  C12 UNL     1     -38.909 -61.433 -43.898  1.00  0.00     0.147 A 
ENDROOT
BRANCH   2   9
HETATM    9  N2  UNL     1     -39.846 -60.032 -47.227  1.00  0.00    -0.359 N 
HETATM   10  C5  UNL     1     -40.750 -60.505 -48.275  1.00  0.00     0.168 C 
HETATM   11  C6  UNL     1     -40.036 -60.571 -49.623  1.00  0.00     0.078 C 
HETATM   12  N3  UNL     1     -38.779 -59.964 -49.480  1.00  0.00    -0.391 N 
HETATM   13  C9  UNL     1     -38.710 -58.680 -48.888  1.00  0.00     0.141 C 
HETATM   14  C10 UNL     1     -39.016 -58.881 -47.386  1.00  0.00     0.144 C 
BRANCH  12  15
HETATM   15  C7  UNL     1     -37.759 -60.300 -50.402  1.00  0.00     0.117 C 
HETATM   16  C8  UNL     1     -38.221 -60.980 -51.650  1.00  0.00     0.026 C 
ENDBRANCH  12  15
ENDBRANCH   2   9
BRANCH   1  17
HETATM   17  N1  UNL     1     -37.689 -59.896 -45.354  1.00  0.00    -0.384 N 
ATOM     18  H1  UNL     1     -37.648 -58.918 -45.064  1.00  0.00     0.159 HD
BRANCH  17  19
HETATM   19  C2  UNL     1     -36.576 -60.528 -46.041  1.00  0.00     0.115 C 
HETATM   20  C1  UNL     1     -35.296 -60.506 -45.250  1.00  0.00     0.026 C 
ENDBRANCH  17  19
ENDBRANCH   1  17
BRANCH   8  21
HETATM   21  N7  UNL     1     -37.924 -61.268 -43.118  1.00  0.00    -0.370 N 
ATOM     22  H7  UNL     1     -37.581 -60.309 -43.071  1.00  0.00     0.161 HD
BRANCH  21  23
HETATM   23  C13 UNL     1     -37.219 -62.179 -42.302  1.00  0.00     0.075 C 
HETATM   24  C14 UNL     1     -36.741 -61.612 -40.976  1.00  0.00     0.031 C 
HETATM   25  C15 UNL     1     -35.950 -62.572 -43.073  1.00  0.00     0.031 C 
ENDBRANCH  21  23
ENDBRANCH   8  21
BRANCH   5  26
HETATM   26  N5  UNL     1     -41.940 -63.091 -44.346  1.00  0.00    -0.234 N 
ATOM     27  H52 UNL     1     -42.878 -62.710 -44.463  1.00  0.00     0.174 HD
ATOM     28  H51 UNL     1     -41.767 -64.048 -44.039  1.00  0.00     0.174 HD
ENDBRANCH   5  26
TORSDOF 7
ENDMDL
MODEL 3
REMARK VINA RESULT: -5.201207042      1.246      3.168
REMARK  7 active torsions:
REMARK  status: ('A' for Active; 'I' for Inactive)
REMARK    1  A    between atoms: C2_2  and  N1_3 
REMARK    2  A    between atoms: N1_3  and  C3_5 
REMARK    3  A    between atoms: C4_6  and  N2_7 
REMARK    4  A    between atoms: N3_10  and  C7_11 
REMARK    5  A    between atoms: C11_17  and  N5_18 
REMARK    6  A    between atoms: C12_23  and  N7_24 
REMARK    7  A    between atoms: N7_24  and  C13_26 
ROOT
HETATM    1  C3  UNL     1     -39.013 -60.692 -45.382  1.00  0.00     0.118 A 
HETATM    2  C4  UNL     1     -38.269 -60.151 -46.390  1.00  0.00     0.150 A 
HETATM    3  N4  UNL     1     -36.904 -60.080 -46.208  1.00  0.00    -0.175 N 
ATOM      4  H4  UNL     1     -36.316 -59.680 -46.939  1.00  0.00     0.186 HD
HETATM    5  C11 UNL     1     -36.342 -60.534 -45.073  1.00  0.00     0.679 A 
HETATM    6  N6  UNL     1     -37.055 -61.068 -44.075  1.00  0.00    -0.175 N 
ATOM      7  H6  UNL     1     -36.592 -61.402 -43.229  1.00  0.00     0.186 HD
HETATM    8  C12 UNL     1     -38.389 -61.159 -44.202  1.00  0.00     0.147 A 
ENDROOT
BRANCH   2   9
HETATM    9  N2  UNL     1     -38.823 -59.714 -47.615  1.00  0.00    -0.359 N 
HETATM   10  C5  UNL     1     -40.023 -58.884 -47.521  1.00  0.00     0.168 C 
HETATM   11  C6  UNL     1     -41.105 -59.378 -48.478  1.00  0.00     0.078 C 
HETATM   12  N3  UNL     1     -40.541 -60.364 -49.302  1.00  0.00    -0.391 N 
HETATM   13  C9  UNL     1     -39.319 -60.080 -49.960  1.00  0.00     0.141 C 
HETATM   14  C10 UNL     1     -38.230 -60.076 -48.863  1.00  0.00     0.144 C 
BRANCH  12  15
HETATM   15  C7  UNL     1     -41.404 -61.296 -49.928  1.00  0.00     0.117 C 
HETATM   16  C8  UNL     1     -40.935 -61.818 -51.247  1.00  0.00     0.026 C 
ENDBRANCH  12  15
ENDBRANCH   2   9
BRANCH   1  17
HETATM   17  N1  UNL     1     -40.428 -60.748 -45.485  1.00  0.00    -0.384 N 
ATOM     18  H1  UNL     1     -41.009 -59.938 -45.269  1.00  0.00     0.159 HD
BRANCH  17  19
HETATM   19  C2  UNL     1     -41.013 -62.008 -45.911  1.00  0.00     0.115 C 
HETATM   20  C1  UNL     1     -41.517 -62.848 -44.768  1.00  0.00     0.026 C 
ENDBRANCH  17  19
ENDBRANCH   1  17
BRANCH   8  21
HETATM   21  N7  UNL     1     -39.185 -61.638 -43.340  1.00  0.00    -0.370 N 
ATOM     22  H7  UNL     1     -39.861 -62.303 -43.716  1.00  0.00     0.161 HD
BRANCH  21  23
HETATM   23  C13 UNL     1     -39.298 -61.414 -41.951  1.00  0.00     0.075 C 
HETATM   24  C14 UNL     1     -39.832 -60.044 -41.566  1.00  0.00     0.031 C 
HETATM   25  C15 UNL     1     -37.877 -61.489 -41.373  1.00  0.00     0.031 C 
ENDBRANCH  21  23
ENDBRANCH   8  21
BRANCH   5  26
HETATM   26  N5  UNL     1     -35.053 -60.447 -44.913  1.00  0.00    -0.234 N 
ATOM     27  H52 UNL     1     -34.698 -59.672 -44.354  1.00  0.00     0.174 HD
ATOM     28  H51 UNL     1     -34.444 -61.137 -45.351  1.00  0.00     0.174 HD
ENDBRANCH   5  26
TORSDOF 7
ENDMDL
MODEL 4
REMARK VINA RESULT: -5.138023097      0.890      1.123
REMARK  7 active torsions:
REMARK  status: ('A' for Active; 'I' for Inactive)
REMARK    1  A    between atoms: C2_2  and  N1_3 
REMARK    2  A    between atoms: N1_3  and  C3_5 
REMARK    3  A    between atoms: C4_6  and  N2_7 
REMARK    4  A    between atoms: N3_10  and  C7_11 
REMARK    5  A    between atoms: C11_17  and  N5_18 
REMARK    6  A    between atoms: C12_23  and  N7_24 
REMARK    7  A    between atoms: N7_24  and  C13_26 
ROOT
HETATM    1  C3  UNL     1     -38.322 -60.455 -45.331  1.00  0.00     0.118 A 
HETATM    2  C4  UNL     1     -39.429 -60.597 -46.117  1.00  0.00     0.150 A 
HETATM    3  N4  UNL     1     -40.473 -61.345 -45.616  1.00  0.00    -0.175 N 
ATOM      4  H4  UNL     1     -41.316 -61.475 -46.176  1.00  0.00     0.186 HD
HETATM    5  C11 UNL     1     -40.390 -61.905 -44.395  1.00  0.00     0.679 A 
HETATM    6  N6  UNL     1     -39.314 -61.775 -43.611  1.00  0.00    -0.175 N 
ATOM      7  H6  UNL     1     -39.288 -62.214 -42.690  1.00  0.00     0.186 HD
HETATM    8  C12 UNL     1     -38.268 -61.057 -44.053  1.00  0.00     0.147 A 
ENDROOT
BRANCH   2   9
HETATM    9  N2  UNL     1     -39.569 -59.979 -47.379  1.00  0.00    -0.359 N 
HETATM   10  C5  UNL     1     -40.640 -60.491 -48.233  1.00  0.00     0.168 C 
HETATM   11  C6  UNL     1     -40.132 -60.754 -49.649  1.00  0.00     0.078 C 
HETATM   12  N3  UNL     1     -38.833 -60.232 -49.749  1.00  0.00    -0.391 N 
HETATM   13  C9  UNL     1     -38.602 -58.901 -49.324  1.00  0.00     0.141 C 
HETATM   14  C10 UNL     1     -38.702 -58.918 -47.781  1.00  0.00     0.144 C 
BRANCH  12  15
HETATM   15  C7  UNL     1     -37.977 -60.741 -50.756  1.00  0.00     0.117 C 
HETATM   16  C8  UNL     1     -38.665 -61.329 -51.945  1.00  0.00     0.026 C 
ENDBRANCH  12  15
ENDBRANCH   2   9
BRANCH   1  17
HETATM   17  N1  UNL     1     -37.192 -59.740 -45.807  1.00  0.00    -0.384 N 
ATOM     18  H1  UNL     1     -37.238 -58.738 -45.996  1.00  0.00     0.159 HD
BRANCH  17  19
HETATM   19  C2  UNL     1     -35.967 -60.493 -46.013  1.00  0.00     0.115 C 
HETATM   20  C1  UNL     1     -35.784 -60.956 -47.434  1.00  0.00     0.026 C 
ENDBRANCH  17  19
ENDBRANCH   1  17
BRANCH   8  21
HETATM   21  N7  UNL     1     -37.189 -60.853 -43.420  1.00  0.00    -0.370 N 
ATOM     22  H7  UNL     1     -36.767 -59.941 -43.591  1.00  0.00     0.161 HD
BRANCH  21  23
HETATM   23  C13 UNL     1     -36.470 -61.668 -42.519  1.00  0.00     0.075 C 
HETATM   24  C14 UNL     1     -35.709 -62.815 -43.162  1.00  0.00     0.031 C 
HETATM   25  C15 UNL     1     -37.505 -62.320 -41.589  1.00  0.00     0.031 C 
ENDBRANCH  21  23
ENDBRANCH   8  21
BRANCH   5  26
HETATM   26  N5  UNL     1     -41.381 -62.618 -43.944  1.00  0.00    -0.234 N 
ATOM     27  H52 UNL     1     -41.212 -63.193 -43.120  1.00  0.00     0.174 HD
ATOM     28  H51 UNL     1     -42.280 -62.591 -44.424  1.00  0.00     0.174 HD
ENDBRANCH   5  26
TORSDOF 7
ENDMDL
MODEL 5
REMARK VINA RESULT: -4.766920872      1.659      6.930
REMARK  7 active torsions:
REMARK  status: ('A' for Active; 'I' for Inactive)
REMARK    1  A    between atoms: C2_2  and  N1_3 
REMARK    2  A    between atoms: N1_3  and  C3_5 
REMARK    3  A    between atoms: C4_6  and  N2_7 
REMARK    4  A    between atoms: N3_10  and  C7_11 
REMARK    5  A    between atoms: C11_17  and  N5_18 
REMARK    6  A    between atoms: C12_23  and  N7_24 
REMARK    7  A    between atoms: N7_24  and  C13_26 
ROOT
HETATM    1  C3  UNL     1     -39.716 -60.053 -48.494  1.00  0.00     0.118 A 
HETATM    2  C4  UNL     1     -38.592 -60.310 -47.763  1.00  0.00     0.150 A 
HETATM    3  N4  UNL     1     -37.460 -60.697 -48.450  1.00  0.00    -0.175 N 
ATOM      4  H4  UNL     1     -36.602 -60.899 -47.937  1.00  0.00     0.186 HD
HETATM    5  C11 UNL     1     -37.479 -60.809 -49.790  1.00  0.00     0.679 A 
HETATM    6  N6  UNL     1     -38.571 -60.561 -50.523  1.00  0.00    -0.175 N 
ATOM      7  H6  UNL     1     -38.546 -60.657 -51.538  1.00  0.00     0.186 HD
HETATM    8  C12 UNL     1     -39.699 -60.182 -49.902  1.00  0.00     0.147 A 
ENDROOT
BRANCH   2   9
HETATM    9  N2  UNL     1     -38.524 -60.150 -46.361  1.00  0.00    -0.359 N 
HETATM   10  C5  UNL     1     -37.305 -59.535 -45.839  1.00  0.00     0.168 C 
HETATM   11  C6  UNL     1     -36.747 -60.337 -44.666  1.00  0.00     0.078 C 
HETATM   12  N3  UNL     1     -37.692 -61.315 -44.319  1.00  0.00    -0.391 N 
HETATM   13  C9  UNL     1     -39.036 -60.918 -44.119  1.00  0.00     0.141 C 
HETATM   14  C10 UNL     1     -39.596 -60.573 -45.518  1.00  0.00     0.144 C 
BRANCH  12  15
HETATM   15  C7  UNL     1     -37.250 -62.460 -43.613  1.00  0.00     0.117 C 
HETATM   16  C8  UNL     1     -36.238 -62.203 -42.544  1.00  0.00     0.026 C 
ENDBRANCH  12  15
ENDBRANCH   2   9
BRANCH   1  17
HETATM   17  N1  UNL     1     -40.928 -59.699 -47.845  1.00  0.00    -0.384 N 
ATOM     18  H1  UNL     1     -41.659 -60.389 -47.673  1.00  0.00     0.159 HD
BRANCH  17  19
HETATM   19  C2  UNL     1     -41.082 -58.314 -47.435  1.00  0.00     0.115 C 
HETATM   20  C1  UNL     1     -42.507 -57.940 -47.124  1.00  0.00     0.026 C 
ENDBRANCH  17  19
ENDBRANCH   1  17
BRANCH   8  21
HETATM   21  N7  UNL     1     -40.803 -59.917 -50.467  1.00  0.00    -0.370 N 
ATOM     22  H7  UNL     1     -41.207 -59.020 -50.200  1.00  0.00     0.161 HD
BRANCH  21  23
HETATM   23  C13 UNL     1     -41.569 -60.646 -51.402  1.00  0.00     0.075 C 
HETATM   24  C14 UNL     1     -41.330 -62.146 -51.394  1.00  0.00     0.031 C 
HETATM   25  C15 UNL     1     -41.144 -60.160 -52.797  1.00  0.00     0.031 C 
ENDBRANCH  21  23
ENDBRANCH   8  21
BRANCH   5  26
HETATM   26  N5  UNL     1     -36.405 -61.188 -50.420  1.00  0.00    -0.234 N 
ATOM     27  H52 UNL     1     -35.648 -61.585 -49.864  1.00  0.00     0.174 HD
ATOM     28  H51 UNL     1     -36.345 -61.070 -51.431  1.00  0.00     0.174 HD
ENDBRANCH   5  26
TORSDOF 7
ENDMDL
