MODEL 1
REMARK VINA RESULT: -8.945997788      0.000      0.000
REMARK  7 active torsions:
REMARK  status: ('A' for Active; 'I' for Inactive)
REMARK    1  A    between atoms: C3_5  and  C4_6 
REMARK    2  A    between atoms: C4_6  and  C5_7 
REMARK    3  A    between atoms: C5_7  and  O1_8 
REMARK    4  A    between atoms: C6_12  and  C7_13 
REMARK    5  A    between atoms: C7_13  and  C8_14 
REMARK    6  A    between atoms: C8_14  and  N3_15 
REMARK    7  A    between atoms: N3_15  and  C9_17 
ROOT
HETATM    1  C9  UNL     1     -37.748 -60.583 -44.805  1.00  0.00     0.117 A 
HETATM    2  N4  UNL     1     -36.912 -60.379 -45.835  1.00  0.00    -0.338 N 
ATOM      3  H4  UNL     1     -37.257 -59.910 -46.672  1.00  0.00     0.168 HD
HETATM    4  C10 UNL     1     -35.616 -60.782 -45.788  1.00  0.00     0.183 A 
HETATM    5  N5  UNL     1     -35.160 -61.403 -44.677  1.00  0.00    -0.338 N 
ATOM      6  H5  UNL     1     -34.185 -61.703 -44.652  1.00  0.00     0.168 HD
HETATM    7  C11 UNL     1     -35.925 -61.642 -43.618  1.00  0.00     0.121 A 
HETATM    8  N6  UNL     1     -35.745 -62.226 -42.404  1.00  0.00    -0.350 N 
ATOM      9  H6  UNL     1     -34.873 -62.632 -42.065  1.00  0.00     0.166 HD
HETATM   10  C12 UNL     1     -36.904 -62.183 -41.721  1.00  0.00     0.113 A 
HETATM   11  C13 UNL     1     -37.874 -61.561 -42.487  1.00  0.00     0.077 A 
HETATM   12  C14 UNL     1     -39.248 -61.307 -42.141  1.00  0.00     0.102 C 
HETATM   13  N7  UNL     1     -40.363 -61.088 -41.856  1.00  0.00    -0.191 NA
HETATM   14  C15 UNL     1     -37.259 -61.222 -43.676  1.00  0.00     0.074 A 
ENDROOT
BRANCH   1  15
HETATM   15  N3  UNL     1     -38.985 -60.224 -44.790  1.00  0.00    -0.375 N 
ATOM     16  H3  UNL     1     -39.356 -59.627 -44.050  1.00  0.00     0.161 HD
BRANCH  15  17
HETATM   17  C8  UNL     1     -39.829 -60.705 -45.867  1.00  0.00     0.127 C 
BRANCH  17  18
HETATM   18  C7  UNL     1     -40.162 -59.593 -46.845  1.00  0.00     0.078 C 
BRANCH  18  19
HETATM   19  C6  UNL     1     -39.627 -59.955 -48.182  1.00  0.00     0.034 A 
HETATM   20  C2  UNL     1     -40.370 -60.114 -49.329  1.00  0.00     0.029 A 
HETATM   21  C1  UNL     1     -41.825 -59.953 -49.425  1.00  0.00     0.070 C 
HETATM   22  N1  UNL     1     -39.542 -60.445 -50.352  1.00  0.00    -0.348 N 
HETATM   23  C3  UNL     1     -38.300 -60.489 -49.847  1.00  0.00     0.083 A 
ATOM     24  H1  UNL     1     -39.812 -60.626 -51.319  1.00  0.00     0.167 HD
HETATM   25  N2  UNL     1     -38.346 -60.192 -48.524  1.00  0.00    -0.347 N 
ATOM     26  H2  UNL     1     -37.545 -60.154 -47.894  1.00  0.00     0.167 HD
BRANCH  23  27
HETATM   27  C4  UNL     1     -37.081 -60.815 -50.627  1.00  0.00     0.102 C 
BRANCH  27  28
HETATM   28  C5  UNL     1     -37.514 -61.196 -52.035  1.00  0.00     0.171 C 
BRANCH  28  29
HETATM   29  O1  UNL     1     -37.705 -62.586 -52.119  1.00  0.00    -0.400 OA
ATOM     30  H1  UNL     1     -37.486 -62.995 -51.290  1.00  0.00     0.209 HD
ENDBRANCH  28  29
ENDBRANCH  27  28
ENDBRANCH  23  27
ENDBRANCH  18  19
ENDBRANCH  17  18
ENDBRANCH  15  17
ENDBRANCH   1  15
TORSDOF 7
ENDMDL
MODEL 2
REMARK VINA RESULT: -8.867628949      2.845      7.354
REMARK  7 active torsions:
REMARK  status: ('A' for Active; 'I' for Inactive)
REMARK    1  A    between atoms: C3_5  and  C4_6 
REMARK    2  A    between atoms: C4_6  and  C5_7 
REMARK    3  A    between atoms: C5_7  and  O1_8 
REMARK    4  A    between atoms: C6_12  and  C7_13 
REMARK    5  A    between atoms: C7_13  and  C8_14 
REMARK    6  A    between atoms: C8_14  and  N3_15 
REMARK    7  A    between atoms: N3_15  and  C9_17 
ROOT
HETATM    1  C9  UNL     1     -38.352 -60.511 -50.126  1.00  0.00     0.117 A 
HETATM    2  N4  UNL     1     -37.355 -61.058 -50.838  1.00  0.00    -0.338 N 
ATOM      3  H4  UNL     1     -36.389 -60.894 -50.552  1.00  0.00     0.168 HD
HETATM    4  C10 UNL     1     -37.600 -61.827 -51.930  1.00  0.00     0.183 A 
HETATM    5  N5  UNL     1     -38.880 -62.044 -52.308  1.00  0.00    -0.338 N 
ATOM      6  H5  UNL     1     -39.054 -62.623 -53.130  1.00  0.00     0.168 HD
HETATM    7  C11 UNL     1     -39.921 -61.536 -51.656  1.00  0.00     0.121 A 
HETATM    8  N6  UNL     1     -41.272 -61.584 -51.800  1.00  0.00    -0.350 N 
ATOM      9  H6  UNL     1     -41.772 -62.087 -52.533  1.00  0.00     0.166 HD
HETATM   10  C12 UNL     1     -41.843 -60.861 -50.819  1.00  0.00     0.113 A 
HETATM   11  C13 UNL     1     -40.861 -60.321 -50.006  1.00  0.00     0.077 A 
HETATM   12  C14 UNL     1     -41.033 -59.487 -48.846  1.00  0.00     0.102 C 
HETATM   13  N7  UNL     1     -41.170 -58.818 -47.893  1.00  0.00    -0.191 NA
HETATM   14  C15 UNL     1     -39.657 -60.746 -50.531  1.00  0.00     0.074 A 
ENDROOT
BRANCH   1  15
HETATM   15  N3  UNL     1     -38.183 -59.773 -49.084  1.00  0.00    -0.375 N 
ATOM     16  H3  UNL     1     -38.281 -58.759 -49.129  1.00  0.00     0.161 HD
BRANCH  15  17
HETATM   17  C8  UNL     1     -37.849 -60.446 -47.843  1.00  0.00     0.127 C 
BRANCH  17  18
HETATM   18  C7  UNL     1     -37.831 -59.474 -46.677  1.00  0.00     0.078 C 
BRANCH  18  19
HETATM   19  C6  UNL     1     -37.939 -60.243 -45.411  1.00  0.00     0.034 A 
HETATM   20  C2  UNL     1     -36.895 -60.835 -44.738  1.00  0.00     0.029 A 
HETATM   21  C1  UNL     1     -35.490 -60.806 -45.160  1.00  0.00     0.070 C 
HETATM   22  N1  UNL     1     -37.374 -61.448 -43.627  1.00  0.00    -0.348 N 
HETATM   23  C3  UNL     1     -38.698 -61.239 -43.608  1.00  0.00     0.083 A 
ATOM     24  H1  UNL     1     -36.830 -61.968 -42.938  1.00  0.00     0.167 HD
HETATM   25  N2  UNL     1     -39.048 -60.505 -44.694  1.00  0.00    -0.347 N 
ATOM     26  H2  UNL     1     -39.994 -60.202 -44.929  1.00  0.00     0.167 HD
BRANCH  23  27
HETATM   27  C4  UNL     1     -39.619 -61.739 -42.558  1.00  0.00     0.102 C 
BRANCH  27  28
HETATM   28  C5  UNL     1     -40.010 -60.561 -41.679  1.00  0.00     0.171 C 
BRANCH  28  29
HETATM   29  O1  UNL     1     -38.886 -59.755 -41.427  1.00  0.00    -0.400 OA
ATOM     30  H1  UNL     1     -38.632 -59.296 -42.219  1.00  0.00     0.209 HD
ENDBRANCH  28  29
ENDBRANCH  27  28
ENDBRANCH  23  27
ENDBRANCH  18  19
ENDBRANCH  17  18
ENDBRANCH  15  17
ENDBRANCH   1  15
TORSDOF 7
ENDMDL
MODEL 3
REMARK VINA RESULT: -8.859689785      0.807      2.584
REMARK  7 active torsions:
REMARK  status: ('A' for Active; 'I' for Inactive)
REMARK    1  A    between atoms: C3_5  and  C4_6 
REMARK    2  A    between atoms: C4_6  and  C5_7 
REMARK    3  A    between atoms: C5_7  and  O1_8 
REMARK    4  A    between atoms: C6_12  and  C7_13 
REMARK    5  A    between atoms: C7_13  and  C8_14 
REMARK    6  A    between atoms: C8_14  and  N3_15 
REMARK    7  A    between atoms: N3_15  and  C9_17 
ROOT
HETATM    1  C9  UNL     1     -38.917 -60.890 -44.139  1.00  0.00     0.117 A 
HETATM    2  N4  UNL     1     -40.007 -60.937 -43.357  1.00  0.00    -0.338 N 
ATOM      3  H4  UNL     1     -40.901 -60.613 -43.728  1.00  0.00     0.168 HD
HETATM    4  C10 UNL     1     -39.949 -61.406 -42.085  1.00  0.00     0.183 A 
HETATM    5  N5  UNL     1     -38.763 -61.835 -41.595  1.00  0.00    -0.338 N 
ATOM      6  H5  UNL     1     -38.728 -62.185 -40.638  1.00  0.00     0.168 HD
HETATM    7  C11 UNL     1     -37.640 -61.819 -42.307  1.00  0.00     0.121 A 
HETATM    8  N6  UNL     1     -36.347 -62.175 -42.085  1.00  0.00    -0.350 N 
ATOM      9  H6  UNL     1     -35.981 -62.565 -41.217  1.00  0.00     0.166 HD
HETATM   10  C12 UNL     1     -35.629 -61.930 -43.196  1.00  0.00     0.113 A 
HETATM   11  C13 UNL     1     -36.452 -61.403 -44.177  1.00  0.00     0.077 A 
HETATM   12  C14 UNL     1     -36.093 -61.001 -45.511  1.00  0.00     0.102 C 
HETATM   13  N7  UNL     1     -35.805 -60.684 -46.603  1.00  0.00    -0.191 NA
HETATM   14  C15 UNL     1     -37.712 -61.334 -43.618  1.00  0.00     0.074 A 
ENDROOT
BRANCH   1  15
HETATM   15  N3  UNL     1     -38.910 -60.455 -45.352  1.00  0.00    -0.375 N 
ATOM     16  H3  UNL     1     -38.053 -60.117 -45.790  1.00  0.00     0.161 HD
BRANCH  15  17
HETATM   17  C8  UNL     1     -40.171 -60.468 -46.069  1.00  0.00     0.127 C 
BRANCH  17  18
HETATM   18  C7  UNL     1     -40.229 -59.356 -47.101  1.00  0.00     0.078 C 
BRANCH  18  19
HETATM   19  C6  UNL     1     -39.625 -59.845 -48.366  1.00  0.00     0.034 A 
HETATM   20  C2  UNL     1     -40.310 -60.143 -49.522  1.00  0.00     0.029 A 
HETATM   21  C1  UNL     1     -41.762 -60.028 -49.700  1.00  0.00     0.070 C 
HETATM   22  N1  UNL     1     -39.429 -60.561 -50.465  1.00  0.00    -0.348 N 
HETATM   23  C3  UNL     1     -38.211 -60.521 -49.904  1.00  0.00     0.083 A 
ATOM     24  H1  UNL     1     -39.650 -60.849 -51.418  1.00  0.00     0.167 HD
HETATM   25  N2  UNL     1     -38.326 -60.086 -48.624  1.00  0.00    -0.347 N 
ATOM     26  H2  UNL     1     -37.556 -59.962 -47.966  1.00  0.00     0.167 HD
BRANCH  23  27
HETATM   27  C4  UNL     1     -36.951 -60.898 -50.589  1.00  0.00     0.102 C 
BRANCH  27  28
HETATM   28  C5  UNL     1     -37.294 -61.287 -52.019  1.00  0.00     0.171 C 
BRANCH  28  29
HETATM   29  O1  UNL     1     -37.660 -62.643 -52.073  1.00  0.00    -0.400 OA
ATOM     30  H1  UNL     1     -38.388 -62.760 -52.672  1.00  0.00     0.209 HD
ENDBRANCH  28  29
ENDBRANCH  27  28
ENDBRANCH  23  27
ENDBRANCH  18  19
ENDBRANCH  17  18
ENDBRANCH  15  17
ENDBRANCH   1  15
TORSDOF 7
ENDMDL
MODEL 4
REMARK VINA RESULT: -8.779285593      1.446      2.082
REMARK  7 active torsions:
REMARK  status: ('A' for Active; 'I' for Inactive)
REMARK    1  A    between atoms: C3_5  and  C4_6 
REMARK    2  A    between atoms: C4_6  and  C5_7 
REMARK    3  A    between atoms: C5_7  and  O1_8 
REMARK    4  A    between atoms: C6_12  and  C7_13 
REMARK    5  A    between atoms: C7_13  and  C8_14 
REMARK    6  A    between atoms: C8_14  and  N3_15 
REMARK    7  A    between atoms: N3_15  and  C9_17 
ROOT
HETATM    1  C9  UNL     1     -37.754 -60.617 -44.838  1.00  0.00     0.117 A 
HETATM    2  N4  UNL     1     -36.912 -60.388 -45.858  1.00  0.00    -0.338 N 
ATOM      3  H4  UNL     1     -37.259 -59.920 -46.695  1.00  0.00     0.168 HD
HETATM    4  C10 UNL     1     -35.609 -60.764 -45.802  1.00  0.00     0.183 A 
HETATM    5  N5  UNL     1     -35.150 -61.384 -44.691  1.00  0.00    -0.338 N 
ATOM      6  H5  UNL     1     -34.169 -61.663 -44.659  1.00  0.00     0.168 HD
HETATM    7  C11 UNL     1     -35.921 -61.647 -43.641  1.00  0.00     0.121 A 
HETATM    8  N6  UNL     1     -35.740 -62.236 -42.430  1.00  0.00    -0.350 N 
ATOM      9  H6  UNL     1     -34.862 -62.627 -42.085  1.00  0.00     0.166 HD
HETATM   10  C12 UNL     1     -36.906 -62.223 -41.757  1.00  0.00     0.113 A 
HETATM   11  C13 UNL     1     -37.882 -61.615 -42.529  1.00  0.00     0.077 A 
HETATM   12  C14 UNL     1     -39.263 -61.392 -42.194  1.00  0.00     0.102 C 
HETATM   13  N7  UNL     1     -40.386 -61.199 -41.918  1.00  0.00    -0.191 NA
HETATM   14  C15 UNL     1     -37.263 -61.254 -43.709  1.00  0.00     0.074 A 
ENDROOT
BRANCH   1  15
HETATM   15  N3  UNL     1     -38.998 -60.284 -44.832  1.00  0.00    -0.375 N 
ATOM     16  H3  UNL     1     -39.420 -59.819 -44.028  1.00  0.00     0.161 HD
BRANCH  15  17
HETATM   17  C8  UNL     1     -39.774 -60.599 -46.016  1.00  0.00     0.127 C 
BRANCH  17  18
HETATM   18  C7  UNL     1     -39.939 -59.381 -46.907  1.00  0.00     0.078 C 
BRANCH  18  19
HETATM   19  C6  UNL     1     -40.145 -59.836 -48.306  1.00  0.00     0.034 A 
HETATM   20  C2  UNL     1     -39.154 -60.219 -49.180  1.00  0.00     0.029 A 
HETATM   21  C1  UNL     1     -37.719 -60.243 -48.877  1.00  0.00     0.070 C 
HETATM   22  N1  UNL     1     -39.718 -60.568 -50.364  1.00  0.00    -0.348 N 
HETATM   23  C3  UNL     1     -41.042 -60.405 -50.227  1.00  0.00     0.083 A 
ATOM     24  H1  UNL     1     -39.228 -60.892 -51.199  1.00  0.00     0.167 HD
HETATM   25  N2  UNL     1     -41.307 -59.958 -48.973  1.00  0.00    -0.347 N 
ATOM     26  H2  UNL     1     -42.233 -59.749 -48.599  1.00  0.00     0.167 HD
BRANCH  23  27
HETATM   27  C4  UNL     1     -42.043 -60.675 -51.288  1.00  0.00     0.102 C 
BRANCH  27  28
HETATM   28  C5  UNL     1     -41.327 -60.621 -52.629  1.00  0.00     0.171 C 
BRANCH  28  29
HETATM   29  O1  UNL     1     -41.121 -59.283 -53.011  1.00  0.00    -0.400 OA
ATOM     30  H1  UNL     1     -41.886 -58.954 -53.468  1.00  0.00     0.209 HD
ENDBRANCH  28  29
ENDBRANCH  27  28
ENDBRANCH  23  27
ENDBRANCH  18  19
ENDBRANCH  17  18
ENDBRANCH  15  17
ENDBRANCH   1  15
TORSDOF 7
ENDMDL
MODEL 5
REMARK VINA RESULT: -8.723040123      2.638      6.925
REMARK  7 active torsions:
REMARK  status: ('A' for Active; 'I' for Inactive)
REMARK    1  A    between atoms: C3_5  and  C4_6 
REMARK    2  A    between atoms: C4_6  and  C5_7 
REMARK    3  A    between atoms: C5_7  and  O1_8 
REMARK    4  A    between atoms: C6_12  and  C7_13 
REMARK    5  A    between atoms: C7_13  and  C8_14 
REMARK    6  A    between atoms: C8_14  and  N3_15 
REMARK    7  A    between atoms: N3_15  and  C9_17 
ROOT
HETATM    1  C9  UNL     1     -38.850 -60.131 -49.723  1.00  0.00     0.117 A 
HETATM    2  N4  UNL     1     -37.553 -60.172 -49.379  1.00  0.00    -0.338 N 
ATOM      3  H4  UNL     1     -37.241 -59.665 -48.551  1.00  0.00     0.168 HD
HETATM    4  C10 UNL     1     -36.647 -60.873 -50.107  1.00  0.00     0.183 A 
HETATM    5  N5  UNL     1     -37.062 -61.545 -51.205  1.00  0.00    -0.338 N 
ATOM      6  H5  UNL     1     -36.374 -62.069 -51.745  1.00  0.00     0.168 HD
HETATM    7  C11 UNL     1     -38.328 -61.552 -51.610  1.00  0.00     0.121 A 
HETATM    8  N6  UNL     1     -39.013 -62.118 -52.639  1.00  0.00    -0.350 N 
ATOM      9  H6  UNL     1     -38.609 -62.710 -53.365  1.00  0.00     0.166 HD
HETATM   10  C12 UNL     1     -40.310 -61.772 -52.545  1.00  0.00     0.113 A 
HETATM   11  C13 UNL     1     -40.497 -60.963 -51.437  1.00  0.00     0.077 A 
HETATM   12  C14 UNL     1     -41.724 -60.373 -50.970  1.00  0.00     0.102 C 
HETATM   13  N7  UNL     1     -42.724 -59.902 -50.580  1.00  0.00    -0.191 NA
HETATM   14  C15 UNL     1     -39.254 -60.826 -50.852  1.00  0.00     0.074 A 
ENDROOT
BRANCH   1  15
HETATM   15  N3  UNL     1     -39.755 -59.484 -49.074  1.00  0.00    -0.375 N 
ATOM     16  H3  UNL     1     -40.663 -59.279 -49.492  1.00  0.00     0.161 HD
BRANCH  15  17
HETATM   17  C8  UNL     1     -39.430 -59.059 -47.726  1.00  0.00     0.127 C 
BRANCH  17  18
HETATM   18  C7  UNL     1     -39.926 -60.061 -46.698  1.00  0.00     0.078 C 
BRANCH  18  19
HETATM   19  C6  UNL     1     -38.813 -60.383 -45.769  1.00  0.00     0.034 A 
HETATM   20  C2  UNL     1     -38.950 -60.796 -44.463  1.00  0.00     0.029 A 
HETATM   21  C1  UNL     1     -40.226 -60.989 -43.765  1.00  0.00     0.070 C 
HETATM   22  N1  UNL     1     -37.719 -60.993 -43.929  1.00  0.00    -0.348 N 
HETATM   23  C3  UNL     1     -36.828 -60.708 -44.890  1.00  0.00     0.083 A 
ATOM     24  H1  UNL     1     -37.511 -61.299 -42.978  1.00  0.00     0.167 HD
HETATM   25  N2  UNL     1     -37.490 -60.334 -46.013  1.00  0.00    -0.347 N 
ATOM     26  H2  UNL     1     -37.058 -60.062 -46.896  1.00  0.00     0.167 HD
BRANCH  23  27
HETATM   27  C4  UNL     1     -35.356 -60.791 -44.730  1.00  0.00     0.102 C 
BRANCH  27  28
HETATM   28  C5  UNL     1     -35.025 -62.158 -44.151  1.00  0.00     0.171 C 
BRANCH  28  29
HETATM   29  O1  UNL     1     -35.333 -62.186 -42.779  1.00  0.00    -0.400 OA
ATOM     30  H1  UNL     1     -35.242 -63.070 -42.444  1.00  0.00     0.209 HD
ENDBRANCH  28  29
ENDBRANCH  27  28
ENDBRANCH  23  27
ENDBRANCH  18  19
ENDBRANCH  17  18
ENDBRANCH  15  17
ENDBRANCH   1  15
TORSDOF 7
ENDMDL
