MODEL 1
REMARK VINA RESULT: -6.147557182      0.000      0.000
REMARK  3 active torsions:
REMARK  status: ('A' for Active; 'I' for Inactive)
REMARK    1  A    between atoms: C4_6  and  N2_7 
REMARK    2  A    between atoms: C5_12  and  N4_13 
REMARK    3  A    between atoms: N4_13  and  C6_15 
ROOT
HETATM    1  C1  UNL     1      44.754   5.623  23.334  1.00  0.00     0.021 C 
HETATM    2  C2  UNL     1      45.607   5.466  22.496  1.00  0.00    -0.040 C 
HETATM    3  C3  UNL     1      46.620   5.259  21.475  1.00  0.00     0.190 A 
HETATM    4  N1  UNL     1      46.695   6.068  20.401  1.00  0.00    -0.168 N 
ATOM      5  H1  UNL     1      46.025   6.832  20.315  1.00  0.00     0.186 HD
HETATM    6  C4  UNL     1      47.626   5.905  19.430  1.00  0.00     0.692 A 
HETATM    7  N3  UNL     1      48.500   4.889  19.564  1.00  0.00    -0.023 N 
ATOM      8  H3  UNL     1      49.210   4.749  18.845  1.00  0.00     0.203 HD
HETATM    9  C5  UNL     1      48.465   4.056  20.618  1.00  0.00     0.694 A 
HETATM   10  N5  UNL     1      47.513   4.265  21.558  1.00  0.00    -0.168 N 
ATOM     11  H5  UNL     1      47.475   3.639  22.363  1.00  0.00     0.186 HD
ENDROOT
BRANCH   6  12
HETATM   12  N2  UNL     1      47.689   6.685  18.407  1.00  0.00    -0.234 N 
ATOM     13  H22 UNL     1      48.422   7.392  18.344  1.00  0.00     0.174 HD
ATOM     14  H21 UNL     1      47.020   6.624  17.640  1.00  0.00     0.174 HD
ENDBRANCH   6  12
BRANCH   9  15
HETATM   15  N4  UNL     1      49.288   3.087  20.758  1.00  0.00    -0.226 N 
ATOM     16  H4  UNL     1      49.242   2.315  20.092  1.00  0.00     0.177 HD
BRANCH  15  17
HETATM   17  C6  UNL     1      50.275   3.026  21.807  1.00  0.00     0.133 C 
HETATM   18  C7  UNL     1      51.555   3.767  21.404  1.00  0.00     0.027 C 
ENDBRANCH  15  17
ENDBRANCH   9  15
TORSDOF 3
ENDMDL
MODEL 2
REMARK VINA RESULT: -6.105497169      0.996      1.050
REMARK  3 active torsions:
REMARK  status: ('A' for Active; 'I' for Inactive)
REMARK    1  A    between atoms: C4_6  and  N2_7 
REMARK    2  A    between atoms: C5_12  and  N4_13 
REMARK    3  A    between atoms: N4_13  and  C6_15 
ROOT
HETATM    1  C1  UNL     1      45.122   5.059  23.436  1.00  0.00     0.021 C 
HETATM    2  C2  UNL     1      45.908   5.230  22.539  1.00  0.00    -0.040 C 
HETATM    3  C3  UNL     1      46.838   5.426  21.439  1.00  0.00     0.190 A 
HETATM    4  N1  UNL     1      46.927   6.613  20.810  1.00  0.00    -0.168 N 
ATOM      5  H1  UNL     1      46.326   7.377  21.119  1.00  0.00     0.186 HD
HETATM    6  C4  UNL     1      47.782   6.831  19.782  1.00  0.00     0.692 A 
HETATM    7  N3  UNL     1      48.566   5.808  19.391  1.00  0.00    -0.023 N 
ATOM      8  H3  UNL     1      49.217   5.951  18.620  1.00  0.00     0.203 HD
HETATM    9  C5  UNL     1      48.514   4.605  19.988  1.00  0.00     0.694 A 
HETATM   10  N5  UNL     1      47.640   4.443  21.010  1.00  0.00    -0.168 N 
ATOM     11  H5  UNL     1      47.590   3.534  21.471  1.00  0.00     0.186 HD
ENDROOT
BRANCH   6  12
HETATM   12  N2  UNL     1      47.858   7.971  19.189  1.00  0.00    -0.234 N 
ATOM     13  H22 UNL     1      47.314   8.765  19.528  1.00  0.00     0.174 HD
ATOM     14  H21 UNL     1      48.453   8.117  18.373  1.00  0.00     0.174 HD
ENDBRANCH   6  12
BRANCH   9  15
HETATM   15  N4  UNL     1      49.251   3.624  19.627  1.00  0.00    -0.226 N 
ATOM     16  H4  UNL     1      48.795   2.783  19.273  1.00  0.00     0.177 HD
BRANCH  15  17
HETATM   17  C6  UNL     1      50.691   3.643  19.694  1.00  0.00     0.133 C 
HETATM   18  C7  UNL     1      51.175   3.647  21.148  1.00  0.00     0.027 C 
ENDBRANCH  15  17
ENDBRANCH   9  15
TORSDOF 3
ENDMDL
MODEL 3
REMARK VINA RESULT: -6.045950336      1.063      4.226
REMARK  3 active torsions:
REMARK  status: ('A' for Active; 'I' for Inactive)
REMARK    1  A    between atoms: C4_6  and  N2_7 
REMARK    2  A    between atoms: C5_12  and  N4_13 
REMARK    3  A    between atoms: N4_13  and  C6_15 
ROOT
HETATM    1  C1  UNL     1      50.106   3.064  22.106  1.00  0.00     0.021 C 
HETATM    2  C2  UNL     1      49.249   3.781  21.653  1.00  0.00    -0.040 C 
HETATM    3  C3  UNL     1      48.230   4.666  21.115  1.00  0.00     0.190 A 
HETATM    4  N1  UNL     1      48.243   5.030  19.818  1.00  0.00    -0.168 N 
ATOM      5  H1  UNL     1      48.985   4.672  19.217  1.00  0.00     0.186 HD
HETATM    6  C4  UNL     1      47.310   5.853  19.282  1.00  0.00     0.692 A 
HETATM    7  N3  UNL     1      46.340   6.313  20.096  1.00  0.00    -0.023 N 
ATOM      8  H3  UNL     1      45.626   6.933  19.713  1.00  0.00     0.203 HD
HETATM    9  C5  UNL     1      46.284   5.979  21.396  1.00  0.00     0.694 A 
HETATM   10  N5  UNL     1      47.244   5.153  21.878  1.00  0.00    -0.168 N 
ATOM     11  H5  UNL     1      47.214   4.892  22.864  1.00  0.00     0.186 HD
ENDROOT
BRANCH   6  12
HETATM   12  N2  UNL     1      47.332   6.193  18.041  1.00  0.00    -0.234 N 
ATOM     13  H22 UNL     1      47.813   7.044  17.750  1.00  0.00     0.174 HD
ATOM     14  H21 UNL     1      46.877   5.635  17.319  1.00  0.00     0.174 HD
ENDBRANCH   6  12
BRANCH   9  15
HETATM   15  N4  UNL     1      45.370   6.408  22.180  1.00  0.00    -0.226 N 
ATOM     16  H4  UNL     1      45.067   7.378  22.082  1.00  0.00     0.177 HD
BRANCH  15  17
HETATM   17  C6  UNL     1      44.746   5.598  23.196  1.00  0.00     0.133 C 
HETATM   18  C7  UNL     1      44.301   6.452  24.387  1.00  0.00     0.027 C 
ENDBRANCH  15  17
ENDBRANCH   9  15
TORSDOF 3
ENDMDL
MODEL 4
REMARK VINA RESULT: -6.043088518      2.411      4.440
REMARK  3 active torsions:
REMARK  status: ('A' for Active; 'I' for Inactive)
REMARK    1  A    between atoms: C4_6  and  N2_7 
REMARK    2  A    between atoms: C5_12  and  N4_13 
REMARK    3  A    between atoms: N4_13  and  C6_15 
ROOT
HETATM    1  C1  UNL     1      50.292   9.048  19.245  1.00  0.00     0.021 C 
HETATM    2  C2  UNL     1      50.269   7.849  19.372  1.00  0.00    -0.040 C 
HETATM    3  C3  UNL     1      50.226   6.402  19.503  1.00  0.00     0.190 A 
HETATM    4  N1  UNL     1      51.220   5.633  19.020  1.00  0.00    -0.168 N 
ATOM      5  H1  UNL     1      52.008   6.086  18.556  1.00  0.00     0.186 HD
HETATM    6  C4  UNL     1      51.213   4.283  19.124  1.00  0.00     0.692 A 
HETATM    7  N3  UNL     1      50.162   3.707  19.740  1.00  0.00    -0.023 N 
ATOM      8  H3  UNL     1      50.137   2.692  19.830  1.00  0.00     0.203 HD
HETATM    9  C5  UNL     1      49.146   4.432  20.239  1.00  0.00     0.694 A 
HETATM   10  N5  UNL     1      49.205   5.779  20.105  1.00  0.00    -0.168 N 
ATOM     11  H5  UNL     1      48.440   6.340  20.479  1.00  0.00     0.186 HD
ENDROOT
BRANCH   6  12
HETATM   12  N2  UNL     1      52.170   3.558  18.658  1.00  0.00    -0.234 N 
ATOM     13  H22 UNL     1      52.796   3.930  17.944  1.00  0.00     0.174 HD
ATOM     14  H21 UNL     1      52.330   2.603  18.980  1.00  0.00     0.174 HD
ENDBRANCH   6  12
BRANCH   9  15
HETATM   15  N4  UNL     1      48.142   3.899  20.825  1.00  0.00    -0.226 N 
ATOM     16  H4  UNL     1      47.707   3.085  20.391  1.00  0.00     0.177 HD
BRANCH  15  17
HETATM   17  C6  UNL     1      47.592   4.389  22.064  1.00  0.00     0.133 C 
HETATM   18  C7  UNL     1      46.136   4.830  21.885  1.00  0.00     0.027 C 
ENDBRANCH  15  17
ENDBRANCH   9  15
TORSDOF 3
ENDMDL
MODEL 5
REMARK VINA RESULT: -6.006531277      1.683      3.699
REMARK  3 active torsions:
REMARK  status: ('A' for Active; 'I' for Inactive)
REMARK    1  A    between atoms: C4_6  and  N2_7 
REMARK    2  A    between atoms: C5_12  and  N4_13 
REMARK    3  A    between atoms: N4_13  and  C6_15 
ROOT
HETATM    1  C1  UNL     1      45.303   5.038  23.505  1.00  0.00     0.021 C 
HETATM    2  C2  UNL     1      46.030   5.147  22.549  1.00  0.00    -0.040 C 
HETATM    3  C3  UNL     1      46.925   5.288  21.413  1.00  0.00     0.190 A 
HETATM    4  N1  UNL     1      47.679   4.254  20.993  1.00  0.00    -0.168 N 
ATOM      5  H1  UNL     1      47.611   3.365  21.489  1.00  0.00     0.186 HD
HETATM    6  C4  UNL     1      48.523   4.349  19.938  1.00  0.00     0.692 A 
HETATM    7  N3  UNL     1      48.596   5.532  19.298  1.00  0.00    -0.023 N 
ATOM      8  H3  UNL     1      49.225   5.626  18.501  1.00  0.00     0.203 HD
HETATM    9  C5  UNL     1      47.864   6.593  19.680  1.00  0.00     0.694 A 
HETATM   10  N5  UNL     1      47.036   6.441  20.742  1.00  0.00    -0.168 N 
ATOM     11  H5  UNL     1      46.476   7.238  21.042  1.00  0.00     0.186 HD
ENDROOT
BRANCH   6  12
HETATM   12  N2  UNL     1      49.239   3.354  19.545  1.00  0.00    -0.234 N 
ATOM     13  H22 UNL     1      48.793   2.481  19.259  1.00  0.00     0.174 HD
ATOM     14  H21 UNL     1      50.257   3.402  19.506  1.00  0.00     0.174 HD
ENDBRANCH   6  12
BRANCH   9  15
HETATM   15  N4  UNL     1      47.923   7.722  19.083  1.00  0.00    -0.226 N 
ATOM     16  H4  UNL     1      47.480   7.808  18.168  1.00  0.00     0.177 HD
BRANCH  15  17
HETATM   17  C6  UNL     1      48.582   8.880  19.633  1.00  0.00     0.133 C 
HETATM   18  C7  UNL     1      47.652  10.098  19.630  1.00  0.00     0.027 C 
ENDBRANCH  15  17
ENDBRANCH   9  15
TORSDOF 3
ENDMDL
