MODEL 1
REMARK VINA RESULT: -6.631004268      0.000      0.000
REMARK  4 active torsions:
REMARK  status: ('A' for Active; 'I' for Inactive)
REMARK    1  A    between atoms: C2_2  and  N1_3 
REMARK    2  A    between atoms: N1_3  and  C3_5 
REMARK    3  A    between atoms: C4_8  and  N3_9 
REMARK    4  A    between atoms: C5_14  and  N5_15 
ROOT
HETATM    1  N5  UNL     1      45.075   5.045  26.819  1.00  0.00    -0.125 N 
ATOM      2  H5  UNL     1      44.820   4.092  27.080  1.00  0.00     0.197 HD
HETATM    3  C6  UNL     1      45.770   5.815  27.728  1.00  0.00     0.196 C 
HETATM    4  N6  UNL     1      46.352   6.444  28.503  1.00  0.00    -0.171 NA
ENDROOT
BRANCH   1   5
HETATM    5  C5  UNL     1      44.733   5.477  25.653  1.00  0.00     0.720 A 
HETATM    6  N4  UNL     1      43.878   6.494  25.470  1.00  0.00    -0.021 N 
HETATM    7  C4  UNL     1      43.506   6.961  24.283  1.00  0.00     0.705 A 
ATOM      8  H4  UNL     1      43.487   6.941  26.299  1.00  0.00     0.203 HD
HETATM    9  N2  UNL     1      44.039   6.353  23.180  1.00  0.00    -0.022 N 
HETATM   10  C3  UNL     1      44.898   5.333  23.302  1.00  0.00     0.707 A 
ATOM     11  H2  UNL     1      43.779   6.682  22.251  1.00  0.00     0.203 HD
HETATM   12  N7  UNL     1      45.238   4.903  24.546  1.00  0.00    -0.021 N 
ATOM     13  H7  UNL     1      45.892   4.125  24.642  1.00  0.00     0.203 HD
BRANCH   7  14
HETATM   14  N3  UNL     1      42.681   7.942  24.134  1.00  0.00    -0.234 N 
ATOM     15  H32 UNL     1      41.893   7.919  23.486  1.00  0.00     0.174 HD
ATOM     16  H31 UNL     1      42.804   8.793  24.684  1.00  0.00     0.174 HD
ENDBRANCH   7  14
BRANCH  10  17
HETATM   17  N1  UNL     1      45.403   4.757  22.273  1.00  0.00    -0.225 N 
ATOM     18  H1  UNL     1      44.994   3.892  21.920  1.00  0.00     0.177 HD
BRANCH  17  19
HETATM   19  C2  UNL     1      46.539   5.330  21.623  1.00  0.00     0.133 C 
HETATM   20  C1  UNL     1      47.783   4.494  21.928  1.00  0.00     0.027 C 
ENDBRANCH  17  19
ENDBRANCH  10  17
ENDBRANCH   1   5
TORSDOF 4
ENDMDL
MODEL 2
REMARK VINA RESULT: -6.329690667      3.287      5.394
REMARK  4 active torsions:
REMARK  status: ('A' for Active; 'I' for Inactive)
REMARK    1  A    between atoms: C2_2  and  N1_3 
REMARK    2  A    between atoms: N1_3  and  C3_5 
REMARK    3  A    between atoms: C4_8  and  N3_9 
REMARK    4  A    between atoms: C5_14  and  N5_15 
ROOT
HETATM    1  N5  UNL     1      45.796   5.665  22.486  1.00  0.00    -0.125 N 
ATOM      2  H5  UNL     1      46.145   5.919  23.410  1.00  0.00     0.197 HD
HETATM    3  C6  UNL     1      44.432   5.602  22.289  1.00  0.00     0.196 C 
HETATM    4  N6  UNL     1      43.288   5.556  22.144  1.00  0.00    -0.171 NA
ENDROOT
BRANCH   1   5
HETATM    5  C5  UNL     1      46.650   5.416  21.551  1.00  0.00     0.720 A 
HETATM    6  N4  UNL     1      46.736   6.141  20.425  1.00  0.00    -0.021 N 
HETATM    7  C4  UNL     1      47.602   5.909  19.445  1.00  0.00     0.705 A 
ATOM      8  H4  UNL     1      46.092   6.924  20.314  1.00  0.00     0.203 HD
HETATM    9  N2  UNL     1      48.459   4.857  19.608  1.00  0.00    -0.022 N 
HETATM   10  C3  UNL     1      48.420   4.099  20.711  1.00  0.00     0.707 A 
ATOM     11  H2  UNL     1      49.140   4.646  18.879  1.00  0.00     0.203 HD
HETATM   12  N7  UNL     1      47.509   4.388  21.677  1.00  0.00    -0.021 N 
ATOM     13  H7  UNL     1      47.475   3.812  22.519  1.00  0.00     0.203 HD
BRANCH   7  14
HETATM   14  N3  UNL     1      47.664   6.622  18.371  1.00  0.00    -0.234 N 
ATOM     15  H32 UNL     1      47.785   7.635  18.377  1.00  0.00     0.174 HD
ATOM     16  H31 UNL     1      47.593   6.169  17.460  1.00  0.00     0.174 HD
ENDBRANCH   7  14
BRANCH  10  17
HETATM   17  N1  UNL     1      49.220   3.109  20.873  1.00  0.00    -0.225 N 
ATOM     18  H1  UNL     1      49.163   2.300  20.254  1.00  0.00     0.177 HD
BRANCH  17  19
HETATM   19  C2  UNL     1      50.191   3.143  21.920  1.00  0.00     0.133 C 
HETATM   20  C1  UNL     1      51.520   3.667  21.375  1.00  0.00     0.027 C 
ENDBRANCH  17  19
ENDBRANCH  10  17
ENDBRANCH   1   5
TORSDOF 4
ENDMDL
MODEL 3
REMARK VINA RESULT: -6.120010117      1.962      2.648
REMARK  4 active torsions:
REMARK  status: ('A' for Active; 'I' for Inactive)
REMARK    1  A    between atoms: C2_2  and  N1_3 
REMARK    2  A    between atoms: N1_3  and  C3_5 
REMARK    3  A    between atoms: C4_8  and  N3_9 
REMARK    4  A    between atoms: C5_14  and  N5_15 
ROOT
HETATM    1  N5  UNL     1      44.666   6.747  24.986  1.00  0.00    -0.125 N 
ATOM      2  H5  UNL     1      45.439   6.530  25.616  1.00  0.00     0.197 HD
HETATM    3  C6  UNL     1      43.704   7.642  25.406  1.00  0.00     0.196 C 
HETATM    4  N6  UNL     1      42.909   8.394  25.775  1.00  0.00    -0.171 NA
ENDROOT
BRANCH   1   5
HETATM    5  C5  UNL     1      44.631   6.172  23.832  1.00  0.00     0.720 A 
HETATM    6  N4  UNL     1      43.607   6.308  22.976  1.00  0.00    -0.021 N 
HETATM    7  C4  UNL     1      43.541   5.729  21.783  1.00  0.00     0.705 A 
ATOM      8  H4  UNL     1      42.825   6.897  23.262  1.00  0.00     0.203 HD
HETATM    9  N2  UNL     1      44.597   4.943  21.413  1.00  0.00    -0.022 N 
HETATM   10  C3  UNL     1      45.647   4.771  22.226  1.00  0.00     0.707 A 
ATOM     11  H2  UNL     1      44.585   4.480  20.504  1.00  0.00     0.203 HD
HETATM   12  N7  UNL     1      45.653   5.391  23.436  1.00  0.00    -0.021 N 
ATOM     13  H7  UNL     1      46.451   5.262  24.058  1.00  0.00     0.203 HD
BRANCH   7  14
HETATM   14  N3  UNL     1      42.543   5.877  20.977  1.00  0.00    -0.234 N 
ATOM     15  H32 UNL     1      42.639   6.233  20.026  1.00  0.00     0.174 HD
ATOM     16  H31 UNL     1      41.603   5.630  21.289  1.00  0.00     0.174 HD
ENDBRANCH   7  14
BRANCH  10  17
HETATM   17  N1  UNL     1      46.641   4.035  21.888  1.00  0.00    -0.225 N 
ATOM     18  H1  UNL     1      46.490   3.061  21.622  1.00  0.00     0.177 HD
BRANCH  17  19
HETATM   19  C2  UNL     1      47.962   4.581  21.885  1.00  0.00     0.133 C 
HETATM   20  C1  UNL     1      48.986   3.454  22.028  1.00  0.00     0.027 C 
ENDBRANCH  17  19
ENDBRANCH  10  17
ENDBRANCH   1   5
TORSDOF 4
ENDMDL
MODEL 4
REMARK VINA RESULT: -6.066021574      3.828      5.882
REMARK  4 active torsions:
REMARK  status: ('A' for Active; 'I' for Inactive)
REMARK    1  A    between atoms: C2_2  and  N1_3 
REMARK    2  A    between atoms: N1_3  and  C3_5 
REMARK    3  A    between atoms: C4_8  and  N3_9 
REMARK    4  A    between atoms: C5_14  and  N5_15 
ROOT
HETATM    1  N5  UNL     1      47.728   7.965  19.680  1.00  0.00    -0.125 N 
ATOM      2  H5  UNL     1      47.846   8.089  18.675  1.00  0.00     0.197 HD
HETATM    3  C6  UNL     1      47.644   9.087  20.478  1.00  0.00     0.196 C 
HETATM    4  N6  UNL     1      47.575  10.038  21.129  1.00  0.00    -0.171 NA
ENDROOT
BRANCH   1   5
HETATM    5  C5  UNL     1      47.665   6.765  20.151  1.00  0.00     0.720 A 
HETATM    6  N4  UNL     1      46.848   6.415  21.156  1.00  0.00    -0.021 N 
HETATM    7  C4  UNL     1      46.761   5.190  21.663  1.00  0.00     0.705 A 
ATOM      8  H4  UNL     1      46.253   7.139  21.558  1.00  0.00     0.203 HD
HETATM    9  N2  UNL     1      47.564   4.230  21.112  1.00  0.00    -0.022 N 
HETATM   10  C3  UNL     1      48.398   4.522  20.107  1.00  0.00     0.707 A 
ATOM     11  H2  UNL     1      47.526   3.277  21.473  1.00  0.00     0.203 HD
HETATM   12  N7  UNL     1      48.441   5.796  19.634  1.00  0.00    -0.021 N 
ATOM     13  H7  UNL     1      49.076   6.021  18.868  1.00  0.00     0.203 HD
BRANCH   7  14
HETATM   14  N3  UNL     1      45.966   4.879  22.631  1.00  0.00    -0.234 N 
ATOM     15  H32 UNL     1      45.818   3.921  22.948  1.00  0.00     0.174 HD
ATOM     16  H31 UNL     1      45.450   5.614  23.116  1.00  0.00     0.174 HD
ENDBRANCH   7  14
BRANCH  10  17
HETATM   17  N1  UNL     1      49.155   3.628  19.585  1.00  0.00    -0.225 N 
ATOM     18  H1  UNL     1      48.744   2.818  19.120  1.00  0.00     0.177 HD
BRANCH  17  19
HETATM   19  C2  UNL     1      50.575   3.768  19.657  1.00  0.00     0.133 C 
HETATM   20  C1  UNL     1      51.036   3.610  21.106  1.00  0.00     0.027 C 
ENDBRANCH  17  19
ENDBRANCH  10  17
ENDBRANCH   1   5
TORSDOF 4
ENDMDL
MODEL 5
REMARK VINA RESULT: -6.063955206      3.248      6.267
REMARK  4 active torsions:
REMARK  status: ('A' for Active; 'I' for Inactive)
REMARK    1  A    between atoms: C2_2  and  N1_3 
REMARK    2  A    between atoms: N1_3  and  C3_5 
REMARK    3  A    between atoms: C4_8  and  N3_9 
REMARK    4  A    between atoms: C5_14  and  N5_15 
ROOT
HETATM    1  N5  UNL     1      47.782   7.754  19.577  1.00  0.00    -0.125 N 
ATOM      2  H5  UNL     1      47.865   7.916  18.573  1.00  0.00     0.197 HD
HETATM    3  C6  UNL     1      47.663   8.843  20.415  1.00  0.00     0.196 C 
HETATM    4  N6  UNL     1      47.563   9.768  21.099  1.00  0.00    -0.171 NA
ENDROOT
BRANCH   1   5
HETATM    5  C5  UNL     1      47.795   6.538  20.008  1.00  0.00     0.720 A 
HETATM    6  N4  UNL     1      48.527   5.567  19.441  1.00  0.00    -0.021 N 
HETATM    7  C4  UNL     1      48.559   4.307  19.860  1.00  0.00     0.705 A 
ATOM      8  H4  UNL     1      49.097   5.813  18.633  1.00  0.00     0.203 HD
HETATM    9  N2  UNL     1      47.790   3.992  20.946  1.00  0.00    -0.022 N 
HETATM   10  C3  UNL     1      47.040   4.919  21.553  1.00  0.00     0.707 A 
ATOM     11  H2  UNL     1      47.787   3.035  21.298  1.00  0.00     0.203 HD
HETATM   12  N7  UNL     1      47.050   6.192  21.074  1.00  0.00    -0.021 N 
ATOM     13  H7  UNL     1      46.479   6.901  21.533  1.00  0.00     0.203 HD
BRANCH   7  14
HETATM   14  N3  UNL     1      49.273   3.390  19.296  1.00  0.00    -0.234 N 
ATOM     15  H32 UNL     1      49.846   3.557  18.468  1.00  0.00     0.174 HD
ATOM     16  H31 UNL     1      49.278   2.446  19.683  1.00  0.00     0.174 HD
ENDBRANCH   7  14
BRANCH  10  17
HETATM   17  N1  UNL     1      46.315   4.633  22.571  1.00  0.00    -0.225 N 
ATOM     18  H1  UNL     1      46.551   3.832  23.157  1.00  0.00     0.177 HD
BRANCH  17  19
HETATM   19  C2  UNL     1      45.176   5.437  22.883  1.00  0.00     0.133 C 
HETATM   20  C1  UNL     1      44.901   5.381  24.386  1.00  0.00     0.027 C 
ENDBRANCH  17  19
ENDBRANCH  10  17
ENDBRANCH   1   5
TORSDOF 4
ENDMDL
