MODEL 1
REMARK VINA RESULT: -5.669212043      0.000      0.000
REMARK  3 active torsions:
REMARK  status: ('A' for Active; 'I' for Inactive)
REMARK    1  A    between atoms: N1_2  and  C3_4 
REMARK    2  A    between atoms: C4_7  and  N3_8 
REMARK    3  A    between atoms: C5_13  and  N5_14 
ROOT
HETATM    1  C3  UNL     1      49.176   5.332  19.911  1.00  0.00     0.140 A 
HETATM    2  N2  UNL     1      50.327   5.106  19.225  1.00  0.00    -0.175 N 
ATOM      3  H2  UNL     1      50.604   5.730  18.467  1.00  0.00     0.186 HD
HETATM    4  C4  UNL     1      51.096   4.053  19.553  1.00  0.00     0.679 A 
HETATM    5  N4  UNL     1      50.684   3.250  20.569  1.00  0.00    -0.176 N 
ATOM      6  H4  UNL     1      51.269   2.451  20.817  1.00  0.00     0.186 HD
HETATM    7  C5  UNL     1      49.561   3.443  21.262  1.00  0.00     0.136 A 
HETATM    8  C6  UNL     1      48.757   4.516  20.943  1.00  0.00     0.100 A 
HETATM    9  S1  UNL     1      47.219   4.821  21.856  1.00  0.00    -0.044 SA
ENDROOT
BRANCH   1  10
HETATM   10  N1  UNL     1      48.343   6.442  19.595  1.00  0.00    -0.374 N 
HETATM   11  C1  UNL     1      47.165   6.183  18.795  1.00  0.00     0.150 C 
HETATM   12  C2  UNL     1      48.686   7.754  20.075  1.00  0.00     0.150 C 
ENDBRANCH   1  10
BRANCH   4  13
HETATM   13  N3  UNL     1      52.194   3.817  18.913  1.00  0.00    -0.234 N 
ATOM     14  H32 UNL     1      53.025   4.392  19.055  1.00  0.00     0.174 HD
ATOM     15  H31 UNL     1      52.251   3.045  18.249  1.00  0.00     0.174 HD
ENDBRANCH   4  13
BRANCH   7  16
HETATM   16  N5  UNL     1      49.218   2.649  22.221  1.00  0.00    -0.384 N 
ATOM     17  H52 UNL     1      48.254   2.327  22.290  1.00  0.00     0.157 HD
ATOM     18  H51 UNL     1      49.894   2.336  22.918  1.00  0.00     0.157 HD
ENDBRANCH   7  16
TORSDOF 3
ENDMDL
MODEL 2
REMARK VINA RESULT: -5.658732646      0.034      1.035
REMARK  3 active torsions:
REMARK  status: ('A' for Active; 'I' for Inactive)
REMARK    1  A    between atoms: N1_2  and  C3_4 
REMARK    2  A    between atoms: C4_7  and  N3_8 
REMARK    3  A    between atoms: C5_13  and  N5_14 
ROOT
HETATM    1  C3  UNL     1      49.173   5.320  19.899  1.00  0.00     0.140 A 
HETATM    2  N2  UNL     1      50.325   5.093  19.216  1.00  0.00    -0.175 N 
ATOM      3  H2  UNL     1      50.595   5.706  18.447  1.00  0.00     0.186 HD
HETATM    4  C4  UNL     1      51.106   4.054  19.562  1.00  0.00     0.679 A 
HETATM    5  N4  UNL     1      50.704   3.266  20.594  1.00  0.00    -0.176 N 
ATOM      6  H4  UNL     1      51.297   2.478  20.856  1.00  0.00     0.186 HD
HETATM    7  C5  UNL     1      49.579   3.460  21.285  1.00  0.00     0.136 A 
HETATM    8  C6  UNL     1      48.764   4.518  20.947  1.00  0.00     0.100 A 
HETATM    9  S1  UNL     1      47.224   4.823  21.856  1.00  0.00    -0.044 SA
ENDROOT
BRANCH   1  10
HETATM   10  N1  UNL     1      48.328   6.415  19.563  1.00  0.00    -0.374 N 
HETATM   11  C1  UNL     1      48.726   7.728  20.028  1.00  0.00     0.150 C 
HETATM   12  C2  UNL     1      47.139   6.191  18.787  1.00  0.00     0.150 C 
ENDBRANCH   1  10
BRANCH   4  13
HETATM   13  N3  UNL     1      52.206   3.818  18.926  1.00  0.00    -0.234 N 
ATOM     14  H32 UNL     1      52.506   4.408  18.149  1.00  0.00     0.174 HD
ATOM     15  H31 UNL     1      52.800   3.033  19.191  1.00  0.00     0.174 HD
ENDBRANCH   4  13
BRANCH   7  16
HETATM   16  N5  UNL     1      49.246   2.680  22.258  1.00  0.00    -0.384 N 
ATOM     17  H52 UNL     1      48.264   2.450  22.408  1.00  0.00     0.157 HD
ATOM     18  H51 UNL     1      49.946   2.288  22.887  1.00  0.00     0.157 HD
ENDBRANCH   7  16
TORSDOF 3
ENDMDL
MODEL 3
REMARK VINA RESULT: -5.036039950      1.669      3.946
REMARK  3 active torsions:
REMARK  status: ('A' for Active; 'I' for Inactive)
REMARK    1  A    between atoms: N1_2  and  C3_4 
REMARK    2  A    between atoms: C4_7  and  N3_8 
REMARK    3  A    between atoms: C5_13  and  N5_14 
ROOT
HETATM    1  C3  UNL     1      49.150   5.654  20.079  1.00  0.00     0.140 A 
HETATM    2  N2  UNL     1      49.435   6.711  19.274  1.00  0.00    -0.175 N 
ATOM      3  H2  UNL     1      50.287   6.715  18.714  1.00  0.00     0.186 HD
HETATM    4  C4  UNL     1      48.584   7.752  19.224  1.00  0.00     0.679 A 
HETATM    5  N4  UNL     1      47.463   7.701  19.990  1.00  0.00    -0.176 N 
ATOM      6  H4  UNL     1      46.818   8.491  19.951  1.00  0.00     0.186 HD
HETATM    7  C5  UNL     1      47.153   6.679  20.790  1.00  0.00     0.136 A 
HETATM    8  C6  UNL     1      48.011   5.602  20.857  1.00  0.00     0.100 A 
HETATM    9  S1  UNL     1      47.634   4.189  21.931  1.00  0.00    -0.044 SA
ENDROOT
BRANCH   1  10
HETATM   10  N1  UNL     1      50.024   4.533  20.149  1.00  0.00    -0.374 N 
HETATM   11  C1  UNL     1      51.203   4.660  20.980  1.00  0.00     0.150 C 
HETATM   12  C2  UNL     1      49.714   3.335  19.416  1.00  0.00     0.150 C 
ENDBRANCH   1  10
BRANCH   4  13
HETATM   13  N3  UNL     1      48.836   8.769  18.468  1.00  0.00    -0.234 N 
ATOM     14  H32 UNL     1      49.509   9.483  18.746  1.00  0.00     0.174 HD
ATOM     15  H31 UNL     1      48.363   8.877  17.571  1.00  0.00     0.174 HD
ENDBRANCH   4  13
BRANCH   7  16
HETATM   16  N5  UNL     1      46.072   6.681  21.495  1.00  0.00    -0.384 N 
ATOM     17  H52 UNL     1      45.832   7.503  22.050  1.00  0.00     0.157 HD
ATOM     18  H51 UNL     1      45.448   5.875  21.512  1.00  0.00     0.157 HD
ENDBRANCH   7  16
TORSDOF 3
ENDMDL
MODEL 4
REMARK VINA RESULT: -4.930421112      2.416      4.697
REMARK  3 active torsions:
REMARK  status: ('A' for Active; 'I' for Inactive)
REMARK    1  A    between atoms: N1_2  and  C3_4 
REMARK    2  A    between atoms: C4_7  and  N3_8 
REMARK    3  A    between atoms: C5_13  and  N5_14 
ROOT
HETATM    1  C3  UNL     1      48.318   4.536  20.920  1.00  0.00     0.140 A 
HETATM    2  N2  UNL     1      47.193   4.018  21.479  1.00  0.00    -0.175 N 
ATOM      3  H2  UNL     1      47.165   3.039  21.763  1.00  0.00     0.186 HD
HETATM    4  C4  UNL     1      46.119   4.808  21.655  1.00  0.00     0.679 A 
HETATM    5  N4  UNL     1      46.205   6.106  21.261  1.00  0.00    -0.176 N 
ATOM      6  H4  UNL     1      45.389   6.703  21.395  1.00  0.00     0.186 HD
HETATM    7  C5  UNL     1      47.294   6.645  20.709  1.00  0.00     0.136 A 
HETATM    8  C6  UNL     1      48.406   5.854  20.519  1.00  0.00     0.100 A 
HETATM    9  S1  UNL     1      49.910   6.542  19.772  1.00  0.00    -0.044 SA
ENDROOT
BRANCH   1  10
HETATM   10  N1  UNL     1      49.476   3.730  20.728  1.00  0.00    -0.374 N 
HETATM   11  C1  UNL     1      50.268   3.415  21.898  1.00  0.00     0.150 C 
HETATM   12  C2  UNL     1      49.810   3.259  19.411  1.00  0.00     0.150 C 
ENDBRANCH   1  10
BRANCH   4  13
HETATM   13  N3  UNL     1      45.037   4.337  22.183  1.00  0.00    -0.234 N 
ATOM     14  H32 UNL     1      45.000   4.070  23.168  1.00  0.00     0.174 HD
ATOM     15  H31 UNL     1      44.194   4.223  21.622  1.00  0.00     0.174 HD
ENDBRANCH   4  13
BRANCH   7  16
HETATM   16  N5  UNL     1      47.322   7.886  20.355  1.00  0.00    -0.384 N 
ATOM     17  H52 UNL     1      47.300   8.616  21.067  1.00  0.00     0.157 HD
ATOM     18  H51 UNL     1      47.364   8.157  19.373  1.00  0.00     0.157 HD
ENDBRANCH   7  16
TORSDOF 3
ENDMDL
MODEL 5
REMARK VINA RESULT: -4.919635356      2.411      4.618
REMARK  3 active torsions:
REMARK  status: ('A' for Active; 'I' for Inactive)
REMARK    1  A    between atoms: N1_2  and  C3_4 
REMARK    2  A    between atoms: C4_7  and  N3_8 
REMARK    3  A    between atoms: C5_13  and  N5_14 
ROOT
HETATM    1  C3  UNL     1      48.332   4.527  20.937  1.00  0.00     0.140 A 
HETATM    2  N2  UNL     1      47.207   4.008  21.495  1.00  0.00    -0.175 N 
ATOM      3  H2  UNL     1      47.181   3.031  21.785  1.00  0.00     0.186 HD
HETATM    4  C4  UNL     1      46.128   4.795  21.660  1.00  0.00     0.679 A 
HETATM    5  N4  UNL     1      46.212   6.090  21.256  1.00  0.00    -0.176 N 
ATOM      6  H4  UNL     1      45.393   6.686  21.382  1.00  0.00     0.186 HD
HETATM    7  C5  UNL     1      47.300   6.630  20.705  1.00  0.00     0.136 A 
HETATM    8  C6  UNL     1      48.417   5.843  20.527  1.00  0.00     0.100 A 
HETATM    9  S1  UNL     1      49.921   6.531  19.782  1.00  0.00    -0.044 SA
ENDROOT
BRANCH   1  10
HETATM   10  N1  UNL     1      49.494   3.724  20.756  1.00  0.00    -0.374 N 
HETATM   11  C1  UNL     1      49.776   3.256  19.416  1.00  0.00     0.150 C 
HETATM   12  C2  UNL     1      50.335   3.417  21.882  1.00  0.00     0.150 C 
ENDBRANCH   1  10
BRANCH   4  13
HETATM   13  N3  UNL     1      45.046   4.323  22.186  1.00  0.00    -0.234 N 
ATOM     14  H32 UNL     1      44.759   3.357  22.030  1.00  0.00     0.174 HD
ATOM     15  H31 UNL     1      44.456   4.913  22.772  1.00  0.00     0.174 HD
ENDBRANCH   4  13
BRANCH   7  16
HETATM   16  N5  UNL     1      47.325   7.869  20.342  1.00  0.00    -0.384 N 
ATOM     17  H52 UNL     1      46.721   8.186  19.584  1.00  0.00     0.157 HD
ATOM     18  H51 UNL     1      47.941   8.543  20.796  1.00  0.00     0.157 HD
ENDBRANCH   7  16
TORSDOF 3
ENDMDL
