MODEL 1
REMARK VINA RESULT: -6.501891894      0.000      0.000
REMARK  3 active torsions:
REMARK  status: ('A' for Active; 'I' for Inactive)
REMARK    1  A    between atoms: C2_2  and  N1_3 
REMARK    2  A    between atoms: N1_3  and  C3_5 
REMARK    3  A    between atoms: C4_8  and  N3_9 
ROOT
HETATM    1  C3  UNL     1      47.751   6.378  19.781  1.00  0.00     0.149 A 
HETATM    2  N2  UNL     1      48.555   5.380  19.359  1.00  0.00    -0.175 N 
ATOM      3  H2  UNL     1      49.154   5.557  18.552  1.00  0.00     0.186 HD
HETATM    4  C4  UNL     1      48.617   4.169  19.934  1.00  0.00     0.679 A 
HETATM    5  N4  UNL     1      47.850   3.907  20.985  1.00  0.00    -0.173 N 
ATOM      6  H4  UNL     1      47.890   2.988  21.427  1.00  0.00     0.186 HD
HETATM    7  C5  UNL     1      47.024   4.841  21.468  1.00  0.00     0.169 A 
HETATM    8  N5  UNL     1      46.158   4.823  22.509  1.00  0.00    -0.268 N 
ATOM      9  H5  UNL     1      45.984   4.037  23.136  1.00  0.00     0.190 HD
HETATM   10  N6  UNL     1      45.576   6.015  22.564  1.00  0.00    -0.240 N 
ATOM     11  H6  UNL     1      44.873   6.299  23.247  1.00  0.00     0.208 HD
HETATM   12  N7  UNL     1      46.051   6.769  21.596  1.00  0.00    -0.279 N 
ATOM     13  H7  UNL     1      45.766   7.732  21.420  1.00  0.00     0.189 HD
HETATM   14  C6  UNL     1      46.960   6.101  20.872  1.00  0.00     0.140 A 
ENDROOT
BRANCH   1  15
HETATM   15  N1  UNL     1      47.735   7.516  19.191  1.00  0.00    -0.374 N 
ATOM     16  H1  UNL     1      47.113   7.588  18.387  1.00  0.00     0.161 HD
BRANCH  15  17
HETATM   17  C2  UNL     1      48.467   8.688  19.508  1.00  0.00     0.116 C 
HETATM   18  C1  UNL     1      47.664   9.750  20.196  1.00  0.00     0.026 C 
ENDBRANCH  15  17
ENDBRANCH   1  15
BRANCH   4  19
HETATM   19  N3  UNL     1      49.404   3.232  19.498  1.00  0.00    -0.234 N 
ATOM     20  H32 UNL     1      49.418   3.040  18.496  1.00  0.00     0.174 HD
ATOM     21  H31 UNL     1      50.002   2.688  20.120  1.00  0.00     0.174 HD
ENDBRANCH   4  19
TORSDOF 3
ENDMDL
MODEL 2
REMARK VINA RESULT: -6.370792129      1.978      4.626
REMARK  3 active torsions:
REMARK  status: ('A' for Active; 'I' for Inactive)
REMARK    1  A    between atoms: C2_2  and  N1_3 
REMARK    2  A    between atoms: N1_3  and  C3_5 
REMARK    3  A    between atoms: C4_8  and  N3_9 
ROOT
HETATM    1  C3  UNL     1      48.628   4.926  21.039  1.00  0.00     0.149 A 
HETATM    2  N2  UNL     1      48.219   6.032  20.384  1.00  0.00    -0.175 N 
ATOM      3  H2  UNL     1      47.292   6.400  20.599  1.00  0.00     0.186 HD
HETATM    4  C4  UNL     1      48.956   6.679  19.467  1.00  0.00     0.679 A 
HETATM    5  N4  UNL     1      50.166   6.224  19.165  1.00  0.00    -0.173 N 
ATOM      6  H4  UNL     1      50.731   6.709  18.468  1.00  0.00     0.186 HD
HETATM    7  C5  UNL     1      50.648   5.133  19.769  1.00  0.00     0.169 A 
HETATM    8  N5  UNL     1      51.829   4.483  19.640  1.00  0.00    -0.268 N 
ATOM      9  H5  UNL     1      52.594   4.739  19.017  1.00  0.00     0.190 HD
HETATM   10  N6  UNL     1      51.808   3.449  20.473  1.00  0.00    -0.240 N 
ATOM     11  H6  UNL     1      52.562   2.773  20.597  1.00  0.00     0.208 HD
HETATM   12  N7  UNL     1      50.657   3.438  21.113  1.00  0.00    -0.279 N 
ATOM     13  H7  UNL     1      50.390   2.744  21.811  1.00  0.00     0.189 HD
HETATM   14  C6  UNL     1      49.883   4.460  20.723  1.00  0.00     0.140 A 
ENDROOT
BRANCH   1  15
HETATM   15  N1  UNL     1      47.880   4.350  21.907  1.00  0.00    -0.374 N 
ATOM     16  H1  UNL     1      48.365   3.937  22.703  1.00  0.00     0.161 HD
BRANCH  15  17
HETATM   17  C2  UNL     1      46.469   4.210  21.907  1.00  0.00     0.116 C 
HETATM   18  C1  UNL     1      45.761   5.100  22.882  1.00  0.00     0.026 C 
ENDBRANCH  15  17
ENDBRANCH   1  15
BRANCH   4  19
HETATM   19  N3  UNL     1      48.527   7.742  18.856  1.00  0.00    -0.234 N 
ATOM     20  H32 UNL     1      48.337   7.680  17.856  1.00  0.00     0.174 HD
ATOM     21  H31 UNL     1      48.377   8.627  19.340  1.00  0.00     0.174 HD
ENDBRANCH   4  19
TORSDOF 3
ENDMDL
MODEL 3
REMARK VINA RESULT: -6.341047142      1.453      4.434
REMARK  3 active torsions:
REMARK  status: ('A' for Active; 'I' for Inactive)
REMARK    1  A    between atoms: C2_2  and  N1_3 
REMARK    2  A    between atoms: N1_3  and  C3_5 
REMARK    3  A    between atoms: C4_8  and  N3_9 
ROOT
HETATM    1  C3  UNL     1      47.671   4.438  21.192  1.00  0.00     0.149 A 
HETATM    2  N2  UNL     1      46.739   4.628  22.149  1.00  0.00    -0.175 N 
ATOM      3  H2  UNL     1      46.584   3.876  22.821  1.00  0.00     0.186 HD
HETATM    4  C4  UNL     1      46.004   5.743  22.272  1.00  0.00     0.679 A 
HETATM    5  N4  UNL     1      46.182   6.739  21.412  1.00  0.00    -0.173 N 
ATOM      6  H4  UNL     1      45.626   7.590  21.499  1.00  0.00     0.186 HD
HETATM    7  C5  UNL     1      47.087   6.633  20.434  1.00  0.00     0.169 A 
HETATM    8  N5  UNL     1      47.451   7.490  19.450  1.00  0.00    -0.268 N 
ATOM      9  H5  UNL     1      47.066   8.421  19.288  1.00  0.00     0.190 HD
HETATM   10  N6  UNL     1      48.401   6.898  18.737  1.00  0.00    -0.240 N 
ATOM     11  H6  UNL     1      48.871   7.301  17.926  1.00  0.00     0.208 HD
HETATM   12  N7  UNL     1      48.637   5.706  19.243  1.00  0.00    -0.279 N 
ATOM     13  H7  UNL     1      49.325   5.048  18.878  1.00  0.00     0.189 HD
HETATM   14  C6  UNL     1      47.852   5.474  20.305  1.00  0.00     0.140 A 
ENDROOT
BRANCH   1  15
HETATM   15  N1  UNL     1      48.345   3.349  21.124  1.00  0.00    -0.374 N 
ATOM     16  H1  UNL     1      48.088   2.717  20.365  1.00  0.00     0.161 HD
BRANCH  15  17
HETATM   17  C2  UNL     1      49.399   2.906  21.961  1.00  0.00     0.116 C 
HETATM   18  C1  UNL     1      50.738   3.495  21.634  1.00  0.00     0.026 C 
ENDBRANCH  15  17
ENDBRANCH   1  15
BRANCH   4  19
HETATM   19  N3  UNL     1      45.114   5.890  23.208  1.00  0.00    -0.234 N 
ATOM     20  H32 UNL     1      44.160   6.121  22.933  1.00  0.00     0.174 HD
ATOM     21  H31 UNL     1      45.339   5.781  24.197  1.00  0.00     0.174 HD
ENDBRANCH   4  19
TORSDOF 3
ENDMDL
MODEL 4
REMARK VINA RESULT: -6.262279450      1.793      2.372
REMARK  3 active torsions:
REMARK  status: ('A' for Active; 'I' for Inactive)
REMARK    1  A    between atoms: C2_2  and  N1_3 
REMARK    2  A    between atoms: N1_3  and  C3_5 
REMARK    3  A    between atoms: C4_8  and  N3_9 
ROOT
HETATM    1  C3  UNL     1      49.902   6.036  19.844  1.00  0.00     0.149 A 
HETATM    2  N2  UNL     1      50.947   5.435  19.239  1.00  0.00    -0.175 N 
ATOM      3  H2  UNL     1      51.619   6.026  18.747  1.00  0.00     0.186 HD
HETATM    4  C4  UNL     1      51.158   4.111  19.242  1.00  0.00     0.679 A 
HETATM    5  N4  UNL     1      50.302   3.316  19.872  1.00  0.00    -0.173 N 
ATOM      6  H4  UNL     1      50.455   2.307  19.878  1.00  0.00     0.186 HD
HETATM    7  C5  UNL     1      49.239   3.831  20.499  1.00  0.00     0.169 A 
HETATM    8  N5  UNL     1      48.239   3.244  21.200  1.00  0.00    -0.268 N 
ATOM      9  H5  UNL     1      48.129   2.246  21.375  1.00  0.00     0.190 HD
HETATM   10  N6  UNL     1      47.428   4.208  21.619  1.00  0.00    -0.240 N 
ATOM     11  H6  UNL     1      46.583   4.072  22.173  1.00  0.00     0.208 HD
HETATM   12  N7  UNL     1      47.890   5.368  21.202  1.00  0.00    -0.279 N 
ATOM     13  H7  UNL     1      47.449   6.268  21.391  1.00  0.00     0.189 HD
HETATM   14  C6  UNL     1      49.018   5.208  20.497  1.00  0.00     0.140 A 
ENDROOT
BRANCH   1  15
HETATM   15  N1  UNL     1      49.751   7.309  19.808  1.00  0.00    -0.374 N 
ATOM     16  H1  UNL     1      50.440   7.850  20.330  1.00  0.00     0.161 HD
BRANCH  15  17
HETATM   17  C2  UNL     1      48.756   8.065  19.139  1.00  0.00     0.116 C 
HETATM   18  C1  UNL     1      47.868   8.859  20.047  1.00  0.00     0.026 C 
ENDBRANCH  15  17
ENDBRANCH   1  15
BRANCH   4  19
HETATM   19  N3  UNL     1      52.178   3.568  18.646  1.00  0.00    -0.234 N 
ATOM     20  H32 UNL     1      53.113   3.820  18.964  1.00  0.00     0.174 HD
ATOM     21  H31 UNL     1      52.072   2.904  17.879  1.00  0.00     0.174 HD
ENDBRANCH   4  19
TORSDOF 3
ENDMDL
MODEL 5
REMARK VINA RESULT: -6.234613534      1.185      3.552
REMARK  3 active torsions:
REMARK  status: ('A' for Active; 'I' for Inactive)
REMARK    1  A    between atoms: C2_2  and  N1_3 
REMARK    2  A    between atoms: N1_3  and  C3_5 
REMARK    3  A    between atoms: C4_8  and  N3_9 
ROOT
HETATM    1  C3  UNL     1      48.234   5.062  19.926  1.00  0.00     0.149 A 
HETATM    2  N2  UNL     1      48.690   6.135  19.248  1.00  0.00    -0.175 N 
ATOM      3  H2  UNL     1      49.435   5.989  18.566  1.00  0.00     0.186 HD
HETATM    4  C4  UNL     1      48.226   7.383  19.414  1.00  0.00     0.679 A 
HETATM    5  N4  UNL     1      47.257   7.606  20.294  1.00  0.00    -0.173 N 
ATOM      6  H4  UNL     1      46.899   8.552  20.427  1.00  0.00     0.186 HD
HETATM    7  C5  UNL     1      46.748   6.597  21.008  1.00  0.00     0.169 A 
HETATM    8  N5  UNL     1      45.774   6.564  21.949  1.00  0.00    -0.268 N 
ATOM      9  H5  UNL     1      45.235   7.361  22.287  1.00  0.00     0.190 HD
HETATM   10  N6  UNL     1      45.649   5.305  22.350  1.00  0.00    -0.240 N 
ATOM     11  H6  UNL     1      44.992   4.970  23.055  1.00  0.00     0.208 HD
HETATM   12  N7  UNL     1      46.510   4.558  21.691  1.00  0.00    -0.279 N 
ATOM     13  H7  UNL     1      46.616   3.551  21.814  1.00  0.00     0.189 HD
HETATM   14  C6  UNL     1      47.229   5.299  20.836  1.00  0.00     0.140 A 
ENDROOT
BRANCH   1  15
HETATM   15  N1  UNL     1      48.716   3.891  19.725  1.00  0.00    -0.374 N 
ATOM     16  H1  UNL     1      48.123   3.254  19.195  1.00  0.00     0.161 HD
BRANCH  15  17
HETATM   17  C2  UNL     1      49.964   3.363  20.142  1.00  0.00     0.116 C 
HETATM   18  C1  UNL     1      50.142   3.297  21.628  1.00  0.00     0.026 C 
ENDBRANCH  15  17
ENDBRANCH   1  15
BRANCH   4  19
HETATM   19  N3  UNL     1      48.691   8.393  18.742  1.00  0.00    -0.234 N 
ATOM     20  H32 UNL     1      49.389   8.988  19.188  1.00  0.00     0.174 HD
ATOM     21  H31 UNL     1      48.384   8.606  17.793  1.00  0.00     0.174 HD
ENDBRANCH   4  19
TORSDOF 3
ENDMDL
