MODEL 1
REMARK VINA RESULT: -6.672648092      0.000      0.000
REMARK  3 active torsions:
REMARK  status: ('A' for Active; 'I' for Inactive)
REMARK    1  A    between atoms: C3_5  and  N2_6 
REMARK    2  A    between atoms: C4_9  and  N3_10 
REMARK    3  A    between atoms: N3_10  and  C5_12 
ROOT
HETATM    1  C5  UNL     1      44.273   7.446  27.066  1.00  0.00     0.245 C 
HETATM    2  C6  UNL     1      45.419   6.883  27.808  1.00  0.00     0.078 C 
HETATM    3  N4  UNL     1      46.312   6.428  28.377  1.00  0.00    -0.196 NA
ENDROOT
BRANCH   1   4
HETATM    4  N3  UNL     1      43.795   6.574  26.047  1.00  0.00    -0.360 N 
ATOM      5  H3  UNL     1      42.906   6.109  26.229  1.00  0.00     0.162 HD
BRANCH   4   6
HETATM    6  C4  UNL     1      44.350   6.312  24.937  1.00  0.00     0.161 A 
HETATM    7  C3  UNL     1      44.911   5.061  24.755  1.00  0.00     0.146 A 
HETATM    8  N1  UNL     1      45.499   4.805  23.559  1.00  0.00    -0.329 N 
HETATM    9  C2  UNL     1      45.532   5.743  22.586  1.00  0.00     0.093 A 
ATOM     10  H1  UNL     1      45.921   3.891  23.391  1.00  0.00     0.168 HD
HETATM   11  C1  UNL     1      46.173   5.481  21.266  1.00  0.00     0.090 C 
HETATM   12  N6  UNL     1      44.969   6.950  22.814  1.00  0.00    -0.288 N 
HETATM   13  N5  UNL     1      44.384   7.244  23.968  1.00  0.00    -0.281 N 
ATOM     14  H6  UNL     1      44.995   7.656  22.077  1.00  0.00     0.188 HD
ATOM     15  H5  UNL     1      43.967   8.162  24.118  1.00  0.00     0.188 HD
BRANCH   7  16
HETATM   16  N2  UNL     1      44.875   4.171  25.688  1.00  0.00    -0.382 N 
ATOM     17  H22 UNL     1      45.681   3.575  25.881  1.00  0.00     0.157 HD
ATOM     18  H21 UNL     1      44.042   4.037  26.261  1.00  0.00     0.157 HD
ENDBRANCH   7  16
ENDBRANCH   4   6
ENDBRANCH   1   4
TORSDOF 3
ENDMDL
MODEL 2
REMARK VINA RESULT: -6.007091630      1.397      4.251
REMARK  3 active torsions:
REMARK  status: ('A' for Active; 'I' for Inactive)
REMARK    1  A    between atoms: C3_5  and  N2_6 
REMARK    2  A    between atoms: C4_9  and  N3_10 
REMARK    3  A    between atoms: N3_10  and  C5_12 
ROOT
HETATM    1  C5  UNL     1      45.963   4.910  21.915  1.00  0.00     0.245 C 
HETATM    2  C6  UNL     1      47.379   4.509  22.025  1.00  0.00     0.078 C 
HETATM    3  N4  UNL     1      48.483   4.193  22.130  1.00  0.00    -0.196 NA
ENDROOT
BRANCH   1   4
HETATM    4  N3  UNL     1      45.252   4.767  23.141  1.00  0.00    -0.360 N 
ATOM      5  H3  UNL     1      45.008   3.815  23.415  1.00  0.00     0.162 HD
BRANCH   4   6
HETATM    6  C4  UNL     1      44.889   5.690  23.930  1.00  0.00     0.161 A 
HETATM    7  C3  UNL     1      44.762   5.402  25.276  1.00  0.00     0.146 A 
HETATM    8  N1  UNL     1      44.373   6.408  26.100  1.00  0.00    -0.329 N 
HETATM    9  C2  UNL     1      44.119   7.644  25.616  1.00  0.00     0.093 A 
ATOM     10  H1  UNL     1      44.270   6.228  27.099  1.00  0.00     0.168 HD
HETATM   11  C1  UNL     1      43.690   8.761  26.504  1.00  0.00     0.090 C 
HETATM   12  N6  UNL     1      44.258   7.875  24.291  1.00  0.00    -0.288 N 
HETATM   13  N5  UNL     1      44.636   6.921  23.449  1.00  0.00    -0.281 N 
ATOM     14  H6  UNL     1      44.068   8.809  23.928  1.00  0.00     0.188 HD
ATOM     15  H5  UNL     1      44.734   7.118  22.453  1.00  0.00     0.188 HD
BRANCH   7  16
HETATM   16  N2  UNL     1      45.006   4.219  25.731  1.00  0.00    -0.382 N 
ATOM     17  H22 UNL     1      44.378   3.770  26.399  1.00  0.00     0.157 HD
ATOM     18  H21 UNL     1      45.832   3.698  25.437  1.00  0.00     0.157 HD
ENDBRANCH   7  16
ENDBRANCH   4   6
ENDBRANCH   1   4
TORSDOF 3
ENDMDL
MODEL 3
REMARK VINA RESULT: -5.996959355      4.156      5.913
REMARK  3 active torsions:
REMARK  status: ('A' for Active; 'I' for Inactive)
REMARK    1  A    between atoms: C3_5  and  N2_6 
REMARK    2  A    between atoms: C4_9  and  N3_10 
REMARK    3  A    between atoms: N3_10  and  C5_12 
ROOT
HETATM    1  C5  UNL     1      45.204   5.624  22.062  1.00  0.00     0.245 C 
HETATM    2  C6  UNL     1      43.803   5.522  21.611  1.00  0.00     0.078 C 
HETATM    3  N4  UNL     1      42.713   5.446  21.240  1.00  0.00    -0.196 NA
ENDROOT
BRANCH   1   4
HETATM    4  N3  UNL     1      46.111   5.874  20.994  1.00  0.00    -0.360 N 
ATOM      5  H3  UNL     1      45.779   6.490  20.252  1.00  0.00     0.162 HD
BRANCH   4   6
HETATM    6  C4  UNL     1      47.287   5.416  20.861  1.00  0.00     0.161 A 
HETATM    7  C3  UNL     1      47.965   5.660  19.681  1.00  0.00     0.146 A 
HETATM    8  N1  UNL     1      49.221   5.160  19.564  1.00  0.00    -0.329 N 
HETATM    9  C2  UNL     1      49.783   4.451  20.568  1.00  0.00     0.093 A 
ATOM     10  H1  UNL     1      49.750   5.322  18.707  1.00  0.00     0.168 HD
HETATM   11  C1  UNL     1      51.161   3.893  20.459  1.00  0.00     0.090 C 
HETATM   12  N6  UNL     1      49.078   4.240  21.702  1.00  0.00    -0.288 N 
HETATM   13  N5  UNL     1      47.847   4.710  21.859  1.00  0.00    -0.281 N 
ATOM     14  H6  UNL     1      49.505   3.706  22.459  1.00  0.00     0.188 HD
ATOM     15  H5  UNL     1      47.333   4.538  22.724  1.00  0.00     0.188 HD
BRANCH   7  16
HETATM   16  N2  UNL     1      47.422   6.338  18.727  1.00  0.00    -0.382 N 
ATOM     17  H22 UNL     1      47.877   6.429  17.818  1.00  0.00     0.157 HD
ATOM     18  H21 UNL     1      46.522   6.802  18.852  1.00  0.00     0.157 HD
ENDBRANCH   7  16
ENDBRANCH   4   6
ENDBRANCH   1   4
TORSDOF 3
ENDMDL
MODEL 4
REMARK VINA RESULT: -5.994111586      4.761      6.222
REMARK  3 active torsions:
REMARK  status: ('A' for Active; 'I' for Inactive)
REMARK    1  A    between atoms: C3_5  and  N2_6 
REMARK    2  A    between atoms: C4_9  and  N3_10 
REMARK    3  A    between atoms: N3_10  and  C5_12 
ROOT
HETATM    1  C5  UNL     1      48.266   8.744  19.560  1.00  0.00     0.245 C 
HETATM    2  C6  UNL     1      47.614   9.585  20.583  1.00  0.00     0.078 C 
HETATM    3  N4  UNL     1      47.093  10.227  21.386  1.00  0.00    -0.196 NA
ENDROOT
BRANCH   1   4
HETATM    4  N3  UNL     1      47.668   7.457  19.440  1.00  0.00    -0.360 N 
ATOM      5  H3  UNL     1      46.842   7.394  18.845  1.00  0.00     0.162 HD
BRANCH   4   6
HETATM    6  C4  UNL     1      48.047   6.380  19.992  1.00  0.00     0.161 A 
HETATM    7  C3  UNL     1      47.295   5.866  21.032  1.00  0.00     0.146 A 
HETATM    8  N1  UNL     1      47.722   4.712  21.605  1.00  0.00    -0.329 N 
HETATM    9  C2  UNL     1      48.842   4.093  21.170  1.00  0.00     0.093 A 
ATOM     10  H1  UNL     1      47.189   4.305  22.374  1.00  0.00     0.168 HD
HETATM   11  C1  UNL     1      49.327   2.825  21.786  1.00  0.00     0.090 C 
HETATM   12  N6  UNL     1      49.542   4.636  20.149  1.00  0.00    -0.288 N 
HETATM   13  N5  UNL     1      49.161   5.763  19.560  1.00  0.00    -0.281 N 
ATOM     14  H6  UNL     1      50.386   4.166  19.821  1.00  0.00     0.188 HD
ATOM     15  H5  UNL     1      49.706   6.155  18.792  1.00  0.00     0.188 HD
BRANCH   7  16
HETATM   16  N2  UNL     1      46.226   6.462  21.442  1.00  0.00    -0.382 N 
ATOM     17  H22 UNL     1      46.272   7.208  22.137  1.00  0.00     0.157 HD
ATOM     18  H21 UNL     1      45.307   6.208  21.082  1.00  0.00     0.157 HD
ENDBRANCH   7  16
ENDBRANCH   4   6
ENDBRANCH   1   4
TORSDOF 3
ENDMDL
MODEL 5
REMARK VINA RESULT: -5.912614364      0.730      1.838
REMARK  3 active torsions:
REMARK  status: ('A' for Active; 'I' for Inactive)
REMARK    1  A    between atoms: C3_5  and  N2_6 
REMARK    2  A    between atoms: C4_9  and  N3_10 
REMARK    3  A    between atoms: N3_10  and  C5_12 
ROOT
HETATM    1  C5  UNL     1      44.220   6.972  27.249  1.00  0.00     0.245 C 
HETATM    2  C6  UNL     1      45.501   6.562  27.857  1.00  0.00     0.078 C 
HETATM    3  N4  UNL     1      46.502   6.226  28.321  1.00  0.00    -0.196 NA
ENDROOT
BRANCH   1   4
HETATM    4  N3  UNL     1      43.801   6.100  26.205  1.00  0.00    -0.360 N 
ATOM      5  H3  UNL     1      42.992   5.511  26.404  1.00  0.00     0.162 HD
BRANCH   4   6
HETATM    6  C4  UNL     1      44.320   5.974  25.055  1.00  0.00     0.161 A 
HETATM    7  C3  UNL     1      43.900   6.815  24.041  1.00  0.00     0.146 A 
HETATM    8  N1  UNL     1      44.471   6.660  22.819  1.00  0.00    -0.329 N 
HETATM    9  C2  UNL     1      45.415   5.715  22.609  1.00  0.00     0.093 A 
ATOM     10  H1  UNL     1      44.185   7.265  22.050  1.00  0.00     0.168 HD
HETATM   11  C1  UNL     1      46.054   5.529  21.275  1.00  0.00     0.090 C 
HETATM   12  N6  UNL     1      45.791   4.918  23.633  1.00  0.00    -0.288 N 
HETATM   13  N5  UNL     1      45.259   5.034  24.843  1.00  0.00    -0.281 N 
ATOM     14  H6  UNL     1      46.505   4.207  23.472  1.00  0.00     0.188 HD
ATOM     15  H5  UNL     1      45.558   4.421  25.601  1.00  0.00     0.188 HD
BRANCH   7  16
HETATM   16  N2  UNL     1      42.999   7.715  24.250  1.00  0.00    -0.382 N 
ATOM     17  H22 UNL     1      42.032   7.572  23.955  1.00  0.00     0.157 HD
ATOM     18  H21 UNL     1      43.224   8.593  24.717  1.00  0.00     0.157 HD
ENDBRANCH   7  16
ENDBRANCH   4   6
ENDBRANCH   1   4
TORSDOF 3
ENDMDL
