MODEL 1
REMARK VINA RESULT: -9.369388933      0.000      0.000
REMARK  7 active torsions:
REMARK  status: ('A' for Active; 'I' for Inactive)
REMARK    1  A    between atoms: C1_2  and  C2_4 
REMARK    2  A    between atoms: C7_9  and  C8_10 
REMARK    3  A    between atoms: C8_10  and  C9_11 
REMARK    4  A    between atoms: C9_11  and  C10_12 
REMARK    5  A    between atoms: N2_15  and  C11_16 
REMARK    6  A    between atoms: C15_20  and  C16_21 
REMARK    7  A    between atoms: C20_30  and  O3_31 
ROOT
HETATM    1  C10 UNL     1     -14.956 -43.377 -57.505  1.00  0.00     0.054 A 
HETATM    2  N1  UNL     1     -15.724 -43.979 -56.601  1.00  0.00    -0.295 N 
ATOM      3  H1  UNL     1     -16.626 -43.625 -56.281  1.00  0.00     0.187 HD
HETATM    4  N2  UNL     1     -15.152 -45.118 -56.164  1.00  0.00    -0.258 N 
HETATM    5  C18 UNL     1     -13.982 -45.265 -56.795  1.00  0.00     0.063 A 
HETATM    6  C19 UNL     1     -13.856 -44.166 -57.644  1.00  0.00     0.079 A 
HETATM    7  N3  UNL     1     -12.799 -43.871 -58.516  1.00  0.00    -0.361 N 
ATOM      8  H3  UNL     1     -12.895 -42.980 -59.004  1.00  0.00     0.162 HD
HETATM    9  C20 UNL     1     -11.604 -44.598 -58.849  1.00  0.00     0.218 C 
HETATM   10  C21 UNL     1     -11.102 -45.171 -57.512  1.00  0.00     0.054 C 
HETATM   11  C22 UNL     1     -11.829 -46.449 -57.311  1.00  0.00     0.010 C 
HETATM   12  C23 UNL     1     -13.100 -46.399 -56.551  1.00  0.00     0.062 C 
ENDROOT
BRANCH   1  13
HETATM   13  C9  UNL     1     -15.369 -42.106 -58.173  1.00  0.00     0.061 C 
BRANCH  13  14
HETATM   14  C8  UNL     1     -16.273 -42.506 -59.311  1.00  0.00     0.011 C 
BRANCH  14  15
HETATM   15  C7  UNL     1     -17.219 -41.411 -59.747  1.00  0.00     0.000 C 
HETATM   16  C2  UNL     1     -17.176 -41.266 -61.260  1.00  0.00     0.091 C 
HETATM   17  C3  UNL     1     -16.951 -39.813 -61.647  1.00  0.00     0.015 C 
HETATM   18  C4  UNL     1     -17.795 -38.846 -60.892  1.00  0.00     0.001 C 
HETATM   19  C5  UNL     1     -17.765 -39.076 -59.397  1.00  0.00     0.000 C 
HETATM   20  C6  UNL     1     -16.706 -40.133 -59.124  1.00  0.00     0.005 C 
BRANCH  16  21
HETATM   21  C1  UNL     1     -18.383 -41.804 -61.924  1.00  0.00     0.177 C 
HETATM   22  O1  UNL     1     -18.975 -42.837 -61.538  1.00  0.00    -0.648 OA
HETATM   23  O2  UNL     1     -18.946 -41.179 -63.046  1.00  0.00    -0.648 OA
ENDBRANCH  16  21
ENDBRANCH  14  15
ENDBRANCH  13  14
ENDBRANCH   1  13
BRANCH   4  24
HETATM   24  C11 UNL     1     -15.851 -45.894 -55.196  1.00  0.00     0.057 A 
HETATM   25  C12 UNL     1     -16.481 -47.074 -55.630  1.00  0.00     0.031 A 
HETATM   26  C13 UNL     1     -17.132 -47.893 -54.732  1.00  0.00     0.003 A 
HETATM   27  C14 UNL     1     -17.188 -47.591 -53.387  1.00  0.00     0.016 A 
HETATM   28  C15 UNL     1     -16.580 -46.447 -52.956  1.00  0.00     0.050 A 
HETATM   29  C17 UNL     1     -15.920 -45.614 -53.863  1.00  0.00     0.047 A 
BRANCH  28  30
HETATM   30  C16 UNL     1     -16.627 -46.108 -51.506  1.00  0.00     0.417 C 
HETATM   31  F1  UNL     1     -15.382 -46.165 -50.925  1.00  0.00    -0.166 F 
HETATM   32  F2  UNL     1     -17.225 -44.886 -51.385  1.00  0.00    -0.166 F 
HETATM   33  F3  UNL     1     -17.417 -47.090 -50.920  1.00  0.00    -0.166 F 
ENDBRANCH  28  30
ENDBRANCH   4  24
BRANCH   9  34
HETATM   34  O3  UNL     1     -10.638 -43.859 -59.469  1.00  0.00    -0.377 OA
ATOM     35  H3  UNL     1     -10.001 -44.366 -59.958  1.00  0.00     0.212 HD
ENDBRANCH   9  34
TORSDOF 7
ENDMDL
MODEL 2
REMARK VINA RESULT: -8.945819136      1.033      1.353
REMARK  7 active torsions:
REMARK  status: ('A' for Active; 'I' for Inactive)
REMARK    1  A    between atoms: C1_2  and  C2_4 
REMARK    2  A    between atoms: C7_9  and  C8_10 
REMARK    3  A    between atoms: C8_10  and  C9_11 
REMARK    4  A    between atoms: C9_11  and  C10_12 
REMARK    5  A    between atoms: N2_15  and  C11_16 
REMARK    6  A    between atoms: C15_20  and  C16_21 
REMARK    7  A    between atoms: C20_30  and  O3_31 
ROOT
HETATM    1  C10 UNL     1     -14.943 -43.367 -57.526  1.00  0.00     0.054 A 
HETATM    2  N1  UNL     1     -15.717 -43.971 -56.628  1.00  0.00    -0.295 N 
ATOM      3  H1  UNL     1     -16.621 -43.618 -56.314  1.00  0.00     0.187 HD
HETATM    4  N2  UNL     1     -15.146 -45.110 -56.189  1.00  0.00    -0.258 N 
HETATM    5  C18 UNL     1     -13.972 -45.255 -56.813  1.00  0.00     0.063 A 
HETATM    6  C19 UNL     1     -13.842 -44.154 -57.659  1.00  0.00     0.079 A 
HETATM    7  N3  UNL     1     -12.780 -43.857 -58.525  1.00  0.00    -0.361 N 
ATOM      8  H3  UNL     1     -12.874 -42.966 -59.012  1.00  0.00     0.162 HD
HETATM    9  C20 UNL     1     -11.582 -44.582 -58.850  1.00  0.00     0.218 C 
HETATM   10  C21 UNL     1     -11.087 -45.157 -57.511  1.00  0.00     0.054 C 
HETATM   11  C22 UNL     1     -11.814 -46.436 -57.316  1.00  0.00     0.010 C 
HETATM   12  C23 UNL     1     -13.091 -46.388 -56.564  1.00  0.00     0.062 C 
ENDROOT
BRANCH   1  13
HETATM   13  C9  UNL     1     -15.354 -42.096 -58.196  1.00  0.00     0.061 C 
BRANCH  13  14
HETATM   14  C8  UNL     1     -16.383 -42.480 -59.228  1.00  0.00     0.011 C 
BRANCH  14  15
HETATM   15  C7  UNL     1     -16.843 -41.322 -60.085  1.00  0.00     0.000 C 
HETATM   16  C2  UNL     1     -18.257 -41.579 -60.581  1.00  0.00     0.091 C 
HETATM   17  C3  UNL     1     -18.334 -41.387 -62.087  1.00  0.00     0.015 C 
HETATM   18  C4  UNL     1     -17.651 -40.157 -62.577  1.00  0.00     0.001 C 
HETATM   19  C5  UNL     1     -16.251 -39.999 -62.026  1.00  0.00     0.000 C 
HETATM   20  C6  UNL     1     -15.914 -41.278 -61.275  1.00  0.00     0.005 C 
BRANCH  16  21
HETATM   21  C1  UNL     1     -19.268 -40.746 -59.894  1.00  0.00     0.177 C 
HETATM   22  O1  UNL     1     -19.035 -40.118 -58.837  1.00  0.00    -0.648 OA
HETATM   23  O2  UNL     1     -20.571 -40.609 -60.393  1.00  0.00    -0.648 OA
ENDBRANCH  16  21
ENDBRANCH  14  15
ENDBRANCH  13  14
ENDBRANCH   1  13
BRANCH   4  24
HETATM   24  C11 UNL     1     -15.851 -45.888 -55.227  1.00  0.00     0.057 A 
HETATM   25  C12 UNL     1     -16.489 -47.061 -55.669  1.00  0.00     0.031 A 
HETATM   26  C13 UNL     1     -17.145 -47.882 -54.776  1.00  0.00     0.003 A 
HETATM   27  C14 UNL     1     -17.200 -47.588 -53.430  1.00  0.00     0.016 A 
HETATM   28  C15 UNL     1     -16.584 -46.452 -52.990  1.00  0.00     0.050 A 
HETATM   29  C17 UNL     1     -15.919 -45.617 -53.891  1.00  0.00     0.047 A 
BRANCH  28  30
HETATM   30  C16 UNL     1     -16.629 -46.122 -51.539  1.00  0.00     0.417 C 
HETATM   31  F1  UNL     1     -15.380 -46.163 -50.963  1.00  0.00    -0.166 F 
HETATM   32  F2  UNL     1     -17.246 -44.910 -51.407  1.00  0.00    -0.166 F 
HETATM   33  F3  UNL     1     -17.401 -47.119 -50.954  1.00  0.00    -0.166 F 
ENDBRANCH  28  30
ENDBRANCH   4  24
BRANCH   9  34
HETATM   34  O3  UNL     1     -10.613 -43.842 -59.463  1.00  0.00    -0.377 OA
ATOM     35  H3  UNL     1      -9.970 -43.462 -58.875  1.00  0.00     0.212 HD
ENDBRANCH   9  34
TORSDOF 7
ENDMDL
MODEL 3
REMARK VINA RESULT: -8.915746625      1.114      1.493
REMARK  7 active torsions:
REMARK  status: ('A' for Active; 'I' for Inactive)
REMARK    1  A    between atoms: C1_2  and  C2_4 
REMARK    2  A    between atoms: C7_9  and  C8_10 
REMARK    3  A    between atoms: C8_10  and  C9_11 
REMARK    4  A    between atoms: C9_11  and  C10_12 
REMARK    5  A    between atoms: N2_15  and  C11_16 
REMARK    6  A    between atoms: C15_20  and  C16_21 
REMARK    7  A    between atoms: C20_30  and  O3_31 
ROOT
HETATM    1  C10 UNL     1     -15.143 -43.459 -57.785  1.00  0.00     0.054 A 
HETATM    2  N1  UNL     1     -15.877 -44.067 -56.857  1.00  0.00    -0.295 N 
ATOM      3  H1  UNL     1     -16.805 -43.763 -56.564  1.00  0.00     0.187 HD
HETATM    4  N2  UNL     1     -15.230 -45.139 -56.358  1.00  0.00    -0.258 N 
HETATM    5  C18 UNL     1     -14.045 -45.234 -56.972  1.00  0.00     0.063 A 
HETATM    6  C19 UNL     1     -13.989 -44.173 -57.875  1.00  0.00     0.079 A 
HETATM    7  N3  UNL     1     -12.946 -43.848 -58.754  1.00  0.00    -0.361 N 
ATOM      8  H3  UNL     1     -13.100 -42.992 -59.288  1.00  0.00     0.162 HD
HETATM    9  C20 UNL     1     -11.698 -44.504 -59.039  1.00  0.00     0.218 C 
HETATM   10  C21 UNL     1     -11.171 -44.970 -57.671  1.00  0.00     0.054 C 
HETATM   11  C22 UNL     1     -11.808 -46.286 -57.410  1.00  0.00     0.010 C 
HETATM   12  C23 UNL     1     -13.088 -46.288 -56.663  1.00  0.00     0.062 C 
ENDROOT
BRANCH   1  13
HETATM   13  C9  UNL     1     -15.638 -42.257 -58.522  1.00  0.00     0.061 C 
BRANCH  13  14
HETATM   14  C8  UNL     1     -16.656 -42.762 -59.512  1.00  0.00     0.011 C 
BRANCH  14  15
HETATM   15  C7  UNL     1     -17.290 -41.668 -60.341  1.00  0.00     0.000 C 
HETATM   16  C2  UNL     1     -16.290 -40.543 -60.559  1.00  0.00     0.091 C 
HETATM   17  C3  UNL     1     -16.909 -39.205 -60.186  1.00  0.00     0.015 C 
HETATM   18  C4  UNL     1     -18.288 -39.007 -60.716  1.00  0.00     0.001 C 
HETATM   19  C5  UNL     1     -19.200 -40.182 -60.445  1.00  0.00     0.000 C 
HETATM   20  C6  UNL     1     -18.448 -41.136 -59.530  1.00  0.00     0.005 C 
BRANCH  16  21
HETATM   21  C1  UNL     1     -15.754 -40.507 -61.936  1.00  0.00     0.177 C 
HETATM   22  O1  UNL     1     -14.529 -40.470 -62.194  1.00  0.00    -0.648 OA
HETATM   23  O2  UNL     1     -16.598 -40.511 -63.056  1.00  0.00    -0.648 OA
ENDBRANCH  16  21
ENDBRANCH  14  15
ENDBRANCH  13  14
ENDBRANCH   1  13
BRANCH   4  24
HETATM   24  C11 UNL     1     -15.883 -45.912 -55.356  1.00  0.00     0.057 A 
HETATM   25  C12 UNL     1     -16.455 -47.138 -55.741  1.00  0.00     0.031 A 
HETATM   26  C13 UNL     1     -17.058 -47.955 -54.808  1.00  0.00     0.003 A 
HETATM   27  C14 UNL     1     -17.121 -47.606 -53.475  1.00  0.00     0.016 A 
HETATM   28  C15 UNL     1     -16.569 -46.417 -53.091  1.00  0.00     0.050 A 
HETATM   29  C17 UNL     1     -15.958 -45.586 -54.034  1.00  0.00     0.047 A 
BRANCH  28  30
HETATM   30  C16 UNL     1     -16.625 -46.027 -51.655  1.00  0.00     0.417 C 
HETATM   31  F1  UNL     1     -17.189 -44.784 -51.482  1.00  0.00    -0.166 F 
HETATM   32  F2  UNL     1     -17.281 -47.018 -50.981  1.00  0.00    -0.166 F 
HETATM   33  F3  UNL     1     -15.301 -45.957 -51.236  1.00  0.00    -0.166 F 
ENDBRANCH  28  30
ENDBRANCH   4  24
BRANCH   9  34
HETATM   34  O3  UNL     1     -10.781 -43.730 -59.690  1.00  0.00    -0.377 OA
ATOM     35  H3  UNL     1     -10.309 -44.172 -60.385  1.00  0.00     0.212 HD
ENDBRANCH   9  34
TORSDOF 7
ENDMDL
MODEL 4
REMARK VINA RESULT: -8.866246107      3.010      7.167
REMARK  7 active torsions:
REMARK  status: ('A' for Active; 'I' for Inactive)
REMARK    1  A    between atoms: C1_2  and  C2_4 
REMARK    2  A    between atoms: C7_9  and  C8_10 
REMARK    3  A    between atoms: C8_10  and  C9_11 
REMARK    4  A    between atoms: C9_11  and  C10_12 
REMARK    5  A    between atoms: N2_15  and  C11_16 
REMARK    6  A    between atoms: C15_20  and  C16_21 
REMARK    7  A    between atoms: C20_30  and  O3_31 
ROOT
HETATM    1  C10 UNL     1     -12.066 -45.191 -56.866  1.00  0.00     0.054 A 
HETATM    2  N1  UNL     1     -12.886 -45.728 -55.967  1.00  0.00    -0.295 N 
ATOM      3  H1  UNL     1     -12.584 -46.155 -55.091  1.00  0.00     0.187 HD
HETATM    4  N2  UNL     1     -14.170 -45.632 -56.367  1.00  0.00    -0.258 N 
HETATM    5  C18 UNL     1     -14.190 -45.020 -57.556  1.00  0.00     0.063 A 
HETATM    6  C19 UNL     1     -12.861 -44.740 -57.873  1.00  0.00     0.079 A 
HETATM    7  N3  UNL     1     -12.368 -44.101 -59.020  1.00  0.00    -0.361 N 
ATOM      8  H3  UNL     1     -11.350 -44.051 -59.065  1.00  0.00     0.162 HD
HETATM    9  C20 UNL     1     -13.038 -43.504 -60.143  1.00  0.00     0.218 C 
HETATM   10  C21 UNL     1     -14.195 -44.464 -60.473  1.00  0.00     0.054 C 
HETATM   11  C22 UNL     1     -15.321 -44.073 -59.589  1.00  0.00     0.010 C 
HETATM   12  C23 UNL     1     -15.428 -44.757 -58.278  1.00  0.00     0.062 C 
ENDROOT
BRANCH   1  13
HETATM   13  C9  UNL     1     -10.588 -45.140 -56.655  1.00  0.00     0.061 C 
BRANCH  13  14
HETATM   14  C8  UNL     1     -10.103 -46.565 -56.733  1.00  0.00     0.011 C 
BRANCH  14  15
HETATM   15  C7  UNL     1      -8.675 -46.694 -57.210  1.00  0.00     0.000 C 
HETATM   16  C2  UNL     1      -7.953 -45.366 -57.038  1.00  0.00     0.091 C 
HETATM   17  C3  UNL     1      -7.266 -44.965 -58.334  1.00  0.00     0.015 C 
HETATM   18  C4  UNL     1      -6.515 -46.072 -58.990  1.00  0.00     0.001 C 
HETATM   19  C5  UNL     1      -7.323 -47.344 -59.113  1.00  0.00     0.000 C 
HETATM   20  C6  UNL     1      -8.745 -47.019 -58.684  1.00  0.00     0.005 C 
BRANCH  16  21
HETATM   21  C1  UNL     1      -6.991 -45.375 -55.916  1.00  0.00     0.177 C 
HETATM   22  O1  UNL     1      -7.164 -46.039 -54.869  1.00  0.00    -0.648 OA
HETATM   23  O2  UNL     1      -5.805 -44.626 -55.957  1.00  0.00    -0.648 OA
ENDBRANCH  16  21
ENDBRANCH  14  15
ENDBRANCH  13  14
ENDBRANCH   1  13
BRANCH   4  24
HETATM   24  C11 UNL     1     -15.182 -46.151 -55.511  1.00  0.00     0.057 A 
HETATM   25  C12 UNL     1     -16.019 -47.161 -56.020  1.00  0.00     0.031 A 
HETATM   26  C13 UNL     1     -16.985 -47.738 -55.223  1.00  0.00     0.003 A 
HETATM   27  C14 UNL     1     -17.165 -47.354 -53.911  1.00  0.00     0.016 A 
HETATM   28  C15 UNL     1     -16.357 -46.375 -53.407  1.00  0.00     0.050 A 
HETATM   29  C17 UNL     1     -15.378 -45.787 -54.211  1.00  0.00     0.047 A 
BRANCH  28  30
HETATM   30  C16 UNL     1     -16.535 -45.952 -51.991  1.00  0.00     0.417 C 
HETATM   31  F1  UNL     1     -17.114 -44.708 -51.895  1.00  0.00    -0.166 F 
HETATM   32  F2  UNL     1     -17.243 -46.929 -51.351  1.00  0.00    -0.166 F 
HETATM   33  F3  UNL     1     -15.252 -45.866 -51.464  1.00  0.00    -0.166 F 
ENDBRANCH  28  30
ENDBRANCH   4  24
BRANCH   9  34
HETATM   34  O3  UNL     1     -12.245 -43.286 -61.233  1.00  0.00    -0.377 OA
ATOM     35  H3  UNL     1     -12.668 -42.826 -61.948  1.00  0.00     0.212 HD
ENDBRANCH   9  34
TORSDOF 7
ENDMDL
MODEL 5
REMARK VINA RESULT: -8.854005476      4.550      7.086
REMARK  7 active torsions:
REMARK  status: ('A' for Active; 'I' for Inactive)
REMARK    1  A    between atoms: C1_2  and  C2_4 
REMARK    2  A    between atoms: C7_9  and  C8_10 
REMARK    3  A    between atoms: C8_10  and  C9_11 
REMARK    4  A    between atoms: C9_11  and  C10_12 
REMARK    5  A    between atoms: N2_15  and  C11_16 
REMARK    6  A    between atoms: C15_20  and  C16_21 
REMARK    7  A    between atoms: C20_30  and  O3_31 
ROOT
HETATM    1  C10 UNL     1     -12.863 -46.460 -56.612  1.00  0.00     0.054 A 
HETATM    2  N1  UNL     1     -11.693 -45.828 -56.638  1.00  0.00    -0.295 N 
ATOM      3  H1  UNL     1     -11.543 -44.875 -56.307  1.00  0.00     0.187 HD
HETATM    4  N2  UNL     1     -10.732 -46.616 -57.162  1.00  0.00    -0.258 N 
HETATM    5  C18 UNL     1     -11.286 -47.789 -57.486  1.00  0.00     0.063 A 
HETATM    6  C19 UNL     1     -12.633 -47.693 -57.138  1.00  0.00     0.079 A 
HETATM    7  N3  UNL     1     -13.628 -48.670 -57.283  1.00  0.00    -0.361 N 
ATOM      8  H3  UNL     1     -14.561 -48.360 -57.009  1.00  0.00     0.162 HD
HETATM    9  C20 UNL     1     -13.572 -50.030 -57.746  1.00  0.00     0.218 C 
HETATM   10  C21 UNL     1     -12.618 -50.000 -58.953  1.00  0.00     0.054 C 
HETATM   11  C22 UNL     1     -11.247 -50.128 -58.399  1.00  0.00     0.010 C 
HETATM   12  C23 UNL     1     -10.520 -48.875 -58.082  1.00  0.00     0.062 C 
ENDROOT
BRANCH   1  13
HETATM   13  C9  UNL     1     -14.093 -45.822 -56.053  1.00  0.00     0.061 C 
BRANCH  13  14
HETATM   14  C8  UNL     1     -15.079 -45.744 -57.191  1.00  0.00     0.011 C 
BRANCH  14  15
HETATM   15  C7  UNL     1     -14.736 -44.690 -58.218  1.00  0.00     0.000 C 
HETATM   16  C2  UNL     1     -15.625 -43.472 -58.023  1.00  0.00     0.091 C 
HETATM   17  C3  UNL     1     -16.276 -43.075 -59.338  1.00  0.00     0.015 C 
HETATM   18  C4  UNL     1     -15.340 -43.059 -60.497  1.00  0.00     0.001 C 
HETATM   19  C5  UNL     1     -14.504 -44.315 -60.601  1.00  0.00     0.000 C 
HETATM   20  C6  UNL     1     -15.036 -45.297 -59.569  1.00  0.00     0.005 C 
BRANCH  16  21
HETATM   21  C1  UNL     1     -14.909 -42.325 -57.425  1.00  0.00     0.177 C 
HETATM   22  O1  UNL     1     -13.759 -42.414 -56.938  1.00  0.00    -0.648 OA
HETATM   23  O2  UNL     1     -15.484 -41.047 -57.366  1.00  0.00    -0.648 OA
ENDBRANCH  16  21
ENDBRANCH  14  15
ENDBRANCH  13  14
ENDBRANCH   1  13
BRANCH   4  24
HETATM   24  C11 UNL     1      -9.411 -46.093 -57.253  1.00  0.00     0.057 A 
HETATM   25  C12 UNL     1      -8.974 -45.625 -58.506  1.00  0.00     0.031 A 
HETATM   26  C13 UNL     1      -7.723 -45.062 -58.648  1.00  0.00     0.003 A 
HETATM   27  C14 UNL     1      -6.862 -44.936 -57.578  1.00  0.00     0.016 A 
HETATM   28  C15 UNL     1      -7.276 -45.387 -56.358  1.00  0.00     0.050 A 
HETATM   29  C17 UNL     1      -8.542 -45.959 -56.210  1.00  0.00     0.047 A 
BRANCH  28  30
HETATM   30  C16 UNL     1      -6.360 -45.255 -55.191  1.00  0.00     0.417 C 
HETATM   31  F1  UNL     1      -6.200 -43.943 -54.810  1.00  0.00    -0.166 F 
HETATM   32  F2  UNL     1      -6.840 -46.054 -54.193  1.00  0.00    -0.166 F 
HETATM   33  F3  UNL     1      -5.128 -45.725 -55.630  1.00  0.00    -0.166 F 
ENDBRANCH  28  30
ENDBRANCH   4  24
BRANCH   9  34
HETATM   34  O3  UNL     1     -14.780 -50.572 -58.078  1.00  0.00    -0.377 OA
ATOM     35  H3  UNL     1     -14.953 -50.618 -59.011  1.00  0.00     0.212 HD
ENDBRANCH   9  34
TORSDOF 7
ENDMDL
