MODEL 1
REMARK VINA RESULT: -8.323850565      0.000      0.000
REMARK  5 active torsions:
REMARK  status: ('A' for Active; 'I' for Inactive)
REMARK    1  A    between atoms: N1_1  and  C1_4 
REMARK    2  A    between atoms: C7_12  and  C8_13 
REMARK    3  A    between atoms: C8_13  and  C9_14 
REMARK    4  A    between atoms: C15_22  and  C16_23 
REMARK    5  A    between atoms: C18_25  and  C19_26 
ROOT
HETATM    1  C1  UNL     1      -7.735 -45.274 -57.451  1.00  0.00     0.114 A 
HETATM    2  C2  UNL     1      -8.245 -46.055 -56.371  1.00  0.00     0.136 A 
HETATM    3  N2  UNL     1      -9.558 -46.162 -56.364  1.00  0.00    -0.361 N 
ATOM      4  H2  UNL     1      -9.959 -46.718 -55.608  1.00  0.00     0.165 HD
HETATM    5  C3  UNL     1     -10.419 -45.637 -57.219  1.00  0.00     0.060 A 
HETATM    6  C4  UNL     1     -11.809 -45.809 -57.023  1.00  0.00     0.015 A 
HETATM    7  C5  UNL     1     -12.554 -44.613 -56.940  1.00  0.00     0.018 A 
HETATM    8  C6  UNL     1     -13.896 -44.616 -56.670  1.00  0.00     0.026 A 
HETATM    9  C7  UNL     1     -14.483 -45.851 -56.481  1.00  0.00     0.013 A 
HETATM   10  N3  UNL     1     -13.766 -46.947 -56.564  1.00  0.00    -0.361 N 
ATOM     11  H3  UNL     1     -14.248 -47.834 -56.413  1.00  0.00     0.165 HD
HETATM   12  C15 UNL     1     -12.414 -46.998 -56.838  1.00  0.00     0.028 A 
HETATM   13  C24 UNL     1      -9.928 -44.885 -58.260  1.00  0.00     0.120 A 
HETATM   14  N5  UNL     1      -8.529 -44.739 -58.323  1.00  0.00    -0.349 N 
ATOM     15  H5  UNL     1      -8.127 -44.192 -59.084  1.00  0.00     0.167 HD
ENDROOT
BRANCH  12  16
HETATM   16  C16 UNL     1     -11.839 -48.282 -57.130  1.00  0.00     0.068 C 
HETATM   17  C17 UNL     1     -12.518 -49.560 -56.869  1.00  0.00     0.028 C 
HETATM   18  C18 UNL     1     -11.829 -50.715 -57.567  1.00  0.00     0.124 C 
HETATM   19  C20 UNL     1     -11.638 -50.415 -59.056  1.00  0.00     0.199 C 
HETATM   20  C21 UNL     1     -12.992 -50.112 -59.613  1.00  0.00     0.036 C 
HETATM   21  N4  UNL     1     -10.884 -49.201 -59.193  1.00  0.00    -0.065 N 
HETATM   22  C22 UNL     1     -13.161 -48.637 -59.268  1.00  0.00     0.036 C 
HETATM   23  C23 UNL     1     -11.799 -48.242 -58.722  1.00  0.00     0.196 C 
ATOM     24  H42 UNL     1      -9.977 -49.199 -58.728  1.00  0.00     0.278 HD
ATOM     25  H41 UNL     1     -10.513 -49.024 -60.127  1.00  0.00     0.278 HD
BRANCH  18  26
HETATM   26  C19 UNL     1     -10.538 -51.166 -56.950  1.00  0.00     0.393 C 
HETATM   27  F1  UNL     1      -9.932 -50.153 -56.296  1.00  0.00    -0.171 F 
HETATM   28  F2  UNL     1     -10.920 -52.104 -55.959  1.00  0.00    -0.171 F 
HETATM   29  F3  UNL     1      -9.721 -51.899 -57.782  1.00  0.00    -0.171 F 
ENDBRANCH  18  26
ENDBRANCH  12  16
BRANCH   9  30
HETATM   30  C8  UNL     1     -15.978 -45.916 -56.257  1.00  0.00     0.095 C 
BRANCH  30  31
HETATM   31  C9  UNL     1     -16.228 -46.176 -54.820  1.00  0.00    -0.053 A 
HETATM   32  C10 UNL     1     -15.667 -45.363 -53.884  1.00  0.00     0.007 A 
HETATM   33  C11 UNL     1     -15.932 -45.663 -52.545  1.00  0.00     0.001 A 
HETATM   34  C12 UNL     1     -16.707 -46.710 -52.204  1.00  0.00     0.000 A 
HETATM   35  C13 UNL     1     -17.297 -47.559 -53.181  1.00  0.00     0.001 A 
HETATM   36  C14 UNL     1     -17.018 -47.238 -54.477  1.00  0.00     0.007 A 
ENDBRANCH  30  31
ENDBRANCH   9  30
BRANCH   1  37
HETATM   37  N1  UNL     1      -6.456 -45.169 -57.404  1.00  0.00    -0.384 N 
ATOM     38  H12 UNL     1      -5.792 -45.887 -57.114  1.00  0.00     0.157 HD
ATOM     39  H11 UNL     1      -6.138 -44.254 -57.724  1.00  0.00     0.157 HD
ENDBRANCH   1  37
TORSDOF 5
ENDMDL
MODEL 2
REMARK VINA RESULT: -8.126526518      2.857      6.951
REMARK  5 active torsions:
REMARK  status: ('A' for Active; 'I' for Inactive)
REMARK    1  A    between atoms: N1_1  and  C1_4 
REMARK    2  A    between atoms: C7_12  and  C8_13 
REMARK    3  A    between atoms: C8_13  and  C9_14 
REMARK    4  A    between atoms: C15_22  and  C16_23 
REMARK    5  A    between atoms: C18_25  and  C19_26 
ROOT
HETATM    1  C1  UNL     1     -13.431 -51.823 -58.730  1.00  0.00     0.114 A 
HETATM    2  C2  UNL     1     -13.169 -51.287 -57.434  1.00  0.00     0.136 A 
HETATM    3  N2  UNL     1     -12.485 -50.160 -57.452  1.00  0.00    -0.361 N 
ATOM      4  H2  UNL     1     -12.283 -49.743 -56.543  1.00  0.00     0.165 HD
HETATM    5  C3  UNL     1     -12.031 -49.504 -58.507  1.00  0.00     0.060 A 
HETATM    6  C4  UNL     1     -11.260 -48.332 -58.336  1.00  0.00     0.015 A 
HETATM    7  C5  UNL     1      -9.985 -48.359 -58.940  1.00  0.00     0.018 A 
HETATM    8  C6  UNL     1      -9.092 -47.332 -58.792  1.00  0.00     0.026 A 
HETATM    9  C7  UNL     1      -9.505 -46.266 -58.018  1.00  0.00     0.013 A 
HETATM   10  N3  UNL     1     -10.696 -46.266 -57.467  1.00  0.00    -0.361 N 
ATOM     11  H3  UNL     1     -10.951 -45.456 -56.901  1.00  0.00     0.165 HD
HETATM   12  C15 UNL     1     -11.632 -47.273 -57.590  1.00  0.00     0.028 A 
HETATM   13  C24 UNL     1     -12.284 -50.022 -59.755  1.00  0.00     0.120 A 
HETATM   14  N5  UNL     1     -13.016 -51.223 -59.800  1.00  0.00    -0.349 N 
ATOM     15  H5  UNL     1     -13.228 -51.635 -60.708  1.00  0.00     0.167 HD
ENDROOT
BRANCH  12  16
HETATM   16  C16 UNL     1     -12.966 -47.006 -57.126  1.00  0.00     0.068 C 
HETATM   17  C17 UNL     1     -13.326 -45.847 -56.296  1.00  0.00     0.028 C 
HETATM   18  C18 UNL     1     -14.826 -45.644 -56.236  1.00  0.00     0.124 C 
HETATM   19  C20 UNL     1     -15.427 -45.601 -57.644  1.00  0.00     0.199 C 
HETATM   20  C21 UNL     1     -14.713 -44.515 -58.384  1.00  0.00     0.036 C 
HETATM   21  N4  UNL     1     -15.094 -46.818 -58.329  1.00  0.00    -0.065 N 
HETATM   22  C22 UNL     1     -13.456 -45.227 -58.869  1.00  0.00     0.036 C 
HETATM   23  C23 UNL     1     -13.705 -46.680 -58.499  1.00  0.00     0.196 C 
ATOM     24  H42 UNL     1     -15.391 -47.674 -57.860  1.00  0.00     0.278 HD
ATOM     25  H41 UNL     1     -15.621 -46.991 -59.185  1.00  0.00     0.278 HD
BRANCH  18  26
HETATM   26  C19 UNL     1     -15.576 -46.615 -55.372  1.00  0.00     0.393 C 
HETATM   27  F1  UNL     1     -15.460 -46.294 -54.066  1.00  0.00    -0.171 F 
HETATM   28  F2  UNL     1     -16.939 -46.419 -55.708  1.00  0.00    -0.171 F 
HETATM   29  F3  UNL     1     -15.363 -47.943 -55.670  1.00  0.00    -0.171 F 
ENDBRANCH  18  26
ENDBRANCH  12  16
BRANCH   9  30
HETATM   30  C8  UNL     1      -8.588 -45.070 -57.885  1.00  0.00     0.095 C 
BRANCH  30  31
HETATM   31  C9  UNL     1      -7.755 -45.247 -56.673  1.00  0.00    -0.053 A 
HETATM   32  C10 UNL     1      -8.346 -45.602 -55.500  1.00  0.00     0.007 A 
HETATM   33  C11 UNL     1      -7.510 -45.745 -54.389  1.00  0.00     0.001 A 
HETATM   34  C12 UNL     1      -6.182 -45.540 -54.482  1.00  0.00     0.000 A 
HETATM   35  C13 UNL     1      -5.563 -45.171 -55.709  1.00  0.00     0.001 A 
HETATM   36  C14 UNL     1      -6.407 -45.040 -56.772  1.00  0.00     0.007 A 
ENDBRANCH  30  31
ENDBRANCH   9  30
BRANCH   1  37
HETATM   37  N1  UNL     1     -14.072 -52.935 -58.667  1.00  0.00    -0.384 N 
ATOM     38  H12 UNL     1     -14.784 -53.195 -57.984  1.00  0.00     0.157 HD
ATOM     39  H11 UNL     1     -13.807 -53.569 -59.421  1.00  0.00     0.157 HD
ENDBRANCH   1  37
TORSDOF 5
ENDMDL
MODEL 3
REMARK VINA RESULT: -8.064820366      1.035      1.459
REMARK  5 active torsions:
REMARK  status: ('A' for Active; 'I' for Inactive)
REMARK    1  A    between atoms: N1_1  and  C1_4 
REMARK    2  A    between atoms: C7_12  and  C8_13 
REMARK    3  A    between atoms: C8_13  and  C9_14 
REMARK    4  A    between atoms: C15_22  and  C16_23 
REMARK    5  A    between atoms: C18_25  and  C19_26 
ROOT
HETATM    1  C1  UNL     1      -9.230 -44.326 -58.973  1.00  0.00     0.114 A 
HETATM    2  C2  UNL     1      -9.304 -44.987 -57.710  1.00  0.00     0.136 A 
HETATM    3  N2  UNL     1     -10.511 -45.421 -57.406  1.00  0.00    -0.361 N 
ATOM      4  H2  UNL     1     -10.602 -45.903 -56.512  1.00  0.00     0.165 HD
HETATM    5  C3  UNL     1     -11.618 -45.307 -58.120  1.00  0.00     0.060 A 
HETATM    6  C4  UNL     1     -12.846 -45.785 -57.608  1.00  0.00     0.015 A 
HETATM    7  C5  UNL     1     -13.878 -44.825 -57.533  1.00  0.00     0.018 A 
HETATM    8  C6  UNL     1     -15.097 -45.117 -56.983  1.00  0.00     0.026 A 
HETATM    9  C7  UNL     1     -15.264 -46.399 -56.502  1.00  0.00     0.013 A 
HETATM   10  N3  UNL     1     -14.287 -47.272 -56.584  1.00  0.00    -0.361 N 
ATOM     11  H3  UNL     1     -14.461 -48.206 -56.210  1.00  0.00     0.165 HD
HETATM   12  C15 UNL     1     -13.044 -47.030 -57.133  1.00  0.00     0.028 A 
HETATM   13  C24 UNL     1     -11.546 -44.671 -59.337  1.00  0.00     0.120 A 
HETATM   14  N5  UNL     1     -10.280 -44.190 -59.719  1.00  0.00    -0.349 N 
ATOM     15  H5  UNL     1     -10.185 -43.716 -60.618  1.00  0.00     0.167 HD
ENDROOT
BRANCH  12  16
HETATM   16  C16 UNL     1     -12.182 -48.157 -57.359  1.00  0.00     0.068 C 
HETATM   17  C17 UNL     1     -12.461 -49.513 -56.865  1.00  0.00     0.028 C 
HETATM   18  C18 UNL     1     -11.570 -50.546 -57.521  1.00  0.00     0.124 C 
HETATM   19  C20 UNL     1     -11.629 -50.426 -59.047  1.00  0.00     0.199 C 
HETATM   20  C21 UNL     1     -13.067 -50.556 -59.434  1.00  0.00     0.036 C 
HETATM   21  N4  UNL     1     -11.247 -49.095 -59.423  1.00  0.00    -0.065 N 
HETATM   22  C22 UNL     1     -13.585 -49.137 -59.234  1.00  0.00     0.036 C 
HETATM   23  C23 UNL     1     -12.327 -48.338 -58.936  1.00  0.00     0.196 C 
ATOM     24  H42 UNL     1     -10.328 -48.799 -59.096  1.00  0.00     0.278 HD
ATOM     25  H41 UNL     1     -11.040 -48.967 -60.414  1.00  0.00     0.278 HD
BRANCH  18  26
HETATM   26  C19 UNL     1     -10.146 -50.566 -57.049  1.00  0.00     0.393 C 
HETATM   27  F1  UNL     1      -9.830 -49.420 -56.410  1.00  0.00    -0.171 F 
HETATM   28  F2  UNL     1     -10.105 -51.589 -56.068  1.00  0.00    -0.171 F 
HETATM   29  F3  UNL     1      -9.228 -50.987 -57.986  1.00  0.00    -0.171 F 
ENDBRANCH  18  26
ENDBRANCH  12  16
BRANCH   9  30
HETATM   30  C8  UNL     1     -16.617 -46.798 -55.955  1.00  0.00     0.095 C 
BRANCH  30  31
HETATM   31  C9  UNL     1     -16.597 -46.631 -54.483  1.00  0.00    -0.053 A 
HETATM   32  C10 UNL     1     -17.191 -47.567 -53.694  1.00  0.00     0.007 A 
HETATM   33  C11 UNL     1     -17.147 -47.351 -52.314  1.00  0.00     0.001 A 
HETATM   34  C12 UNL     1     -16.543 -46.264 -51.795  1.00  0.00     0.000 A 
HETATM   35  C13 UNL     1     -15.920 -45.286 -52.619  1.00  0.00     0.001 A 
HETATM   36  C14 UNL     1     -15.981 -45.528 -53.960  1.00  0.00     0.007 A 
ENDBRANCH  30  31
ENDBRANCH   9  30
BRANCH   1  37
HETATM   37  N1  UNL     1      -8.046 -43.892 -59.217  1.00  0.00    -0.384 N 
ATOM     38  H12 UNL     1      -7.575 -43.108 -58.767  1.00  0.00     0.157 HD
ATOM     39  H11 UNL     1      -7.577 -44.451 -59.931  1.00  0.00     0.157 HD
ENDBRANCH   1  37
TORSDOF 5
ENDMDL
MODEL 4
REMARK VINA RESULT: -8.028102343      2.826      6.366
REMARK  5 active torsions:
REMARK  status: ('A' for Active; 'I' for Inactive)
REMARK    1  A    between atoms: N1_1  and  C1_4 
REMARK    2  A    between atoms: C7_12  and  C8_13 
REMARK    3  A    between atoms: C8_13  and  C9_14 
REMARK    4  A    between atoms: C15_22  and  C16_23 
REMARK    5  A    between atoms: C18_25  and  C19_26 
ROOT
HETATM    1  C1  UNL     1     -14.584 -44.283 -56.938  1.00  0.00     0.114 A 
HETATM    2  C2  UNL     1     -13.983 -45.069 -55.909  1.00  0.00     0.136 A 
HETATM    3  N2  UNL     1     -13.389 -46.160 -56.349  1.00  0.00    -0.361 N 
ATOM      4  H2  UNL     1     -12.944 -46.745 -55.642  1.00  0.00     0.165 HD
HETATM    5  C3  UNL     1     -13.300 -46.587 -57.597  1.00  0.00     0.060 A 
HETATM    6  C4  UNL     1     -12.670 -47.820 -57.882  1.00  0.00     0.015 A 
HETATM    7  C5  UNL     1     -13.467 -48.753 -58.580  1.00  0.00     0.018 A 
HETATM    8  C6  UNL     1     -13.025 -50.019 -58.855  1.00  0.00     0.026 A 
HETATM    9  C7  UNL     1     -11.757 -50.337 -58.411  1.00  0.00     0.013 A 
HETATM   10  N3  UNL     1     -11.037 -49.451 -57.764  1.00  0.00    -0.361 N 
ATOM     11  H3  UNL     1     -10.108 -49.737 -57.454  1.00  0.00     0.165 HD
HETATM   12  C15 UNL     1     -11.435 -48.162 -57.467  1.00  0.00     0.028 A 
HETATM   13  C24 UNL     1     -13.878 -45.830 -58.589  1.00  0.00     0.120 A 
HETATM   14  N5  UNL     1     -14.524 -44.648 -58.179  1.00  0.00    -0.349 N 
ATOM     15  H5  UNL     1     -14.960 -44.057 -58.886  1.00  0.00     0.167 HD
ENDROOT
BRANCH  12  16
HETATM   16  C16 UNL     1     -10.439 -47.253 -56.970  1.00  0.00     0.068 C 
HETATM   17  C17 UNL     1      -9.055 -47.642 -56.667  1.00  0.00     0.028 C 
HETATM   18  C18 UNL     1      -8.159 -46.435 -56.479  1.00  0.00     0.124 C 
HETATM   19  C20 UNL     1      -8.281 -45.477 -57.668  1.00  0.00     0.199 C 
HETATM   20  C21 UNL     1      -7.956 -46.268 -58.894  1.00  0.00     0.036 C 
HETATM   21  N4  UNL     1      -9.655 -45.088 -57.813  1.00  0.00    -0.065 N 
HETATM   22  C22 UNL     1      -9.288 -46.937 -59.210  1.00  0.00     0.036 C 
HETATM   23  C23 UNL     1     -10.251 -46.293 -58.227  1.00  0.00     0.196 C 
ATOM     24  H42 UNL     1     -10.073 -44.659 -56.988  1.00  0.00     0.278 HD
ATOM     25  H41 UNL     1      -9.817 -44.291 -58.427  1.00  0.00     0.278 HD
BRANCH  18  26
HETATM   26  C19 UNL     1      -8.334 -45.696 -55.186  1.00  0.00     0.393 C 
HETATM   27  F1  UNL     1      -7.871 -46.420 -54.145  1.00  0.00    -0.171 F 
HETATM   28  F2  UNL     1      -7.479 -44.571 -55.295  1.00  0.00    -0.171 F 
HETATM   29  F3  UNL     1      -9.578 -45.133 -55.001  1.00  0.00    -0.171 F 
ENDBRANCH  18  26
ENDBRANCH  12  16
BRANCH   9  30
HETATM   30  C8  UNL     1     -11.188 -51.696 -58.756  1.00  0.00     0.095 C 
BRANCH  30  31
HETATM   31  C9  UNL     1     -10.808 -52.380 -57.497  1.00  0.00    -0.053 A 
HETATM   32  C10 UNL     1      -9.493 -52.597 -57.224  1.00  0.00     0.007 A 
HETATM   33  C11 UNL     1      -9.196 -53.253 -56.026  1.00  0.00     0.001 A 
HETATM   34  C12 UNL     1     -10.171 -53.651 -55.186  1.00  0.00     0.000 A 
HETATM   35  C13 UNL     1     -11.546 -53.422 -55.470  1.00  0.00     0.001 A 
HETATM   36  C14 UNL     1     -11.800 -52.780 -56.646  1.00  0.00     0.007 A 
ENDBRANCH  30  31
ENDBRANCH   9  30
BRANCH   1  37
HETATM   37  N1  UNL     1     -15.177 -43.247 -56.465  1.00  0.00    -0.384 N 
ATOM     38  H12 UNL     1     -15.609 -43.154 -55.545  1.00  0.00     0.157 HD
ATOM     39  H11 UNL     1     -15.158 -42.466 -57.121  1.00  0.00     0.157 HD
ENDBRANCH   1  37
TORSDOF 5
ENDMDL
MODEL 5
REMARK VINA RESULT: -7.997646370      2.954      6.842
REMARK  5 active torsions:
REMARK  status: ('A' for Active; 'I' for Inactive)
REMARK    1  A    between atoms: N1_1  and  C1_4 
REMARK    2  A    between atoms: C7_12  and  C8_13 
REMARK    3  A    between atoms: C8_13  and  C9_14 
REMARK    4  A    between atoms: C15_22  and  C16_23 
REMARK    5  A    between atoms: C18_25  and  C19_26 
ROOT
HETATM    1  C1  UNL     1     -12.338 -52.744 -57.959  1.00  0.00     0.114 A 
HETATM    2  C2  UNL     1     -12.439 -51.924 -56.796  1.00  0.00     0.136 A 
HETATM    3  N2  UNL     1     -11.887 -50.735 -56.933  1.00  0.00    -0.361 N 
ATOM      4  H2  UNL     1     -11.944 -50.117 -56.123  1.00  0.00     0.165 HD
HETATM    5  C3  UNL     1     -11.269 -50.245 -57.995  1.00  0.00     0.060 A 
HETATM    6  C4  UNL     1     -10.681 -48.960 -57.945  1.00  0.00     0.015 A 
HETATM    7  C5  UNL     1      -9.305 -48.919 -58.254  1.00  0.00     0.018 A 
HETATM    8  C6  UNL     1      -8.580 -47.761 -58.168  1.00  0.00     0.026 A 
HETATM    9  C7  UNL     1      -9.265 -46.635 -57.760  1.00  0.00     0.013 A 
HETATM   10  N3  UNL     1     -10.546 -46.702 -57.479  1.00  0.00    -0.361 N 
ATOM     11  H3  UNL     1     -11.005 -45.841 -57.179  1.00  0.00     0.165 HD
HETATM   12  C15 UNL     1     -11.322 -47.841 -57.555  1.00  0.00     0.028 A 
HETATM   13  C24 UNL     1     -11.173 -51.036 -59.116  1.00  0.00     0.120 A 
HETATM   14  N5  UNL     1     -11.750 -52.317 -59.031  1.00  0.00    -0.349 N 
ATOM     15  H5  UNL     1     -11.703 -52.931 -59.843  1.00  0.00     0.167 HD
ENDROOT
BRANCH  12  16
HETATM   16  C16 UNL     1     -12.746 -47.688 -57.446  1.00  0.00     0.068 C 
HETATM   17  C17 UNL     1     -13.405 -46.448 -57.010  1.00  0.00     0.028 C 
HETATM   18  C18 UNL     1     -14.890 -46.468 -57.303  1.00  0.00     0.124 C 
HETATM   19  C20 UNL     1     -15.151 -46.816 -58.770  1.00  0.00     0.199 C 
HETATM   20  C21 UNL     1     -14.401 -45.817 -59.591  1.00  0.00     0.036 C 
HETATM   21  N4  UNL     1     -14.547 -48.085 -59.062  1.00  0.00    -0.065 N 
HETATM   22  C22 UNL     1     -13.000 -46.415 -59.628  1.00  0.00     0.036 C 
HETATM   23  C23 UNL     1     -13.178 -47.777 -58.977  1.00  0.00     0.196 C 
ATOM     24  H42 UNL     1     -14.855 -48.857 -58.471  1.00  0.00     0.278 HD
ATOM     25  H41 UNL     1     -14.842 -48.514 -59.939  1.00  0.00     0.278 HD
BRANCH  18  26
HETATM   26  C19 UNL     1     -15.716 -47.336 -56.400  1.00  0.00     0.393 C 
HETATM   27  F1  UNL     1     -14.940 -47.986 -55.507  1.00  0.00    -0.171 F 
HETATM   28  F2  UNL     1     -16.506 -46.429 -55.650  1.00  0.00    -0.171 F 
HETATM   29  F3  UNL     1     -16.653 -48.117 -57.041  1.00  0.00    -0.171 F 
ENDBRANCH  18  26
ENDBRANCH  12  16
BRANCH   9  30
HETATM   30  C8  UNL     1      -8.530 -45.313 -57.723  1.00  0.00     0.095 C 
BRANCH  30  31
HETATM   31  C9  UNL     1      -7.602 -45.323 -56.568  1.00  0.00    -0.053 A 
HETATM   32  C10 UNL     1      -6.297 -44.988 -56.754  1.00  0.00     0.007 A 
HETATM   33  C11 UNL     1      -5.468 -45.024 -55.629  1.00  0.00     0.001 A 
HETATM   34  C12 UNL     1      -5.947 -45.374 -54.419  1.00  0.00     0.000 A 
HETATM   35  C13 UNL     1      -7.312 -45.722 -54.223  1.00  0.00     0.001 A 
HETATM   36  C14 UNL     1      -8.092 -45.677 -55.341  1.00  0.00     0.007 A 
ENDBRANCH  30  31
ENDBRANCH   9  30
BRANCH   1  37
HETATM   37  N1  UNL     1     -12.860 -53.903 -57.774  1.00  0.00    -0.384 N 
ATOM     38  H12 UNL     1     -13.811 -54.105 -57.466  1.00  0.00     0.157 HD
ATOM     39  H11 UNL     1     -12.207 -54.654 -57.998  1.00  0.00     0.157 HD
ENDBRANCH   1  37
TORSDOF 5
ENDMDL
