MODEL 1
REMARK VINA RESULT: -7.987383604      0.000      0.000
REMARK  7 active torsions:
REMARK  status: ('A' for Active; 'I' for Inactive)
REMARK    1  A    between atoms: C3_5  and  N2_6 
REMARK    2  A    between atoms: C5_12  and  C6_13 
REMARK    3  A    between atoms: C6_13  and  N4_14 
REMARK    4  A    between atoms: N4_14  and  C7_16 
REMARK    5  A    between atoms: C8_19  and  C9_20 
REMARK    6  A    between atoms: C9_20  and  N6_21 
REMARK    7  A    between atoms: C15_27  and  N7_28 
ROOT
HETATM    1  C7  UNL     1      27.570  27.091  -2.693  1.00  0.00     0.680 A 
HETATM    2  N5  UNL     1      28.011  28.285  -3.148  1.00  0.00    -0.194 N 
ATOM      3  H5  UNL     1      29.004  28.401  -3.352  1.00  0.00     0.184 HD
HETATM    4  C8  UNL     1      27.180  29.326  -3.341  1.00  0.00     0.058 A 
HETATM    5  C14 UNL     1      25.848  29.131  -3.055  1.00  0.00     0.076 A 
HETATM    6  C15 UNL     1      25.380  27.915  -2.590  1.00  0.00     0.116 A 
HETATM    7  N8  UNL     1      26.269  26.902  -2.415  1.00  0.00    -0.177 N 
ATOM      8  H8  UNL     1      25.947  25.996  -2.073  1.00  0.00     0.185 HD
ENDROOT
BRANCH   1   9
HETATM    9  N4  UNL     1      28.439  26.152  -2.539  1.00  0.00    -0.222 N 
ATOM     10  H4  UNL     1      28.398  25.341  -3.155  1.00  0.00     0.178 HD
BRANCH   9  11
HETATM   11  C6  UNL     1      29.469  26.205  -1.524  1.00  0.00     0.180 C 
BRANCH  11  12
HETATM   12  C5  UNL     1      29.502  24.932  -0.775  1.00  0.00    -0.001 A 
HETATM   13  C2  UNL     1      30.260  24.769   0.371  1.00  0.00     0.032 A 
HETATM   14  C1  UNL     1      31.064  25.910   0.863  1.00  0.00     0.069 C 
HETATM   15  N1  UNL     1      30.217  23.568   0.976  1.00  0.00    -0.196 N 
HETATM   16  C3  UNL     1      29.488  22.537   0.528  1.00  0.00     0.675 A 
ATOM     17  H1  UNL     1      30.771  23.435   1.822  1.00  0.00     0.184 HD
HETATM   18  N3  UNL     1      28.746  22.683  -0.587  1.00  0.00    -0.202 N 
HETATM   19  C4  UNL     1      28.757  23.860  -1.221  1.00  0.00     0.116 A 
ATOM     20  H3  UNL     1      28.186  21.908  -0.942  1.00  0.00     0.183 HD
BRANCH  16  21
HETATM   21  N2  UNL     1      29.451  21.383   1.115  1.00  0.00    -0.234 N 
ATOM     22  H22 UNL     1      28.997  21.340   2.027  1.00  0.00     0.174 HD
ATOM     23  H21 UNL     1      29.850  20.537   0.710  1.00  0.00     0.174 HD
ENDBRANCH  16  21
ENDBRANCH  11  12
ENDBRANCH   9  11
ENDBRANCH   1   9
BRANCH   4  24
HETATM   24  C9  UNL     1      27.705  30.598  -3.835  1.00  0.00     0.330 C 
BRANCH  24  25
HETATM   25  N6  UNL     1      28.760  31.170  -3.065  1.00  0.00     0.094 N 
HETATM   26  C10 UNL     1      29.444  30.289  -2.180  1.00  0.00     0.273 C 
HETATM   27  C11 UNL     1      29.745  31.108  -0.914  1.00  0.00     0.032 C 
HETATM   28  C12 UNL     1      28.438  31.911  -0.835  1.00  0.00     0.032 C 
HETATM   29  C13 UNL     1      28.249  32.274  -2.293  1.00  0.00     0.273 C 
ENDBRANCH  24  25
ENDBRANCH   4  24
BRANCH   6  30
HETATM   30  N7  UNL     1      24.134  27.719  -2.319  1.00  0.00    -0.385 N 
ATOM     31  H72 UNL     1      23.676  28.301  -1.617  1.00  0.00     0.157 HD
ATOM     32  H71 UNL     1      23.585  26.997  -2.786  1.00  0.00     0.157 HD
ENDBRANCH   6  30
TORSDOF 7
ENDMDL
MODEL 2
REMARK VINA RESULT: -7.376994579      0.901      1.730
REMARK  7 active torsions:
REMARK  status: ('A' for Active; 'I' for Inactive)
REMARK    1  A    between atoms: C3_5  and  N2_6 
REMARK    2  A    between atoms: C5_12  and  C6_13 
REMARK    3  A    between atoms: C6_13  and  N4_14 
REMARK    4  A    between atoms: N4_14  and  C7_16 
REMARK    5  A    between atoms: C8_19  and  C9_20 
REMARK    6  A    between atoms: C9_20  and  N6_21 
REMARK    7  A    between atoms: C15_27  and  N7_28 
ROOT
HETATM    1  C7  UNL     1      27.910  27.040  -2.700  1.00  0.00     0.680 A 
HETATM    2  N5  UNL     1      28.172  28.291  -3.143  1.00  0.00    -0.194 N 
ATOM      3  H5  UNL     1      29.135  28.548  -3.358  1.00  0.00     0.184 HD
HETATM    4  C8  UNL     1      27.200  29.206  -3.308  1.00  0.00     0.058 A 
HETATM    5  C14 UNL     1      25.913  28.821  -3.006  1.00  0.00     0.076 A 
HETATM    6  C15 UNL     1      25.629  27.546  -2.553  1.00  0.00     0.116 A 
HETATM    7  N8  UNL     1      26.654  26.666  -2.406  1.00  0.00    -0.177 N 
ATOM      8  H8  UNL     1      26.469  25.720  -2.074  1.00  0.00     0.185 HD
ENDROOT
BRANCH   1   9
HETATM    9  N4  UNL     1      28.905  26.232  -2.572  1.00  0.00    -0.222 N 
ATOM     10  H4  UNL     1      29.846  26.578  -2.759  1.00  0.00     0.178 HD
BRANCH   9  11
HETATM   11  C6  UNL     1      28.739  24.850  -2.173  1.00  0.00     0.180 C 
BRANCH  11  12
HETATM   12  C5  UNL     1      29.399  24.620  -0.871  1.00  0.00    -0.001 A 
HETATM   13  C2  UNL     1      29.230  23.448  -0.155  1.00  0.00     0.032 A 
HETATM   14  C1  UNL     1      28.358  22.390  -0.712  1.00  0.00     0.069 C 
HETATM   15  N1  UNL     1      29.877  23.342   1.020  1.00  0.00    -0.196 N 
HETATM   16  C3  UNL     1      30.665  24.302   1.521  1.00  0.00     0.675 A 
ATOM     17  H1  UNL     1      29.761  22.484   1.557  1.00  0.00     0.184 HD
HETATM   18  N3  UNL     1      30.837  25.448   0.834  1.00  0.00    -0.202 N 
HETATM   19  C4  UNL     1      30.214  25.597  -0.339  1.00  0.00     0.116 A 
ATOM     20  H3  UNL     1      31.434  26.189   1.202  1.00  0.00     0.183 HD
BRANCH  16  21
HETATM   21  N2  UNL     1      31.286  24.194   2.653  1.00  0.00    -0.234 N 
ATOM     22  H22 UNL     1      31.109  23.352   3.202  1.00  0.00     0.174 HD
ATOM     23  H21 UNL     1      31.929  24.900   3.009  1.00  0.00     0.174 HD
ENDBRANCH  16  21
ENDBRANCH  11  12
ENDBRANCH   9  11
ENDBRANCH   1   9
BRANCH   4  24
HETATM   24  C9  UNL     1      27.532  30.546  -3.790  1.00  0.00     0.330 C 
BRANCH  24  25
HETATM   25  N6  UNL     1      28.609  31.194  -3.116  1.00  0.00     0.094 N 
HETATM   26  C10 UNL     1      29.398  30.377  -2.257  1.00  0.00     0.273 C 
HETATM   27  C11 UNL     1      29.746  31.251  -1.042  1.00  0.00     0.032 C 
HETATM   28  C12 UNL     1      28.409  31.992  -0.891  1.00  0.00     0.032 C 
HETATM   29  C13 UNL     1      28.098  32.296  -2.342  1.00  0.00     0.273 C 
ENDBRANCH  24  25
ENDBRANCH   4  24
BRANCH   6  30
HETATM   30  N7  UNL     1      24.427  27.172  -2.267  1.00  0.00    -0.385 N 
ATOM     31  H72 UNL     1      24.277  26.276  -1.804  1.00  0.00     0.157 HD
ATOM     32  H71 UNL     1      23.614  27.748  -2.489  1.00  0.00     0.157 HD
ENDBRANCH   6  30
TORSDOF 7
ENDMDL
MODEL 3
REMARK VINA RESULT: -7.251163566      1.780      2.847
REMARK  7 active torsions:
REMARK  status: ('A' for Active; 'I' for Inactive)
REMARK    1  A    between atoms: C3_5  and  N2_6 
REMARK    2  A    between atoms: C5_12  and  C6_13 
REMARK    3  A    between atoms: C6_13  and  N4_14 
REMARK    4  A    between atoms: N4_14  and  C7_16 
REMARK    5  A    between atoms: C8_19  and  C9_20 
REMARK    6  A    between atoms: C9_20  and  N6_21 
REMARK    7  A    between atoms: C15_27  and  N7_28 
ROOT
HETATM    1  C7  UNL     1      29.807  26.243  -1.264  1.00  0.00     0.680 A 
HETATM    2  N5  UNL     1      29.064  27.355  -1.458  1.00  0.00    -0.194 N 
ATOM      3  H5  UNL     1      29.008  28.049  -0.712  1.00  0.00     0.184 HD
HETATM    4  C8  UNL     1      28.397  27.576  -2.605  1.00  0.00     0.058 A 
HETATM    5  C14 UNL     1      28.497  26.618  -3.588  1.00  0.00     0.076 A 
HETATM    6  C15 UNL     1      29.254  25.474  -3.406  1.00  0.00     0.116 A 
HETATM    7  N8  UNL     1      29.905  25.308  -2.225  1.00  0.00    -0.177 N 
ATOM      8  H8  UNL     1      30.469  24.473  -2.067  1.00  0.00     0.185 HD
ENDROOT
BRANCH   1   9
HETATM    9  N4  UNL     1      30.411  26.117  -0.133  1.00  0.00    -0.222 N 
ATOM     10  H4  UNL     1      30.448  26.919   0.495  1.00  0.00     0.178 HD
BRANCH   9  11
HETATM   11  C6  UNL     1      31.040  24.880   0.280  1.00  0.00     0.180 C 
BRANCH  11  12
HETATM   12  C5  UNL     1      30.025  23.962   0.835  1.00  0.00    -0.001 A 
HETATM   13  C2  UNL     1      29.795  23.849   2.195  1.00  0.00     0.032 A 
HETATM   14  C1  UNL     1      30.593  24.679   3.125  1.00  0.00     0.069 C 
HETATM   15  N1  UNL     1      28.847  22.982   2.593  1.00  0.00    -0.196 N 
HETATM   16  C3  UNL     1      28.126  22.232   1.748  1.00  0.00     0.675 A 
ATOM     17  H1  UNL     1      28.667  22.890   3.592  1.00  0.00     0.184 HD
HETATM   18  N3  UNL     1      28.341  22.332   0.423  1.00  0.00    -0.202 N 
HETATM   19  C4  UNL     1      29.273  23.182  -0.019  1.00  0.00     0.116 A 
ATOM     20  H3  UNL     1      27.801  21.767  -0.234  1.00  0.00     0.183 HD
BRANCH  16  21
HETATM   21  N2  UNL     1      27.215  21.399   2.138  1.00  0.00    -0.234 N 
ATOM     22  H22 UNL     1      27.200  21.155   3.129  1.00  0.00     0.174 HD
ATOM     23  H21 UNL     1      26.527  20.986   1.509  1.00  0.00     0.174 HD
ENDBRANCH  16  21
ENDBRANCH  11  12
ENDBRANCH   9  11
ENDBRANCH   1   9
BRANCH   4  24
HETATM   24  C9  UNL     1      27.606  28.795  -2.768  1.00  0.00     0.330 C 
BRANCH  24  25
HETATM   25  N6  UNL     1      28.356  29.996  -2.940  1.00  0.00     0.094 N 
HETATM   26  C10 UNL     1      28.443  30.854  -1.807  1.00  0.00     0.273 C 
HETATM   27  C11 UNL     1      28.368  32.288  -2.355  1.00  0.00     0.032 C 
HETATM   28  C12 UNL     1      27.324  32.067  -3.460  1.00  0.00     0.032 C 
HETATM   29  C13 UNL     1      27.808  30.753  -4.036  1.00  0.00     0.273 C 
ENDBRANCH  24  25
ENDBRANCH   4  24
BRANCH   6  30
HETATM   30  N7  UNL     1      29.357  24.568  -4.319  1.00  0.00    -0.385 N 
ATOM     31  H72 UNL     1      29.705  24.825  -5.243  1.00  0.00     0.157 HD
ATOM     32  H71 UNL     1      29.101  23.595  -4.149  1.00  0.00     0.157 HD
ENDBRANCH   6  30
TORSDOF 7
ENDMDL
MODEL 4
REMARK VINA RESULT: -7.226165358      1.502      3.943
REMARK  7 active torsions:
REMARK  status: ('A' for Active; 'I' for Inactive)
REMARK    1  A    between atoms: C3_5  and  N2_6 
REMARK    2  A    between atoms: C5_12  and  C6_13 
REMARK    3  A    between atoms: C6_13  and  N4_14 
REMARK    4  A    between atoms: N4_14  and  C7_16 
REMARK    5  A    between atoms: C8_19  and  C9_20 
REMARK    6  A    between atoms: C9_20  and  N6_21 
REMARK    7  A    between atoms: C15_27  and  N7_28 
ROOT
HETATM    1  C7  UNL     1      28.160  27.402  -2.708  1.00  0.00     0.680 A 
HETATM    2  N5  UNL     1      26.809  27.345  -2.697  1.00  0.00    -0.194 N 
ATOM      3  H5  UNL     1      26.353  26.434  -2.654  1.00  0.00     0.184 HD
HETATM    4  C8  UNL     1      26.049  28.454  -2.741  1.00  0.00     0.058 A 
HETATM    5  C14 UNL     1      26.701  29.664  -2.799  1.00  0.00     0.076 A 
HETATM    6  C15 UNL     1      28.083  29.739  -2.810  1.00  0.00     0.116 A 
HETATM    7  N8  UNL     1      28.796  28.584  -2.764  1.00  0.00    -0.177 N 
ATOM      8  H8  UNL     1      29.815  28.614  -2.771  1.00  0.00     0.185 HD
ENDROOT
BRANCH   1   9
HETATM    9  N4  UNL     1      28.805  26.287  -2.664  1.00  0.00    -0.222 N 
ATOM     10  H4  UNL     1      28.550  25.547  -3.317  1.00  0.00     0.178 HD
BRANCH   9  11
HETATM   11  C6  UNL     1      29.877  26.046  -1.723  1.00  0.00     0.180 C 
BRANCH  11  12
HETATM   12  C5  UNL     1      29.570  24.854  -0.905  1.00  0.00    -0.001 A 
HETATM   13  C2  UNL     1      30.115  24.661   0.352  1.00  0.00     0.032 A 
HETATM   14  C1  UNL     1      31.037  25.683   0.896  1.00  0.00     0.069 C 
HETATM   15  N1  UNL     1      29.767  23.541   1.011  1.00  0.00    -0.196 N 
HETATM   16  C3  UNL     1      28.932  22.617   0.516  1.00  0.00     0.675 A 
ATOM     17  H1  UNL     1      30.162  23.386   1.939  1.00  0.00     0.184 HD
HETATM   18  N3  UNL     1      28.396  22.794  -0.707  1.00  0.00    -0.202 N 
HETATM   19  C4  UNL     1      28.712  23.893  -1.398  1.00  0.00     0.116 A 
ATOM     20  H3  UNL     1      27.759  22.100  -1.098  1.00  0.00     0.183 HD
BRANCH  16  21
HETATM   21  N2  UNL     1      28.602  21.541   1.156  1.00  0.00    -0.234 N 
ATOM     22  H22 UNL     1      28.795  21.518   2.158  1.00  0.00     0.174 HD
ATOM     23  H21 UNL     1      28.167  20.735   0.709  1.00  0.00     0.174 HD
ENDBRANCH  16  21
ENDBRANCH  11  12
ENDBRANCH   9  11
ENDBRANCH   1   9
BRANCH   4  24
HETATM   24  C9  UNL     1      24.591  28.342  -2.726  1.00  0.00     0.330 C 
BRANCH  24  25
HETATM   25  N6  UNL     1      24.067  27.222  -2.014  1.00  0.00     0.094 N 
HETATM   26  C10 UNL     1      22.918  26.598  -2.578  1.00  0.00     0.273 C 
HETATM   27  C11 UNL     1      22.029  26.196  -1.391  1.00  0.00     0.032 C 
HETATM   28  C12 UNL     1      22.256  27.424  -0.497  1.00  0.00     0.032 C 
HETATM   29  C13 UNL     1      23.749  27.615  -0.666  1.00  0.00     0.273 C 
ENDBRANCH  24  25
ENDBRANCH   4  24
BRANCH   6  30
HETATM   30  N7  UNL     1      28.707  30.868  -2.864  1.00  0.00    -0.385 N 
ATOM     31  H72 UNL     1      28.580  31.547  -2.113  1.00  0.00     0.157 HD
ATOM     32  H71 UNL     1      29.328  31.107  -3.637  1.00  0.00     0.157 HD
ENDBRANCH   6  30
TORSDOF 7
ENDMDL
MODEL 5
REMARK VINA RESULT: -6.831190304      1.811      6.969
REMARK  7 active torsions:
REMARK  status: ('A' for Active; 'I' for Inactive)
REMARK    1  A    between atoms: C3_5  and  N2_6 
REMARK    2  A    between atoms: C5_12  and  C6_13 
REMARK    3  A    between atoms: C6_13  and  N4_14 
REMARK    4  A    between atoms: N4_14  and  C7_16 
REMARK    5  A    between atoms: C8_19  and  C9_20 
REMARK    6  A    between atoms: C9_20  and  N6_21 
REMARK    7  A    between atoms: C15_27  and  N7_28 
ROOT
HETATM    1  C7  UNL     1      29.604  26.782  -2.195  1.00  0.00     0.680 A 
HETATM    2  N5  UNL     1      29.309  26.002  -1.130  1.00  0.00    -0.194 N 
ATOM      3  H5  UNL     1      29.296  26.420  -0.200  1.00  0.00     0.184 HD
HETATM    4  C8  UNL     1      29.033  24.692  -1.261  1.00  0.00     0.058 A 
HETATM    5  C14 UNL     1      29.060  24.166  -2.532  1.00  0.00     0.076 A 
HETATM    6  C15 UNL     1      29.360  24.950  -3.632  1.00  0.00     0.116 A 
HETATM    7  N8  UNL     1      29.630  26.266  -3.435  1.00  0.00    -0.177 N 
ATOM      8  H8  UNL     1      29.853  26.865  -4.231  1.00  0.00     0.185 HD
ENDROOT
BRANCH   1   9
HETATM    9  N4  UNL     1      29.856  28.026  -1.973  1.00  0.00    -0.222 N 
ATOM     10  H4  UNL     1      30.813  28.360  -2.084  1.00  0.00     0.178 HD
BRANCH   9  11
HETATM   11  C6  UNL     1      28.833  28.968  -1.571  1.00  0.00     0.180 C 
BRANCH  11  12
HETATM   12  C5  UNL     1      28.066  29.411  -2.753  1.00  0.00    -0.001 A 
HETATM   13  C2  UNL     1      28.021  30.736  -3.150  1.00  0.00     0.032 A 
HETATM   14  C1  UNL     1      28.768  31.743  -2.362  1.00  0.00     0.069 C 
HETATM   15  N1  UNL     1      27.292  31.031  -4.241  1.00  0.00    -0.196 N 
HETATM   16  C3  UNL     1      26.617  30.118  -4.951  1.00  0.00     0.675 A 
ATOM     17  H1  UNL     1      27.251  32.004  -4.544  1.00  0.00     0.184 HD
HETATM   18  N3  UNL     1      26.652  28.825  -4.575  1.00  0.00    -0.202 N 
HETATM   19  C4  UNL     1      27.364  28.485  -3.496  1.00  0.00     0.116 A 
ATOM     20  H3  UNL     1      26.143  28.117  -5.104  1.00  0.00     0.183 HD
BRANCH  16  21
HETATM   21  N2  UNL     1      25.917  30.409  -6.001  1.00  0.00    -0.234 N 
ATOM     22  H22 UNL     1      26.428  30.612  -6.860  1.00  0.00     0.174 HD
ATOM     23  H21 UNL     1      24.897  30.441  -6.003  1.00  0.00     0.174 HD
ENDBRANCH  16  21
ENDBRANCH  11  12
ENDBRANCH   9  11
ENDBRANCH   1   9
BRANCH   4  24
HETATM   24  C9  UNL     1      28.719  23.890  -0.080  1.00  0.00     0.330 C 
BRANCH  24  25
HETATM   25  N6  UNL     1      29.815  23.625   0.794  1.00  0.00     0.094 N 
HETATM   26  C10 UNL     1      29.500  23.475   2.174  1.00  0.00     0.273 C 
HETATM   27  C11 UNL     1      30.651  24.138   2.946  1.00  0.00     0.032 C 
HETATM   28  C12 UNL     1      30.895  25.342   2.023  1.00  0.00     0.032 C 
HETATM   29  C13 UNL     1      30.795  24.673   0.668  1.00  0.00     0.273 C 
ENDBRANCH  24  25
ENDBRANCH   4  24
BRANCH   6  30
HETATM   30  N7  UNL     1      29.389  24.468  -4.829  1.00  0.00    -0.385 N 
ATOM     31  H72 UNL     1      29.715  23.513  -4.978  1.00  0.00     0.157 HD
ATOM     32  H71 UNL     1      29.094  25.013  -5.639  1.00  0.00     0.157 HD
ENDBRANCH   6  30
TORSDOF 7
ENDMDL
