MODEL 1
REMARK VINA RESULT: -5.903164001      0.000      0.000
REMARK  8 active torsions:
REMARK  status: ('A' for Active; 'I' for Inactive)
REMARK    1  A    between atoms: C3_3  and  C4_4 
REMARK    2  A    between atoms: C6_9  and  N3_10 
REMARK    3  A    between atoms: N3_10  and  C7_11 
REMARK    4  A    between atoms: C11_17  and  N5_18 
REMARK    5  A    between atoms: N5_18  and  C12_20 
REMARK    6  A    between atoms: C12_20  and  C13_21 
REMARK    7  A    between atoms: C13_21  and  C14_22 
REMARK    8  A    between atoms: C16_28  and  N8_29 
ROOT
HETATM    1  C1  UNL     1      28.073  20.860   2.144  1.00  0.00     0.012 C 
HETATM    2  C2  UNL     1      28.993  21.355   1.544  1.00  0.00    -0.113 C 
HETATM    3  C3  UNL     1      30.120  21.943   0.827  1.00  0.00     0.139 C 
ENDROOT
BRANCH   3   4
HETATM    4  C4  UNL     1      29.783  23.198   0.145  1.00  0.00     0.038 A 
HETATM    5  C5  UNL     1      28.878  23.252  -0.902  1.00  0.00     0.130 A 
HETATM    6  N1  UNL     1      28.245  22.054  -1.339  1.00  0.00    -0.082 NA
HETATM    7  N2  UNL     1      28.620  24.425  -1.474  1.00  0.00    -0.304 N 
HETATM    8  C6  UNL     1      29.213  25.596  -1.075  1.00  0.00     0.265 A 
ATOM      9  H2  UNL     1      27.951  24.455  -2.244  1.00  0.00     0.171 HD
HETATM   10  N7  UNL     1      30.098  25.469  -0.034  1.00  0.00    -0.302 N 
HETATM   11  C16 UNL     1      30.402  24.348   0.580  1.00  0.00     0.112 A 
ATOM     12  H7  UNL     1      30.560  26.318   0.292  1.00  0.00     0.171 HD
BRANCH   8  13
HETATM   13  N3  UNL     1      28.997  26.785  -1.601  1.00  0.00    -0.335 NA
BRANCH  13  14
HETATM   14  C7  UNL     1      28.763  27.852  -2.034  1.00  0.00     0.264 A 
HETATM   15  N4  UNL     1      29.536  28.931  -1.709  1.00  0.00    -0.320 N 
HETATM   16  C8  UNL     1      29.304  30.151  -2.168  1.00  0.00     0.013 A 
ATOM     17  H4  UNL     1      30.328  28.790  -1.081  1.00  0.00     0.169 HD
HETATM   18  C9  UNL     1      30.146  31.330  -1.814  1.00  0.00     0.068 C 
HETATM   19  C10 UNL     1      28.232  30.364  -3.021  1.00  0.00     0.073 A 
HETATM   20  C11 UNL     1      27.430  29.286  -3.368  1.00  0.00     0.106 A 
HETATM   21  N6  UNL     1      27.712  28.072  -2.873  1.00  0.00    -0.302 N 
ATOM     22  H6  UNL     1      27.118  27.285  -3.134  1.00  0.00     0.171 HD
BRANCH  20  23
HETATM   23  N5  UNL     1      26.421  29.431  -4.151  1.00  0.00    -0.376 N 
ATOM     24  H5  UNL     1      26.615  29.563  -5.144  1.00  0.00     0.161 HD
BRANCH  23  25
HETATM   25  C12 UNL     1      25.039  29.421  -3.743  1.00  0.00     0.121 C 
BRANCH  25  26
HETATM   26  C13 UNL     1      24.958  28.614  -2.476  1.00  0.00     0.019 C 
BRANCH  26  27
HETATM   27  C14 UNL     1      23.958  27.480  -2.564  1.00  0.00    -0.003 C 
HETATM   28  C15 UNL     1      23.470  27.038  -1.224  1.00  0.00     0.005 C 
ENDBRANCH  26  27
ENDBRANCH  25  26
ENDBRANCH  23  25
ENDBRANCH  20  23
ENDBRANCH  13  14
ENDBRANCH   8  13
BRANCH  11  29
HETATM   29  N8  UNL     1      31.257  24.317   1.563  1.00  0.00    -0.385 N 
ATOM     30  H82 UNL     1      32.146  24.815   1.516  1.00  0.00     0.157 HD
ATOM     31  H81 UNL     1      31.058  23.789   2.413  1.00  0.00     0.157 HD
ENDBRANCH  11  29
ENDBRANCH   3   4
TORSDOF 8
ENDMDL
MODEL 2
REMARK VINA RESULT: -5.801117524      0.242      1.687
REMARK  8 active torsions:
REMARK  status: ('A' for Active; 'I' for Inactive)
REMARK    1  A    between atoms: C3_3  and  C4_4 
REMARK    2  A    between atoms: C6_9  and  N3_10 
REMARK    3  A    between atoms: N3_10  and  C7_11 
REMARK    4  A    between atoms: C11_17  and  N5_18 
REMARK    5  A    between atoms: N5_18  and  C12_20 
REMARK    6  A    between atoms: C12_20  and  C13_21 
REMARK    7  A    between atoms: C13_21  and  C14_22 
REMARK    8  A    between atoms: C16_28  and  N8_29 
ROOT
HETATM    1  C1  UNL     1      27.754  20.855   2.089  1.00  0.00     0.012 C 
HETATM    2  C2  UNL     1      28.720  21.259   1.492  1.00  0.00    -0.113 C 
HETATM    3  C3  UNL     1      29.900  21.735   0.776  1.00  0.00     0.139 C 
ENDROOT
BRANCH   3   4
HETATM    4  C4  UNL     1      29.746  23.093   0.243  1.00  0.00     0.038 A 
HETATM    5  C5  UNL     1      30.438  24.176   0.760  1.00  0.00     0.130 A 
HETATM    6  N1  UNL     1      31.335  23.974   1.846  1.00  0.00    -0.082 NA
HETATM    7  N2  UNL     1      30.248  25.379   0.226  1.00  0.00    -0.304 N 
HETATM    8  C6  UNL     1      29.391  25.604  -0.821  1.00  0.00     0.265 A 
ATOM      9  H2  UNL     1      30.762  26.170   0.613  1.00  0.00     0.171 HD
HETATM   10  N7  UNL     1      28.738  24.488  -1.283  1.00  0.00    -0.302 N 
HETATM   11  C16 UNL     1      28.875  23.271  -0.809  1.00  0.00     0.112 A 
ATOM     12  H7  UNL     1      28.092  24.615  -2.062  1.00  0.00     0.171 HD
BRANCH   8  13
HETATM   13  N3  UNL     1      29.163  26.771  -1.390  1.00  0.00    -0.335 NA
BRANCH  13  14
HETATM   14  C7  UNL     1      28.912  27.812  -1.872  1.00  0.00     0.264 A 
HETATM   15  N4  UNL     1      29.641  28.927  -1.565  1.00  0.00    -0.320 N 
HETATM   16  C8  UNL     1      29.388  30.121  -2.080  1.00  0.00     0.013 A 
ATOM     17  H4  UNL     1      30.416  28.835  -0.909  1.00  0.00     0.169 HD
HETATM   18  C9  UNL     1      30.182  31.338  -1.747  1.00  0.00     0.068 C 
HETATM   19  C10 UNL     1      28.338  30.266  -2.974  1.00  0.00     0.073 A 
HETATM   20  C11 UNL     1      27.581  29.152  -3.303  1.00  0.00     0.106 A 
HETATM   21  N6  UNL     1      27.883  27.967  -2.752  1.00  0.00    -0.302 N 
ATOM     22  H6  UNL     1      27.321  27.153  -3.000  1.00  0.00     0.171 HD
BRANCH  20  23
HETATM   23  N5  UNL     1      26.594  29.234  -4.123  1.00  0.00    -0.376 N 
ATOM     24  H5  UNL     1      26.812  29.225  -5.119  1.00  0.00     0.161 HD
BRANCH  23  25
HETATM   25  C12 UNL     1      25.205  29.337  -3.750  1.00  0.00     0.121 C 
BRANCH  25  26
HETATM   26  C13 UNL     1      25.007  28.466  -2.540  1.00  0.00     0.019 C 
BRANCH  26  27
HETATM   27  C14 UNL     1      23.761  27.611  -2.628  1.00  0.00    -0.003 C 
HETATM   28  C15 UNL     1      23.461  26.897  -1.352  1.00  0.00     0.005 C 
ENDBRANCH  26  27
ENDBRANCH  25  26
ENDBRANCH  23  25
ENDBRANCH  20  23
ENDBRANCH  13  14
ENDBRANCH   8  13
BRANCH  11  29
HETATM   29  N8  UNL     1      28.214  22.264  -1.309  1.00  0.00    -0.385 N 
ATOM     30  H82 UNL     1      28.671  21.377  -1.521  1.00  0.00     0.157 HD
ATOM     31  H81 UNL     1      27.216  22.338  -1.503  1.00  0.00     0.157 HD
ENDBRANCH  11  29
ENDBRANCH   3   4
TORSDOF 8
ENDMDL
MODEL 3
REMARK VINA RESULT: -5.230809215      1.418      2.538
REMARK  8 active torsions:
REMARK  status: ('A' for Active; 'I' for Inactive)
REMARK    1  A    between atoms: C3_3  and  C4_4 
REMARK    2  A    between atoms: C6_9  and  N3_10 
REMARK    3  A    between atoms: N3_10  and  C7_11 
REMARK    4  A    between atoms: C11_17  and  N5_18 
REMARK    5  A    between atoms: N5_18  and  C12_20 
REMARK    6  A    between atoms: C12_20  and  C13_21 
REMARK    7  A    between atoms: C13_21  and  C14_22 
REMARK    8  A    between atoms: C16_28  and  N8_29 
ROOT
HETATM    1  C1  UNL     1      27.999  22.031   1.581  1.00  0.00     0.012 C 
HETATM    2  C2  UNL     1      28.895  22.457   0.897  1.00  0.00    -0.113 C 
HETATM    3  C3  UNL     1      29.990  22.957   0.073  1.00  0.00     0.139 C 
ENDROOT
BRANCH   3   4
HETATM    4  C4  UNL     1      29.848  24.374  -0.282  1.00  0.00     0.038 A 
HETATM    5  C5  UNL     1      30.440  25.386   0.456  1.00  0.00     0.130 A 
HETATM    6  N1  UNL     1      31.218  25.050   1.600  1.00  0.00    -0.082 NA
HETATM    7  N2  UNL     1      30.267  26.649   0.076  1.00  0.00    -0.304 N 
HETATM    8  C6  UNL     1      29.524  27.004  -1.020  1.00  0.00     0.265 A 
ATOM      9  H2  UNL     1      30.708  27.387   0.625  1.00  0.00     0.171 HD
HETATM   10  N7  UNL     1      28.966  25.952  -1.704  1.00  0.00    -0.302 N 
HETATM   11  C16 UNL     1      29.093  24.683  -1.391  1.00  0.00     0.112 A 
ATOM     12  H7  UNL     1      28.406  26.175  -2.527  1.00  0.00     0.171 HD
BRANCH   8  13
HETATM   13  N3  UNL     1      29.320  28.235  -1.445  1.00  0.00    -0.335 NA
BRANCH  13  14
HETATM   14  C7  UNL     1      29.096  29.336  -1.788  1.00  0.00     0.264 A 
HETATM   15  N4  UNL     1      29.083  30.366  -0.890  1.00  0.00    -0.320 N 
HETATM   16  C8  UNL     1      28.829  31.620  -1.233  1.00  0.00     0.013 A 
ATOM     17  H4  UNL     1      29.279  30.160   0.090  1.00  0.00     0.169 HD
HETATM   18  C9  UNL     1      28.816  32.746  -0.255  1.00  0.00     0.068 C 
HETATM   19  C10 UNL     1      28.560  31.921  -2.559  1.00  0.00     0.073 A 
HETATM   20  C11 UNL     1      28.566  30.894  -3.491  1.00  0.00     0.106 A 
HETATM   21  N6  UNL     1      28.830  29.643  -3.089  1.00  0.00    -0.302 N 
ATOM     22  H6  UNL     1      28.832  28.894  -3.781  1.00  0.00     0.171 HD
BRANCH  20  23
HETATM   23  N5  UNL     1      28.318  31.119  -4.733  1.00  0.00    -0.376 N 
ATOM     24  H5  UNL     1      28.959  31.735  -5.234  1.00  0.00     0.161 HD
BRANCH  23  25
HETATM   25  C12 UNL     1      27.209  30.573  -5.475  1.00  0.00     0.121 C 
BRANCH  25  26
HETATM   26  C13 UNL     1      26.719  29.370  -4.717  1.00  0.00     0.019 C 
BRANCH  26  27
HETATM   27  C14 UNL     1      25.557  29.686  -3.799  1.00  0.00    -0.003 C 
HETATM   28  C15 UNL     1      25.390  28.674  -2.714  1.00  0.00     0.005 C 
ENDBRANCH  26  27
ENDBRANCH  25  26
ENDBRANCH  23  25
ENDBRANCH  20  23
ENDBRANCH  13  14
ENDBRANCH   8  13
BRANCH  11  29
HETATM   29  N8  UNL     1      28.528  23.744  -2.098  1.00  0.00    -0.385 N 
ATOM     30  H82 UNL     1      27.750  23.193  -1.733  1.00  0.00     0.157 HD
ATOM     31  H81 UNL     1      28.850  23.534  -3.042  1.00  0.00     0.157 HD
ENDBRANCH  11  29
ENDBRANCH   3   4
TORSDOF 8
ENDMDL
MODEL 4
REMARK VINA RESULT: -5.185721477      1.363      1.758
REMARK  8 active torsions:
REMARK  status: ('A' for Active; 'I' for Inactive)
REMARK    1  A    between atoms: C3_3  and  C4_4 
REMARK    2  A    between atoms: C6_9  and  N3_10 
REMARK    3  A    between atoms: N3_10  and  C7_11 
REMARK    4  A    between atoms: C11_17  and  N5_18 
REMARK    5  A    between atoms: N5_18  and  C12_20 
REMARK    6  A    between atoms: C12_20  and  C13_21 
REMARK    7  A    between atoms: C13_21  and  C14_22 
REMARK    8  A    between atoms: C16_28  and  N8_29 
ROOT
HETATM    1  C1  UNL     1      28.065  21.813   1.606  1.00  0.00     0.012 C 
HETATM    2  C2  UNL     1      29.013  22.324   1.066  1.00  0.00    -0.113 C 
HETATM    3  C3  UNL     1      30.173  22.930   0.419  1.00  0.00     0.139 C 
ENDROOT
BRANCH   3   4
HETATM    4  C4  UNL     1      29.895  24.255  -0.146  1.00  0.00     0.038 A 
HETATM    5  C5  UNL     1      29.114  24.431  -1.276  1.00  0.00     0.130 A 
HETATM    6  N1  UNL     1      28.555  23.291  -1.920  1.00  0.00    -0.082 NA
HETATM    7  N2  UNL     1      28.905  25.663  -1.733  1.00  0.00    -0.304 N 
HETATM    8  C6  UNL     1      29.429  26.779  -1.135  1.00  0.00     0.265 A 
ATOM      9  H2  UNL     1      28.327  25.781  -2.566  1.00  0.00     0.171 HD
HETATM   10  N7  UNL     1      30.193  26.533  -0.021  1.00  0.00    -0.302 N 
HETATM   11  C16 UNL     1      30.443  25.348   0.489  1.00  0.00     0.112 A 
ATOM     12  H7  UNL     1      30.601  27.339   0.452  1.00  0.00     0.171 HD
BRANCH   8  13
HETATM   13  N3  UNL     1      29.256  28.022  -1.540  1.00  0.00    -0.335 NA
BRANCH  13  14
HETATM   14  C7  UNL     1      29.072  29.138  -1.855  1.00  0.00     0.264 A 
HETATM   15  N4  UNL     1      29.159  30.153  -0.944  1.00  0.00    -0.320 N 
HETATM   16  C8  UNL     1      28.954  31.424  -1.254  1.00  0.00     0.013 A 
ATOM     17  H4  UNL     1      29.394  29.920   0.022  1.00  0.00     0.169 HD
HETATM   18  C9  UNL     1      29.049  32.532  -0.261  1.00  0.00     0.068 C 
HETATM   19  C10 UNL     1      28.634  31.760  -2.561  1.00  0.00     0.073 A 
HETATM   20  C11 UNL     1      28.538  30.751  -3.506  1.00  0.00     0.106 A 
HETATM   21  N6  UNL     1      28.757  29.481  -3.136  1.00  0.00    -0.302 N 
ATOM     22  H6  UNL     1      28.685  28.744  -3.838  1.00  0.00     0.171 HD
BRANCH  20  23
HETATM   23  N5  UNL     1      28.239  31.009  -4.730  1.00  0.00    -0.376 N 
ATOM     24  H5  UNL     1      28.859  31.637  -5.241  1.00  0.00     0.161 HD
BRANCH  23  25
HETATM   25  C12 UNL     1      27.099  30.484  -5.440  1.00  0.00     0.121 C 
BRANCH  25  26
HETATM   26  C13 UNL     1      26.021  30.234  -4.421  1.00  0.00     0.019 C 
BRANCH  26  27
HETATM   27  C14 UNL     1      26.053  28.826  -3.864  1.00  0.00    -0.003 C 
HETATM   28  C15 UNL     1      25.288  28.695  -2.588  1.00  0.00     0.005 C 
ENDBRANCH  26  27
ENDBRANCH  25  26
ENDBRANCH  23  25
ENDBRANCH  20  23
ENDBRANCH  13  14
ENDBRANCH   8  13
BRANCH  11  29
HETATM   29  N8  UNL     1      31.181  25.203   1.553  1.00  0.00    -0.385 N 
ATOM     30  H82 UNL     1      31.252  24.308   2.038  1.00  0.00     0.157 HD
ATOM     31  H81 UNL     1      31.711  25.987   1.933  1.00  0.00     0.157 HD
ENDBRANCH  11  29
ENDBRANCH   3   4
TORSDOF 8
ENDMDL
MODEL 5
REMARK VINA RESULT: -5.126649311      1.454      3.307
REMARK  8 active torsions:
REMARK  status: ('A' for Active; 'I' for Inactive)
REMARK    1  A    between atoms: C3_3  and  C4_4 
REMARK    2  A    between atoms: C6_9  and  N3_10 
REMARK    3  A    between atoms: N3_10  and  C7_11 
REMARK    4  A    between atoms: C11_17  and  N5_18 
REMARK    5  A    between atoms: N5_18  and  C12_20 
REMARK    6  A    between atoms: C12_20  and  C13_21 
REMARK    7  A    between atoms: C13_21  and  C14_22 
REMARK    8  A    between atoms: C16_28  and  N8_29 
ROOT
HETATM    1  C1  UNL     1      29.450  22.566   2.972  1.00  0.00     0.012 C 
HETATM    2  C2  UNL     1      29.946  22.807   1.901  1.00  0.00    -0.113 C 
HETATM    3  C3  UNL     1      30.562  23.090   0.608  1.00  0.00     0.139 C 
ENDROOT
BRANCH   3   4
HETATM    4  C4  UNL     1      29.830  24.092  -0.175  1.00  0.00     0.038 A 
HETATM    5  C5  UNL     1      28.806  23.751  -1.043  1.00  0.00     0.130 A 
HETATM    6  N1  UNL     1      28.441  22.383  -1.185  1.00  0.00    -0.082 NA
HETATM    7  N2  UNL     1      28.187  24.712  -1.723  1.00  0.00    -0.304 N 
HETATM    8  C6  UNL     1      28.516  26.038  -1.606  1.00  0.00     0.265 A 
ATOM      9  H2  UNL     1      27.433  24.451  -2.358  1.00  0.00     0.171 HD
HETATM   10  N7  UNL     1      29.539  26.305  -0.731  1.00  0.00    -0.302 N 
HETATM   11  C16 UNL     1      30.195  25.411  -0.026  1.00  0.00     0.112 A 
ATOM     12  H7  UNL     1      29.813  27.281  -0.617  1.00  0.00     0.171 HD
BRANCH   8  13
HETATM   13  N3  UNL     1      27.938  27.033  -2.251  1.00  0.00    -0.335 NA
BRANCH  13  14
HETATM   14  C7  UNL     1      27.397  27.931  -2.779  1.00  0.00     0.264 A 
HETATM   15  N4  UNL     1      26.038  27.951  -2.924  1.00  0.00    -0.320 N 
HETATM   16  C8  UNL     1      25.388  28.940  -3.518  1.00  0.00     0.013 A 
ATOM     17  H4  UNL     1      25.499  27.167  -2.557  1.00  0.00     0.169 HD
HETATM   18  C9  UNL     1      23.906  28.964  -3.676  1.00  0.00     0.068 C 
HETATM   19  C10 UNL     1      26.103  30.015  -4.025  1.00  0.00     0.073 A 
HETATM   20  C11 UNL     1      27.484  30.021  -3.893  1.00  0.00     0.106 A 
HETATM   21  N6  UNL     1      28.090  28.993  -3.281  1.00  0.00    -0.302 N 
ATOM     22  H6  UNL     1      29.105  29.006  -3.187  1.00  0.00     0.171 HD
BRANCH  20  23
HETATM   23  N5  UNL     1      28.193  30.991  -4.349  1.00  0.00    -0.376 N 
ATOM     24  H5  UNL     1      28.468  30.948  -5.330  1.00  0.00     0.161 HD
BRANCH  23  25
HETATM   25  C12 UNL     1      28.633  32.134  -3.588  1.00  0.00     0.121 C 
BRANCH  25  26
HETATM   26  C13 UNL     1      27.952  32.062  -2.249  1.00  0.00     0.019 C 
BRANCH  26  27
HETATM   27  C14 UNL     1      28.928  31.985  -1.094  1.00  0.00    -0.003 C 
HETATM   28  C15 UNL     1      29.952  30.915  -1.277  1.00  0.00     0.005 C 
ENDBRANCH  26  27
ENDBRANCH  25  26
ENDBRANCH  23  25
ENDBRANCH  20  23
ENDBRANCH  13  14
ENDBRANCH   8  13
BRANCH  11  29
HETATM   29  N8  UNL     1      31.157  25.752   0.785  1.00  0.00    -0.385 N 
ATOM     30  H82 UNL     1      31.705  25.054   1.289  1.00  0.00     0.157 HD
ATOM     31  H81 UNL     1      31.389  26.733   0.939  1.00  0.00     0.157 HD
ENDBRANCH  11  29
ENDBRANCH   3   4
TORSDOF 8
ENDMDL
