MODEL 1
REMARK VINA RESULT: -5.504888025      0.000      0.000
REMARK  7 active torsions:
REMARK  status: ('A' for Active; 'I' for Inactive)
REMARK    1  A    between atoms: C3_3  and  S1_5 
REMARK    2  A    between atoms: S1_5  and  C5_6 
REMARK    3  A    between atoms: C6_9  and  C7_10 
REMARK    4  A    between atoms: C7_10  and  C8_11 
REMARK    5  A    between atoms: C10_15  and  N3_16 
REMARK    6  A    between atoms: C12_23  and  C13_24 
REMARK    7  A    between atoms: C15_26  and  N5_27 
ROOT
HETATM    1  C1  UNL     1      27.505  32.104  -3.806  1.00  0.00     0.013 C 
HETATM    2  C2  UNL     1      28.070  32.093  -2.732  1.00  0.00    -0.102 C 
HETATM    3  C3  UNL     1      28.733  32.101  -1.436  1.00  0.00     0.129 C 
HETATM    4  C4  UNL     1      27.700  31.785  -0.367  1.00  0.00     0.035 C 
ENDROOT
BRANCH   3   5
HETATM    5  S1  UNL     1      30.001  30.835  -1.366  1.00  0.00    -0.077 SA
BRANCH   5   6
HETATM    6  C5  UNL     1      29.442  29.233  -1.885  1.00  0.00     0.147 A 
HETATM    7  N1  UNL     1      30.135  28.100  -1.569  1.00  0.00    -0.339 N 
HETATM    8  C6  UNL     1      29.726  26.896  -1.994  1.00  0.00     0.025 A 
ATOM      9  H1  UNL     1      30.978  28.171  -1.000  1.00  0.00     0.168 HD
HETATM   10  C12 UNL     1      28.584  26.800  -2.765  1.00  0.00     0.008 A 
HETATM   11  C15 UNL     1      27.876  27.935  -3.088  1.00  0.00     0.108 A 
HETATM   12  N6  UNL     1      28.341  29.137  -2.628  1.00  0.00    -0.323 N 
ATOM     13  H6  UNL     1      27.828  29.987  -2.863  1.00  0.00     0.169 HD
BRANCH   8  14
HETATM   14  C7  UNL     1      30.491  25.713  -1.683  1.00  0.00     0.103 C 
BRANCH  14  15
HETATM   15  C8  UNL     1      30.283  25.177  -0.315  1.00  0.00     0.032 A 
HETATM   16  C9  UNL     1      30.922  25.724   0.789  1.00  0.00     0.119 A 
HETATM   17  N2  UNL     1      30.720  25.226   2.025  1.00  0.00    -0.201 N 
HETATM   18  C10 UNL     1      29.906  24.195   2.250  1.00  0.00     0.678 A 
ATOM     19  H2  UNL     1      31.207  25.652   2.814  1.00  0.00     0.183 HD
HETATM   20  N4  UNL     1      29.258  23.625   1.204  1.00  0.00    -0.156 N 
HETATM   21  C11 UNL     1      29.449  24.110  -0.039  1.00  0.00     0.267 A 
ATOM     22  H4  UNL     1      28.632  22.835   1.356  1.00  0.00     0.187 HD
HETATM   23  O1  UNL     1      28.817  23.538  -0.958  1.00  0.00    -0.267 OA
BRANCH  18  24
HETATM   24  N3  UNL     1      29.717  23.731   3.444  1.00  0.00    -0.234 N 
ATOM     25  H32 UNL     1      28.970  24.119   4.020  1.00  0.00     0.174 HD
ATOM     26  H31 UNL     1      30.302  22.987   3.825  1.00  0.00     0.174 HD
ENDBRANCH  18  24
ENDBRANCH  14  15
ENDBRANCH   8  14
BRANCH  10  27
HETATM   27  C13 UNL     1      28.143  25.493  -3.205  1.00  0.00     0.040 C 
HETATM   28  C14 UNL     1      29.047  24.817  -4.220  1.00  0.00     0.010 C 
ENDBRANCH  10  27
BRANCH  11  29
HETATM   29  N5  UNL     1      26.804  27.928  -3.793  1.00  0.00    -0.385 N 
ATOM     30  H52 UNL     1      26.861  27.598  -4.757  1.00  0.00     0.157 HD
ATOM     31  H51 UNL     1      25.896  28.238  -3.445  1.00  0.00     0.157 HD
ENDBRANCH  11  29
ENDBRANCH   5   6
ENDBRANCH   3   5
TORSDOF 7
ENDMDL
MODEL 2
REMARK VINA RESULT: -5.298706648      0.974      1.362
REMARK  7 active torsions:
REMARK  status: ('A' for Active; 'I' for Inactive)
REMARK    1  A    between atoms: C3_3  and  S1_5 
REMARK    2  A    between atoms: S1_5  and  C5_6 
REMARK    3  A    between atoms: C6_9  and  C7_10 
REMARK    4  A    between atoms: C7_10  and  C8_11 
REMARK    5  A    between atoms: C10_15  and  N3_16 
REMARK    6  A    between atoms: C12_23  and  C13_24 
REMARK    7  A    between atoms: C15_26  and  N5_27 
ROOT
HETATM    1  C1  UNL     1      27.502  32.095  -3.823  1.00  0.00     0.013 C 
HETATM    2  C2  UNL     1      28.050  32.078  -2.741  1.00  0.00    -0.102 C 
HETATM    3  C3  UNL     1      28.692  32.080  -1.435  1.00  0.00     0.129 C 
HETATM    4  C4  UNL     1      27.646  31.738  -0.386  1.00  0.00     0.035 C 
ENDROOT
BRANCH   3   5
HETATM    5  S1  UNL     1      29.975  30.829  -1.358  1.00  0.00    -0.077 SA
BRANCH   5   6
HETATM    6  C5  UNL     1      29.437  29.221  -1.878  1.00  0.00     0.147 A 
HETATM    7  N1  UNL     1      30.135  28.094  -1.547  1.00  0.00    -0.339 N 
HETATM    8  C6  UNL     1      29.743  26.885  -1.972  1.00  0.00     0.025 A 
ATOM      9  H1  UNL     1      30.970  28.175  -0.966  1.00  0.00     0.168 HD
HETATM   10  C12 UNL     1      28.612  26.776  -2.758  1.00  0.00     0.008 A 
HETATM   11  C15 UNL     1      27.899  27.903  -3.097  1.00  0.00     0.108 A 
HETATM   12  N6  UNL     1      28.348  29.111  -2.636  1.00  0.00    -0.323 N 
ATOM     13  H6  UNL     1      27.831  29.955  -2.882  1.00  0.00     0.169 HD
BRANCH   8  14
HETATM   14  C7  UNL     1      30.514  25.711  -1.645  1.00  0.00     0.103 C 
BRANCH  14  15
HETATM   15  C8  UNL     1      30.086  25.007  -0.410  1.00  0.00     0.032 A 
HETATM   16  C9  UNL     1      29.063  24.070  -0.421  1.00  0.00     0.119 A 
HETATM   17  N2  UNL     1      28.688  23.439   0.709  1.00  0.00    -0.201 N 
HETATM   18  C10 UNL     1      29.273  23.678   1.882  1.00  0.00     0.678 A 
ATOM     19  H2  UNL     1      27.931  22.756   0.664  1.00  0.00     0.183 HD
HETATM   20  N4  UNL     1      30.278  24.586   1.946  1.00  0.00    -0.156 N 
HETATM   21  C11 UNL     1      30.666  25.226   0.825  1.00  0.00     0.267 A 
ATOM     22  H4  UNL     1      30.737  24.782   2.835  1.00  0.00     0.187 HD
HETATM   23  O1  UNL     1      31.602  26.049   0.956  1.00  0.00    -0.267 OA
BRANCH  18  24
HETATM   24  N3  UNL     1      28.905  23.059   2.960  1.00  0.00    -0.234 N 
ATOM     25  H32 UNL     1      28.321  23.544   3.641  1.00  0.00     0.174 HD
ATOM     26  H31 UNL     1      29.191  22.097   3.146  1.00  0.00     0.174 HD
ENDBRANCH  18  24
ENDBRANCH  14  15
ENDBRANCH   8  14
BRANCH  10  27
HETATM   27  C13 UNL     1      28.189  25.463  -3.198  1.00  0.00     0.040 C 
HETATM   28  C14 UNL     1      29.095  24.805  -4.225  1.00  0.00     0.010 C 
ENDBRANCH  10  27
BRANCH  11  29
HETATM   29  N5  UNL     1      26.837  27.884  -3.817  1.00  0.00    -0.385 N 
ATOM     30  H52 UNL     1      26.777  28.527  -4.606  1.00  0.00     0.157 HD
ATOM     31  H51 UNL     1      26.047  27.263  -3.642  1.00  0.00     0.157 HD
ENDBRANCH  11  29
ENDBRANCH   5   6
ENDBRANCH   3   5
TORSDOF 7
ENDMDL
MODEL 3
REMARK VINA RESULT: -5.112470767      3.349      6.587
REMARK  7 active torsions:
REMARK  status: ('A' for Active; 'I' for Inactive)
REMARK    1  A    between atoms: C3_3  and  S1_5 
REMARK    2  A    between atoms: S1_5  and  C5_6 
REMARK    3  A    between atoms: C6_9  and  C7_10 
REMARK    4  A    between atoms: C7_10  and  C8_11 
REMARK    5  A    between atoms: C10_15  and  N3_16 
REMARK    6  A    between atoms: C12_23  and  C13_24 
REMARK    7  A    between atoms: C15_26  and  N5_27 
ROOT
HETATM    1  C1  UNL     1      28.703  22.708  -0.716  1.00  0.00     0.013 C 
HETATM    2  C2  UNL     1      29.132  23.839  -0.623  1.00  0.00    -0.102 C 
HETATM    3  C3  UNL     1      29.645  25.194  -0.484  1.00  0.00     0.129 C 
HETATM    4  C4  UNL     1      30.996  25.126   0.210  1.00  0.00     0.035 C 
ENDROOT
BRANCH   3   5
HETATM    5  S1  UNL     1      29.892  25.947  -2.092  1.00  0.00    -0.077 SA
BRANCH   5   6
HETATM    6  C5  UNL     1      29.200  27.574  -2.234  1.00  0.00     0.147 A 
HETATM    7  N1  UNL     1      27.953  27.776  -2.752  1.00  0.00    -0.339 N 
HETATM    8  C6  UNL     1      27.450  29.011  -2.888  1.00  0.00     0.025 A 
ATOM      9  H1  UNL     1      27.395  26.972  -3.040  1.00  0.00     0.168 HD
HETATM   10  C12 UNL     1      28.206  30.099  -2.498  1.00  0.00     0.008 A 
HETATM   11  C15 UNL     1      29.464  29.908  -1.972  1.00  0.00     0.108 A 
HETATM   12  N6  UNL     1      29.926  28.626  -1.858  1.00  0.00    -0.323 N 
ATOM     13  H6  UNL     1      30.858  28.470  -1.473  1.00  0.00     0.169 HD
BRANCH   8  14
HETATM   14  C7  UNL     1      26.146  29.208  -3.473  1.00  0.00     0.103 C 
BRANCH  14  15
HETATM   15  C8  UNL     1      25.080  28.328  -2.931  1.00  0.00     0.032 A 
HETATM   16  C9  UNL     1      25.366  27.280  -2.067  1.00  0.00     0.119 A 
HETATM   17  N2  UNL     1      24.387  26.493  -1.583  1.00  0.00    -0.201 N 
HETATM   18  C10 UNL     1      23.106  26.675  -1.903  1.00  0.00     0.678 A 
ATOM     19  H2  UNL     1      24.633  25.732  -0.950  1.00  0.00     0.183 HD
HETATM   20  N4  UNL     1      22.774  27.686  -2.745  1.00  0.00    -0.156 N 
HETATM   21  C11 UNL     1      23.742  28.483  -3.239  1.00  0.00     0.267 A 
ATOM     22  H4  UNL     1      21.799  27.840  -3.003  1.00  0.00     0.187 HD
HETATM   23  O1  UNL     1      23.364  29.398  -4.008  1.00  0.00    -0.267 OA
BRANCH  18  24
HETATM   24  N3  UNL     1      22.174  25.914  -1.426  1.00  0.00    -0.234 N 
ATOM     25  H32 UNL     1      22.430  25.053  -0.941  1.00  0.00     0.174 HD
ATOM     26  H31 UNL     1      21.187  26.152  -1.526  1.00  0.00     0.174 HD
ENDBRANCH  18  24
ENDBRANCH  14  15
ENDBRANCH   8  14
BRANCH  10  27
HETATM   27  C13 UNL     1      27.646  31.427  -2.635  1.00  0.00     0.040 C 
HETATM   28  C14 UNL     1      27.826  32.064  -4.002  1.00  0.00     0.010 C 
ENDBRANCH  10  27
BRANCH  11  29
HETATM   29  N5  UNL     1      30.224  30.865  -1.581  1.00  0.00    -0.385 N 
ATOM     30  H52 UNL     1      30.871  30.686  -0.813  1.00  0.00     0.157 HD
ATOM     31  H51 UNL     1      30.217  31.798  -1.994  1.00  0.00     0.157 HD
ENDBRANCH  11  29
ENDBRANCH   5   6
ENDBRANCH   3   5
TORSDOF 7
ENDMDL
MODEL 4
REMARK VINA RESULT: -5.071297258      3.149      4.586
REMARK  7 active torsions:
REMARK  status: ('A' for Active; 'I' for Inactive)
REMARK    1  A    between atoms: C3_3  and  S1_5 
REMARK    2  A    between atoms: S1_5  and  C5_6 
REMARK    3  A    between atoms: C6_9  and  C7_10 
REMARK    4  A    between atoms: C7_10  and  C8_11 
REMARK    5  A    between atoms: C10_15  and  N3_16 
REMARK    6  A    between atoms: C12_23  and  C13_24 
REMARK    7  A    between atoms: C15_26  and  N5_27 
ROOT
HETATM    1  C1  UNL     1      21.166  27.258  -1.096  1.00  0.00     0.013 C 
HETATM    2  C2  UNL     1      22.376  27.221  -1.167  1.00  0.00    -0.102 C 
HETATM    3  C3  UNL     1      23.830  27.168  -1.226  1.00  0.00     0.129 C 
HETATM    4  C4  UNL     1      24.262  25.715  -1.102  1.00  0.00     0.035 C 
ENDROOT
BRANCH   3   5
HETATM    5  S1  UNL     1      24.423  27.783  -2.803  1.00  0.00    -0.077 SA
BRANCH   5   6
HETATM    6  C5  UNL     1      26.040  28.510  -2.724  1.00  0.00     0.147 A 
HETATM    7  N1  UNL     1      27.168  27.740  -2.716  1.00  0.00    -0.339 N 
HETATM    8  C6  UNL     1      28.384  28.293  -2.622  1.00  0.00     0.025 A 
ATOM      9  H1  UNL     1      27.082  26.726  -2.783  1.00  0.00     0.168 HD
HETATM   10  C12 UNL     1      28.500  29.667  -2.532  1.00  0.00     0.008 A 
HETATM   11  C15 UNL     1      27.371  30.454  -2.541  1.00  0.00     0.108 A 
HETATM   12  N6  UNL     1      26.156  29.834  -2.637  1.00  0.00    -0.323 N 
ATOM     13  H6  UNL     1      25.310  30.405  -2.642  1.00  0.00     0.169 HD
BRANCH   8  14
HETATM   14  C7  UNL     1      29.563  27.463  -2.575  1.00  0.00     0.103 C 
BRANCH  14  15
HETATM   15  C8  UNL     1      29.362  26.128  -1.957  1.00  0.00     0.032 A 
HETATM   16  C9  UNL     1      29.600  25.905  -0.607  1.00  0.00     0.119 A 
HETATM   17  N2  UNL     1      29.411  24.689  -0.061  1.00  0.00    -0.201 N 
HETATM   18  C10 UNL     1      28.990  23.647  -0.778  1.00  0.00     0.678 A 
ATOM     19  H2  UNL     1      29.596  24.561   0.934  1.00  0.00     0.183 HD
HETATM   20  N4  UNL     1      28.743  23.812  -2.101  1.00  0.00    -0.156 N 
HETATM   21  C11 UNL     1      28.927  25.023  -2.664  1.00  0.00     0.267 A 
ATOM     22  H4  UNL     1      28.422  23.027  -2.666  1.00  0.00     0.187 HD
HETATM   23  O1  UNL     1      28.678  25.106  -3.889  1.00  0.00    -0.267 OA
BRANCH  18  24
HETATM   24  N3  UNL     1      28.807  22.484  -0.238  1.00  0.00    -0.234 N 
ATOM     25  H32 UNL     1      28.852  22.390   0.777  1.00  0.00     0.174 HD
ATOM     26  H31 UNL     1      28.623  21.656  -0.805  1.00  0.00     0.174 HD
ENDBRANCH  18  24
ENDBRANCH  14  15
ENDBRANCH   8  14
BRANCH  10  27
HETATM   27  C13 UNL     1      29.821  30.255  -2.447  1.00  0.00     0.040 C 
HETATM   28  C14 UNL     1      30.150  30.907  -1.115  1.00  0.00     0.010 C 
ENDBRANCH  10  27
BRANCH  11  29
HETATM   29  N5  UNL     1      27.396  31.735  -2.468  1.00  0.00    -0.385 N 
ATOM     30  H52 UNL     1      28.132  32.173  -1.914  1.00  0.00     0.157 HD
ATOM     31  H51 UNL     1      26.719  32.341  -2.930  1.00  0.00     0.157 HD
ENDBRANCH  11  29
ENDBRANCH   5   6
ENDBRANCH   3   5
TORSDOF 7
ENDMDL
MODEL 5
REMARK VINA RESULT: -5.015932437      3.654      5.043
REMARK  7 active torsions:
REMARK  status: ('A' for Active; 'I' for Inactive)
REMARK    1  A    between atoms: C3_3  and  S1_5 
REMARK    2  A    between atoms: S1_5  and  C5_6 
REMARK    3  A    between atoms: C6_9  and  C7_10 
REMARK    4  A    between atoms: C7_10  and  C8_11 
REMARK    5  A    between atoms: C10_15  and  N3_16 
REMARK    6  A    between atoms: C12_23  and  C13_24 
REMARK    7  A    between atoms: C15_26  and  N5_27 
ROOT
HETATM    1  C1  UNL     1      20.822  24.679  -1.977  1.00  0.00     0.013 C 
HETATM    2  C2  UNL     1      21.514  25.654  -1.772  1.00  0.00    -0.102 C 
HETATM    3  C3  UNL     1      22.323  26.839  -1.529  1.00  0.00     0.129 C 
HETATM    4  C4  UNL     1      21.883  27.458  -0.212  1.00  0.00     0.035 C 
ENDROOT
BRANCH   3   5
HETATM    5  S1  UNL     1      24.056  26.403  -1.378  1.00  0.00    -0.077 SA
BRANCH   5   6
HETATM    6  C5  UNL     1      25.144  27.473  -2.282  1.00  0.00     0.147 A 
HETATM    7  N1  UNL     1      26.493  27.261  -2.309  1.00  0.00    -0.339 N 
HETATM    8  C6  UNL     1      27.313  28.093  -2.965  1.00  0.00     0.025 A 
ATOM      9  H1  UNL     1      26.883  26.456  -1.820  1.00  0.00     0.168 HD
HETATM   10  C12 UNL     1      26.785  29.184  -3.628  1.00  0.00     0.008 A 
HETATM   11  C15 UNL     1      25.427  29.408  -3.611  1.00  0.00     0.108 A 
HETATM   12  N6  UNL     1      24.639  28.527  -2.923  1.00  0.00    -0.323 N 
ATOM     13  H6  UNL     1      23.631  28.681  -2.899  1.00  0.00     0.169 HD
BRANCH   8  14
HETATM   14  C7  UNL     1      28.739  27.876  -2.950  1.00  0.00     0.103 C 
BRANCH  14  15
HETATM   15  C8  UNL     1      29.199  26.820  -2.014  1.00  0.00     0.032 A 
HETATM   16  C9  UNL     1      29.742  27.129  -0.774  1.00  0.00     0.119 A 
HETATM   17  N2  UNL     1      30.153  26.159   0.065  1.00  0.00    -0.201 N 
HETATM   18  C10 UNL     1      30.062  24.867  -0.246  1.00  0.00     0.678 A 
ATOM     19  H2  UNL     1      30.548  26.423   0.968  1.00  0.00     0.183 HD
HETATM   20  N4  UNL     1      29.539  24.512  -1.446  1.00  0.00    -0.156 N 
HETATM   21  C11 UNL     1      29.123  25.470  -2.297  1.00  0.00     0.267 A 
ATOM     22  H4  UNL     1      29.462  23.528  -1.702  1.00  0.00     0.187 HD
HETATM   23  O1  UNL     1      28.648  25.072  -3.387  1.00  0.00    -0.267 OA
BRANCH  18  24
HETATM   24  N3  UNL     1      30.457  23.944   0.573  1.00  0.00    -0.234 N 
ATOM     25  H32 UNL     1      31.292  24.100   1.138  1.00  0.00     0.174 HD
ATOM     26  H31 UNL     1      29.953  23.061   0.664  1.00  0.00     0.174 HD
ENDBRANCH  18  24
ENDBRANCH  14  15
ENDBRANCH   8  14
BRANCH  10  27
HETATM   27  C13 UNL     1      27.679  30.067  -4.348  1.00  0.00     0.040 C 
HETATM   28  C14 UNL     1      27.922  31.414  -3.689  1.00  0.00     0.010 C 
ENDBRANCH  10  27
BRANCH  11  29
HETATM   29  N5  UNL     1      24.860  30.393  -4.206  1.00  0.00    -0.385 N 
ATOM     30  H52 UNL     1      24.061  30.836  -3.754  1.00  0.00     0.157 HD
ATOM     31  H51 UNL     1      25.163  30.758  -5.109  1.00  0.00     0.157 HD
ENDBRANCH  11  29
ENDBRANCH   5   6
ENDBRANCH   3   5
TORSDOF 7
ENDMDL
