MODEL 1
REMARK VINA RESULT: -4.588856397      0.000      0.000
REMARK  3 active torsions:
REMARK  status: ('A' for Active; 'I' for Inactive)
REMARK    1  A    between atoms: N1_2  and  C2_4 
REMARK    2  A    between atoms: C4_6  and  N2_7 
REMARK    3  A    between atoms: C8_14  and  N3_15 
ROOT
HETATM    1  C2  UNL     1     -39.264   9.481  -9.911  1.00  0.00     0.084 C 
HETATM    2  C3  UNL     1     -38.323  10.202  -8.972  1.00  0.00     0.066 C 
HETATM    3  C4  UNL     1     -38.014  11.449  -9.815  1.00  0.00     0.153 C 
HETATM    4  C5  UNL     1     -39.294  12.126 -10.198  1.00  0.00     0.041 C 
HETATM    5  C6  UNL     1     -39.883  11.329 -11.375  1.00  0.00     0.011 C 
HETATM    6  C7  UNL     1     -39.049  10.061 -11.274  1.00  0.00     0.041 C 
HETATM    7  C8  UNL     1     -37.670  10.728 -11.130  1.00  0.00     0.225 C 
ENDROOT
BRANCH   3   8
HETATM    8  N2  UNL     1     -36.998  12.255  -9.302  1.00  0.00    -0.068 N 
ATOM      9  H23 UNL     1     -36.994  12.215  -8.282  1.00  0.00     0.275 HD
ATOM     10  H22 UNL     1     -36.086  11.843  -9.496  1.00  0.00     0.275 HD
ATOM     11  H21 UNL     1     -37.027  13.223  -9.620  1.00  0.00     0.275 HD
ENDBRANCH   3   8
BRANCH   7  12
HETATM   12  N3  UNL     1     -37.488  11.665 -12.204  1.00  0.00    -0.072 N 
ATOM     13  H33 UNL     1     -38.270  11.643 -12.857  1.00  0.00     0.274 HD
ATOM     14  H32 UNL     1     -37.579  12.628 -11.882  1.00  0.00     0.274 HD
ATOM     15  H31 UNL     1     -36.599  11.512 -12.681  1.00  0.00     0.274 HD
ENDBRANCH   7  12
BRANCH   1  16
HETATM   16  N1  UNL     1     -39.286   8.088  -9.814  1.00  0.00    -0.421 N 
HETATM   17  C1  UNL     1     -40.375   7.325 -10.233  1.00  0.00     0.140 C 
ATOM     18  H1  UNL     1     -38.475   7.610  -9.420  1.00  0.00     0.153 HD
ENDBRANCH   1  16
TORSDOF 3
ENDMDL
MODEL 2
REMARK VINA RESULT: -4.548788158      1.663      3.245
REMARK  3 active torsions:
REMARK  status: ('A' for Active; 'I' for Inactive)
REMARK    1  A    between atoms: N1_2  and  C2_4 
REMARK    2  A    between atoms: C4_6  and  N2_7 
REMARK    3  A    between atoms: C8_14  and  N3_15 
ROOT
HETATM    1  C2  UNL     1     -37.909  10.290  -9.006  1.00  0.00     0.084 C 
HETATM    2  C3  UNL     1     -38.610   8.998  -9.359  1.00  0.00     0.066 C 
HETATM    3  C4  UNL     1     -39.240   9.397 -10.702  1.00  0.00     0.153 C 
HETATM    4  C5  UNL     1     -38.175   9.904 -11.625  1.00  0.00     0.041 C 
HETATM    5  C6  UNL     1     -37.870  11.351 -11.201  1.00  0.00     0.011 C 
HETATM    6  C7  UNL     1     -38.538  11.367  -9.834  1.00  0.00     0.041 C 
HETATM    7  C8  UNL     1     -39.873  10.723 -10.245  1.00  0.00     0.225 C 
ENDROOT
BRANCH   3   8
HETATM    8  N2  UNL     1     -40.137   8.464 -11.219  1.00  0.00    -0.068 N 
ATOM      9  H23 UNL     1     -39.718   7.965 -12.004  1.00  0.00     0.275 HD
ATOM     10  H22 UNL     1     -40.260   7.689 -10.566  1.00  0.00     0.275 HD
ATOM     11  H21 UNL     1     -41.042   8.851 -11.486  1.00  0.00     0.275 HD
ENDBRANCH   3   8
BRANCH   7  12
HETATM   12  N3  UNL     1     -40.421  11.449 -11.359  1.00  0.00    -0.072 N 
ATOM     13  H33 UNL     1     -40.042  11.117 -12.245  1.00  0.00     0.274 HD
ATOM     14  H32 UNL     1     -41.402  11.217 -11.511  1.00  0.00     0.274 HD
ATOM     15  H31 UNL     1     -40.286  12.454 -11.247  1.00  0.00     0.274 HD
ENDBRANCH   7  12
BRANCH   1  16
HETATM   16  N1  UNL     1     -37.747  10.553  -7.644  1.00  0.00    -0.421 N 
HETATM   17  C1  UNL     1     -36.693  10.025  -6.900  1.00  0.00     0.140 C 
ATOM     18  H1  UNL     1     -38.426  11.154  -7.177  1.00  0.00     0.153 HD
ENDBRANCH   1  16
TORSDOF 3
ENDMDL
MODEL 3
REMARK VINA RESULT: -3.747434682      1.662      2.678
REMARK  3 active torsions:
REMARK  status: ('A' for Active; 'I' for Inactive)
REMARK    1  A    between atoms: N1_2  and  C2_4 
REMARK    2  A    between atoms: C4_6  and  N2_7 
REMARK    3  A    between atoms: C8_14  and  N3_15 
ROOT
HETATM    1  C2  UNL     1     -38.592   9.262 -10.746  1.00  0.00     0.084 C 
HETATM    2  C3  UNL     1     -39.927   9.447 -11.431  1.00  0.00     0.066 C 
HETATM    3  C4  UNL     1     -39.901  10.967 -11.653  1.00  0.00     0.153 C 
HETATM    4  C5  UNL     1     -38.660  11.344 -12.401  1.00  0.00     0.041 C 
HETATM    5  C6  UNL     1     -37.510  11.353 -11.379  1.00  0.00     0.011 C 
HETATM    6  C7  UNL     1     -38.175  10.605 -10.233  1.00  0.00     0.041 C 
HETATM    7  C8  UNL     1     -39.507  11.377 -10.224  1.00  0.00     0.225 C 
ENDROOT
BRANCH   3   8
HETATM    8  N2  UNL     1     -41.104  11.504 -12.109  1.00  0.00    -0.068 N 
ATOM      9  H23 UNL     1     -41.791  10.764 -12.256  1.00  0.00     0.275 HD
ATOM     10  H22 UNL     1     -41.566  12.025 -11.363  1.00  0.00     0.275 HD
ATOM     11  H21 UNL     1     -41.019  12.081 -12.946  1.00  0.00     0.275 HD
ENDBRANCH   3   8
BRANCH   7  12
HETATM   12  N3  UNL     1     -39.232  12.785 -10.144  1.00  0.00    -0.072 N 
ATOM     13  H33 UNL     1     -38.854  13.144 -11.020  1.00  0.00     0.274 HD
ATOM     14  H32 UNL     1     -40.091  13.333 -10.108  1.00  0.00     0.274 HD
ATOM     15  H31 UNL     1     -38.618  12.998  -9.357  1.00  0.00     0.274 HD
ENDBRANCH   7  12
BRANCH   1  16
HETATM   16  N1  UNL     1     -38.497   8.189  -9.857  1.00  0.00    -0.421 N 
HETATM   17  C1  UNL     1     -38.257   8.364  -8.495  1.00  0.00     0.140 C 
ATOM     18  H1  UNL     1     -38.607   7.241 -10.218  1.00  0.00     0.153 HD
ENDBRANCH   1  16
TORSDOF 3
ENDMDL
MODEL 4
REMARK VINA RESULT: -3.730552168      1.483      2.651
REMARK  3 active torsions:
REMARK  status: ('A' for Active; 'I' for Inactive)
REMARK    1  A    between atoms: N1_2  and  C2_4 
REMARK    2  A    between atoms: C4_6  and  N2_7 
REMARK    3  A    between atoms: C8_14  and  N3_15 
ROOT
HETATM    1  C2  UNL     1     -38.469  11.080  -8.851  1.00  0.00     0.084 C 
HETATM    2  C3  UNL     1     -37.593  11.801  -9.851  1.00  0.00     0.066 C 
HETATM    3  C4  UNL     1     -38.161  11.230 -11.159  1.00  0.00     0.153 C 
HETATM    4  C5  UNL     1     -39.640  11.466 -11.209  1.00  0.00     0.041 C 
HETATM    5  C6  UNL     1     -40.291  10.393 -10.318  1.00  0.00     0.011 C 
HETATM    6  C7  UNL     1     -39.065   9.905  -9.561  1.00  0.00     0.041 C 
HETATM    7  C8  UNL     1     -38.124   9.743 -10.768  1.00  0.00     0.225 C 
ENDROOT
BRANCH   3   8
HETATM    8  N2  UNL     1     -37.428  11.558 -12.299  1.00  0.00    -0.068 N 
ATOM      9  H23 UNL     1     -36.451  11.727 -12.056  1.00  0.00     0.275 HD
ATOM     10  H22 UNL     1     -37.319  10.741 -12.899  1.00  0.00     0.275 HD
ATOM     11  H21 UNL     1     -37.803  12.343 -12.831  1.00  0.00     0.275 HD
ENDBRANCH   3   8
BRANCH   7  12
HETATM   12  N3  UNL     1     -38.770   8.928 -11.760  1.00  0.00    -0.072 N 
ATOM     13  H33 UNL     1     -39.111   9.488 -12.541  1.00  0.00     0.274 HD
ATOM     14  H32 UNL     1     -38.099   8.348 -12.264  1.00  0.00     0.274 HD
ATOM     15  H31 UNL     1     -39.516   8.367 -11.349  1.00  0.00     0.274 HD
ENDBRANCH   7  12
BRANCH   1  16
HETATM   16  N1  UNL     1     -37.905  10.841  -7.596  1.00  0.00    -0.421 N 
HETATM   17  C1  UNL     1     -36.990   9.814  -7.370  1.00  0.00     0.140 C 
ATOM     18  H1  UNL     1     -38.174  11.439  -6.815  1.00  0.00     0.153 HD
ENDBRANCH   1  16
TORSDOF 3
ENDMDL
MODEL 5
REMARK VINA RESULT: -3.507710104      1.298      2.220
REMARK  3 active torsions:
REMARK  status: ('A' for Active; 'I' for Inactive)
REMARK    1  A    between atoms: N1_2  and  C2_4 
REMARK    2  A    between atoms: C4_6  and  N2_7 
REMARK    3  A    between atoms: C8_14  and  N3_15 
ROOT
HETATM    1  C2  UNL     1     -39.821   9.586 -11.268  1.00  0.00     0.084 C 
HETATM    2  C3  UNL     1     -40.360  10.998 -11.314  1.00  0.00     0.066 C 
HETATM    3  C4  UNL     1     -39.122  11.769 -10.830  1.00  0.00     0.153 C 
HETATM    4  C5  UNL     1     -37.947  11.427 -11.694  1.00  0.00     0.041 C 
HETATM    5  C6  UNL     1     -37.429  10.058 -11.219  1.00  0.00     0.011 C 
HETATM    6  C7  UNL     1     -38.616   9.608 -10.380  1.00  0.00     0.041 C 
HETATM    7  C8  UNL     1     -38.819  10.912  -9.589  1.00  0.00     0.225 C 
ENDROOT
BRANCH   3   8
HETATM    8  N2  UNL     1     -39.348  13.120 -10.572  1.00  0.00    -0.068 N 
ATOM      9  H23 UNL     1     -38.627  13.692 -11.012  1.00  0.00     0.275 HD
ATOM     10  H22 UNL     1     -40.167  13.448 -11.084  1.00  0.00     0.275 HD
ATOM     11  H21 UNL     1     -39.431  13.353  -9.582  1.00  0.00     0.275 HD
ENDBRANCH   3   8
BRANCH   7  12
HETATM   12  N3  UNL     1     -37.572  11.294  -8.985  1.00  0.00    -0.072 N 
ATOM     13  H33 UNL     1     -37.329  10.681  -8.207  1.00  0.00     0.274 HD
ATOM     14  H32 UNL     1     -36.782  11.090  -9.597  1.00  0.00     0.274 HD
ATOM     15  H31 UNL     1     -37.583  12.273  -8.700  1.00  0.00     0.274 HD
ENDBRANCH   7  12
BRANCH   1  16
HETATM   16  N1  UNL     1     -40.756   8.575 -11.038  1.00  0.00    -0.421 N 
HETATM   17  C1  UNL     1     -40.472   7.455 -10.258  1.00  0.00     0.140 C 
ATOM     18  H1  UNL     1     -41.682   8.660 -11.457  1.00  0.00     0.153 HD
ENDBRANCH   1  16
TORSDOF 3
ENDMDL
