MODEL 1
REMARK VINA RESULT: -4.833231604      0.000      0.000
REMARK  4 active torsions:
REMARK  status: ('A' for Active; 'I' for Inactive)
REMARK    1  A    between atoms: O1_2  and  C2_3 
REMARK    2  A    between atoms: C2_3  and  N1_4 
REMARK    3  A    between atoms: C5_10  and  N2_11 
REMARK    4  A    between atoms: C6_15  and  N3_16 
ROOT
HETATM    1  C2  UNL     1     -39.139   9.202 -10.572  1.00  0.00     0.225 C 
HETATM    2  C3  UNL     1     -38.825   8.961  -9.135  1.00  0.00     0.070 C 
HETATM    3  C4  UNL     1     -37.899   9.986  -8.591  1.00  0.00     0.040 C 
HETATM    4  C5  UNL     1     -38.188  11.387  -8.974  1.00  0.00     0.214 C 
HETATM    5  C6  UNL     1     -38.622  11.557 -10.412  1.00  0.00     0.218 C 
HETATM    6  C7  UNL     1     -39.762  10.604 -10.654  1.00  0.00     0.103 C 
ENDROOT
BRANCH   1   7
HETATM    7  O1  UNL     1     -39.978   8.306 -11.148  1.00  0.00    -0.359 OA
HETATM    8  C1  UNL     1     -40.554   7.388 -10.314  1.00  0.00     0.204 C 
ENDBRANCH   1   7
BRANCH   1   9
HETATM    9  N1  UNL     1     -37.898   9.234 -11.330  1.00  0.00    -0.047 N 
ATOM     10  H13 UNL     1     -37.693   8.343 -11.780  1.00  0.00     0.278 HD
ATOM     11  H12 UNL     1     -37.971   9.806 -12.172  1.00  0.00     0.278 HD
ATOM     12  H11 UNL     1     -37.145   9.542 -10.713  1.00  0.00     0.278 HD
ENDBRANCH   1   9
BRANCH   5  13
HETATM   13  N3  UNL     1     -39.037  12.909 -10.647  1.00  0.00    -0.073 N 
ATOM     14  H33 UNL     1     -38.666  13.549  -9.944  1.00  0.00     0.274 HD
ATOM     15  H32 UNL     1     -38.583  13.310 -11.468  1.00  0.00     0.274 HD
ATOM     16  H31 UNL     1     -40.053  12.960 -10.710  1.00  0.00     0.274 HD
ENDBRANCH   5  13
BRANCH   4  17
HETATM   17  N2  UNL     1     -36.973  12.195  -8.812  1.00  0.00    -0.073 N 
ATOM     18  H23 UNL     1     -36.430  12.254  -9.673  1.00  0.00     0.274 HD
ATOM     19  H22 UNL     1     -37.181  13.188  -8.704  1.00  0.00     0.274 HD
ATOM     20  H21 UNL     1     -36.425  11.828  -8.034  1.00  0.00     0.274 HD
ENDBRANCH   4  17
TORSDOF 4
ENDMDL
MODEL 2
REMARK VINA RESULT: -4.464760352      1.233      1.739
REMARK  4 active torsions:
REMARK  status: ('A' for Active; 'I' for Inactive)
REMARK    1  A    between atoms: O1_2  and  C2_3 
REMARK    2  A    between atoms: C2_3  and  N1_4 
REMARK    3  A    between atoms: C5_10  and  N2_11 
REMARK    4  A    between atoms: C6_15  and  N3_16 
ROOT
HETATM    1  C2  UNL     1     -38.940   9.406 -10.769  1.00  0.00     0.225 C 
HETATM    2  C3  UNL     1     -38.963   8.277  -9.795  1.00  0.00     0.070 C 
HETATM    3  C4  UNL     1     -38.049   8.515  -8.649  1.00  0.00     0.040 C 
HETATM    4  C5  UNL     1     -38.076   9.879  -8.074  1.00  0.00     0.214 C 
HETATM    5  C6  UNL     1     -38.179  10.982  -9.104  1.00  0.00     0.218 C 
HETATM    6  C7  UNL     1     -39.353  10.663  -9.989  1.00  0.00     0.103 C 
ENDROOT
BRANCH   1   7
HETATM    7  O1  UNL     1     -39.747   9.265 -11.849  1.00  0.00    -0.359 OA
HETATM    8  C1  UNL     1     -40.808  10.125 -11.932  1.00  0.00     0.204 C 
ENDBRANCH   1   7
BRANCH   1   9
HETATM    9  N1  UNL     1     -37.575   9.608 -11.227  1.00  0.00    -0.047 N 
ATOM     10  H13 UNL     1     -36.940   8.885 -10.891  1.00  0.00     0.278 HD
ATOM     11  H12 UNL     1     -37.471   9.436 -12.227  1.00  0.00     0.278 HD
ATOM     12  H11 UNL     1     -37.275  10.546 -10.960  1.00  0.00     0.278 HD
ENDBRANCH   1   9
BRANCH   5  13
HETATM   13  N3  UNL     1     -38.363  12.248  -8.456  1.00  0.00    -0.073 N 
ATOM     14  H33 UNL     1     -39.348  12.443  -8.276  1.00  0.00     0.274 HD
ATOM     15  H32 UNL     1     -38.034  12.233  -7.491  1.00  0.00     0.274 HD
ATOM     16  H31 UNL     1     -37.920  12.988  -8.999  1.00  0.00     0.274 HD
ENDBRANCH   5  13
BRANCH   4  17
HETATM   17  N2  UNL     1     -36.830  10.119  -7.336  1.00  0.00    -0.073 N 
ATOM     18  H23 UNL     1     -36.869  10.972  -6.778  1.00  0.00     0.274 HD
ATOM     19  H22 UNL     1     -36.697   9.454  -6.574  1.00  0.00     0.274 HD
ATOM     20  H21 UNL     1     -36.046  10.120  -7.989  1.00  0.00     0.274 HD
ENDBRANCH   4  17
TORSDOF 4
ENDMDL
MODEL 3
REMARK VINA RESULT: -4.271677690      2.223      4.076
REMARK  4 active torsions:
REMARK  status: ('A' for Active; 'I' for Inactive)
REMARK    1  A    between atoms: O1_2  and  C2_3 
REMARK    2  A    between atoms: C2_3  and  N1_4 
REMARK    3  A    between atoms: C5_10  and  N2_11 
REMARK    4  A    between atoms: C6_15  and  N3_16 
ROOT
HETATM    1  C2  UNL     1     -38.297  11.569 -10.589  1.00  0.00     0.225 C 
HETATM    2  C3  UNL     1     -39.690  11.671 -11.113  1.00  0.00     0.070 C 
HETATM    3  C4  UNL     1     -40.213  10.353 -11.555  1.00  0.00     0.040 C 
HETATM    4  C5  UNL     1     -39.932   9.212 -10.656  1.00  0.00     0.214 C 
HETATM    5  C6  UNL     1     -38.544   9.226 -10.054  1.00  0.00     0.218 C 
HETATM    6  C7  UNL     1     -38.344  10.575  -9.419  1.00  0.00     0.103 C 
ENDROOT
BRANCH   1   7
HETATM    7  O1  UNL     1     -37.743  12.731 -10.166  1.00  0.00    -0.359 OA
HETATM    8  C1  UNL     1     -36.977  12.664  -9.035  1.00  0.00     0.204 C 
ENDBRANCH   1   7
BRANCH   1   9
HETATM    9  N1  UNL     1     -37.446  10.990 -11.616  1.00  0.00    -0.047 N 
ATOM     10  H13 UNL     1     -37.915  10.922 -12.519  1.00  0.00     0.278 HD
ATOM     11  H12 UNL     1     -36.691  11.618 -11.895  1.00  0.00     0.278 HD
ATOM     12  H11 UNL     1     -37.101  10.088 -11.287  1.00  0.00     0.278 HD
ENDBRANCH   1   9
BRANCH   5  13
HETATM   13  N3  UNL     1     -38.418   8.183  -9.078  1.00  0.00    -0.073 N 
ATOM     14  H33 UNL     1     -37.885   7.390  -9.434  1.00  0.00     0.274 HD
ATOM     15  H32 UNL     1     -37.798   8.450  -8.313  1.00  0.00     0.274 HD
ATOM     16  H31 UNL     1     -39.340   7.903  -8.742  1.00  0.00     0.274 HD
ENDBRANCH   5  13
BRANCH   4  17
HETATM   17  N2  UNL     1     -40.040   7.959 -11.414  1.00  0.00    -0.073 N 
ATOM     18  H23 UNL     1     -40.427   8.103 -12.346  1.00  0.00     0.274 HD
ATOM     19  H22 UNL     1     -39.128   7.594 -11.691  1.00  0.00     0.274 HD
ATOM     20  H21 UNL     1     -40.578   7.282 -10.872  1.00  0.00     0.274 HD
ENDBRANCH   4  17
TORSDOF 4
ENDMDL
MODEL 4
REMARK VINA RESULT: -4.247720979      1.780      2.730
REMARK  4 active torsions:
REMARK  status: ('A' for Active; 'I' for Inactive)
REMARK    1  A    between atoms: O1_2  and  C2_3 
REMARK    2  A    between atoms: C2_3  and  N1_4 
REMARK    3  A    between atoms: C5_10  and  N2_11 
REMARK    4  A    between atoms: C6_15  and  N3_16 
ROOT
HETATM    1  C2  UNL     1     -38.948  10.495 -11.231  1.00  0.00     0.225 C 
HETATM    2  C3  UNL     1     -39.487   9.109 -11.129  1.00  0.00     0.070 C 
HETATM    3  C4  UNL     1     -38.780   8.315 -10.091  1.00  0.00     0.040 C 
HETATM    4  C5  UNL     1     -38.517   9.013  -8.812  1.00  0.00     0.214 C 
HETATM    5  C6  UNL     1     -38.093  10.455  -8.971  1.00  0.00     0.218 C 
HETATM    6  C7  UNL     1     -39.116  11.132  -9.842  1.00  0.00     0.103 C 
ENDROOT
BRANCH   1   7
HETATM    7  O1  UNL     1     -39.537  11.288 -12.160  1.00  0.00    -0.359 OA
HETATM    8  C1  UNL     1     -40.900  11.214 -12.245  1.00  0.00     0.204 C 
ENDBRANCH   1   7
BRANCH   1   9
HETATM    9  N1  UNL     1     -37.522  10.431 -11.508  1.00  0.00    -0.047 N 
ATOM     10  H13 UNL     1     -37.323  10.111 -12.456  1.00  0.00     0.278 HD
ATOM     11  H12 UNL     1     -37.096  11.355 -11.577  1.00  0.00     0.278 HD
ATOM     12  H11 UNL     1     -37.076   9.849 -10.798  1.00  0.00     0.278 HD
ENDBRANCH   1   9
BRANCH   5  13
HETATM   13  N3  UNL     1     -38.019  11.094  -7.689  1.00  0.00    -0.073 N 
ATOM     14  H33 UNL     1     -38.805  11.725  -7.532  1.00  0.00     0.274 HD
ATOM     15  H32 UNL     1     -38.198  10.440  -6.927  1.00  0.00     0.274 HD
ATOM     16  H31 UNL     1     -37.123  11.567  -7.583  1.00  0.00     0.274 HD
ENDBRANCH   5  13
BRANCH   4  17
HETATM   17  N2  UNL     1     -37.421   8.336  -8.107  1.00  0.00    -0.073 N 
ATOM     18  H23 UNL     1     -37.709   7.440  -7.715  1.00  0.00     0.274 HD
ATOM     19  H22 UNL     1     -36.705   7.991  -8.746  1.00  0.00     0.274 HD
ATOM     20  H21 UNL     1     -37.038   8.963  -7.400  1.00  0.00     0.274 HD
ENDBRANCH   4  17
TORSDOF 4
ENDMDL
MODEL 5
REMARK VINA RESULT: -4.218064140      1.389      2.218
REMARK  4 active torsions:
REMARK  status: ('A' for Active; 'I' for Inactive)
REMARK    1  A    between atoms: O1_2  and  C2_3 
REMARK    2  A    between atoms: C2_3  and  N1_4 
REMARK    3  A    between atoms: C5_10  and  N2_11 
REMARK    4  A    between atoms: C6_15  and  N3_16 
ROOT
HETATM    1  C2  UNL     1     -39.450   9.528 -10.873  1.00  0.00     0.225 C 
HETATM    2  C3  UNL     1     -38.553  10.272 -11.803  1.00  0.00     0.070 C 
HETATM    3  C4  UNL     1     -38.020  11.513 -11.184  1.00  0.00     0.040 C 
HETATM    4  C5  UNL     1     -37.556  11.388  -9.784  1.00  0.00     0.214 C 
HETATM    5  C6  UNL     1     -38.438  10.519  -8.916  1.00  0.00     0.218 C 
HETATM    6  C7  UNL     1     -38.613   9.204  -9.626  1.00  0.00     0.103 C 
ENDROOT
BRANCH   1   7
HETATM    7  O1  UNL     1     -39.983   8.381 -11.363  1.00  0.00    -0.359 OA
HETATM    8  C1  UNL     1     -40.408   7.465 -10.441  1.00  0.00     0.204 C 
ENDBRANCH   1   7
BRANCH   1   9
HETATM    9  N1  UNL     1     -40.531  10.405 -10.454  1.00  0.00    -0.047 N 
ATOM     10  H13 UNL     1     -40.754  11.112 -11.155  1.00  0.00     0.278 HD
ATOM     11  H12 UNL     1     -41.434   9.930 -10.439  1.00  0.00     0.278 HD
ATOM     12  H11 UNL     1     -40.291  10.813  -9.550  1.00  0.00     0.278 HD
ENDBRANCH   1   9
BRANCH   5  13
HETATM   13  N3  UNL     1     -37.829  10.323  -7.633  1.00  0.00    -0.073 N 
ATOM     14  H33 UNL     1     -37.223   9.502  -7.620  1.00  0.00     0.274 HD
ATOM     15  H32 UNL     1     -37.124  11.032  -7.433  1.00  0.00     0.274 HD
ATOM     16  H31 UNL     1     -38.544  10.280  -6.907  1.00  0.00     0.274 HD
ENDBRANCH   5  13
BRANCH   4  17
HETATM   17  N2  UNL     1     -37.541  12.716  -9.158  1.00  0.00    -0.073 N 
ATOM     18  H23 UNL     1     -38.371  12.884  -8.588  1.00  0.00     0.274 HD
ATOM     19  H22 UNL     1     -36.842  12.788  -8.420  1.00  0.00     0.274 HD
ATOM     20  H21 UNL     1     -37.417  13.427  -9.879  1.00  0.00     0.274 HD
ENDBRANCH   4  17
TORSDOF 4
ENDMDL
