MODEL 1
REMARK VINA RESULT: -4.442498701      0.000      0.000
REMARK  2 active torsions:
REMARK  status: ('A' for Active; 'I' for Inactive)
REMARK    1  A    between atoms: N1_1  and  C1_5 
REMARK    2  A    between atoms: C1_5  and  C2_6 
ROOT
HETATM    1  C2  UNL     1     -38.212   9.239  -8.415  1.00  0.00     0.030 C 
HETATM    2  C3  UNL     1     -38.484   8.047  -9.270  1.00  0.00     0.027 C 
HETATM    3  C4  UNL     1     -39.582   8.264 -10.280  1.00  0.00     0.114 C 
HETATM    4  N2  UNL     1     -39.314   9.293 -11.225  1.00  0.00    -0.421 N 
ATOM      5  H2  UNL     1     -38.390   9.437 -11.633  1.00  0.00     0.153 HD
HETATM    6  C5  UNL     1     -40.439  10.113 -11.562  1.00  0.00     0.115 C 
HETATM    7  C6  UNL     1     -39.924  11.517 -11.819  1.00  0.00     0.038 C 
HETATM    8  C7  UNL     1     -38.999  11.990 -10.730  1.00  0.00     0.115 C 
HETATM    9  N3  UNL     1     -39.086  11.256  -9.520  1.00  0.00    -0.421 N 
ATOM     10  H3  UNL     1     -39.922  11.271  -8.936  1.00  0.00     0.153 HD
HETATM   11  C8  UNL     1     -37.934  10.496  -9.172  1.00  0.00     0.120 C 
ENDROOT
BRANCH   1  12
HETATM   12  C1  UNL     1     -36.952   8.918  -7.601  1.00  0.00     0.235 C 
BRANCH  12  13
HETATM   13  N1  UNL     1     -36.521  10.088  -6.867  1.00  0.00    -0.079 N 
ATOM     14  H13 UNL     1     -35.573  10.368  -7.119  1.00  0.00     0.274 HD
ATOM     15  H12 UNL     1     -37.012  10.929  -7.168  1.00  0.00     0.274 HD
ATOM     16  H11 UNL     1     -36.618   9.928  -5.864  1.00  0.00     0.274 HD
ENDBRANCH  12  13
ENDBRANCH   1  12
TORSDOF 2
ENDMDL
MODEL 2
REMARK VINA RESULT: -4.015296429      1.579      3.166
REMARK  2 active torsions:
REMARK  status: ('A' for Active; 'I' for Inactive)
REMARK    1  A    between atoms: N1_1  and  C1_5 
REMARK    2  A    between atoms: C1_5  and  C2_6 
ROOT
HETATM    1  C2  UNL     1     -38.086  11.217 -10.593  1.00  0.00     0.030 C 
HETATM    2  C3  UNL     1     -39.355  11.736 -11.183  1.00  0.00     0.027 C 
HETATM    3  C4  UNL     1     -40.234  10.661 -11.769  1.00  0.00     0.114 C 
HETATM    4  N2  UNL     1     -40.681   9.692 -10.829  1.00  0.00    -0.421 N 
ATOM      5  H2  UNL     1     -40.963   9.938  -9.880  1.00  0.00     0.153 HD
HETATM    6  C5  UNL     1     -40.704   8.345 -11.314  1.00  0.00     0.115 C 
HETATM    7  C6  UNL     1     -40.362   7.431 -10.151  1.00  0.00     0.038 C 
HETATM    8  C7  UNL     1     -39.142   7.898  -9.404  1.00  0.00     0.115 C 
HETATM    9  N3  UNL     1     -38.328   8.817 -10.114  1.00  0.00    -0.421 N 
ATOM     10  H3  UNL     1     -37.817   8.549 -10.955  1.00  0.00     0.153 HD
HETATM   11  C8  UNL     1     -38.270  10.135  -9.581  1.00  0.00     0.120 C 
ENDROOT
BRANCH   1  12
HETATM   12  C1  UNL     1     -37.423  12.398  -9.872  1.00  0.00     0.235 C 
BRANCH  12  13
HETATM   13  N1  UNL     1     -37.091  12.028  -8.513  1.00  0.00    -0.079 N 
ATOM     14  H13 UNL     1     -37.420  11.091  -8.281  1.00  0.00     0.274 HD
ATOM     15  H12 UNL     1     -36.091  11.870  -8.394  1.00  0.00     0.274 HD
ATOM     16  H11 UNL     1     -37.445  12.729  -7.862  1.00  0.00     0.274 HD
ENDBRANCH  12  13
ENDBRANCH   1  12
TORSDOF 2
ENDMDL
MODEL 3
REMARK VINA RESULT: -3.976213266      1.131      2.526
REMARK  2 active torsions:
REMARK  status: ('A' for Active; 'I' for Inactive)
REMARK    1  A    between atoms: N1_1  and  C1_5 
REMARK    2  A    between atoms: C1_5  and  C2_6 
ROOT
HETATM    1  C2  UNL     1     -37.555  10.215  -8.489  1.00  0.00     0.030 C 
HETATM    2  C3  UNL     1     -38.101  11.526  -8.947  1.00  0.00     0.027 C 
HETATM    3  C4  UNL     1     -38.742  11.472 -10.310  1.00  0.00     0.114 C 
HETATM    4  N2  UNL     1     -39.863  10.600 -10.397  1.00  0.00    -0.421 N 
ATOM      5  H2  UNL     1     -40.552  10.517  -9.650  1.00  0.00     0.153 HD
HETATM    6  C5  UNL     1     -39.949   9.847 -11.612  1.00  0.00     0.115 C 
HETATM    7  C6  UNL     1     -40.555   8.497 -11.274  1.00  0.00     0.038 C 
HETATM    8  C7  UNL     1     -39.887   7.858 -10.086  1.00  0.00     0.115 C 
HETATM    9  N3  UNL     1     -38.617   8.397  -9.761  1.00  0.00    -0.421 N 
ATOM     10  H3  UNL     1     -37.811   8.295 -10.379  1.00  0.00     0.153 HD
HETATM   11  C8  UNL     1     -38.535   9.089  -8.520  1.00  0.00     0.120 C 
ENDROOT
BRANCH   1  12
HETATM   12  C1  UNL     1     -37.134  10.402  -7.025  1.00  0.00     0.235 C 
BRANCH  12  13
HETATM   13  N1  UNL     1     -36.011   9.543  -6.716  1.00  0.00    -0.079 N 
ATOM     14  H13 UNL     1     -36.311   8.610  -6.433  1.00  0.00     0.274 HD
ATOM     15  H12 UNL     1     -35.487   9.285  -7.552  1.00  0.00     0.274 HD
ATOM     16  H11 UNL     1     -35.416   9.982  -6.014  1.00  0.00     0.274 HD
ENDBRANCH  12  13
ENDBRANCH   1  12
TORSDOF 2
ENDMDL
MODEL 4
REMARK VINA RESULT: -3.964067210      1.374      3.233
REMARK  2 active torsions:
REMARK  status: ('A' for Active; 'I' for Inactive)
REMARK    1  A    between atoms: N1_1  and  C1_5 
REMARK    2  A    between atoms: C1_5  and  C2_6 
ROOT
HETATM    1  C2  UNL     1     -38.749   8.464  -9.810  1.00  0.00     0.030 C 
HETATM    2  C3  UNL     1     -38.521   8.802  -8.375  1.00  0.00     0.027 C 
HETATM    3  C4  UNL     1     -37.724  10.066  -8.169  1.00  0.00     0.114 C 
HETATM    4  N2  UNL     1     -38.340  11.238  -8.690  1.00  0.00    -0.421 N 
ATOM      5  H2  UNL     1     -39.344  11.406  -8.621  1.00  0.00     0.153 HD
HETATM    6  C5  UNL     1     -37.445  12.163  -9.317  1.00  0.00     0.115 C 
HETATM    7  C6  UNL     1     -38.193  12.820 -10.464  1.00  0.00     0.038 C 
HETATM    8  C7  UNL     1     -38.898  11.813 -11.331  1.00  0.00     0.115 C 
HETATM    9  N3  UNL     1     -38.437  10.480 -11.185  1.00  0.00    -0.421 N 
ATOM     10  H3  UNL     1     -37.499  10.198 -11.470  1.00  0.00     0.153 HD
HETATM   11  C8  UNL     1     -39.363   9.561 -10.616  1.00  0.00     0.120 C 
ENDROOT
BRANCH   1  12
HETATM   12  C1  UNL     1     -39.732   7.287  -9.833  1.00  0.00     0.235 C 
BRANCH  12  13
HETATM   13  N1  UNL     1     -40.912   7.638 -10.594  1.00  0.00    -0.079 N 
ATOM     14  H13 UNL     1     -40.899   8.615 -10.889  1.00  0.00     0.274 HD
ATOM     15  H12 UNL     1     -40.916   7.203 -11.515  1.00  0.00     0.274 HD
ATOM     16  H11 UNL     1     -41.753   7.412 -10.062  1.00  0.00     0.274 HD
ENDBRANCH  12  13
ENDBRANCH   1  12
TORSDOF 2
ENDMDL
MODEL 5
REMARK VINA RESULT: -3.504585788      9.797     10.622
REMARK  2 active torsions:
REMARK  status: ('A' for Active; 'I' for Inactive)
REMARK    1  A    between atoms: N1_1  and  C1_5 
REMARK    2  A    between atoms: C1_5  and  C2_6 
ROOT
HETATM    1  C2  UNL     1     -41.404  17.426  -2.974  1.00  0.00     0.030 C 
HETATM    2  C3  UNL     1     -42.016  17.334  -1.617  1.00  0.00     0.027 C 
HETATM    3  C4  UNL     1     -43.499  17.607  -1.601  1.00  0.00     0.114 C 
HETATM    4  N2  UNL     1     -44.270  16.694  -2.372  1.00  0.00    -0.421 N 
ATOM      5  H2  UNL     1     -44.068  15.694  -2.403  1.00  0.00     0.153 HD
HETATM    6  C5  UNL     1     -45.351  17.284  -3.103  1.00  0.00     0.115 C 
HETATM    7  C6  UNL     1     -45.507  16.509  -4.400  1.00  0.00     0.038 C 
HETATM    8  C7  UNL     1     -44.192  16.318  -5.105  1.00  0.00     0.115 C 
HETATM    9  N3  UNL     1     -43.159  17.191  -4.681  1.00  0.00    -0.421 N 
ATOM     10  H3  UNL     1     -43.200  18.197  -4.845  1.00  0.00     0.153 HD
HETATM   11  C8  UNL     1     -42.063  16.578  -4.011  1.00  0.00     0.120 C 
ENDROOT
BRANCH   1  12
HETATM   12  C1  UNL     1     -39.959  16.926  -2.839  1.00  0.00     0.235 C 
BRANCH  12  13
HETATM   13  N1  UNL     1     -39.871  15.541  -3.248  1.00  0.00    -0.079 N 
ATOM     14  H13 UNL     1     -40.565  14.959  -2.777  1.00  0.00     0.274 HD
ATOM     15  H12 UNL     1     -40.188  15.405  -4.207  1.00  0.00     0.274 HD
ATOM     16  H11 UNL     1     -38.923  15.193  -3.107  1.00  0.00     0.274 HD
ENDBRANCH  12  13
ENDBRANCH   1  12
TORSDOF 2
ENDMDL
