MODEL 1
REMARK VINA RESULT: -6.132110966      0.000      0.000
REMARK  8 active torsions:
REMARK  status: ('A' for Active; 'I' for Inactive)
REMARK    1  A    between atoms: O1_2  and  C2_3 
REMARK    2  A    between atoms: C5_12  and  N4_13 
REMARK    3  A    between atoms: N5_17  and  C7_18 
REMARK    4  A    between atoms: C7_18  and  C8_19 
REMARK    5  A    between atoms: C8_19  and  N6_20 
REMARK    6  A    between atoms: N6_20  and  N7_21 
REMARK    7  A    between atoms: N7_21  and  C9_23 
REMARK    8  A    between atoms: C9_23  and  N8_24 
ROOT
HETATM    1  C2  UNL     1      -8.568  -5.165 -43.586  1.00  0.00     0.227 A 
HETATM    2  N1  UNL     1      -9.379  -4.440 -44.339  1.00  0.00    -0.306 N 
ATOM      3  H1  UNL     1      -9.065  -3.715 -44.985  1.00  0.00     0.171 HD
HETATM    4  C3  UNL     1     -10.687  -4.780 -44.148  1.00  0.00     0.140 A 
HETATM    5  N2  UNL     1     -11.835  -4.335 -44.675  1.00  0.00    -0.336 N 
ATOM      6  H2  UNL     1     -11.830  -3.590 -45.373  1.00  0.00     0.168 HD
HETATM    7  C4  UNL     1     -13.003  -4.888 -44.269  1.00  0.00     0.183 A 
HETATM    8  N3  UNL     1     -13.000  -5.886 -43.334  1.00  0.00    -0.337 N 
ATOM      9  H3  UNL     1     -13.884  -6.294 -43.030  1.00  0.00     0.168 HD
HETATM   10  C5  UNL     1     -11.862  -6.330 -42.816  1.00  0.00     0.131 A 
HETATM   11  C6  UNL     1     -10.636  -5.785 -43.215  1.00  0.00     0.126 A 
HETATM   12  N5  UNL     1      -9.380  -6.043 -42.860  1.00  0.00    -0.305 N 
ENDROOT
BRANCH  12  13
HETATM   13  C7  UNL     1      -8.869  -7.026 -41.969  1.00  0.00     0.151 C 
BRANCH  13  14
HETATM   14  C8  UNL     1      -8.104  -8.201 -42.473  1.00  0.00     0.155 C 
BRANCH  14  15
HETATM   15  N6  UNL     1      -6.767  -8.142 -41.824  1.00  0.00    -0.143 NA
BRANCH  15  16
HETATM   16  N7  UNL     1      -6.641  -7.132 -40.953  1.00  0.00    -0.315 N 
ATOM     17  H7  UNL     1      -7.487  -6.871 -40.446  1.00  0.00     0.177 HD
BRANCH  16  18
HETATM   18  C9  UNL     1      -5.505  -6.398 -40.653  1.00  0.00     0.364 C 
BRANCH  18  19
HETATM   19  N8  UNL     1      -5.818  -5.510 -39.489  1.00  0.00    -0.063 N 
ATOM     20  H83 UNL     1      -6.365  -4.690 -39.754  1.00  0.00     0.276 HD
ATOM     21  H82 UNL     1      -6.496  -5.924 -38.849  1.00  0.00     0.276 HD
ATOM     22  H81 UNL     1      -4.940  -5.267 -39.029  1.00  0.00     0.276 HD
ENDBRANCH  18  19
ENDBRANCH  16  18
ENDBRANCH  15  16
ENDBRANCH  14  15
ENDBRANCH  13  14
ENDBRANCH  12  13
BRANCH   1  23
HETATM   23  O1  UNL     1      -7.221  -5.149 -43.467  1.00  0.00    -0.327 OA
HETATM   24  C1  UNL     1      -6.182  -5.445 -44.309  1.00  0.00     0.213 C 
ENDBRANCH   1  23
BRANCH  10  25
HETATM   25  N4  UNL     1     -11.861  -7.219 -41.925  1.00  0.00    -0.383 N 
ATOM     26  H42 UNL     1     -11.071  -7.263 -41.282  1.00  0.00     0.157 HD
ATOM     27  H41 UNL     1     -12.648  -7.860 -41.826  1.00  0.00     0.157 HD
ENDBRANCH  10  25
TORSDOF 8
ENDMDL
MODEL 2
REMARK VINA RESULT: -5.952332805      2.006      4.280
REMARK  8 active torsions:
REMARK  status: ('A' for Active; 'I' for Inactive)
REMARK    1  A    between atoms: O1_2  and  C2_3 
REMARK    2  A    between atoms: C5_12  and  N4_13 
REMARK    3  A    between atoms: N5_17  and  C7_18 
REMARK    4  A    between atoms: C7_18  and  C8_19 
REMARK    5  A    between atoms: C8_19  and  N6_20 
REMARK    6  A    between atoms: N6_20  and  N7_21 
REMARK    7  A    between atoms: N7_21  and  C9_23 
REMARK    8  A    between atoms: C9_23  and  N8_24 
ROOT
HETATM    1  C2  UNL     1      -7.393  -6.924 -41.767  1.00  0.00     0.227 A 
HETATM    2  N1  UNL     1      -8.309  -7.127 -40.835  1.00  0.00    -0.306 N 
ATOM      3  H1  UNL     1      -8.103  -7.465 -39.894  1.00  0.00     0.171 HD
HETATM    4  C3  UNL     1      -9.563  -6.828 -41.284  1.00  0.00     0.140 A 
HETATM    5  N2  UNL     1     -10.774  -6.874 -40.713  1.00  0.00    -0.336 N 
ATOM      6  H2  UNL     1     -10.880  -7.181 -39.746  1.00  0.00     0.168 HD
HETATM    7  C4  UNL     1     -11.856  -6.505 -41.440  1.00  0.00     0.183 A 
HETATM    8  N3  UNL     1     -11.705  -6.095 -42.735  1.00  0.00    -0.337 N 
ATOM      9  H3  UNL     1     -12.526  -5.823 -43.277  1.00  0.00     0.168 HD
HETATM   10  C5  UNL     1     -10.504  -6.046 -43.298  1.00  0.00     0.131 A 
HETATM   11  C6  UNL     1      -9.363  -6.415 -42.577  1.00  0.00     0.126 A 
HETATM   12  N5  UNL     1      -8.073  -6.456 -42.897  1.00  0.00    -0.305 N 
ENDROOT
BRANCH  12  13
HETATM   13  C7  UNL     1      -7.420  -6.075 -44.101  1.00  0.00     0.151 C 
BRANCH  13  14
HETATM   14  C8  UNL     1      -6.732  -4.759 -44.223  1.00  0.00     0.155 C 
BRANCH  14  15
HETATM   15  N6  UNL     1      -7.800  -3.742 -44.412  1.00  0.00    -0.143 NA
BRANCH  15  16
HETATM   16  N7  UNL     1      -7.378  -2.632 -45.031  1.00  0.00    -0.315 N 
ATOM     17  H7  UNL     1      -7.692  -1.749 -44.629  1.00  0.00     0.177 HD
BRANCH  16  18
HETATM   18  C9  UNL     1      -6.567  -2.532 -46.150  1.00  0.00     0.364 C 
BRANCH  18  19
HETATM   19  N8  UNL     1      -7.256  -1.653 -47.148  1.00  0.00    -0.063 N 
ATOM     20  H83 UNL     1      -8.153  -2.031 -47.453  1.00  0.00     0.276 HD
ATOM     21  H82 UNL     1      -7.605  -0.788 -46.736  1.00  0.00     0.276 HD
ATOM     22  H81 UNL     1      -6.613  -1.488 -47.923  1.00  0.00     0.276 HD
ENDBRANCH  18  19
ENDBRANCH  16  18
ENDBRANCH  15  16
ENDBRANCH  14  15
ENDBRANCH  13  14
ENDBRANCH  12  13
BRANCH   1  23
HETATM   23  O1  UNL     1      -6.051  -7.096 -41.742  1.00  0.00    -0.327 OA
HETATM   24  C1  UNL     1      -5.038  -6.605 -40.962  1.00  0.00     0.213 C 
ENDBRANCH   1  23
BRANCH  10  25
HETATM   25  N4  UNL     1     -10.369  -5.708 -44.503  1.00  0.00    -0.383 N 
ATOM     26  H42 UNL     1      -9.947  -6.374 -45.150  1.00  0.00     0.157 HD
ATOM     27  H41 UNL     1     -10.704  -4.803 -44.833  1.00  0.00     0.157 HD
ENDBRANCH  10  25
TORSDOF 8
ENDMDL
MODEL 3
REMARK VINA RESULT: -5.899429810      1.842      6.052
REMARK  8 active torsions:
REMARK  status: ('A' for Active; 'I' for Inactive)
REMARK    1  A    between atoms: O1_2  and  C2_3 
REMARK    2  A    between atoms: C5_12  and  N4_13 
REMARK    3  A    between atoms: N5_17  and  C7_18 
REMARK    4  A    between atoms: C7_18  and  C8_19 
REMARK    5  A    between atoms: C8_19  and  N6_20 
REMARK    6  A    between atoms: N6_20  and  N7_21 
REMARK    7  A    between atoms: N7_21  and  C9_23 
REMARK    8  A    between atoms: C9_23  and  N8_24 
ROOT
HETATM    1  C2  UNL     1      -8.714  -6.671 -41.757  1.00  0.00     0.227 A 
HETATM    2  N1  UNL     1      -7.976  -6.733 -40.661  1.00  0.00    -0.306 N 
ATOM      3  H1  UNL     1      -8.350  -6.913 -39.729  1.00  0.00     0.171 HD
HETATM    4  C3  UNL     1      -6.654  -6.528 -40.929  1.00  0.00     0.140 A 
HETATM    5  N2  UNL     1      -5.557  -6.500 -40.159  1.00  0.00    -0.336 N 
ATOM      6  H2  UNL     1      -5.627  -6.654 -39.153  1.00  0.00     0.168 HD
HETATM    7  C4  UNL     1      -4.355  -6.264 -40.736  1.00  0.00     0.183 A 
HETATM    8  N3  UNL     1      -4.272  -6.057 -42.086  1.00  0.00    -0.337 N 
ATOM      9  H3  UNL     1      -3.363  -5.875 -42.512  1.00  0.00     0.168 HD
HETATM   10  C5  UNL     1      -5.357  -6.090 -42.848  1.00  0.00     0.131 A 
HETATM   11  C6  UNL     1      -6.615  -6.335 -42.287  1.00  0.00     0.126 A 
HETATM   12  N5  UNL     1      -7.833  -6.419 -42.815  1.00  0.00    -0.305 N 
ENDROOT
BRANCH  12  13
HETATM   13  C7  UNL     1      -8.246  -6.333 -44.172  1.00  0.00     0.151 C 
BRANCH  13  14
HETATM   14  C8  UNL     1      -8.622  -5.028 -44.785  1.00  0.00     0.155 C 
BRANCH  14  15
HETATM   15  N6  UNL     1     -10.055  -5.141 -45.167  1.00  0.00    -0.143 NA
BRANCH  15  16
HETATM   16  N7  UNL     1     -10.896  -4.700 -44.223  1.00  0.00    -0.315 N 
ATOM     17  H7  UNL     1     -10.464  -4.356 -43.365  1.00  0.00     0.177 HD
BRANCH  16  18
HETATM   18  C9  UNL     1     -12.280  -4.653 -44.265  1.00  0.00     0.364 C 
BRANCH  18  19
HETATM   19  N8  UNL     1     -12.808  -5.492 -43.142  1.00  0.00    -0.063 N 
ATOM     20  H83 UNL     1     -12.188  -6.267 -42.903  1.00  0.00     0.276 HD
ATOM     21  H82 UNL     1     -12.778  -5.011 -42.243  1.00  0.00     0.276 HD
ATOM     22  H81 UNL     1     -13.748  -5.801 -43.392  1.00  0.00     0.276 HD
ENDBRANCH  18  19
ENDBRANCH  16  18
ENDBRANCH  15  16
ENDBRANCH  14  15
ENDBRANCH  13  14
ENDBRANCH  12  13
BRANCH   1  23
HETATM   23  O1  UNL     1     -10.048  -6.811 -41.935  1.00  0.00    -0.327 OA
HETATM   24  C1  UNL     1     -10.953  -7.798 -41.651  1.00  0.00     0.213 C 
ENDBRANCH   1  23
BRANCH  10  25
HETATM   25  N4  UNL     1      -5.286  -5.859 -44.083  1.00  0.00    -0.383 N 
ATOM     26  H42 UNL     1      -5.815  -6.454 -44.720  1.00  0.00     0.157 HD
ATOM     27  H41 UNL     1      -4.740  -5.074 -44.438  1.00  0.00     0.157 HD
ENDBRANCH  10  25
TORSDOF 8
ENDMDL
MODEL 4
REMARK VINA RESULT: -5.851001213      1.340      1.871
REMARK  8 active torsions:
REMARK  status: ('A' for Active; 'I' for Inactive)
REMARK    1  A    between atoms: O1_2  and  C2_3 
REMARK    2  A    between atoms: C5_12  and  N4_13 
REMARK    3  A    between atoms: N5_17  and  C7_18 
REMARK    4  A    between atoms: C7_18  and  C8_19 
REMARK    5  A    between atoms: C8_19  and  N6_20 
REMARK    6  A    between atoms: N6_20  and  N7_21 
REMARK    7  A    between atoms: N7_21  and  C9_23 
REMARK    8  A    between atoms: C9_23  and  N8_24 
ROOT
HETATM    1  C2  UNL     1      -8.528  -5.386 -43.898  1.00  0.00     0.227 A 
HETATM    2  N1  UNL     1      -9.313  -4.800 -44.787  1.00  0.00    -0.306 N 
ATOM      3  H1  UNL     1      -8.973  -4.295 -45.606  1.00  0.00     0.171 HD
HETATM    4  C3  UNL     1     -10.633  -4.955 -44.476  1.00  0.00     0.140 A 
HETATM    5  N2  UNL     1     -11.766  -4.549 -45.065  1.00  0.00    -0.336 N 
ATOM      6  H2  UNL     1     -11.735  -4.009 -45.930  1.00  0.00     0.168 HD
HETATM    7  C4  UNL     1     -12.953  -4.868 -44.496  1.00  0.00     0.183 A 
HETATM    8  N3  UNL     1     -12.984  -5.593 -43.337  1.00  0.00    -0.337 N 
ATOM      9  H3  UNL     1     -13.882  -5.825 -42.913  1.00  0.00     0.168 HD
HETATM   10  C5  UNL     1     -11.862  -5.998 -42.757  1.00  0.00     0.131 A 
HETATM   11  C6  UNL     1     -10.618  -5.691 -43.319  1.00  0.00     0.126 A 
HETATM   12  N5  UNL     1      -9.371  -5.970 -42.947  1.00  0.00    -0.305 N 
ENDROOT
BRANCH  12  13
HETATM   13  C7  UNL     1      -8.898  -6.740 -41.850  1.00  0.00     0.151 C 
BRANCH  13  14
HETATM   14  C8  UNL     1      -8.547  -8.179 -42.010  1.00  0.00     0.155 C 
BRANCH  14  15
HETATM   15  N6  UNL     1      -7.101  -8.298 -41.683  1.00  0.00    -0.143 NA
BRANCH  15  16
HETATM   16  N7  UNL     1      -6.300  -8.159 -42.747  1.00  0.00    -0.315 N 
ATOM     17  H7  UNL     1      -5.720  -7.320 -42.762  1.00  0.00     0.177 HD
BRANCH  16  18
HETATM   18  C9  UNL     1      -6.159  -9.011 -43.830  1.00  0.00     0.364 C 
BRANCH  18  19
HETATM   19  N8  UNL     1      -6.057  -8.176 -45.069  1.00  0.00    -0.063 N 
ATOM     20  H83 UNL     1      -6.895  -8.225 -45.648  1.00  0.00     0.276 HD
ATOM     21  H82 UNL     1      -6.084  -7.176 -44.873  1.00  0.00     0.276 HD
ATOM     22  H81 UNL     1      -5.214  -8.456 -45.571  1.00  0.00     0.276 HD
ENDBRANCH  18  19
ENDBRANCH  16  18
ENDBRANCH  15  16
ENDBRANCH  14  15
ENDBRANCH  13  14
ENDBRANCH  12  13
BRANCH   1  23
HETATM   23  O1  UNL     1      -7.179  -5.469 -43.828  1.00  0.00    -0.327 OA
HETATM   24  C1  UNL     1      -6.147  -4.736 -44.349  1.00  0.00     0.213 C 
ENDBRANCH   1  23
BRANCH  10  25
HETATM   25  N4  UNL     1     -11.889  -6.629 -41.668  1.00  0.00    -0.383 N 
ATOM     26  H42 UNL     1     -12.656  -7.282 -41.504  1.00  0.00     0.157 HD
ATOM     27  H41 UNL     1     -11.144  -6.518 -40.980  1.00  0.00     0.157 HD
ENDBRANCH  10  25
TORSDOF 8
ENDMDL
MODEL 5
REMARK VINA RESULT: -5.650442135      1.475      1.846
REMARK  8 active torsions:
REMARK  status: ('A' for Active; 'I' for Inactive)
REMARK    1  A    between atoms: O1_2  and  C2_3 
REMARK    2  A    between atoms: C5_12  and  N4_13 
REMARK    3  A    between atoms: N5_17  and  C7_18 
REMARK    4  A    between atoms: C7_18  and  C8_19 
REMARK    5  A    between atoms: C8_19  and  N6_20 
REMARK    6  A    between atoms: N6_20  and  N7_21 
REMARK    7  A    between atoms: N7_21  and  C9_23 
REMARK    8  A    between atoms: C9_23  and  N8_24 
ROOT
HETATM    1  C2  UNL     1      -7.979  -6.369 -43.627  1.00  0.00     0.227 A 
HETATM    2  N1  UNL     1      -8.952  -5.829 -44.343  1.00  0.00    -0.306 N 
ATOM      3  H1  UNL     1      -8.822  -5.418 -45.268  1.00  0.00     0.171 HD
HETATM    4  C3  UNL     1     -10.151  -5.890 -43.694  1.00  0.00     0.140 A 
HETATM    5  N2  UNL     1     -11.387  -5.485 -44.015  1.00  0.00    -0.336 N 
ATOM      6  H2  UNL     1     -11.566  -5.027 -44.909  1.00  0.00     0.168 HD
HETATM    7  C4  UNL     1     -12.396  -5.692 -43.135  1.00  0.00     0.183 A 
HETATM    8  N3  UNL     1     -12.146  -6.306 -41.939  1.00  0.00    -0.337 N 
ATOM      9  H3  UNL     1     -12.911  -6.454 -41.280  1.00  0.00     0.168 HD
HETATM   10  C5  UNL     1     -10.923  -6.711 -41.624  1.00  0.00     0.131 A 
HETATM   11  C6  UNL     1      -9.857  -6.517 -42.510  1.00  0.00     0.126 A 
HETATM   12  N5  UNL     1      -8.564  -6.822 -42.440  1.00  0.00    -0.305 N 
ENDROOT
BRANCH  12  13
HETATM   13  C7  UNL     1      -7.844  -7.512 -41.427  1.00  0.00     0.151 C 
BRANCH  13  14
HETATM   14  C8  UNL     1      -6.517  -7.025 -40.955  1.00  0.00     0.155 C 
BRANCH  14  15
HETATM   15  N6  UNL     1      -6.775  -6.218 -39.733  1.00  0.00    -0.143 NA
BRANCH  15  16
HETATM   16  N7  UNL     1      -5.762  -5.406 -39.405  1.00  0.00    -0.315 N 
ATOM     17  H7  UNL     1      -4.930  -5.470 -39.993  1.00  0.00     0.177 HD
BRANCH  16  18
HETATM   18  C9  UNL     1      -5.701  -4.489 -38.368  1.00  0.00     0.364 C 
BRANCH  18  19
HETATM   19  N8  UNL     1      -4.270  -4.087 -38.186  1.00  0.00    -0.063 N 
ATOM     20  H83 UNL     1      -3.633  -4.612 -38.786  1.00  0.00     0.276 HD
ATOM     21  H82 UNL     1      -4.072  -3.157 -38.557  1.00  0.00     0.276 HD
ATOM     22  H81 UNL     1      -4.040  -4.172 -37.196  1.00  0.00     0.276 HD
ENDBRANCH  18  19
ENDBRANCH  16  18
ENDBRANCH  15  16
ENDBRANCH  14  15
ENDBRANCH  13  14
ENDBRANCH  12  13
BRANCH   1  23
HETATM   23  O1  UNL     1      -6.660  -6.511 -43.892  1.00  0.00    -0.327 OA
HETATM   24  C1  UNL     1      -5.687  -5.679 -44.378  1.00  0.00     0.213 C 
ENDBRANCH   1  23
BRANCH  10  25
HETATM   25  N4  UNL     1     -10.685  -7.239 -40.506  1.00  0.00    -0.383 N 
ATOM     26  H42 UNL     1     -11.253  -6.961 -39.707  1.00  0.00     0.157 HD
ATOM     27  H41 UNL     1      -9.964  -7.954 -40.408  1.00  0.00     0.157 HD
ENDBRANCH  10  25
TORSDOF 8
ENDMDL
