MODEL 1
REMARK VINA RESULT: -6.144153301      0.000      0.000
REMARK  10 active torsions:
REMARK  status: ('A' for Active; 'I' for Inactive)
REMARK    1  A    between atoms: N1_2  and  C2_4 
REMARK    2  A    between atoms: C4_8  and  C5_9 
REMARK    3  A    between atoms: C5_9  and  N3_10 
REMARK    4  A    between atoms: N3_10  and  N4_11 
REMARK    5  A    between atoms: N4_11  and  C6_13 
REMARK    6  A    between atoms: C6_13  and  C7_17 
REMARK    7  A    between atoms: C7_17  and  N6_18 
REMARK    8  A    between atoms: N6_18  and  C8_21 
REMARK    9  A    between atoms: C8_21  and  C9_22 
REMARK   10  A    between atoms: C9_22  and  N7_24 
ROOT
HETATM    1  C6  UNL     1     -12.478  -5.447 -43.595  1.00  0.00     0.127 C 
HETATM    2  N5  UNL     1     -13.491  -4.696 -43.844  1.00  0.00    -0.386 N 
ATOM      3  H51 UNL     1     -13.592  -4.235 -44.748  1.00  0.00     0.157 HD
ATOM      4  H52 UNL     1     -14.191  -4.572 -43.113  1.00  0.00     0.157 HD
ENDROOT
BRANCH   1   5
HETATM    5  N4  UNL     1     -12.335  -6.095 -42.324  1.00  0.00    -0.223 N 
ATOM      6  H4  UNL     1     -12.967  -5.816 -41.574  1.00  0.00     0.203 HD
BRANCH   5   7
HETATM    7  N3  UNL     1     -11.456  -7.011 -42.067  1.00  0.00    -0.334 NA
BRANCH   7   8
HETATM    8  C5  UNL     1     -10.678  -7.866 -41.810  1.00  0.00     0.247 C 
BRANCH   8   9
HETATM    9  C4  UNL     1      -9.202  -7.672 -41.707  1.00  0.00     0.125 A 
HETATM   10  C3  UNL     1      -8.233  -8.319 -42.420  1.00  0.00     0.131 A 
HETATM   11  N2  UNL     1      -7.064  -7.821 -41.991  1.00  0.00    -0.329 N 
HETATM   12  C2  UNL     1      -7.305  -6.898 -41.045  1.00  0.00     0.224 A 
ATOM     13  H2  UNL     1      -6.142  -8.098 -42.329  1.00  0.00     0.168 HD
HETATM   14  O1  UNL     1      -8.605  -6.832 -40.897  1.00  0.00    -0.276 OA
BRANCH  12  15
HETATM   15  N1  UNL     1      -6.368  -6.119 -40.318  1.00  0.00    -0.360 N 
HETATM   16  C1  UNL     1      -4.967  -6.197 -40.697  1.00  0.00     0.150 C 
ATOM     17  H1  UNL     1      -6.670  -5.519 -39.549  1.00  0.00     0.162 HD
ENDBRANCH  12  15
ENDBRANCH   8   9
ENDBRANCH   7   8
ENDBRANCH   5   7
ENDBRANCH   1   5
BRANCH   1  18
HETATM   18  C7  UNL     1     -11.460  -5.628 -44.657  1.00  0.00     0.310 C 
BRANCH  18  19
HETATM   19  N6  UNL     1     -10.355  -4.767 -44.397  1.00  0.00    -0.067 N 
ATOM     20  H62 UNL     1     -10.423  -3.915 -44.953  1.00  0.00     0.277 HD
ATOM     21  H61 UNL     1     -10.422  -4.365 -43.462  1.00  0.00     0.277 HD
BRANCH  19  22
HETATM   22  C8  UNL     1      -9.070  -5.403 -44.589  1.00  0.00     0.264 C 
BRANCH  22  23
HETATM   23  C9  UNL     1      -7.976  -4.710 -43.802  1.00  0.00     0.205 C 
HETATM   24  C10 UNL     1      -6.635  -5.037 -44.393  1.00  0.00     0.041 C 
BRANCH  23  25
HETATM   25  N7  UNL     1      -8.224  -3.288 -43.803  1.00  0.00    -0.074 N 
ATOM     26  H73 UNL     1      -8.513  -2.946 -44.720  1.00  0.00     0.274 HD
ATOM     27  H72 UNL     1      -9.067  -3.040 -43.285  1.00  0.00     0.274 HD
ATOM     28  H71 UNL     1      -7.396  -2.806 -43.452  1.00  0.00     0.274 HD
ENDBRANCH  23  25
ENDBRANCH  22  23
ENDBRANCH  19  22
ENDBRANCH  18  19
ENDBRANCH   1  18
TORSDOF 10
ENDMDL
MODEL 2
REMARK VINA RESULT: -6.066402492      1.272      1.718
REMARK  10 active torsions:
REMARK  status: ('A' for Active; 'I' for Inactive)
REMARK    1  A    between atoms: N1_2  and  C2_4 
REMARK    2  A    between atoms: C4_8  and  C5_9 
REMARK    3  A    between atoms: C5_9  and  N3_10 
REMARK    4  A    between atoms: N3_10  and  N4_11 
REMARK    5  A    between atoms: N4_11  and  C6_13 
REMARK    6  A    between atoms: C6_13  and  C7_17 
REMARK    7  A    between atoms: C7_17  and  N6_18 
REMARK    8  A    between atoms: N6_18  and  C8_21 
REMARK    9  A    between atoms: C8_21  and  C9_22 
REMARK   10  A    between atoms: C9_22  and  N7_24 
ROOT
HETATM    1  C6  UNL     1     -12.471  -5.443 -43.572  1.00  0.00     0.127 C 
HETATM    2  N5  UNL     1     -13.489  -4.738 -43.920  1.00  0.00    -0.386 N 
ATOM      3  H51 UNL     1     -13.571  -4.367 -44.866  1.00  0.00     0.157 HD
ATOM      4  H52 UNL     1     -14.212  -4.559 -43.224  1.00  0.00     0.157 HD
ENDROOT
BRANCH   1   5
HETATM    5  N4  UNL     1     -12.356  -5.964 -42.242  1.00  0.00    -0.223 N 
ATOM      6  H4  UNL     1     -12.934  -5.543 -41.513  1.00  0.00     0.203 HD
BRANCH   5   7
HETATM    7  N3  UNL     1     -11.567  -6.934 -41.904  1.00  0.00    -0.334 NA
BRANCH   7   8
HETATM    8  C5  UNL     1     -10.843  -7.806 -41.562  1.00  0.00     0.247 C 
BRANCH   8   9
HETATM    9  C4  UNL     1      -9.377  -7.852 -41.832  1.00  0.00     0.125 A 
HETATM   10  C3  UNL     1      -8.432  -6.956 -41.417  1.00  0.00     0.131 A 
HETATM   11  N2  UNL     1      -7.262  -7.404 -41.895  1.00  0.00    -0.329 N 
HETATM   12  C2  UNL     1      -7.478  -8.538 -42.583  1.00  0.00     0.224 A 
ATOM     13  H2  UNL     1      -6.355  -6.956 -41.759  1.00  0.00     0.168 HD
HETATM   14  O1  UNL     1      -8.765  -8.780 -42.525  1.00  0.00    -0.276 OA
BRANCH  12  15
HETATM   15  N1  UNL     1      -6.532  -9.351 -43.258  1.00  0.00    -0.360 N 
HETATM   16  C1  UNL     1      -5.335  -9.754 -42.538  1.00  0.00     0.150 C 
ATOM     17  H1  UNL     1      -6.687  -9.646 -44.222  1.00  0.00     0.162 HD
ENDBRANCH  12  15
ENDBRANCH   8   9
ENDBRANCH   7   8
ENDBRANCH   5   7
ENDBRANCH   1   5
BRANCH   1  18
HETATM   18  C7  UNL     1     -11.419  -5.703 -44.582  1.00  0.00     0.310 C 
BRANCH  18  19
HETATM   19  N6  UNL     1     -10.270  -4.920 -44.274  1.00  0.00    -0.067 N 
ATOM     20  H62 UNL     1     -10.352  -3.985 -44.674  1.00  0.00     0.277 HD
ATOM     21  H61 UNL     1     -10.252  -4.679 -43.282  1.00  0.00     0.277 HD
BRANCH  19  22
HETATM   22  C8  UNL     1      -9.025  -5.539 -44.672  1.00  0.00     0.264 C 
BRANCH  22  23
HETATM   23  C9  UNL     1      -7.837  -4.637 -44.405  1.00  0.00     0.205 C 
HETATM   24  C10 UNL     1      -7.122  -4.338 -45.692  1.00  0.00     0.041 C 
BRANCH  23  25
HETATM   25  N7  UNL     1      -8.298  -3.429 -43.762  1.00  0.00    -0.074 N 
ATOM     26  H73 UNL     1      -8.878  -2.860 -44.378  1.00  0.00     0.274 HD
ATOM     27  H72 UNL     1      -8.995  -3.616 -43.041  1.00  0.00     0.274 HD
ATOM     28  H71 UNL     1      -7.494  -2.916 -43.401  1.00  0.00     0.274 HD
ENDBRANCH  23  25
ENDBRANCH  22  23
ENDBRANCH  19  22
ENDBRANCH  18  19
ENDBRANCH   1  18
TORSDOF 10
ENDMDL
MODEL 3
REMARK VINA RESULT: -5.725929977      1.914      3.701
REMARK  10 active torsions:
REMARK  status: ('A' for Active; 'I' for Inactive)
REMARK    1  A    between atoms: N1_2  and  C2_4 
REMARK    2  A    between atoms: C4_8  and  C5_9 
REMARK    3  A    between atoms: C5_9  and  N3_10 
REMARK    4  A    between atoms: N3_10  and  N4_11 
REMARK    5  A    between atoms: N4_11  and  C6_13 
REMARK    6  A    between atoms: C6_13  and  C7_17 
REMARK    7  A    between atoms: C7_17  and  N6_18 
REMARK    8  A    between atoms: N6_18  and  C8_21 
REMARK    9  A    between atoms: C8_21  and  C9_22 
REMARK   10  A    between atoms: C9_22  and  N7_24 
ROOT
HETATM    1  C6  UNL     1      -9.868  -7.438 -41.507  1.00  0.00     0.127 C 
HETATM    2  N5  UNL     1      -9.441  -6.562 -40.669  1.00  0.00    -0.386 N 
ATOM      3  H51 UNL     1     -10.088  -5.946 -40.178  1.00  0.00     0.157 HD
ATOM      4  H52 UNL     1      -8.436  -6.498 -40.508  1.00  0.00     0.157 HD
ENDROOT
BRANCH   1   5
HETATM    5  N4  UNL     1      -8.958  -8.304 -42.196  1.00  0.00    -0.223 N 
ATOM      6  H4  UNL     1      -9.351  -9.073 -42.740  1.00  0.00     0.203 HD
BRANCH   5   7
HETATM    7  N3  UNL     1      -7.670  -8.175 -42.174  1.00  0.00    -0.334 NA
BRANCH   7   8
HETATM    8  C5  UNL     1      -6.493  -8.053 -42.116  1.00  0.00     0.247 C 
BRANCH   8   9
HETATM    9  C4  UNL     1      -5.779  -7.080 -41.239  1.00  0.00     0.125 A 
HETATM   10  C3  UNL     1      -4.446  -6.775 -41.258  1.00  0.00     0.131 A 
HETATM   11  N2  UNL     1      -4.264  -5.856 -40.300  1.00  0.00    -0.329 N 
HETATM   12  C2  UNL     1      -5.444  -5.602 -39.709  1.00  0.00     0.224 A 
ATOM     13  H2  UNL     1      -3.374  -5.420 -40.058  1.00  0.00     0.168 HD
HETATM   14  O1  UNL     1      -6.337  -6.357 -40.300  1.00  0.00    -0.276 OA
BRANCH  12  15
HETATM   15  N1  UNL     1      -5.722  -4.701 -38.649  1.00  0.00    -0.360 N 
HETATM   16  C1  UNL     1      -4.670  -3.791 -38.228  1.00  0.00     0.150 C 
ATOM     17  H1  UNL     1      -6.635  -4.692 -38.195  1.00  0.00     0.162 HD
ENDBRANCH  12  15
ENDBRANCH   8   9
ENDBRANCH   7   8
ENDBRANCH   5   7
ENDBRANCH   1   5
BRANCH   1  18
HETATM   18  C7  UNL     1     -11.328  -7.531 -41.741  1.00  0.00     0.310 C 
BRANCH  18  19
HETATM   19  N6  UNL     1     -11.847  -6.227 -41.987  1.00  0.00    -0.067 N 
ATOM     20  H62 UNL     1     -12.626  -6.025 -41.360  1.00  0.00     0.277 HD
ATOM     21  H61 UNL     1     -11.188  -5.512 -41.675  1.00  0.00     0.277 HD
BRANCH  19  22
HETATM   22  C8  UNL     1     -12.227  -6.006 -43.364  1.00  0.00     0.264 C 
BRANCH  22  23
HETATM   23  C9  UNL     1     -11.433  -4.880 -43.994  1.00  0.00     0.205 C 
HETATM   24  C10 UNL     1     -10.131  -5.407 -44.527  1.00  0.00     0.041 C 
BRANCH  23  25
HETATM   25  N7  UNL     1     -12.224  -4.271 -45.036  1.00  0.00    -0.074 N 
ATOM     26  H73 UNL     1     -11.840  -3.377 -45.343  1.00  0.00     0.274 HD
ATOM     27  H72 UNL     1     -12.149  -4.770 -45.922  1.00  0.00     0.274 HD
ATOM     28  H71 UNL     1     -13.190  -4.190 -44.717  1.00  0.00     0.274 HD
ENDBRANCH  23  25
ENDBRANCH  22  23
ENDBRANCH  19  22
ENDBRANCH  18  19
ENDBRANCH   1  18
TORSDOF 10
ENDMDL
MODEL 4
REMARK VINA RESULT: -5.708100950      1.925      4.235
REMARK  10 active torsions:
REMARK  status: ('A' for Active; 'I' for Inactive)
REMARK    1  A    between atoms: N1_2  and  C2_4 
REMARK    2  A    between atoms: C4_8  and  C5_9 
REMARK    3  A    between atoms: C5_9  and  N3_10 
REMARK    4  A    between atoms: N3_10  and  N4_11 
REMARK    5  A    between atoms: N4_11  and  C6_13 
REMARK    6  A    between atoms: C6_13  and  C7_17 
REMARK    7  A    between atoms: C7_17  and  N6_18 
REMARK    8  A    between atoms: N6_18  and  C8_21 
REMARK    9  A    between atoms: C8_21  and  C9_22 
REMARK   10  A    between atoms: C9_22  and  N7_24 
ROOT
HETATM    1  C6  UNL     1     -10.578  -7.258 -41.026  1.00  0.00     0.127 C 
HETATM    2  N5  UNL     1     -10.679  -8.539 -40.997  1.00  0.00    -0.386 N 
ATOM      3  H51 UNL     1     -11.566  -8.999 -41.197  1.00  0.00     0.157 HD
ATOM      4  H52 UNL     1      -9.848  -9.083 -40.766  1.00  0.00     0.157 HD
ENDROOT
BRANCH   1   5
HETATM    5  N4  UNL     1      -9.331  -6.610 -40.743  1.00  0.00    -0.223 N 
ATOM      6  H4  UNL     1      -9.256  -6.077 -39.876  1.00  0.00     0.203 HD
BRANCH   5   7
HETATM    7  N3  UNL     1      -8.293  -6.657 -41.517  1.00  0.00    -0.334 NA
BRANCH   7   8
HETATM    8  C5  UNL     1      -7.341  -6.663 -42.221  1.00  0.00     0.247 C 
BRANCH   8   9
HETATM    9  C4  UNL     1      -7.184  -5.831 -43.449  1.00  0.00     0.125 A 
HETATM   10  C3  UNL     1      -6.870  -6.266 -44.706  1.00  0.00     0.131 A 
HETATM   11  N2  UNL     1      -6.840  -5.171 -45.479  1.00  0.00    -0.329 N 
HETATM   12  C2  UNL     1      -7.126  -4.097 -44.725  1.00  0.00     0.224 A 
ATOM     13  H2  UNL     1      -6.634  -5.155 -46.479  1.00  0.00     0.168 HD
HETATM   14  O1  UNL     1      -7.329  -4.530 -43.505  1.00  0.00    -0.276 OA
BRANCH  12  15
HETATM   15  N1  UNL     1      -7.206  -2.737 -45.123  1.00  0.00    -0.360 N 
HETATM   16  C1  UNL     1      -6.395  -2.303 -46.248  1.00  0.00     0.150 C 
ATOM     17  H1  UNL     1      -7.816  -2.082 -44.633  1.00  0.00     0.162 HD
ENDBRANCH  12  15
ENDBRANCH   8   9
ENDBRANCH   7   8
ENDBRANCH   5   7
ENDBRANCH   1   5
BRANCH   1  18
HETATM   18  C7  UNL     1     -11.785  -6.466 -41.361  1.00  0.00     0.310 C 
BRANCH  18  19
HETATM   19  N6  UNL     1     -12.110  -6.666 -42.733  1.00  0.00    -0.067 N 
ATOM     20  H62 UNL     1     -11.299  -7.004 -43.251  1.00  0.00     0.277 HD
ATOM     21  H61 UNL     1     -12.729  -7.469 -42.844  1.00  0.00     0.277 HD
BRANCH  19  22
HETATM   22  C8  UNL     1     -12.672  -5.495 -43.370  1.00  0.00     0.264 C 
BRANCH  22  23
HETATM   23  C9  UNL     1     -11.633  -4.738 -44.173  1.00  0.00     0.205 C 
HETATM   24  C10 UNL     1     -10.540  -5.673 -44.605  1.00  0.00     0.041 C 
BRANCH  23  25
HETATM   25  N7  UNL     1     -12.276  -4.115 -45.305  1.00  0.00    -0.074 N 
ATOM     26  H73 UNL     1     -11.733  -3.337 -45.680  1.00  0.00     0.274 HD
ATOM     27  H72 UNL     1     -12.265  -4.710 -46.134  1.00  0.00     0.274 HD
ATOM     28  H71 UNL     1     -13.221  -3.837 -45.040  1.00  0.00     0.274 HD
ENDBRANCH  23  25
ENDBRANCH  22  23
ENDBRANCH  19  22
ENDBRANCH  18  19
ENDBRANCH   1  18
TORSDOF 10
ENDMDL
MODEL 5
REMARK VINA RESULT: -5.702673069      2.359      4.693
REMARK  10 active torsions:
REMARK  status: ('A' for Active; 'I' for Inactive)
REMARK    1  A    between atoms: N1_2  and  C2_4 
REMARK    2  A    between atoms: C4_8  and  C5_9 
REMARK    3  A    between atoms: C5_9  and  N3_10 
REMARK    4  A    between atoms: N3_10  and  N4_11 
REMARK    5  A    between atoms: N4_11  and  C6_13 
REMARK    6  A    between atoms: C6_13  and  C7_17 
REMARK    7  A    between atoms: C7_17  and  N6_18 
REMARK    8  A    between atoms: N6_18  and  C8_21 
REMARK    9  A    between atoms: C8_21  and  C9_22 
REMARK   10  A    between atoms: C9_22  and  N7_24 
ROOT
HETATM    1  C6  UNL     1     -12.271  -5.225 -43.856  1.00  0.00     0.127 C 
HETATM    2  N5  UNL     1     -13.433  -4.691 -43.729  1.00  0.00    -0.386 N 
ATOM      3  H51 UNL     1     -14.194  -5.192 -43.271  1.00  0.00     0.157 HD
ATOM      4  H52 UNL     1     -13.576  -3.752 -44.101  1.00  0.00     0.157 HD
ENDROOT
BRANCH   1   5
HETATM    5  N4  UNL     1     -11.203  -4.521 -44.501  1.00  0.00    -0.223 N 
ATOM      6  H4  UNL     1     -11.391  -3.578 -44.843  1.00  0.00     0.203 HD
BRANCH   5   7
HETATM    7  N3  UNL     1     -10.014  -5.003 -44.679  1.00  0.00    -0.334 NA
BRANCH   7   8
HETATM    8  C5  UNL     1      -8.923  -5.448 -44.804  1.00  0.00     0.247 C 
BRANCH   8   9
HETATM    9  C4  UNL     1      -7.700  -4.639 -45.079  1.00  0.00     0.125 A 
HETATM   10  C3  UNL     1      -6.427  -4.897 -44.652  1.00  0.00     0.131 A 
HETATM   11  N2  UNL     1      -5.667  -3.906 -45.140  1.00  0.00    -0.329 N 
HETATM   12  C2  UNL     1      -6.444  -3.066 -45.843  1.00  0.00     0.224 A 
ATOM     13  H2  UNL     1      -4.661  -3.807 -44.999  1.00  0.00     0.168 HD
HETATM   14  O1  UNL     1      -7.665  -3.538 -45.786  1.00  0.00    -0.276 OA
BRANCH  12  15
HETATM   15  N1  UNL     1      -6.065  -1.885 -46.532  1.00  0.00    -0.360 N 
HETATM   16  C1  UNL     1      -6.643  -1.639 -47.843  1.00  0.00     0.150 C 
ATOM     17  H1  UNL     1      -5.405  -1.226 -46.118  1.00  0.00     0.162 HD
ENDBRANCH  12  15
ENDBRANCH   8   9
ENDBRANCH   7   8
ENDBRANCH   5   7
ENDBRANCH   1   5
BRANCH   1  18
HETATM   18  C7  UNL     1     -12.064  -6.590 -43.317  1.00  0.00     0.310 C 
BRANCH  18  19
HETATM   19  N6  UNL     1     -11.152  -6.527 -42.224  1.00  0.00    -0.067 N 
ATOM     20  H62 UNL     1     -10.358  -5.929 -42.450  1.00  0.00     0.277 HD
ATOM     21  H61 UNL     1     -11.552  -5.994 -41.451  1.00  0.00     0.277 HD
BRANCH  19  22
HETATM   22  C8  UNL     1     -10.703  -7.826 -41.772  1.00  0.00     0.264 C 
BRANCH  22  23
HETATM   23  C9  UNL     1      -9.258  -7.794 -41.315  1.00  0.00     0.205 C 
HETATM   24  C10 UNL     1      -8.350  -8.093 -42.473  1.00  0.00     0.041 C 
BRANCH  23  25
HETATM   25  N7  UNL     1      -8.975  -6.501 -40.740  1.00  0.00    -0.074 N 
ATOM     26  H73 UNL     1      -9.564  -5.765 -41.130  1.00  0.00     0.274 HD
ATOM     27  H72 UNL     1      -9.284  -6.432 -39.770  1.00  0.00     0.274 HD
ATOM     28  H71 UNL     1      -7.981  -6.300 -40.846  1.00  0.00     0.274 HD
ENDBRANCH  23  25
ENDBRANCH  22  23
ENDBRANCH  19  22
ENDBRANCH  18  19
ENDBRANCH   1  18
TORSDOF 10
ENDMDL
