MODEL 1
REMARK VINA RESULT: -5.027044775      0.000      0.000
REMARK  10 active torsions:
REMARK  status: ('A' for Active; 'I' for Inactive)
REMARK    1  A    between atoms: C2_2  and  N1_5 
REMARK    2  A    between atoms: N1_5  and  C5_7 
REMARK    3  A    between atoms: C5_7  and  O1_8 
REMARK    4  A    between atoms: C5_7  and  C6_10 
REMARK    5  A    between atoms: C6_10  and  C7_11 
REMARK    6  A    between atoms: C6_10  and  C8_16 
REMARK    7  A    between atoms: C6_10  and  N5_23 
REMARK    8  A    between atoms: C7_11  and  N2_12 
REMARK    9  A    between atoms: C8_16  and  N3_17 
REMARK   10  A    between atoms: N5_23  and  N6_24 
ROOT
HETATM    1  C6  UNL     1      -7.887  -4.924 -44.465  1.00  0.00     0.134 C 
ENDROOT
BRANCH   1   2
HETATM    2  C5  UNL     1      -6.774  -5.547 -43.647  1.00  0.00     0.243 C 
BRANCH   2   3
HETATM    3  N1  UNL     1      -7.223  -5.767 -42.330  1.00  0.00    -0.387 N 
ATOM      4  H1  UNL     1      -7.641  -4.995 -41.811  1.00  0.00     0.156 HD
BRANCH   3   5
HETATM    5  C2  UNL     1      -7.112  -7.028 -41.713  1.00  0.00     0.017 C 
HETATM    6  C1  UNL     1      -8.227  -8.001 -41.822  1.00  0.00     0.037 C 
HETATM    7  C3  UNL     1      -6.628  -6.921 -40.265  1.00  0.00     0.037 C 
HETATM    8  C4  UNL     1      -5.916  -7.719 -42.431  1.00  0.00     0.037 C 
ENDBRANCH   3   5
ENDBRANCH   2   3
BRANCH   2   9
HETATM    9  O1  UNL     1      -5.689  -4.675 -43.762  1.00  0.00    -0.375 OA
ATOM     10  H1  UNL     1      -4.838  -5.096 -43.793  1.00  0.00     0.212 HD
ENDBRANCH   2   9
ENDBRANCH   1   2
BRANCH   1  11
HETATM   11  C7  UNL     1      -7.246  -4.530 -45.806  1.00  0.00     0.264 C 
BRANCH  11  12
HETATM   12  N2  UNL     1      -6.656  -5.653 -46.486  1.00  0.00    -0.077 N 
ATOM     13  H23 UNL     1      -5.643  -5.663 -46.366  1.00  0.00     0.274 HD
ATOM     14  H22 UNL     1      -6.885  -6.528 -46.016  1.00  0.00     0.274 HD
ATOM     15  H21 UNL     1      -6.911  -5.688 -47.472  1.00  0.00     0.274 HD
ENDBRANCH  11  12
ENDBRANCH   1  11
BRANCH   1  16
HETATM   16  C8  UNL     1      -8.940  -5.941 -44.804  1.00  0.00     0.183 C 
BRANCH  16  17
HETATM   17  N3  UNL     1     -10.257  -5.606 -44.341  1.00  0.00    -0.301 N 
HETATM   18  C9  UNL     1     -10.954  -6.152 -43.347  1.00  0.00     0.111 A 
HETATM   19  C10 UNL     1     -12.193  -5.535 -43.207  1.00  0.00     0.037 A 
HETATM   20  C11 UNL     1     -12.185  -4.574 -44.196  1.00  0.00     0.108 A 
HETATM   21  N4  UNL     1     -11.040  -4.638 -44.847  1.00  0.00    -0.310 N 
ATOM     22  H4  UNL     1     -10.783  -4.034 -45.628  1.00  0.00     0.186 HD
ENDBRANCH  16  17
ENDBRANCH   1  16
BRANCH   1  23
HETATM   23  N5  UNL     1      -8.457  -3.749 -43.862  1.00  0.00    -0.130 NA
BRANCH  23  24
HETATM   24  N6  UNL     1      -7.852  -2.580 -44.278  1.00  0.00    -0.347 N 
ATOM     25  H62 UNL     1      -7.990  -2.191 -45.211  1.00  0.00     0.172 HD
ATOM     26  H61 UNL     1      -7.262  -2.159 -43.560  1.00  0.00     0.172 HD
ENDBRANCH  23  24
ENDBRANCH   1  23
TORSDOF 10
ENDMDL
MODEL 2
REMARK VINA RESULT: -4.881527894      2.415      3.851
REMARK  10 active torsions:
REMARK  status: ('A' for Active; 'I' for Inactive)
REMARK    1  A    between atoms: C2_2  and  N1_5 
REMARK    2  A    between atoms: N1_5  and  C5_7 
REMARK    3  A    between atoms: C5_7  and  O1_8 
REMARK    4  A    between atoms: C5_7  and  C6_10 
REMARK    5  A    between atoms: C6_10  and  C7_11 
REMARK    6  A    between atoms: C6_10  and  C8_16 
REMARK    7  A    between atoms: C6_10  and  N5_23 
REMARK    8  A    between atoms: C7_11  and  N2_12 
REMARK    9  A    between atoms: C8_16  and  N3_17 
REMARK   10  A    between atoms: N5_23  and  N6_24 
ROOT
HETATM    1  C6  UNL     1      -8.837  -7.166 -42.294  1.00  0.00     0.134 C 
ENDROOT
BRANCH   1   2
HETATM    2  C5  UNL     1      -7.601  -7.852 -42.839  1.00  0.00     0.243 C 
BRANCH   2   3
HETATM    3  N1  UNL     1      -7.337  -7.383 -44.142  1.00  0.00    -0.387 N 
ATOM      4  H1  UNL     1      -8.115  -7.082 -44.729  1.00  0.00     0.156 HD
BRANCH   3   5
HETATM    5  C2  UNL     1      -6.026  -7.319 -44.652  1.00  0.00     0.017 C 
HETATM    6  C1  UNL     1      -5.514  -8.423 -45.501  1.00  0.00     0.037 C 
HETATM    7  C3  UNL     1      -5.005  -6.947 -43.576  1.00  0.00     0.037 C 
HETATM    8  C4  UNL     1      -6.021  -6.072 -45.584  1.00  0.00     0.037 C 
ENDBRANCH   3   5
ENDBRANCH   2   3
BRANCH   2   9
HETATM    9  O1  UNL     1      -7.857  -9.221 -42.746  1.00  0.00    -0.375 OA
ATOM     10  H1  UNL     1      -7.130  -9.745 -42.431  1.00  0.00     0.212 HD
ENDBRANCH   2   9
ENDBRANCH   1   2
BRANCH   1  11
HETATM   11  C7  UNL     1      -8.507  -6.816 -40.834  1.00  0.00     0.264 C 
BRANCH  11  12
HETATM   12  N2  UNL     1      -7.176  -7.211 -40.460  1.00  0.00    -0.077 N 
ATOM     13  H23 UNL     1      -6.706  -7.692 -41.227  1.00  0.00     0.274 HD
ATOM     14  H22 UNL     1      -6.562  -6.401 -40.376  1.00  0.00     0.274 HD
ATOM     15  H21 UNL     1      -7.160  -7.773 -39.609  1.00  0.00     0.274 HD
ENDBRANCH  11  12
ENDBRANCH   1  11
BRANCH   1  16
HETATM   16  C8  UNL     1      -9.072  -5.852 -42.983  1.00  0.00     0.183 C 
BRANCH  16  17
HETATM   17  N3  UNL     1     -10.397  -5.688 -43.512  1.00  0.00    -0.301 N 
HETATM   18  C9  UNL     1     -10.781  -5.615 -44.785  1.00  0.00     0.111 A 
HETATM   19  C10 UNL     1     -12.161  -5.467 -44.883  1.00  0.00     0.037 A 
HETATM   20  C11 UNL     1     -12.575  -5.458 -43.567  1.00  0.00     0.108 A 
HETATM   21  N4  UNL     1     -11.522  -5.588 -42.784  1.00  0.00    -0.310 N 
ATOM     22  H4  UNL     1     -11.556  -5.609 -41.765  1.00  0.00     0.186 HD
ENDBRANCH  16  17
ENDBRANCH   1  16
BRANCH   1  23
HETATM   23  N5  UNL     1     -10.013  -7.996 -42.316  1.00  0.00    -0.130 NA
BRANCH  23  24
HETATM   24  N6  UNL     1     -10.423  -8.385 -41.058  1.00  0.00    -0.347 N 
ATOM     25  H62 UNL     1     -10.934  -7.765 -40.429  1.00  0.00     0.172 HD
ATOM     26  H61 UNL     1     -10.161  -9.345 -40.833  1.00  0.00     0.172 HD
ENDBRANCH  23  24
ENDBRANCH   1  23
TORSDOF 10
ENDMDL
MODEL 3
REMARK VINA RESULT: -4.828485730      2.227      3.159
REMARK  10 active torsions:
REMARK  status: ('A' for Active; 'I' for Inactive)
REMARK    1  A    between atoms: C2_2  and  N1_5 
REMARK    2  A    between atoms: N1_5  and  C5_7 
REMARK    3  A    between atoms: C5_7  and  O1_8 
REMARK    4  A    between atoms: C5_7  and  C6_10 
REMARK    5  A    between atoms: C6_10  and  C7_11 
REMARK    6  A    between atoms: C6_10  and  C8_16 
REMARK    7  A    between atoms: C6_10  and  N5_23 
REMARK    8  A    between atoms: C7_11  and  N2_12 
REMARK    9  A    between atoms: C8_16  and  N3_17 
REMARK   10  A    between atoms: N5_23  and  N6_24 
ROOT
HETATM    1  C6  UNL     1      -8.110  -6.756 -42.589  1.00  0.00     0.134 C 
ENDROOT
BRANCH   1   2
HETATM    2  C5  UNL     1      -7.787  -8.225 -42.405  1.00  0.00     0.243 C 
BRANCH   2   3
HETATM    3  N1  UNL     1      -6.965  -8.662 -43.463  1.00  0.00    -0.387 N 
ATOM      4  H1  UNL     1      -7.180  -8.368 -44.415  1.00  0.00     0.156 HD
BRANCH   3   5
HETATM    5  C2  UNL     1      -5.852  -9.495 -43.237  1.00  0.00     0.017 C 
HETATM    6  C1  UNL     1      -5.892 -10.911 -43.679  1.00  0.00     0.037 C 
HETATM    7  C3  UNL     1      -5.336  -9.393 -41.800  1.00  0.00     0.037 C 
HETATM    8  C4  UNL     1      -4.700  -8.857 -44.067  1.00  0.00     0.037 C 
ENDBRANCH   3   5
ENDBRANCH   2   3
BRANCH   2   9
HETATM    9  O1  UNL     1      -9.020  -8.873 -42.310  1.00  0.00    -0.375 OA
ATOM     10  H1  UNL     1      -9.773  -8.296 -42.254  1.00  0.00     0.212 HD
ENDBRANCH   2   9
ENDBRANCH   1   2
BRANCH   1  11
HETATM   11  C7  UNL     1      -6.752  -6.042 -42.682  1.00  0.00     0.264 C 
BRANCH  11  12
HETATM   12  N2  UNL     1      -6.683  -5.135 -43.797  1.00  0.00    -0.077 N 
ATOM     13  H23 UNL     1      -7.595  -4.723 -43.993  1.00  0.00     0.274 HD
ATOM     14  H22 UNL     1      -6.171  -4.288 -43.551  1.00  0.00     0.274 HD
ATOM     15  H21 UNL     1      -6.290  -5.572 -44.630  1.00  0.00     0.274 HD
ENDBRANCH  11  12
ENDBRANCH   1  11
BRANCH   1  16
HETATM   16  C8  UNL     1      -8.787  -6.514 -43.908  1.00  0.00     0.183 C 
BRANCH  16  17
HETATM   17  N3  UNL     1     -10.134  -6.028 -43.803  1.00  0.00    -0.301 N 
HETATM   18  C9  UNL     1     -10.646  -4.889 -44.267  1.00  0.00     0.111 A 
HETATM   19  C10 UNL     1     -12.001  -4.793 -43.967  1.00  0.00     0.037 A 
HETATM   20  C11 UNL     1     -12.262  -5.964 -43.287  1.00  0.00     0.108 A 
HETATM   21  N4  UNL     1     -11.151  -6.669 -43.204  1.00  0.00    -0.310 N 
ATOM     22  H4  UNL     1     -11.074  -7.578 -42.746  1.00  0.00     0.186 HD
ENDBRANCH  16  17
ENDBRANCH   1  16
BRANCH   1  23
HETATM   23  N5  UNL     1      -8.857  -6.189 -41.496  1.00  0.00    -0.130 NA
BRANCH  23  24
HETATM   24  N6  UNL     1      -8.437  -6.642 -40.262  1.00  0.00    -0.347 N 
ATOM     25  H62 UNL     1      -8.633  -6.140 -39.396  1.00  0.00     0.172 HD
ATOM     26  H61 UNL     1      -7.918  -7.519 -40.315  1.00  0.00     0.172 HD
ENDBRANCH  23  24
ENDBRANCH   1  23
TORSDOF 10
ENDMDL
MODEL 4
REMARK VINA RESULT: -4.745602663      2.000      4.327
REMARK  10 active torsions:
REMARK  status: ('A' for Active; 'I' for Inactive)
REMARK    1  A    between atoms: C2_2  and  N1_5 
REMARK    2  A    between atoms: N1_5  and  C5_7 
REMARK    3  A    between atoms: C5_7  and  O1_8 
REMARK    4  A    between atoms: C5_7  and  C6_10 
REMARK    5  A    between atoms: C6_10  and  C7_11 
REMARK    6  A    between atoms: C6_10  and  C8_16 
REMARK    7  A    between atoms: C6_10  and  N5_23 
REMARK    8  A    between atoms: C7_11  and  N2_12 
REMARK    9  A    between atoms: C8_16  and  N3_17 
REMARK   10  A    between atoms: N5_23  and  N6_24 
ROOT
HETATM    1  C6  UNL     1      -7.640  -6.455 -43.083  1.00  0.00     0.134 C 
ENDROOT
BRANCH   1   2
HETATM    2  C5  UNL     1      -8.599  -6.903 -41.999  1.00  0.00     0.243 C 
BRANCH   2   3
HETATM    3  N1  UNL     1      -9.843  -6.263 -42.176  1.00  0.00    -0.387 N 
ATOM      4  H1  UNL     1      -9.862  -5.279 -42.443  1.00  0.00     0.156 HD
BRANCH   3   5
HETATM    5  C2  UNL     1     -11.059  -6.949 -41.994  1.00  0.00     0.017 C 
HETATM    6  C1  UNL     1     -11.044  -8.382 -41.609  1.00  0.00     0.037 C 
HETATM    7  C3  UNL     1     -12.035  -6.710 -43.147  1.00  0.00     0.037 C 
HETATM    8  C4  UNL     1     -11.748  -6.228 -40.799  1.00  0.00     0.037 C 
ENDBRANCH   3   5
ENDBRANCH   2   3
BRANCH   2   9
HETATM    9  O1  UNL     1      -7.959  -6.625 -40.790  1.00  0.00    -0.375 OA
ATOM     10  H1  UNL     1      -8.426  -6.913 -40.014  1.00  0.00     0.212 HD
ENDBRANCH   2   9
ENDBRANCH   1   2
BRANCH   1  11
HETATM   11  C7  UNL     1      -6.987  -7.740 -43.617  1.00  0.00     0.264 C 
BRANCH  11  12
HETATM   12  N2  UNL     1      -7.399  -8.910 -42.888  1.00  0.00    -0.077 N 
ATOM     13  H23 UNL     1      -7.008  -8.913 -41.946  1.00  0.00     0.274 HD
ATOM     14  H22 UNL     1      -8.390  -8.867 -42.654  1.00  0.00     0.274 HD
ATOM     15  H21 UNL     1      -7.175  -9.774 -43.381  1.00  0.00     0.274 HD
ENDBRANCH  11  12
ENDBRANCH   1  11
BRANCH   1  16
HETATM   16  C8  UNL     1      -8.381  -5.863 -44.248  1.00  0.00     0.183 C 
BRANCH  16  17
HETATM   17  N3  UNL     1      -7.620  -4.920 -45.018  1.00  0.00    -0.301 N 
HETATM   18  C9  UNL     1      -6.930  -5.125 -46.138  1.00  0.00     0.111 A 
HETATM   19  C10 UNL     1      -6.336  -3.947 -46.582  1.00  0.00     0.037 A 
HETATM   20  C11 UNL     1      -6.725  -3.019 -45.640  1.00  0.00     0.108 A 
HETATM   21  N4  UNL     1      -7.476  -3.615 -44.733  1.00  0.00    -0.310 N 
ATOM     22  H4  UNL     1      -7.890  -3.148 -43.926  1.00  0.00     0.186 HD
ENDBRANCH  16  17
ENDBRANCH   1  16
BRANCH   1  23
HETATM   23  N5  UNL     1      -6.606  -5.573 -42.607  1.00  0.00    -0.130 NA
BRANCH  23  24
HETATM   24  N6  UNL     1      -5.373  -6.186 -42.519  1.00  0.00    -0.347 N 
ATOM     25  H62 UNL     1      -5.045  -6.865 -43.207  1.00  0.00     0.172 HD
ATOM     26  H61 UNL     1      -4.837  -5.889 -41.703  1.00  0.00     0.172 HD
ENDBRANCH  23  24
ENDBRANCH   1  23
TORSDOF 10
ENDMDL
MODEL 5
REMARK VINA RESULT: -4.638948270      2.827      3.963
REMARK  10 active torsions:
REMARK  status: ('A' for Active; 'I' for Inactive)
REMARK    1  A    between atoms: C2_2  and  N1_5 
REMARK    2  A    between atoms: N1_5  and  C5_7 
REMARK    3  A    between atoms: C5_7  and  O1_8 
REMARK    4  A    between atoms: C5_7  and  C6_10 
REMARK    5  A    between atoms: C6_10  and  C7_11 
REMARK    6  A    between atoms: C6_10  and  C8_16 
REMARK    7  A    between atoms: C6_10  and  N5_23 
REMARK    8  A    between atoms: C7_11  and  N2_12 
REMARK    9  A    between atoms: C8_16  and  N3_17 
REMARK   10  A    between atoms: N5_23  and  N6_24 
ROOT
HETATM    1  C6  UNL     1      -6.805  -7.170 -41.840  1.00  0.00     0.134 C 
ENDROOT
BRANCH   1   2
HETATM    2  C5  UNL     1      -6.158  -8.520 -41.614  1.00  0.00     0.243 C 
BRANCH   2   3
HETATM    3  N1  UNL     1      -6.472  -9.380 -42.686  1.00  0.00    -0.387 N 
ATOM      4  H1  UNL     1      -7.446  -9.490 -42.965  1.00  0.00     0.156 HD
BRANCH   3   5
HETATM    5  C2  UNL     1      -5.473 -10.089 -43.381  1.00  0.00     0.017 C 
HETATM    6  C1  UNL     1      -5.671 -11.528 -43.685  1.00  0.00     0.037 C 
HETATM    7  C3  UNL     1      -4.080  -9.847 -42.796  1.00  0.00     0.037 C 
HETATM    8  C4  UNL     1      -5.392  -9.400 -44.775  1.00  0.00     0.037 C 
ENDBRANCH   3   5
ENDBRANCH   2   3
BRANCH   2   9
HETATM    9  O1  UNL     1      -6.607  -8.949 -40.363  1.00  0.00    -0.375 OA
ATOM     10  H1  UNL     1      -6.939  -8.261 -39.798  1.00  0.00     0.212 HD
ENDBRANCH   2   9
ENDBRANCH   1   2
BRANCH   1  11
HETATM   11  C7  UNL     1      -5.706  -6.278 -42.439  1.00  0.00     0.264 C 
BRANCH  11  12
HETATM   12  N2  UNL     1      -6.086  -5.711 -43.706  1.00  0.00    -0.077 N 
ATOM     13  H23 UNL     1      -6.808  -6.272 -44.158  1.00  0.00     0.274 HD
ATOM     14  H22 UNL     1      -6.610  -4.845 -43.578  1.00  0.00     0.274 HD
ATOM     15  H21 UNL     1      -5.289  -5.570 -44.325  1.00  0.00     0.274 HD
ENDBRANCH  11  12
ENDBRANCH   1  11
BRANCH   1  16
HETATM   16  C8  UNL     1      -7.875  -7.255 -42.892  1.00  0.00     0.183 C 
BRANCH  16  17
HETATM   17  N3  UNL     1      -9.213  -7.307 -42.373  1.00  0.00    -0.301 N 
HETATM   18  C9  UNL     1     -10.258  -6.545 -42.689  1.00  0.00     0.111 A 
HETATM   19  C10 UNL     1     -11.387  -6.921 -41.968  1.00  0.00     0.037 A 
HETATM   20  C11 UNL     1     -10.937  -7.969 -41.194  1.00  0.00     0.108 A 
HETATM   21  N4  UNL     1      -9.660  -8.174 -41.449  1.00  0.00    -0.310 N 
ATOM     22  H4  UNL     1      -9.088  -8.894 -41.006  1.00  0.00     0.186 HD
ENDBRANCH  16  17
ENDBRANCH   1  16
BRANCH   1  23
HETATM   23  N5  UNL     1      -7.293  -6.555 -40.633  1.00  0.00    -0.130 NA
BRANCH  23  24
HETATM   24  N6  UNL     1      -6.306  -5.904 -39.922  1.00  0.00    -0.347 N 
ATOM     25  H62 UNL     1      -5.625  -5.287 -40.366  1.00  0.00     0.172 HD
ATOM     26  H61 UNL     1      -6.336  -6.105 -38.923  1.00  0.00     0.172 HD
ENDBRANCH  23  24
ENDBRANCH   1  23
TORSDOF 10
ENDMDL
