MODEL 1
REMARK VINA RESULT: -5.824043601      0.000      0.000
REMARK  14 active torsions:
REMARK  status: ('A' for Active; 'I' for Inactive)
REMARK    1  A    between atoms: C2_2  and  S1_3 
REMARK    2  A    between atoms: S1_3  and  S2_4 
REMARK    3  A    between atoms: S2_4  and  C3_5 
REMARK    4  A    between atoms: C4_6  and  N1_7 
REMARK    5  A    between atoms: C5_11  and  O1_12 
REMARK    6  A    between atoms: C6_15  and  C7_16 
REMARK    7  A    between atoms: C7_16  and  O3_17 
REMARK    8  A    between atoms: C7_16  and  C8_19 
REMARK    9  A    between atoms: C8_19  and  C10_21 
REMARK   10  A    between atoms: C10_21  and  N2_22 
REMARK   11  A    between atoms: C11_26  and  N3_27 
REMARK   12  A    between atoms: N3_27  and  C12_29 
REMARK   13  A    between atoms: C12_29  and  N4_30 
REMARK   14  A    between atoms: N4_30  and  N5_31 
ROOT
HETATM    1  C3  UNL     1     -10.375  27.261 -23.639  1.00  0.00     0.142 C 
HETATM    2  C4  UNL     1     -11.367  26.630 -24.607  1.00  0.00     0.258 C 
HETATM    3  C5  UNL     1     -10.948  25.256 -24.918  1.00  0.00     0.289 C 
HETATM    4  O2  UNL     1      -9.680  25.088 -25.378  1.00  0.00    -0.346 OA
HETATM    5  C6  UNL     1      -8.680  25.751 -24.758  1.00  0.00     0.200 C 
HETATM    6  C11 UNL     1      -9.019  27.091 -24.166  1.00  0.00     0.032 C 
ENDROOT
BRANCH   5   7
HETATM    7  C7  UNL     1      -8.123  24.850 -23.678  1.00  0.00     0.158 C 
BRANCH   7   8
HETATM    8  O3  UNL     1      -8.498  25.317 -22.399  1.00  0.00    -0.392 OA
ATOM      9  H3  UNL     1      -7.983  24.892 -21.724  1.00  0.00     0.210 HD
ENDBRANCH   7   8
BRANCH   7  10
HETATM   10  C8  UNL     1      -6.654  24.621 -23.742  1.00  0.00     0.038 C 
HETATM   11  C9  UNL     1      -5.992  25.481 -22.650  1.00  0.00     0.014 C 
BRANCH  10  12
HETATM   12  C10 UNL     1      -6.045  25.068 -25.055  1.00  0.00     0.236 C 
BRANCH  12  13
HETATM   13  N2  UNL     1      -5.051  26.090 -24.731  1.00  0.00    -0.079 N 
ATOM     14  H23 UNL     1      -5.171  26.487 -23.799  1.00  0.00     0.274 HD
ATOM     15  H22 UNL     1      -4.115  25.711 -24.590  1.00  0.00     0.274 HD
ATOM     16  H21 UNL     1      -5.096  26.788 -25.475  1.00  0.00     0.274 HD
ENDBRANCH  12  13
ENDBRANCH  10  12
ENDBRANCH   7  10
ENDBRANCH   5   7
BRANCH   6  17
HETATM   17  N3  UNL     1      -8.492  28.147 -24.950  1.00  0.00    -0.378 N 
ATOM     18  H3  UNL     1      -8.980  28.433 -25.799  1.00  0.00     0.160 HD
BRANCH  17  19
HETATM   19  C12 UNL     1      -7.313  28.803 -24.580  1.00  0.00     0.255 C 
BRANCH  19  20
HETATM   20  N4  UNL     1      -6.366  28.651 -25.706  1.00  0.00    -0.129 NA
BRANCH  20  21
HETATM   21  N5  UNL     1      -5.185  29.326 -25.347  1.00  0.00    -0.347 N 
ATOM     22  H52 UNL     1      -4.985  29.731 -24.433  1.00  0.00     0.172 HD
ATOM     23  H51 UNL     1      -4.580  29.330 -26.169  1.00  0.00     0.172 HD
ENDBRANCH  20  21
ENDBRANCH  19  20
ENDBRANCH  17  19
ENDBRANCH   6  17
BRANCH   3  24
HETATM   24  O1  UNL     1     -11.193  24.441 -23.801  1.00  0.00    -0.369 OA
ATOM     25  H1  UNL     1     -10.404  24.395 -23.274  1.00  0.00     0.212 HD
ENDBRANCH   3  24
BRANCH   1  26
HETATM   26  S2  UNL     1     -10.950  28.901 -23.297  1.00  0.00    -0.085 SA
BRANCH  26  27
HETATM   27  S1  UNL     1     -12.406  28.986 -21.795  1.00  0.00    -0.097 SA
BRANCH  27  28
HETATM   28  C2  UNL     1     -13.168  27.409 -21.438  1.00  0.00     0.081 C 
HETATM   29  C1  UNL     1     -12.459  26.799 -20.243  1.00  0.00     0.017 C 
ENDBRANCH  27  28
ENDBRANCH  26  27
ENDBRANCH   1  26
BRANCH   2  30
HETATM   30  N1  UNL     1     -11.635  27.402 -25.765  1.00  0.00    -0.069 N 
ATOM     31  H13 UNL     1     -11.292  28.354 -25.643  1.00  0.00     0.275 HD
ATOM     32  H12 UNL     1     -11.042  27.099 -26.538  1.00  0.00     0.275 HD
ATOM     33  H11 UNL     1     -12.613  27.412 -26.052  1.00  0.00     0.275 HD
ENDBRANCH   2  30
TORSDOF 14
ENDMDL
MODEL 2
REMARK VINA RESULT: -5.638273582      3.277      4.998
REMARK  14 active torsions:
REMARK  status: ('A' for Active; 'I' for Inactive)
REMARK    1  A    between atoms: C2_2  and  S1_3 
REMARK    2  A    between atoms: S1_3  and  S2_4 
REMARK    3  A    between atoms: S2_4  and  C3_5 
REMARK    4  A    between atoms: C4_6  and  N1_7 
REMARK    5  A    between atoms: C5_11  and  O1_12 
REMARK    6  A    between atoms: C6_15  and  C7_16 
REMARK    7  A    between atoms: C7_16  and  O3_17 
REMARK    8  A    between atoms: C7_16  and  C8_19 
REMARK    9  A    between atoms: C8_19  and  C10_21 
REMARK   10  A    between atoms: C10_21  and  N2_22 
REMARK   11  A    between atoms: C11_26  and  N3_27 
REMARK   12  A    between atoms: N3_27  and  C12_29 
REMARK   13  A    between atoms: C12_29  and  N4_30 
REMARK   14  A    between atoms: N4_30  and  N5_31 
ROOT
HETATM    1  C3  UNL     1     -13.042  26.201 -23.524  1.00  0.00     0.142 C 
HETATM    2  C4  UNL     1     -14.226  27.084 -23.893  1.00  0.00     0.258 C 
HETATM    3  C5  UNL     1     -14.508  26.957 -25.329  1.00  0.00     0.289 C 
HETATM    4  O2  UNL     1     -13.474  27.186 -26.182  1.00  0.00    -0.346 OA
HETATM    5  C6  UNL     1     -12.273  26.642 -25.893  1.00  0.00     0.200 C 
HETATM    6  C11 UNL     1     -11.932  26.481 -24.438  1.00  0.00     0.032 C 
ENDROOT
BRANCH   5   7
HETATM    7  C7  UNL     1     -12.193  25.297 -26.581  1.00  0.00     0.158 C 
BRANCH   7   8
HETATM    8  O3  UNL     1     -10.856  24.847 -26.639  1.00  0.00    -0.392 OA
ATOM      9  H3  UNL     1     -10.520  24.909 -27.525  1.00  0.00     0.210 HD
ENDBRANCH   7   8
BRANCH   7  10
HETATM   10  C8  UNL     1     -12.824  25.238 -27.927  1.00  0.00     0.038 C 
HETATM   11  C9  UNL     1     -12.787  23.774 -28.405  1.00  0.00     0.014 C 
BRANCH  10  12
HETATM   12  C10 UNL     1     -12.068  26.039 -28.968  1.00  0.00     0.236 C 
BRANCH  12  13
HETATM   13  N2  UNL     1     -11.359  25.075 -29.807  1.00  0.00    -0.079 N 
ATOM     14  H23 UNL     1     -10.830  24.386 -29.271  1.00  0.00     0.274 HD
ATOM     15  H22 UNL     1     -11.981  24.418 -30.280  1.00  0.00     0.274 HD
ATOM     16  H21 UNL     1     -10.780  25.615 -30.450  1.00  0.00     0.274 HD
ENDBRANCH  12  13
ENDBRANCH  10  12
ENDBRANCH   7  10
ENDBRANCH   5   7
BRANCH   6  17
HETATM   17  N3  UNL     1     -10.980  27.445 -24.024  1.00  0.00    -0.378 N 
ATOM     18  H3  UNL     1     -11.290  28.385 -23.780  1.00  0.00     0.160 HD
BRANCH  17  19
HETATM   19  C12 UNL     1      -9.619  27.128 -23.944  1.00  0.00     0.255 C 
BRANCH  19  20
HETATM   20  N4  UNL     1      -9.531  25.663 -23.756  1.00  0.00    -0.129 NA
BRANCH  20  21
HETATM   21  N5  UNL     1      -8.587  25.183 -24.682  1.00  0.00    -0.347 N 
ATOM     22  H52 UNL     1      -8.601  25.355 -25.688  1.00  0.00     0.172 HD
ATOM     23  H51 UNL     1      -7.900  24.641 -24.158  1.00  0.00     0.172 HD
ENDBRANCH  20  21
ENDBRANCH  19  20
ENDBRANCH  17  19
ENDBRANCH   6  17
BRANCH   3  24
HETATM   24  O1  UNL     1     -15.095  25.704 -25.569  1.00  0.00    -0.369 OA
ATOM     25  H1  UNL     1     -14.721  25.336 -26.361  1.00  0.00     0.212 HD
ENDBRANCH   3  24
BRANCH   1  26
HETATM   26  S2  UNL     1     -12.771  26.389 -21.783  1.00  0.00    -0.085 SA
BRANCH  26  27
HETATM   27  S1  UNL     1     -14.297  25.577 -20.601  1.00  0.00    -0.097 SA
BRANCH  27  28
HETATM   28  C2  UNL     1     -15.115  24.173 -21.344  1.00  0.00     0.081 C 
HETATM   29  C1  UNL     1     -16.254  23.752 -20.434  1.00  0.00     0.017 C 
ENDBRANCH  27  28
ENDBRANCH  26  27
ENDBRANCH   1  26
BRANCH   2  30
HETATM   30  N1  UNL     1     -14.112  28.431 -23.468  1.00  0.00    -0.069 N 
ATOM     31  H13 UNL     1     -13.501  28.497 -22.655  1.00  0.00     0.275 HD
ATOM     32  H12 UNL     1     -13.568  28.970 -24.141  1.00  0.00     0.275 HD
ATOM     33  H11 UNL     1     -15.001  28.894 -23.280  1.00  0.00     0.275 HD
ENDBRANCH   2  30
TORSDOF 14
ENDMDL
MODEL 3
REMARK VINA RESULT: -5.619944288      2.252      2.966
REMARK  14 active torsions:
REMARK  status: ('A' for Active; 'I' for Inactive)
REMARK    1  A    between atoms: C2_2  and  S1_3 
REMARK    2  A    between atoms: S1_3  and  S2_4 
REMARK    3  A    between atoms: S2_4  and  C3_5 
REMARK    4  A    between atoms: C4_6  and  N1_7 
REMARK    5  A    between atoms: C5_11  and  O1_12 
REMARK    6  A    between atoms: C6_15  and  C7_16 
REMARK    7  A    between atoms: C7_16  and  O3_17 
REMARK    8  A    between atoms: C7_16  and  C8_19 
REMARK    9  A    between atoms: C8_19  and  C10_21 
REMARK   10  A    between atoms: C10_21  and  N2_22 
REMARK   11  A    between atoms: C11_26  and  N3_27 
REMARK   12  A    between atoms: N3_27  and  C12_29 
REMARK   13  A    between atoms: C12_29  and  N4_30 
REMARK   14  A    between atoms: N4_30  and  N5_31 
ROOT
HETATM    1  C3  UNL     1     -11.751  26.345 -22.684  1.00  0.00     0.142 C 
HETATM    2  C4  UNL     1     -12.487  25.899 -23.940  1.00  0.00     0.258 C 
HETATM    3  C5  UNL     1     -11.532  25.314 -24.891  1.00  0.00     0.289 C 
HETATM    4  O2  UNL     1     -10.455  26.072 -25.228  1.00  0.00    -0.346 OA
HETATM    5  C6  UNL     1      -9.795  26.721 -24.245  1.00  0.00     0.200 C 
HETATM    6  C11 UNL     1     -10.611  27.180 -23.068  1.00  0.00     0.032 C 
ENDROOT
BRANCH   5   7
HETATM    7  C7  UNL     1      -8.677  25.823 -23.763  1.00  0.00     0.158 C 
BRANCH   7   8
HETATM    8  O3  UNL     1      -8.973  25.305 -22.483  1.00  0.00    -0.392 OA
ATOM      9  H3  UNL     1      -8.469  24.517 -22.316  1.00  0.00     0.210 HD
ENDBRANCH   7   8
BRANCH   7  10
HETATM   10  C8  UNL     1      -7.322  26.439 -23.777  1.00  0.00     0.038 C 
HETATM   11  C9  UNL     1      -7.366  27.659 -24.716  1.00  0.00     0.014 C 
BRANCH  10  12
HETATM   12  C10 UNL     1      -6.261  25.515 -24.338  1.00  0.00     0.236 C 
BRANCH  12  13
HETATM   13  N2  UNL     1      -6.834  24.170 -24.342  1.00  0.00    -0.079 N 
ATOM     14  H23 UNL     1      -7.144  23.861 -23.421  1.00  0.00     0.274 HD
ATOM     15  H22 UNL     1      -7.741  24.120 -24.806  1.00  0.00     0.274 HD
ATOM     16  H21 UNL     1      -6.134  23.554 -24.758  1.00  0.00     0.274 HD
ENDBRANCH  12  13
ENDBRANCH  10  12
ENDBRANCH   7  10
ENDBRANCH   5   7
BRANCH   6  17
HETATM   17  N3  UNL     1     -10.817  28.582 -23.102  1.00  0.00    -0.378 N 
ATOM     18  H3  UNL     1     -11.217  29.050 -22.289  1.00  0.00     0.160 HD
BRANCH  17  19
HETATM   19  C12 UNL     1     -10.481  29.334 -24.233  1.00  0.00     0.255 C 
BRANCH  19  20
HETATM   20  N4  UNL     1     -11.714  29.469 -25.040  1.00  0.00    -0.129 NA
BRANCH  20  21
HETATM   21  N5  UNL     1     -11.437  28.931 -26.310  1.00  0.00    -0.347 N 
ATOM     22  H52 UNL     1     -11.298  27.942 -26.520  1.00  0.00     0.172 HD
ATOM     23  H51 UNL     1     -11.404  29.712 -26.966  1.00  0.00     0.172 HD
ENDBRANCH  20  21
ENDBRANCH  19  20
ENDBRANCH  17  19
ENDBRANCH   6  17
BRANCH   3  24
HETATM   24  O1  UNL     1     -11.135  24.052 -24.419  1.00  0.00    -0.369 OA
ATOM     25  H1  UNL     1     -11.907  23.566 -24.154  1.00  0.00     0.212 HD
ENDBRANCH   3  24
BRANCH   1  26
HETATM   26  S2  UNL     1     -12.961  27.021 -21.581  1.00  0.00    -0.085 SA
BRANCH  26  27
HETATM   27  S1  UNL     1     -14.166  25.575 -20.664  1.00  0.00    -0.097 SA
BRANCH  27  28
HETATM   28  C2  UNL     1     -15.292  24.757 -21.786  1.00  0.00     0.081 C 
HETATM   29  C1  UNL     1     -15.926  23.590 -21.053  1.00  0.00     0.017 C 
ENDBRANCH  27  28
ENDBRANCH  26  27
ENDBRANCH   1  26
BRANCH   2  30
HETATM   30  N1  UNL     1     -13.311  26.893 -24.526  1.00  0.00    -0.069 N 
ATOM     31  H13 UNL     1     -13.739  27.470 -23.802  1.00  0.00     0.275 HD
ATOM     32  H12 UNL     1     -12.740  27.595 -24.995  1.00  0.00     0.275 HD
ATOM     33  H11 UNL     1     -14.024  26.534 -25.160  1.00  0.00     0.275 HD
ENDBRANCH   2  30
TORSDOF 14
ENDMDL
MODEL 4
REMARK VINA RESULT: -5.606215237      3.074      4.930
REMARK  14 active torsions:
REMARK  status: ('A' for Active; 'I' for Inactive)
REMARK    1  A    between atoms: C2_2  and  S1_3 
REMARK    2  A    between atoms: S1_3  and  S2_4 
REMARK    3  A    between atoms: S2_4  and  C3_5 
REMARK    4  A    between atoms: C4_6  and  N1_7 
REMARK    5  A    between atoms: C5_11  and  O1_12 
REMARK    6  A    between atoms: C6_15  and  C7_16 
REMARK    7  A    between atoms: C7_16  and  O3_17 
REMARK    8  A    between atoms: C7_16  and  C8_19 
REMARK    9  A    between atoms: C8_19  and  C10_21 
REMARK   10  A    between atoms: C10_21  and  N2_22 
REMARK   11  A    between atoms: C11_26  and  N3_27 
REMARK   12  A    between atoms: N3_27  and  C12_29 
REMARK   13  A    between atoms: C12_29  and  N4_30 
REMARK   14  A    between atoms: N4_30  and  N5_31 
ROOT
HETATM    1  C3  UNL     1     -13.081  27.831 -24.405  1.00  0.00     0.142 C 
HETATM    2  C4  UNL     1     -14.026  26.774 -23.852  1.00  0.00     0.258 C 
HETATM    3  C5  UNL     1     -13.289  25.876 -22.951  1.00  0.00     0.289 C 
HETATM    4  O2  UNL     1     -12.171  25.285 -23.451  1.00  0.00    -0.346 OA
HETATM    5  C6  UNL     1     -11.308  26.043 -24.162  1.00  0.00     0.200 C 
HETATM    6  C11 UNL     1     -11.897  27.173 -24.960  1.00  0.00     0.032 C 
ENDROOT
BRANCH   5   7
HETATM    7  C7  UNL     1     -10.271  26.588 -23.205  1.00  0.00     0.158 C 
BRANCH   7   8
HETATM    8  O3  UNL     1     -10.526  27.947 -22.918  1.00  0.00    -0.392 OA
ATOM      9  H3  UNL     1     -11.389  28.051 -22.534  1.00  0.00     0.210 HD
ENDBRANCH   7   8
BRANCH   7  10
HETATM   10  C8  UNL     1      -8.858  26.400 -23.633  1.00  0.00     0.038 C 
HETATM   11  C9  UNL     1      -8.389  27.704 -24.306  1.00  0.00     0.014 C 
BRANCH  10  12
HETATM   12  C10 UNL     1      -8.696  25.310 -24.672  1.00  0.00     0.236 C 
BRANCH  12  13
HETATM   13  N2  UNL     1      -7.600  24.456 -24.218  1.00  0.00    -0.079 N 
ATOM     14  H23 UNL     1      -7.586  24.322 -23.207  1.00  0.00     0.274 HD
ATOM     15  H22 UNL     1      -7.720  23.476 -24.475  1.00  0.00     0.274 HD
ATOM     16  H21 UNL     1      -6.739  24.866 -24.582  1.00  0.00     0.274 HD
ENDBRANCH  12  13
ENDBRANCH  10  12
ENDBRANCH   7  10
ENDBRANCH   5   7
BRANCH   6  17
HETATM   17  N3  UNL     1     -11.913  26.870 -26.344  1.00  0.00    -0.378 N 
ATOM     18  H3  UNL     1     -11.863  27.628 -27.024  1.00  0.00     0.160 HD
BRANCH  17  19
HETATM   19  C12 UNL     1     -11.995  25.547 -26.793  1.00  0.00     0.255 C 
BRANCH  19  20
HETATM   20  N4  UNL     1     -13.380  25.344 -27.273  1.00  0.00    -0.129 NA
BRANCH  20  21
HETATM   21  N5  UNL     1     -13.355  24.245 -28.152  1.00  0.00    -0.347 N 
ATOM     22  H52 UNL     1     -12.624  23.535 -28.197  1.00  0.00     0.172 HD
ATOM     23  H51 UNL     1     -14.198  24.299 -28.724  1.00  0.00     0.172 HD
ENDBRANCH  20  21
ENDBRANCH  19  20
ENDBRANCH  17  19
ENDBRANCH   6  17
BRANCH   3  24
HETATM   24  O1  UNL     1     -13.010  26.558 -21.756  1.00  0.00    -0.369 OA
ATOM     25  H1  UNL     1     -12.536  25.976 -21.174  1.00  0.00     0.212 HD
ENDBRANCH   3  24
BRANCH   1  26
HETATM   26  S2  UNL     1     -14.036  28.883 -25.462  1.00  0.00    -0.085 SA
BRANCH  26  27
HETATM   27  S1  UNL     1     -12.952  30.490 -26.254  1.00  0.00    -0.097 SA
BRANCH  27  28
HETATM   28  C2  UNL     1     -13.178  30.717 -28.013  1.00  0.00     0.081 C 
HETATM   29  C1  UNL     1     -12.792  32.142 -28.361  1.00  0.00     0.017 C 
ENDBRANCH  27  28
ENDBRANCH  26  27
ENDBRANCH   1  26
BRANCH   2  30
HETATM   30  N1  UNL     1     -14.775  26.079 -24.834  1.00  0.00    -0.069 N 
ATOM     31  H13 UNL     1     -15.176  26.734 -25.504  1.00  0.00     0.275 HD
ATOM     32  H12 UNL     1     -14.152  25.557 -25.451  1.00  0.00     0.275 HD
ATOM     33  H11 UNL     1     -15.499  25.466 -24.461  1.00  0.00     0.275 HD
ENDBRANCH   2  30
TORSDOF 14
ENDMDL
MODEL 5
REMARK VINA RESULT: -5.572948423      2.873      4.758
REMARK  14 active torsions:
REMARK  status: ('A' for Active; 'I' for Inactive)
REMARK    1  A    between atoms: C2_2  and  S1_3 
REMARK    2  A    between atoms: S1_3  and  S2_4 
REMARK    3  A    between atoms: S2_4  and  C3_5 
REMARK    4  A    between atoms: C4_6  and  N1_7 
REMARK    5  A    between atoms: C5_11  and  O1_12 
REMARK    6  A    between atoms: C6_15  and  C7_16 
REMARK    7  A    between atoms: C7_16  and  O3_17 
REMARK    8  A    between atoms: C7_16  and  C8_19 
REMARK    9  A    between atoms: C8_19  and  C10_21 
REMARK   10  A    between atoms: C10_21  and  N2_22 
REMARK   11  A    between atoms: C11_26  and  N3_27 
REMARK   12  A    between atoms: N3_27  and  C12_29 
REMARK   13  A    between atoms: C12_29  and  N4_30 
REMARK   14  A    between atoms: N4_30  and  N5_31 
ROOT
HETATM    1  C3  UNL     1     -12.594  27.778 -24.326  1.00  0.00     0.142 C 
HETATM    2  C4  UNL     1     -13.350  26.675 -23.598  1.00  0.00     0.258 C 
HETATM    3  C5  UNL     1     -12.400  25.820 -22.874  1.00  0.00     0.289 C 
HETATM    4  O2  UNL     1     -11.379  25.285 -23.595  1.00  0.00    -0.346 OA
HETATM    5  C6  UNL     1     -10.720  26.083 -24.462  1.00  0.00     0.200 C 
HETATM    6  C11 UNL     1     -11.516  27.178 -25.116  1.00  0.00     0.032 C 
ENDROOT
BRANCH   5   7
HETATM    7  C7  UNL     1      -9.538  26.684 -23.735  1.00  0.00     0.158 C 
BRANCH   7   8
HETATM    8  O3  UNL     1      -9.829  28.003 -23.320  1.00  0.00    -0.392 OA
ATOM      9  H3  UNL     1      -9.229  28.619 -23.722  1.00  0.00     0.210 HD
ENDBRANCH   7   8
BRANCH   7  10
HETATM   10  C8  UNL     1      -8.250  26.642 -24.480  1.00  0.00     0.038 C 
HETATM   11  C9  UNL     1      -7.339  25.607 -23.793  1.00  0.00     0.014 C 
BRANCH  10  12
HETATM   12  C10 UNL     1      -7.500  27.957 -24.435  1.00  0.00     0.236 C 
BRANCH  12  13
HETATM   13  N2  UNL     1      -8.005  28.767 -25.543  1.00  0.00    -0.079 N 
ATOM     14  H23 UNL     1      -8.451  28.214 -26.275  1.00  0.00     0.274 HD
ATOM     15  H22 UNL     1      -8.818  29.329 -25.293  1.00  0.00     0.274 HD
ATOM     16  H21 UNL     1      -7.219  29.323 -25.882  1.00  0.00     0.274 HD
ENDBRANCH  12  13
ENDBRANCH  10  12
ENDBRANCH   7  10
ENDBRANCH   5   7
BRANCH   6  17
HETATM   17  N3  UNL     1     -11.799  26.870 -26.469  1.00  0.00    -0.378 N 
ATOM     18  H3  UNL     1     -11.907  27.626 -27.144  1.00  0.00     0.160 HD
BRANCH  17  19
HETATM   19  C12 UNL     1     -11.935  25.543 -26.895  1.00  0.00     0.255 C 
BRANCH  19  20
HETATM   20  N4  UNL     1     -13.355  25.354 -27.260  1.00  0.00    -0.129 NA
BRANCH  20  21
HETATM   21  N5  UNL     1     -13.417  24.238 -28.115  1.00  0.00    -0.347 N 
ATOM     22  H52 UNL     1     -12.902  23.366 -27.994  1.00  0.00     0.172 HD
ATOM     23  H51 UNL     1     -14.067  24.472 -28.866  1.00  0.00     0.172 HD
ENDBRANCH  20  21
ENDBRANCH  19  20
ENDBRANCH  17  19
ENDBRANCH   6  17
BRANCH   3  24
HETATM   24  O1  UNL     1     -11.918  26.520 -21.756  1.00  0.00    -0.369 OA
ATOM     25  H1  UNL     1     -11.045  26.207 -21.551  1.00  0.00     0.212 HD
ENDBRANCH   3  24
BRANCH   1  26
HETATM   26  S2  UNL     1     -13.797  28.775 -25.159  1.00  0.00    -0.085 SA
BRANCH  26  27
HETATM   27  S1  UNL     1     -12.995  30.485 -26.062  1.00  0.00    -0.097 SA
BRANCH  27  28
HETATM   28  C2  UNL     1     -13.189  30.522 -27.838  1.00  0.00     0.081 C 
HETATM   29  C1  UNL     1     -12.864  31.923 -28.322  1.00  0.00     0.017 C 
ENDBRANCH  27  28
ENDBRANCH  26  27
ENDBRANCH   1  26
BRANCH   2  30
HETATM   30  N1  UNL     1     -14.248  25.939 -24.412  1.00  0.00    -0.069 N 
ATOM     31  H13 UNL     1     -13.891  25.874 -25.365  1.00  0.00     0.275 HD
ATOM     32  H12 UNL     1     -14.234  24.953 -24.152  1.00  0.00     0.275 HD
ATOM     33  H11 UNL     1     -15.205  26.291 -24.415  1.00  0.00     0.275 HD
ENDBRANCH   2  30
TORSDOF 14
ENDMDL
