MODEL 1
REMARK VINA RESULT: -6.519649743      0.000      0.000
REMARK  12 active torsions:
REMARK  status: ('A' for Active; 'I' for Inactive)
REMARK    1  A    between atoms: S1_2  and  C2_3 
REMARK    2  A    between atoms: C2_3  and  C3_4 
REMARK    3  A    between atoms: C3_4  and  N1_5 
REMARK    4  A    between atoms: C4_6  and  N2_7 
REMARK    5  A    between atoms: N2_7  and  C5_9 
REMARK    6  A    between atoms: C5_9  and  C6_10 
REMARK    7  A    between atoms: C6_10  and  N3_11 
REMARK    8  A    between atoms: N3_11  and  N4_13 
REMARK    9  A    between atoms: C7_14  and  N5_15 
REMARK   10  A    between atoms: C10_29  and  C11_30 
REMARK   11  A    between atoms: C11_30  and  N10_31 
REMARK   12  A    between atoms: C11_30  and  O1_35 
ROOT
HETATM    1  N2  UNL     1     -10.583  25.156 -23.817  1.00  0.00    -0.373 N 
ATOM      2  H2  UNL     1     -10.246  24.197 -23.893  1.00  0.00     0.161 HD
ENDROOT
BRANCH   1   3
HETATM    3  C4  UNL     1     -11.750  25.472 -24.511  1.00  0.00     0.120 A 
HETATM    4  N1  UNL     1     -12.902  25.933 -23.939  1.00  0.00    -0.318 N 
HETATM    5  C10 UNL     1     -13.808  26.106 -24.904  1.00  0.00     0.142 A 
HETATM    6  N9  UNL     1     -13.224  25.756 -26.069  1.00  0.00    -0.348 N 
HETATM    7  C9  UNL     1     -11.959  25.362 -25.859  1.00  0.00     0.138 A 
ATOM      8  H9  UNL     1     -13.680  25.787 -26.981  1.00  0.00     0.166 HD
BRANCH   4   9
HETATM    9  C3  UNL     1     -13.094  26.169 -22.547  1.00  0.00     0.142 C 
BRANCH   9  10
HETATM   10  C2  UNL     1     -13.529  24.941 -21.784  1.00  0.00     0.093 C 
BRANCH  10  11
HETATM   11  S1  UNL     1     -15.206  25.264 -21.167  1.00  0.00    -0.172 SA
HETATM   12  C1  UNL     1     -16.427  24.289 -22.109  1.00  0.00     0.089 C 
ENDBRANCH  10  11
ENDBRANCH   9  10
ENDBRANCH   4   9
BRANCH   5  13
HETATM   13  C11 UNL     1     -15.217  26.591 -24.845  1.00  0.00     0.385 C 
BRANCH  13  14
HETATM   14  N10 UNL     1     -15.398  27.940 -25.269  1.00  0.00    -0.046 N 
ATOM     15 3H10 UNL     1     -15.855  28.484 -24.538  1.00  0.00     0.277 HD
ATOM     16 2H10 UNL     1     -14.500  28.422 -25.312  1.00  0.00     0.277 HD
ATOM     17 1H10 UNL     1     -15.898  28.043 -26.152  1.00  0.00     0.277 HD
ENDBRANCH  13  14
BRANCH  13  18
HETATM   18  O1  UNL     1     -16.077  25.763 -25.544  1.00  0.00    -0.364 OA
ATOM     19  H1  UNL     1     -15.619  25.035 -25.946  1.00  0.00     0.212 HD
ENDBRANCH  13  18
ENDBRANCH   5  13
ENDBRANCH   1   3
BRANCH   1  20
HETATM   20  C5  UNL     1      -9.807  26.060 -23.002  1.00  0.00     0.142 C 
BRANCH  20  21
HETATM   21  C6  UNL     1      -9.398  27.328 -23.711  1.00  0.00     0.161 C 
BRANCH  21  22
HETATM   22  N3  UNL     1      -8.409  27.013 -24.700  1.00  0.00    -0.299 N 
ATOM     23  H3  UNL     1      -8.766  26.881 -25.646  1.00  0.00     0.181 HD
BRANCH  22  24
HETATM   24  N4  UNL     1      -7.045  26.864 -24.560  1.00  0.00     0.087 N 
HETATM   25  C7  UNL     1      -6.422  25.671 -24.338  1.00  0.00     0.727 A 
HETATM   26  N6  UNL     1      -5.100  25.864 -24.288  1.00  0.00    -0.116 N 
HETATM   27  N7  UNL     1      -4.866  27.136 -24.471  1.00  0.00    -0.116 N 
ATOM     28  H6  UNL     1      -4.396  25.142 -24.135  1.00  0.00     0.206 HD
HETATM   29  C8  UNL     1      -6.086  27.777 -24.645  1.00  0.00     0.727 A 
ATOM     30  H7  UNL     1      -3.947  27.580 -24.484  1.00  0.00     0.206 HD
HETATM   31  N8  UNL     1      -6.080  29.027 -24.859  1.00  0.00    -0.231 N 
ATOM     32  H82 UNL     1      -6.976  29.497 -24.986  1.00  0.00     0.174 HD
ATOM     33  H81 UNL     1      -5.343  29.729 -24.925  1.00  0.00     0.174 HD
BRANCH  25  34
HETATM   34  N5  UNL     1      -6.997  24.533 -24.194  1.00  0.00    -0.231 N 
ATOM     35  H52 UNL     1      -7.374  24.182 -23.313  1.00  0.00     0.174 HD
ATOM     36  H51 UNL     1      -7.153  23.841 -24.927  1.00  0.00     0.174 HD
ENDBRANCH  25  34
ENDBRANCH  22  24
ENDBRANCH  21  22
ENDBRANCH  20  21
ENDBRANCH   1  20
TORSDOF 12
ENDMDL
MODEL 2
REMARK VINA RESULT: -6.501702486      3.440      6.859
REMARK  12 active torsions:
REMARK  status: ('A' for Active; 'I' for Inactive)
REMARK    1  A    between atoms: S1_2  and  C2_3 
REMARK    2  A    between atoms: C2_3  and  C3_4 
REMARK    3  A    between atoms: C3_4  and  N1_5 
REMARK    4  A    between atoms: C4_6  and  N2_7 
REMARK    5  A    between atoms: N2_7  and  C5_9 
REMARK    6  A    between atoms: C5_9  and  C6_10 
REMARK    7  A    between atoms: C6_10  and  N3_11 
REMARK    8  A    between atoms: N3_11  and  N4_13 
REMARK    9  A    between atoms: C7_14  and  N5_15 
REMARK   10  A    between atoms: C10_29  and  C11_30 
REMARK   11  A    between atoms: C11_30  and  N10_31 
REMARK   12  A    between atoms: C11_30  and  O1_35 
ROOT
HETATM    1  N2  UNL     1     -10.517  25.346 -23.599  1.00  0.00    -0.373 N 
ATOM      2  H2  UNL     1     -10.752  25.289 -22.609  1.00  0.00     0.161 HD
ENDROOT
BRANCH   1   3
HETATM    3  C4  UNL     1      -9.261  25.861 -23.921  1.00  0.00     0.120 A 
HETATM    4  N1  UNL     1      -8.965  27.190 -24.034  1.00  0.00    -0.318 N 
HETATM    5  C10 UNL     1      -7.678  27.304 -24.372  1.00  0.00     0.142 A 
HETATM    6  N9  UNL     1      -7.178  26.055 -24.468  1.00  0.00    -0.348 N 
HETATM    7  C9  UNL     1      -8.128  25.147 -24.196  1.00  0.00     0.138 A 
ATOM      8  H9  UNL     1      -6.213  25.832 -24.712  1.00  0.00     0.166 HD
BRANCH   4   9
HETATM    9  C3  UNL     1      -9.885  28.260 -23.838  1.00  0.00     0.142 C 
BRANCH   9  10
HETATM   10  C2  UNL     1     -10.295  28.942 -25.120  1.00  0.00     0.093 C 
BRANCH  10  11
HETATM   11  S1  UNL     1      -9.916  30.708 -24.930  1.00  0.00    -0.172 SA
HETATM   12  C1  UNL     1     -11.360  31.721 -25.396  1.00  0.00     0.089 C 
ENDBRANCH  10  11
ENDBRANCH   9  10
ENDBRANCH   4   9
BRANCH   5  13
HETATM   13  C11 UNL     1      -6.836  28.509 -24.617  1.00  0.00     0.385 C 
BRANCH  13  14
HETATM   14  N10 UNL     1      -5.487  28.391 -24.169  1.00  0.00    -0.046 N 
ATOM     15 3H10 UNL     1      -5.063  29.314 -24.071  1.00  0.00     0.277 HD
ATOM     16 2H10 UNL     1      -5.462  28.082 -23.197  1.00  0.00     0.277 HD
ATOM     17 1H10 UNL     1      -4.900  27.791 -24.748  1.00  0.00     0.277 HD
ENDBRANCH  13  14
BRANCH  13  18
HETATM   18  O1  UNL     1      -6.855  28.890 -25.946  1.00  0.00    -0.364 OA
ATOM     19  H1  UNL     1      -6.404  29.714 -26.085  1.00  0.00     0.212 HD
ENDBRANCH  13  18
ENDBRANCH   5  13
ENDBRANCH   1   3
BRANCH   1  20
HETATM   20  C5  UNL     1     -11.514  24.888 -24.536  1.00  0.00     0.142 C 
BRANCH  20  21
HETATM   21  C6  UNL     1     -12.543  25.931 -24.895  1.00  0.00     0.161 C 
BRANCH  21  22
HETATM   22  N3  UNL     1     -13.155  25.576 -26.142  1.00  0.00    -0.299 N 
ATOM     23  H3  UNL     1     -14.159  25.406 -26.102  1.00  0.00     0.181 HD
BRANCH  22  24
HETATM   24  N4  UNL     1     -12.583  25.430 -27.389  1.00  0.00     0.087 N 
HETATM   25  C7  UNL     1     -12.089  26.462 -28.132  1.00  0.00     0.727 A 
HETATM   26  N6  UNL     1     -11.573  25.982 -29.268  1.00  0.00    -0.116 N 
HETATM   27  N7  UNL     1     -11.724  24.684 -29.270  1.00  0.00    -0.116 N 
ATOM     28  H6  UNL     1     -11.136  26.533 -30.007  1.00  0.00     0.206 HD
HETATM   29  C8  UNL     1     -12.360  24.324 -28.088  1.00  0.00     0.727 A 
ATOM     30  H7  UNL     1     -11.427  24.047 -30.009  1.00  0.00     0.206 HD
HETATM   31  N8  UNL     1     -12.585  23.094 -27.880  1.00  0.00    -0.231 N 
ATOM     32  H82 UNL     1     -13.052  22.830 -27.013  1.00  0.00     0.174 HD
ATOM     33  H81 UNL     1     -12.413  22.244 -28.418  1.00  0.00     0.174 HD
BRANCH  25  34
HETATM   34  N5  UNL     1     -12.108  27.703 -27.809  1.00  0.00    -0.231 N 
ATOM     35  H52 UNL     1     -12.875  28.161 -27.317  1.00  0.00     0.174 HD
ATOM     36  H51 UNL     1     -11.373  28.385 -27.997  1.00  0.00     0.174 HD
ENDBRANCH  25  34
ENDBRANCH  22  24
ENDBRANCH  21  22
ENDBRANCH  20  21
ENDBRANCH   1  20
TORSDOF 12
ENDMDL
MODEL 3
REMARK VINA RESULT: -6.493208035      0.123      1.558
REMARK  12 active torsions:
REMARK  status: ('A' for Active; 'I' for Inactive)
REMARK    1  A    between atoms: S1_2  and  C2_3 
REMARK    2  A    between atoms: C2_3  and  C3_4 
REMARK    3  A    between atoms: C3_4  and  N1_5 
REMARK    4  A    between atoms: C4_6  and  N2_7 
REMARK    5  A    between atoms: N2_7  and  C5_9 
REMARK    6  A    between atoms: C5_9  and  C6_10 
REMARK    7  A    between atoms: C6_10  and  N3_11 
REMARK    8  A    between atoms: N3_11  and  N4_13 
REMARK    9  A    between atoms: C7_14  and  N5_15 
REMARK   10  A    between atoms: C10_29  and  C11_30 
REMARK   11  A    between atoms: C11_30  and  N10_31 
REMARK   12  A    between atoms: C11_30  and  O1_35 
ROOT
HETATM    1  N2  UNL     1     -10.479  25.138 -23.819  1.00  0.00    -0.373 N 
ATOM      2  H2  UNL     1     -10.153  24.173 -23.878  1.00  0.00     0.161 HD
ENDROOT
BRANCH   1   3
HETATM    3  C4  UNL     1     -11.645  25.454 -24.514  1.00  0.00     0.120 A 
HETATM    4  N1  UNL     1     -12.795  25.922 -23.942  1.00  0.00    -0.318 N 
HETATM    5  C10 UNL     1     -13.702  26.093 -24.908  1.00  0.00     0.142 A 
HETATM    6  N9  UNL     1     -13.120  25.734 -26.071  1.00  0.00    -0.348 N 
HETATM    7  C9  UNL     1     -11.856  25.336 -25.860  1.00  0.00     0.138 A 
ATOM      8  H9  UNL     1     -13.577  25.761 -26.982  1.00  0.00     0.166 HD
BRANCH   4   9
HETATM    9  C3  UNL     1     -12.985  26.166 -22.551  1.00  0.00     0.142 C 
BRANCH   9  10
HETATM   10  C2  UNL     1     -13.420  24.943 -21.781  1.00  0.00     0.093 C 
BRANCH  10  11
HETATM   11  S1  UNL     1     -15.112  25.252 -21.200  1.00  0.00    -0.172 SA
HETATM   12  C1  UNL     1     -16.302  24.245 -22.148  1.00  0.00     0.089 C 
ENDBRANCH  10  11
ENDBRANCH   9  10
ENDBRANCH   4   9
BRANCH   5  13
HETATM   13  C11 UNL     1     -15.109  26.582 -24.850  1.00  0.00     0.385 C 
BRANCH  13  14
HETATM   14  N10 UNL     1     -15.288  27.924 -25.298  1.00  0.00    -0.046 N 
ATOM     15 3H10 UNL     1     -15.157  28.577 -24.525  1.00  0.00     0.277 HD
ATOM     16 2H10 UNL     1     -14.512  28.205 -25.897  1.00  0.00     0.277 HD
ATOM     17 1H10 UNL     1     -16.178  28.100 -25.764  1.00  0.00     0.277 HD
ENDBRANCH  13  14
BRANCH  13  18
HETATM   18  O1  UNL     1     -15.975  25.744 -25.529  1.00  0.00    -0.364 OA
ATOM     19  H1  UNL     1     -15.999  25.938 -26.459  1.00  0.00     0.212 HD
ENDBRANCH  13  18
ENDBRANCH   5  13
ENDBRANCH   1   3
BRANCH   1  20
HETATM   20  C5  UNL     1      -9.689  26.048 -23.025  1.00  0.00     0.142 C 
BRANCH  20  21
HETATM   21  C6  UNL     1      -9.352  27.340 -23.726  1.00  0.00     0.161 C 
BRANCH  21  22
HETATM   22  N3  UNL     1      -8.376  27.080 -24.744  1.00  0.00    -0.299 N 
ATOM     23  H3  UNL     1      -8.736  27.062 -25.698  1.00  0.00     0.181 HD
BRANCH  22  24
HETATM   24  N4  UNL     1      -7.022  26.851 -24.622  1.00  0.00     0.087 N 
HETATM   25  C7  UNL     1      -6.069  27.824 -24.703  1.00  0.00     0.727 A 
HETATM   26  N6  UNL     1      -4.863  27.280 -24.506  1.00  0.00    -0.116 N 
HETATM   27  N7  UNL     1      -5.021  25.999 -24.303  1.00  0.00    -0.116 N 
ATOM     28  H6  UNL     1      -3.974  27.779 -24.512  1.00  0.00     0.206 HD
HETATM   29  C8  UNL     1      -6.379  25.716 -24.374  1.00  0.00     0.727 A 
ATOM     30  H7  UNL     1      -4.276  25.325 -24.125  1.00  0.00     0.206 HD
HETATM   31  N8  UNL     1      -6.753  24.520 -24.183  1.00  0.00    -0.231 N 
ATOM     32  H82 UNL     1      -7.750  24.313 -24.235  1.00  0.00     0.174 HD
ATOM     33  H81 UNL     1      -6.259  23.648 -23.992  1.00  0.00     0.174 HD
BRANCH  25  34
HETATM   34  N5  UNL     1      -6.276  29.069 -24.933  1.00  0.00    -0.231 N 
ATOM     35  H52 UNL     1      -7.051  29.607 -24.546  1.00  0.00     0.174 HD
ATOM     36  H51 UNL     1      -5.704  29.675 -25.521  1.00  0.00     0.174 HD
ENDBRANCH  25  34
ENDBRANCH  22  24
ENDBRANCH  21  22
ENDBRANCH  20  21
ENDBRANCH   1  20
TORSDOF 12
ENDMDL
MODEL 4
REMARK VINA RESULT: -6.465838549      1.038      2.013
REMARK  12 active torsions:
REMARK  status: ('A' for Active; 'I' for Inactive)
REMARK    1  A    between atoms: S1_2  and  C2_3 
REMARK    2  A    between atoms: C2_3  and  C3_4 
REMARK    3  A    between atoms: C3_4  and  N1_5 
REMARK    4  A    between atoms: C4_6  and  N2_7 
REMARK    5  A    between atoms: N2_7  and  C5_9 
REMARK    6  A    between atoms: C5_9  and  C6_10 
REMARK    7  A    between atoms: C6_10  and  N3_11 
REMARK    8  A    between atoms: N3_11  and  N4_13 
REMARK    9  A    between atoms: C7_14  and  N5_15 
REMARK   10  A    between atoms: C10_29  and  C11_30 
REMARK   11  A    between atoms: C11_30  and  N10_31 
REMARK   12  A    between atoms: C11_30  and  O1_35 
ROOT
HETATM    1  N2  UNL     1     -10.822  25.135 -23.676  1.00  0.00    -0.373 N 
ATOM      2  H2  UNL     1     -10.583  24.144 -23.676  1.00  0.00     0.161 HD
ENDROOT
BRANCH   1   3
HETATM    3  C4  UNL     1     -11.954  25.511 -24.399  1.00  0.00     0.120 A 
HETATM    4  N1  UNL     1     -13.166  25.821 -23.850  1.00  0.00    -0.318 N 
HETATM    5  C10 UNL     1     -14.012  26.113 -24.842  1.00  0.00     0.142 A 
HETATM    6  N9  UNL     1     -13.330  25.986 -25.999  1.00  0.00    -0.348 N 
HETATM    7  C9  UNL     1     -12.062  25.617 -25.758  1.00  0.00     0.138 A 
ATOM      8  H9  UNL     1     -13.722  26.148 -26.927  1.00  0.00     0.166 HD
BRANCH   4   9
HETATM    9  C3  UNL     1     -13.468  25.815 -22.457  1.00  0.00     0.142 C 
BRANCH   9  10
HETATM   10  C2  UNL     1     -13.307  27.165 -21.801  1.00  0.00     0.093 C 
BRANCH  10  11
HETATM   11  S1  UNL     1     -12.510  26.884 -20.194  1.00  0.00    -0.172 SA
HETATM   12  C1  UNL     1     -13.693  26.140 -19.021  1.00  0.00     0.089 C 
ENDBRANCH  10  11
ENDBRANCH   9  10
ENDBRANCH   4   9
BRANCH   5  13
HETATM   13  C11 UNL     1     -15.446  26.520 -24.815  1.00  0.00     0.385 C 
BRANCH  13  14
HETATM   14  N10 UNL     1     -15.685  27.871 -25.201  1.00  0.00    -0.046 N 
ATOM     15 3H10 UNL     1     -15.470  28.504 -24.431  1.00  0.00     0.277 HD
ATOM     16 2H10 UNL     1     -14.987  28.176 -25.879  1.00  0.00     0.277 HD
ATOM     17 1H10 UNL     1     -16.625  28.051 -25.555  1.00  0.00     0.277 HD
ENDBRANCH  13  14
BRANCH  13  18
HETATM   18  O1  UNL     1     -16.237  25.672 -25.569  1.00  0.00    -0.364 OA
ATOM     19  H1  UNL     1     -16.865  26.150 -26.097  1.00  0.00     0.212 HD
ENDBRANCH  13  18
ENDBRANCH   5  13
ENDBRANCH   1   3
BRANCH   1  20
HETATM   20  C5  UNL     1      -9.958  26.017 -22.930  1.00  0.00     0.142 C 
BRANCH  20  21
HETATM   21  C6  UNL     1      -9.601  27.288 -23.659  1.00  0.00     0.161 C 
BRANCH  21  22
HETATM   22  N3  UNL     1      -8.628  26.991 -24.670  1.00  0.00    -0.299 N 
ATOM     23  H3  UNL     1      -8.994  26.924 -25.620  1.00  0.00     0.181 HD
BRANCH  22  24
HETATM   24  N4  UNL     1      -7.271  26.782 -24.546  1.00  0.00     0.087 N 
HETATM   25  C7  UNL     1      -6.330  27.765 -24.644  1.00  0.00     0.727 A 
HETATM   26  N6  UNL     1      -5.118  27.240 -24.439  1.00  0.00    -0.116 N 
HETATM   27  N7  UNL     1      -5.258  25.961 -24.215  1.00  0.00    -0.116 N 
ATOM     28  H6  UNL     1      -4.235  27.751 -24.454  1.00  0.00     0.206 HD
HETATM   29  C8  UNL     1      -6.613  25.660 -24.279  1.00  0.00     0.727 A 
ATOM     30  H7  UNL     1      -4.505  25.299 -24.026  1.00  0.00     0.206 HD
HETATM   31  N8  UNL     1      -6.971  24.462 -24.067  1.00  0.00    -0.231 N 
ATOM     32  H82 UNL     1      -7.965  24.241 -24.114  1.00  0.00     0.174 HD
ATOM     33  H81 UNL     1      -6.466  23.600 -23.862  1.00  0.00     0.174 HD
BRANCH  25  34
HETATM   34  N5  UNL     1      -6.554  29.003 -24.895  1.00  0.00    -0.231 N 
ATOM     35  H52 UNL     1      -6.236  29.489 -25.734  1.00  0.00     0.174 HD
ATOM     36  H51 UNL     1      -7.071  29.653 -24.303  1.00  0.00     0.174 HD
ENDBRANCH  25  34
ENDBRANCH  22  24
ENDBRANCH  21  22
ENDBRANCH  20  21
ENDBRANCH   1  20
TORSDOF 12
ENDMDL
MODEL 5
REMARK VINA RESULT: -6.410166167      2.550      3.700
REMARK  12 active torsions:
REMARK  status: ('A' for Active; 'I' for Inactive)
REMARK    1  A    between atoms: S1_2  and  C2_3 
REMARK    2  A    between atoms: C2_3  and  C3_4 
REMARK    3  A    between atoms: C3_4  and  N1_5 
REMARK    4  A    between atoms: C4_6  and  N2_7 
REMARK    5  A    between atoms: N2_7  and  C5_9 
REMARK    6  A    between atoms: C5_9  and  C6_10 
REMARK    7  A    between atoms: C6_10  and  N3_11 
REMARK    8  A    between atoms: N3_11  and  N4_13 
REMARK    9  A    between atoms: C7_14  and  N5_15 
REMARK   10  A    between atoms: C10_29  and  C11_30 
REMARK   11  A    between atoms: C11_30  and  N10_31 
REMARK   12  A    between atoms: C11_30  and  O1_35 
ROOT
HETATM    1  N2  UNL     1     -10.295  28.010 -24.769  1.00  0.00    -0.373 N 
ATOM      2  H2  UNL     1      -9.631  27.239 -24.712  1.00  0.00     0.161 HD
ENDROOT
BRANCH   1   3
HETATM    3  C4  UNL     1     -11.628  27.718 -24.482  1.00  0.00     0.120 A 
HETATM    4  N1  UNL     1     -12.489  27.077 -25.328  1.00  0.00    -0.318 N 
HETATM    5  C10 UNL     1     -13.679  26.990 -24.727  1.00  0.00     0.142 A 
HETATM    6  N9  UNL     1     -13.558  27.573 -23.516  1.00  0.00    -0.348 N 
HETATM    7  C9  UNL     1     -12.309  28.030 -23.338  1.00  0.00     0.138 A 
ATOM      8  H9  UNL     1     -14.311  27.655 -22.833  1.00  0.00     0.166 HD
BRANCH   4   9
HETATM    9  C3  UNL     1     -12.164  26.601 -26.631  1.00  0.00     0.142 C 
BRANCH   9  10
HETATM   10  C2  UNL     1     -11.796  25.138 -26.663  1.00  0.00     0.093 C 
BRANCH  10  11
HETATM   11  S1  UNL     1     -12.188  24.525 -28.326  1.00  0.00    -0.172 SA
HETATM   12  C1  UNL     1     -12.179  25.899 -29.527  1.00  0.00     0.089 C 
ENDBRANCH  10  11
ENDBRANCH   9  10
ENDBRANCH   4   9
BRANCH   5  13
HETATM   13  C11 UNL     1     -14.963  26.389 -25.187  1.00  0.00     0.385 C 
BRANCH  13  14
HETATM   14  N10 UNL     1     -15.642  25.616 -24.199  1.00  0.00    -0.046 N 
ATOM     15 3H10 UNL     1     -16.082  24.801 -24.627  1.00  0.00     0.277 HD
ATOM     16 2H10 UNL     1     -14.970  25.153 -23.587  1.00  0.00     0.277 HD
ATOM     17 1H10 UNL     1     -16.324  26.138 -23.648  1.00  0.00     0.277 HD
ENDBRANCH  13  14
BRANCH  13  18
HETATM   18  O1  UNL     1     -15.821  27.341 -25.706  1.00  0.00    -0.364 OA
ATOM     19  H1  UNL     1     -16.732  27.105 -25.578  1.00  0.00     0.212 HD
ENDBRANCH  13  18
ENDBRANCH   5  13
ENDBRANCH   1   3
BRANCH   1  20
HETATM   20  C5  UNL     1      -9.768  29.302 -25.138  1.00  0.00     0.142 C 
BRANCH  20  21
HETATM   21  C6  UNL     1      -8.338  29.525 -24.712  1.00  0.00     0.161 C 
BRANCH  21  22
HETATM   22  N3  UNL     1      -7.484  28.649 -25.459  1.00  0.00    -0.299 N 
ATOM     23  H3  UNL     1      -7.649  28.635 -26.466  1.00  0.00     0.181 HD
BRANCH  22  24
HETATM   24  N4  UNL     1      -6.472  27.823 -25.017  1.00  0.00     0.087 N 
HETATM   25  C7  UNL     1      -5.145  28.130 -25.087  1.00  0.00     0.727 A 
HETATM   26  N6  UNL     1      -4.432  27.139 -24.542  1.00  0.00    -0.116 N 
HETATM   27  N7  UNL     1      -5.261  26.217 -24.130  1.00  0.00    -0.116 N 
ATOM     28  H6  UNL     1      -3.416  27.108 -24.461  1.00  0.00     0.206 HD
HETATM   29  C8  UNL     1      -6.552  26.638 -24.424  1.00  0.00     0.727 A 
ATOM     30  H7  UNL     1      -5.005  25.342 -23.673  1.00  0.00     0.206 HD
HETATM   31  N8  UNL     1      -7.518  25.890 -24.085  1.00  0.00    -0.231 N 
ATOM     32  H82 UNL     1      -8.465  26.199 -24.301  1.00  0.00     0.174 HD
ATOM     33  H81 UNL     1      -7.579  24.979 -23.628  1.00  0.00     0.174 HD
BRANCH  25  34
HETATM   34  N5  UNL     1      -4.641  29.195 -25.594  1.00  0.00    -0.231 N 
ATOM     35  H52 UNL     1      -4.857  30.142 -25.282  1.00  0.00     0.174 HD
ATOM     36  H51 UNL     1      -3.969  29.237 -26.360  1.00  0.00     0.174 HD
ENDBRANCH  25  34
ENDBRANCH  22  24
ENDBRANCH  21  22
ENDBRANCH  20  21
ENDBRANCH   1  20
TORSDOF 12
ENDMDL
