MODEL 1
REMARK VINA RESULT: -7.109006036      0.000      0.000
REMARK  11 active torsions:
REMARK  status: ('A' for Active; 'I' for Inactive)
REMARK    1  A    between atoms: C4_9  and  N3_10 
REMARK    2  A    between atoms: N3_10  and  C5_12 
REMARK    3  A    between atoms: C5_12  and  O1_13 
REMARK    4  A    between atoms: C5_12  and  C6_15 
REMARK    5  A    between atoms: C8_19  and  C9_20 
REMARK    6  A    between atoms: C9_20  and  C10_21 
REMARK    7  A    between atoms: C9_20  and  N6_26 
REMARK    8  A    between atoms: C10_21  and  N5_22 
REMARK    9  A    between atoms: N6_26  and  C11_28 
REMARK   10  A    between atoms: C11_28  and  C12_29 
REMARK   11  A    between atoms: C12_29  and  N7_30 
ROOT
HETATM    1  C6  UNL     1      -9.680  29.185 -25.238  1.00  0.00     0.089 A 
HETATM    2  C7  UNL     1      -9.539  28.163 -24.326  1.00  0.00     0.120 A 
HETATM    3  N4  UNL     1      -8.287  27.693 -24.061  1.00  0.00    -0.348 N 
ATOM      4  H4  UNL     1      -8.169  26.937 -23.387  1.00  0.00     0.167 HD
HETATM    5  C8  UNL     1      -7.214  28.203 -24.664  1.00  0.00     0.144 A 
HETATM    6  N8  UNL     1      -7.377  29.187 -25.539  1.00  0.00    -0.283 N 
ATOM      7  H8  UNL     1      -6.558  29.580 -26.003  1.00  0.00     0.188 HD
HETATM    8  N9  UNL     1      -8.591  29.681 -25.832  1.00  0.00    -0.297 N 
ATOM      9  H9  UNL     1      -8.682  30.437 -26.510  1.00  0.00     0.187 HD
ENDROOT
BRANCH   1  10
HETATM   10  C5  UNL     1     -11.053  29.683 -25.511  1.00  0.00     0.272 C 
BRANCH  10  11
HETATM   11  N3  UNL     1     -11.773  28.829 -26.427  1.00  0.00    -0.355 N 
ATOM     12  H3  UNL     1     -11.471  28.733 -27.397  1.00  0.00     0.162 HD
BRANCH  11  13
HETATM   13  C4  UNL     1     -12.912  28.126 -25.950  1.00  0.00     0.090 A 
HETATM   14  C3  UNL     1     -12.931  26.736 -26.004  1.00  0.00     0.128 A 
HETATM   15  N1  UNL     1     -13.992  26.042 -25.553  1.00  0.00    -0.331 N 
HETATM   16  N2  UNL     1     -11.879  26.159 -26.510  1.00  0.00    -0.384 N 
HETATM   17  C2  UNL     1     -15.073  26.646 -25.033  1.00  0.00     0.078 A 
ATOM     18  H1  UNL     1     -13.974  25.023 -25.608  1.00  0.00     0.168 HD
HETATM   19  C1  UNL     1     -16.235  25.830 -24.539  1.00  0.00     0.089 C 
HETATM   20  N10 UNL     1     -15.075  27.982 -24.972  1.00  0.00    -0.354 N 
HETATM   21  C13 UNL     1     -14.025  28.734 -25.416  1.00  0.00     0.122 A 
ATOM     22  H10 UNL     1     -15.889  28.456 -24.580  1.00  0.00     0.166 HD
ATOM     23  H22 UNL     1     -11.893  25.140 -26.550  1.00  0.00     0.157 HD
ATOM     24  H21 UNL     1     -11.076  26.685 -26.852  1.00  0.00     0.157 HD
ENDBRANCH  11  13
ENDBRANCH  10  11
BRANCH  10  25
HETATM   25  O1  UNL     1     -11.090  30.994 -25.954  1.00  0.00    -0.371 OA
ATOM     26  H1  UNL     1     -10.278  31.212 -26.394  1.00  0.00     0.212 HD
ENDBRANCH  10  25
ENDBRANCH   1  10
BRANCH   5  27
HETATM   27  C9  UNL     1      -5.865  27.680 -24.361  1.00  0.00     0.080 C 
BRANCH  27  28
HETATM   28  C10 UNL     1      -4.788  28.442 -25.070  1.00  0.00     0.290 C 
BRANCH  28  29
HETATM   29  N5  UNL     1      -3.641  27.691 -25.458  1.00  0.00    -0.074 N 
ATOM     30  H53 UNL     1      -3.816  26.696 -25.319  1.00  0.00     0.274 HD
ATOM     31  H52 UNL     1      -3.536  27.720 -26.472  1.00  0.00     0.274 HD
ATOM     32  H51 UNL     1      -2.761  27.953 -25.012  1.00  0.00     0.274 HD
ENDBRANCH  28  29
ENDBRANCH  27  28
BRANCH  27  33
HETATM   33  N6  UNL     1      -5.672  26.344 -24.183  1.00  0.00    -0.367 N 
ATOM     34  H6  UNL     1      -5.288  25.872 -25.001  1.00  0.00     0.165 HD
BRANCH  33  35
HETATM   35  C11 UNL     1      -5.894  25.511 -23.118  1.00  0.00     0.088 C 
BRANCH  35  36
HETATM   36  C12 UNL     1      -7.069  24.597 -23.045  1.00  0.00     0.274 C 
BRANCH  36  37
HETATM   37  N7  UNL     1      -7.606  24.398 -24.425  1.00  0.00    -0.075 N 
ATOM     38  H73 UNL     1      -7.895  25.273 -24.862  1.00  0.00     0.274 HD
ATOM     39  H72 UNL     1      -6.880  24.140 -25.093  1.00  0.00     0.274 HD
ATOM     40  H71 UNL     1      -8.361  23.713 -24.386  1.00  0.00     0.274 HD
ENDBRANCH  36  37
ENDBRANCH  35  36
ENDBRANCH  33  35
ENDBRANCH  27  33
ENDBRANCH   5  27
TORSDOF 11
ENDMDL
MODEL 2
REMARK VINA RESULT: -7.106984548      1.362      2.042
REMARK  11 active torsions:
REMARK  status: ('A' for Active; 'I' for Inactive)
REMARK    1  A    between atoms: C4_9  and  N3_10 
REMARK    2  A    between atoms: N3_10  and  C5_12 
REMARK    3  A    between atoms: C5_12  and  O1_13 
REMARK    4  A    between atoms: C5_12  and  C6_15 
REMARK    5  A    between atoms: C8_19  and  C9_20 
REMARK    6  A    between atoms: C9_20  and  C10_21 
REMARK    7  A    between atoms: C9_20  and  N6_26 
REMARK    8  A    between atoms: C10_21  and  N5_22 
REMARK    9  A    between atoms: N6_26  and  C11_28 
REMARK   10  A    between atoms: C11_28  and  C12_29 
REMARK   11  A    between atoms: C12_29  and  N7_30 
ROOT
HETATM    1  C6  UNL     1      -9.957  29.243 -25.118  1.00  0.00     0.089 A 
HETATM    2  C7  UNL     1      -9.749  28.273 -24.164  1.00  0.00     0.120 A 
HETATM    3  N4  UNL     1      -8.484  27.795 -23.984  1.00  0.00    -0.348 N 
ATOM      4  H4  UNL     1      -8.316  27.078 -23.279  1.00  0.00     0.167 HD
HETATM    5  C8  UNL     1      -7.463  28.248 -24.710  1.00  0.00     0.144 A 
HETATM    6  N8  UNL     1      -7.691  29.183 -25.625  1.00  0.00    -0.283 N 
ATOM      7  H8  UNL     1      -6.911  29.532 -26.182  1.00  0.00     0.188 HD
HETATM    8  N9  UNL     1      -8.919  29.682 -25.836  1.00  0.00    -0.297 N 
ATOM      9  H9  UNL     1      -9.060  30.399 -26.548  1.00  0.00     0.187 HD
ENDROOT
BRANCH   1  10
HETATM   10  C5  UNL     1     -11.341  29.752 -25.297  1.00  0.00     0.272 C 
BRANCH  10  11
HETATM   11  N3  UNL     1     -12.328  28.702 -25.190  1.00  0.00    -0.355 N 
ATOM     12  H3  UNL     1     -13.062  28.746 -24.482  1.00  0.00     0.162 HD
BRANCH  11  13
HETATM   13  C4  UNL     1     -12.257  27.607 -26.093  1.00  0.00     0.090 A 
HETATM   14  C3  UNL     1     -12.493  26.318 -25.626  1.00  0.00     0.128 A 
HETATM   15  N1  UNL     1     -12.440  25.261 -26.458  1.00  0.00    -0.331 N 
HETATM   16  N2  UNL     1     -12.763  26.199 -24.358  1.00  0.00    -0.384 N 
HETATM   17  C2  UNL     1     -12.160  25.394 -27.765  1.00  0.00     0.078 A 
ATOM     18  H1  UNL     1     -12.618  24.329 -26.083  1.00  0.00     0.168 HD
HETATM   19  C1  UNL     1     -12.113  24.185 -28.658  1.00  0.00     0.089 C 
HETATM   20  N10 UNL     1     -11.929  26.625 -28.234  1.00  0.00    -0.354 N 
HETATM   21  C13 UNL     1     -11.971  27.731 -27.433  1.00  0.00     0.122 A 
ATOM     22  H10 UNL     1     -11.715  26.742 -29.225  1.00  0.00     0.166 HD
ATOM     23  H22 UNL     1     -12.936  25.255 -24.015  1.00  0.00     0.157 HD
ATOM     24  H21 UNL     1     -12.803  27.000 -23.727  1.00  0.00     0.157 HD
ENDBRANCH  11  13
ENDBRANCH  10  11
BRANCH  10  25
HETATM   25  O1  UNL     1     -11.526  30.459 -26.472  1.00  0.00    -0.371 OA
ATOM     26  H1  UNL     1     -10.805  30.296 -27.068  1.00  0.00     0.212 HD
ENDBRANCH  10  25
ENDBRANCH   1  10
BRANCH   5  27
HETATM   27  C9  UNL     1      -6.100  27.718 -24.499  1.00  0.00     0.080 C 
BRANCH  27  28
HETATM   28  C10 UNL     1      -5.062  28.509 -25.232  1.00  0.00     0.290 C 
BRANCH  28  29
HETATM   29  N5  UNL     1      -3.816  27.854 -25.456  1.00  0.00    -0.074 N 
ATOM     30  H53 UNL     1      -3.264  27.857 -24.598  1.00  0.00     0.274 HD
ATOM     31  H52 UNL     1      -3.969  26.852 -25.572  1.00  0.00     0.274 HD
ATOM     32  H51 UNL     1      -3.255  28.210 -26.230  1.00  0.00     0.274 HD
ENDBRANCH  28  29
ENDBRANCH  27  28
BRANCH  27  33
HETATM   33  N6  UNL     1      -5.898  26.376 -24.383  1.00  0.00    -0.367 N 
ATOM     34  H6  UNL     1      -5.650  25.920 -25.262  1.00  0.00     0.165 HD
BRANCH  33  35
HETATM   35  C11 UNL     1      -5.961  25.519 -23.316  1.00  0.00     0.088 C 
BRANCH  35  36
HETATM   36  C12 UNL     1      -7.085  24.558 -23.124  1.00  0.00     0.274 C 
BRANCH  36  37
HETATM   37  N7  UNL     1      -7.881  24.495 -24.386  1.00  0.00    -0.075 N 
ATOM     38  H73 UNL     1      -8.886  24.516 -24.216  1.00  0.00     0.274 HD
ATOM     39  H72 UNL     1      -7.812  25.353 -24.934  1.00  0.00     0.274 HD
ATOM     40  H71 UNL     1      -7.591  23.671 -24.914  1.00  0.00     0.274 HD
ENDBRANCH  36  37
ENDBRANCH  35  36
ENDBRANCH  33  35
ENDBRANCH  27  33
ENDBRANCH   5  27
TORSDOF 11
ENDMDL
MODEL 3
REMARK VINA RESULT: -7.091039898      2.772      4.345
REMARK  11 active torsions:
REMARK  status: ('A' for Active; 'I' for Inactive)
REMARK    1  A    between atoms: C4_9  and  N3_10 
REMARK    2  A    between atoms: N3_10  and  C5_12 
REMARK    3  A    between atoms: C5_12  and  O1_13 
REMARK    4  A    between atoms: C5_12  and  C6_15 
REMARK    5  A    between atoms: C8_19  and  C9_20 
REMARK    6  A    between atoms: C9_20  and  C10_21 
REMARK    7  A    between atoms: C9_20  and  N6_26 
REMARK    8  A    between atoms: C10_21  and  N5_22 
REMARK    9  A    between atoms: N6_26  and  C11_28 
REMARK   10  A    between atoms: C11_28  and  C12_29 
REMARK   11  A    between atoms: C12_29  and  N7_30 
ROOT
HETATM    1  C6  UNL     1     -10.004  29.346 -25.145  1.00  0.00     0.089 A 
HETATM    2  C7  UNL     1      -9.856  28.249 -24.327  1.00  0.00     0.120 A 
HETATM    3  N4  UNL     1      -8.601  27.759 -24.115  1.00  0.00    -0.348 N 
ATOM      4  H4  UNL     1      -8.477  26.947 -23.509  1.00  0.00     0.167 HD
HETATM    5  C8  UNL     1      -7.534  28.319 -24.682  1.00  0.00     0.144 A 
HETATM    6  N8  UNL     1      -7.704  29.375 -25.468  1.00  0.00    -0.283 N 
ATOM      7  H8  UNL     1      -6.889  29.806 -25.903  1.00  0.00     0.188 HD
HETATM    8  N9  UNL     1      -8.920  29.891 -25.705  1.00  0.00    -0.297 N 
ATOM      9  H9  UNL     1      -9.017  30.703 -26.315  1.00  0.00     0.187 HD
ENDROOT
BRANCH   1  10
HETATM   10  C5  UNL     1     -11.379  29.866 -25.362  1.00  0.00     0.272 C 
BRANCH  10  11
HETATM   11  N3  UNL     1     -11.432  31.309 -25.320  1.00  0.00    -0.355 N 
ATOM     12  H3  UNL     1     -11.316  31.810 -24.438  1.00  0.00     0.162 HD
BRANCH  11  13
HETATM   13  C4  UNL     1     -11.649  32.017 -26.533  1.00  0.00     0.090 A 
HETATM   14  C3  UNL     1     -10.838  33.102 -26.846  1.00  0.00     0.128 A 
HETATM   15  N1  UNL     1     -11.013  33.789 -27.991  1.00  0.00    -0.331 N 
HETATM   16  N2  UNL     1      -9.916  33.410 -25.979  1.00  0.00    -0.384 N 
HETATM   17  C2  UNL     1     -11.967  33.465 -28.879  1.00  0.00     0.078 A 
ATOM     18  H1  UNL     1     -10.402  34.581 -28.189  1.00  0.00     0.168 HD
HETATM   19  C1  UNL     1     -12.127  34.259 -30.146  1.00  0.00     0.089 C 
HETATM   20  N10 UNL     1     -12.759  32.424 -28.597  1.00  0.00    -0.354 N 
HETATM   21  C13 UNL     1     -12.623  31.695 -27.449  1.00  0.00     0.122 A 
ATOM     22  H10 UNL     1     -13.489  32.166 -29.261  1.00  0.00     0.166 HD
ATOM     23  H22 UNL     1      -9.321  34.206 -26.208  1.00  0.00     0.157 HD
ATOM     24  H21 UNL     1      -9.783  32.890 -25.112  1.00  0.00     0.157 HD
ENDBRANCH  11  13
ENDBRANCH  10  11
BRANCH  10  25
HETATM   25  O1  UNL     1     -12.318  29.331 -24.496  1.00  0.00    -0.371 OA
ATOM     26  H1  UNL     1     -12.362  29.849 -23.702  1.00  0.00     0.212 HD
ENDBRANCH  10  25
ENDBRANCH   1  10
BRANCH   5  27
HETATM   27  C9  UNL     1      -6.182  27.772 -24.438  1.00  0.00     0.080 C 
BRANCH  27  28
HETATM   28  C10 UNL     1      -5.114  28.572 -25.118  1.00  0.00     0.290 C 
BRANCH  28  29
HETATM   29  N5  UNL     1      -3.914  27.873 -25.436  1.00  0.00    -0.074 N 
ATOM     30  H53 UNL     1      -3.995  27.449 -26.360  1.00  0.00     0.274 HD
ATOM     31  H52 UNL     1      -3.160  28.539 -25.605  1.00  0.00     0.274 HD
ATOM     32  H51 UNL     1      -3.611  27.171 -24.760  1.00  0.00     0.274 HD
ENDBRANCH  28  29
ENDBRANCH  27  28
BRANCH  27  33
HETATM   33  N6  UNL     1      -5.994  26.427 -24.348  1.00  0.00    -0.367 N 
ATOM     34  H6  UNL     1      -5.782  25.980 -25.240  1.00  0.00     0.165 HD
BRANCH  33  35
HETATM   35  C11 UNL     1      -6.033  25.555 -23.291  1.00  0.00     0.088 C 
BRANCH  35  36
HETATM   36  C12 UNL     1      -7.106  24.533 -23.134  1.00  0.00     0.274 C 
BRANCH  36  37
HETATM   37  N7  UNL     1      -7.935  24.515 -24.375  1.00  0.00    -0.075 N 
ATOM     38  H73 UNL     1      -8.316  25.434 -24.605  1.00  0.00     0.274 HD
ATOM     39  H72 UNL     1      -7.375  24.381 -25.217  1.00  0.00     0.274 HD
ATOM     40  H71 UNL     1      -8.662  23.806 -24.273  1.00  0.00     0.274 HD
ENDBRANCH  36  37
ENDBRANCH  35  36
ENDBRANCH  33  35
ENDBRANCH  27  33
ENDBRANCH   5  27
TORSDOF 11
ENDMDL
MODEL 4
REMARK VINA RESULT: -7.062651254      2.363      3.852
REMARK  11 active torsions:
REMARK  status: ('A' for Active; 'I' for Inactive)
REMARK    1  A    between atoms: C4_9  and  N3_10 
REMARK    2  A    between atoms: N3_10  and  C5_12 
REMARK    3  A    between atoms: C5_12  and  O1_13 
REMARK    4  A    between atoms: C5_12  and  C6_15 
REMARK    5  A    between atoms: C8_19  and  C9_20 
REMARK    6  A    between atoms: C9_20  and  C10_21 
REMARK    7  A    between atoms: C9_20  and  N6_26 
REMARK    8  A    between atoms: C10_21  and  N5_22 
REMARK    9  A    between atoms: N6_26  and  C11_28 
REMARK   10  A    between atoms: C11_28  and  C12_29 
REMARK   11  A    between atoms: C12_29  and  N7_30 
ROOT
HETATM    1  C6  UNL     1     -11.860  26.828 -25.492  1.00  0.00     0.089 A 
HETATM    2  C7  UNL     1     -11.259  25.590 -25.476  1.00  0.00     0.120 A 
HETATM    3  N4  UNL     1      -9.945  25.507 -25.122  1.00  0.00    -0.348 N 
ATOM      4  H4  UNL     1      -9.488  24.595 -25.105  1.00  0.00     0.167 HD
HETATM    5  C8  UNL     1      -9.245  26.593 -24.797  1.00  0.00     0.144 A 
HETATM    6  N8  UNL     1      -9.848  27.776 -24.821  1.00  0.00    -0.283 N 
ATOM      7  H8  UNL     1      -9.316  28.609 -24.573  1.00  0.00     0.188 HD
HETATM    8  N9  UNL     1     -11.140  27.905 -25.164  1.00  0.00    -0.297 N 
ATOM      9  H9  UNL     1     -11.573  28.829 -25.173  1.00  0.00     0.187 HD
ENDROOT
BRANCH   1  10
HETATM   10  C5  UNL     1     -13.293  26.897 -25.879  1.00  0.00     0.272 C 
BRANCH  10  11
HETATM   11  N3  UNL     1     -14.132  27.357 -24.796  1.00  0.00    -0.355 N 
ATOM     12  H3  UNL     1     -14.414  28.336 -24.735  1.00  0.00     0.162 HD
BRANCH  11  13
HETATM   13  C4  UNL     1     -14.555  26.418 -23.817  1.00  0.00     0.090 A 
HETATM   14  C3  UNL     1     -15.822  25.854 -23.912  1.00  0.00     0.128 A 
HETATM   15  N1  UNL     1     -16.249  24.956 -23.004  1.00  0.00    -0.331 N 
HETATM   16  N2  UNL     1     -16.558  26.242 -24.914  1.00  0.00    -0.384 N 
HETATM   17  C2  UNL     1     -15.483  24.562 -21.974  1.00  0.00     0.078 A 
ATOM     18  H1  UNL     1     -17.185  24.563 -23.103  1.00  0.00     0.168 HD
HETATM   19  C1  UNL     1     -16.000  23.556 -20.984  1.00  0.00     0.089 C 
HETATM   20  N10 UNL     1     -14.260  25.093 -21.864  1.00  0.00    -0.354 N 
HETATM   21  C13 UNL     1     -13.779  26.008 -22.757  1.00  0.00     0.122 A 
ATOM     22  H10 UNL     1     -13.666  24.805 -21.086  1.00  0.00     0.166 HD
ATOM     23  H22 UNL     1     -17.488  25.829 -24.984  1.00  0.00     0.157 HD
ATOM     24  H21 UNL     1     -16.236  26.922 -25.601  1.00  0.00     0.157 HD
ENDBRANCH  11  13
ENDBRANCH  10  11
BRANCH  10  25
HETATM   25  O1  UNL     1     -13.788  25.709 -26.391  1.00  0.00    -0.371 OA
ATOM     26  H1  UNL     1     -13.395  25.531 -27.237  1.00  0.00     0.212 HD
ENDBRANCH  10  25
ENDBRANCH   1  10
BRANCH   5  27
HETATM   27  C9  UNL     1      -7.822  26.482 -24.415  1.00  0.00     0.080 C 
BRANCH  27  28
HETATM   28  C10 UNL     1      -7.579  25.363 -23.450  1.00  0.00     0.290 C 
BRANCH  28  29
HETATM   29  N5  UNL     1      -7.049  24.161 -24.004  1.00  0.00    -0.074 N 
ATOM     30  H53 UNL     1      -6.883  24.285 -25.003  1.00  0.00     0.274 HD
ATOM     31  H52 UNL     1      -6.094  24.020 -23.675  1.00  0.00     0.274 HD
ATOM     32  H51 UNL     1      -7.598  23.316 -23.847  1.00  0.00     0.274 HD
ENDBRANCH  28  29
ENDBRANCH  27  28
BRANCH  27  33
HETATM   33  N6  UNL     1      -7.060  27.602 -24.280  1.00  0.00    -0.367 N 
ATOM     34  H6  UNL     1      -7.109  28.023 -23.353  1.00  0.00     0.165 HD
BRANCH  33  35
HETATM   35  C11 UNL     1      -6.239  28.273 -25.148  1.00  0.00     0.088 C 
BRANCH  35  36
HETATM   36  C12 UNL     1      -4.840  28.651 -24.799  1.00  0.00     0.274 C 
BRANCH  36  37
HETATM   37  N7  UNL     1      -3.912  27.627 -25.367  1.00  0.00    -0.075 N 
ATOM     38  H73 UNL     1      -4.107  26.688 -25.020  1.00  0.00     0.274 HD
ATOM     39  H72 UNL     1      -4.085  27.451 -26.357  1.00  0.00     0.274 HD
ATOM     40  H71 UNL     1      -2.952  27.920 -25.185  1.00  0.00     0.274 HD
ENDBRANCH  36  37
ENDBRANCH  35  36
ENDBRANCH  33  35
ENDBRANCH  27  33
ENDBRANCH   5  27
TORSDOF 11
ENDMDL
MODEL 5
REMARK VINA RESULT: -6.990333929      3.348      5.499
REMARK  11 active torsions:
REMARK  status: ('A' for Active; 'I' for Inactive)
REMARK    1  A    between atoms: C4_9  and  N3_10 
REMARK    2  A    between atoms: N3_10  and  C5_12 
REMARK    3  A    between atoms: C5_12  and  O1_13 
REMARK    4  A    between atoms: C5_12  and  C6_15 
REMARK    5  A    between atoms: C8_19  and  C9_20 
REMARK    6  A    between atoms: C9_20  and  C10_21 
REMARK    7  A    between atoms: C9_20  and  N6_26 
REMARK    8  A    between atoms: C10_21  and  N5_22 
REMARK    9  A    between atoms: N6_26  and  C11_28 
REMARK   10  A    between atoms: C11_28  and  C12_29 
REMARK   11  A    between atoms: C12_29  and  N7_30 
ROOT
HETATM    1  C6  UNL     1     -10.103  30.130 -24.918  1.00  0.00     0.089 A 
HETATM    2  C7  UNL     1     -10.486  29.047 -24.160  1.00  0.00     0.120 A 
HETATM    3  N4  UNL     1      -9.607  28.015 -24.005  1.00  0.00    -0.348 N 
ATOM      4  H4  UNL     1      -9.878  27.207 -23.444  1.00  0.00     0.167 HD
HETATM    5  C8  UNL     1      -8.401  28.042 -24.571  1.00  0.00     0.144 A 
HETATM    6  N8  UNL     1      -8.057  29.098 -25.298  1.00  0.00    -0.283 N 
ATOM      7  H8  UNL     1      -7.134  29.122 -25.732  1.00  0.00     0.188 HD
HETATM    8  N9  UNL     1      -8.889  30.135 -25.477  1.00  0.00    -0.297 N 
ATOM      9  H9  UNL     1      -8.594  30.931 -26.044  1.00  0.00     0.187 HD
ENDROOT
BRANCH   1  10
HETATM   10  C5  UNL     1     -11.074  31.243 -25.073  1.00  0.00     0.272 C 
BRANCH  10  11
HETATM   11  N3  UNL     1     -10.432  32.483 -25.443  1.00  0.00    -0.355 N 
ATOM     12  H3  UNL     1      -9.693  32.881 -24.862  1.00  0.00     0.162 HD
BRANCH  11  13
HETATM   13  C4  UNL     1     -10.849  33.136 -26.634  1.00  0.00     0.090 A 
HETATM   14  C3  UNL     1     -10.352  34.401 -26.931  1.00  0.00     0.128 A 
HETATM   15  N1  UNL     1     -10.723  35.042 -28.055  1.00  0.00    -0.331 N 
HETATM   16  N2  UNL     1      -9.522  34.917 -26.071  1.00  0.00    -0.384 N 
HETATM   17  C2  UNL     1     -11.581  34.502 -28.937  1.00  0.00     0.078 A 
ATOM     18  H1  UNL     1     -10.341  35.969 -28.243  1.00  0.00     0.168 HD
HETATM   19  C1  UNL     1     -11.967  35.254 -30.180  1.00  0.00     0.089 C 
HETATM   20  N10 UNL     1     -12.071  33.286 -28.669  1.00  0.00    -0.354 N 
HETATM   21  C13 UNL     1     -11.727  32.593 -27.543  1.00  0.00     0.122 A 
ATOM     22  H10 UNL     1     -12.724  32.862 -29.329  1.00  0.00     0.166 HD
ATOM     23  H22 UNL     1      -9.158  35.844 -26.289  1.00  0.00     0.157 HD
ATOM     24  H21 UNL     1      -9.242  34.432 -25.220  1.00  0.00     0.157 HD
ENDBRANCH  11  13
ENDBRANCH  10  11
BRANCH  10  25
HETATM   25  O1  UNL     1     -11.878  31.438 -23.963  1.00  0.00    -0.371 OA
ATOM     26  H1  UNL     1     -12.508  32.127 -24.133  1.00  0.00     0.212 HD
ENDBRANCH  10  25
ENDBRANCH   1  10
BRANCH   5  27
HETATM   27  C9  UNL     1      -7.463  26.914 -24.389  1.00  0.00     0.080 C 
BRANCH  27  28
HETATM   28  C10 UNL     1      -8.105  25.744 -23.710  1.00  0.00     0.290 C 
BRANCH  28  29
HETATM   29  N5  UNL     1      -7.589  24.461 -24.053  1.00  0.00    -0.074 N 
ATOM     30  H53 UNL     1      -7.884  23.773 -23.359  1.00  0.00     0.274 HD
ATOM     31  H52 UNL     1      -8.069  24.105 -24.879  1.00  0.00     0.274 HD
ATOM     32  H51 UNL     1      -6.579  24.404 -24.187  1.00  0.00     0.274 HD
ENDBRANCH  28  29
ENDBRANCH  27  28
BRANCH  27  33
HETATM   33  N6  UNL     1      -6.150  27.153 -24.118  1.00  0.00    -0.367 N 
ATOM     34  H6  UNL     1      -5.994  27.628 -23.229  1.00  0.00     0.165 HD
BRANCH  33  35
HETATM   35  C11 UNL     1      -4.998  26.879 -24.807  1.00  0.00     0.088 C 
BRANCH  35  36
HETATM   36  C12 UNL     1      -4.003  27.933 -25.157  1.00  0.00     0.274 C 
BRANCH  36  37
HETATM   37  N7  UNL     1      -4.735  29.197 -25.466  1.00  0.00    -0.075 N 
ATOM     38  H73 UNL     1      -4.145  29.886 -25.934  1.00  0.00     0.274 HD
ATOM     39  H72 UNL     1      -5.425  29.077 -26.207  1.00  0.00     0.274 HD
ATOM     40  H71 UNL     1      -5.146  29.556 -24.605  1.00  0.00     0.274 HD
ENDBRANCH  36  37
ENDBRANCH  35  36
ENDBRANCH  33  35
ENDBRANCH  27  33
ENDBRANCH   5  27
TORSDOF 11
ENDMDL
