MODEL 1
REMARK VINA RESULT: -6.699562622      0.000      0.000
REMARK  13 active torsions:
REMARK  status: ('A' for Active; 'I' for Inactive)
REMARK    1  A    between atoms: N1_2  and  C2_4 
REMARK    2  A    between atoms: C2_4  and  O1_5 
REMARK    3  A    between atoms: C2_4  and  C3_7 
REMARK    4  A    between atoms: C3_7  and  O2_8 
REMARK    5  A    between atoms: C3_7  and  N2_10 
REMARK    6  A    between atoms: N2_10  and  C4_12 
REMARK    7  A    between atoms: C4_12  and  C5_13 
REMARK    8  A    between atoms: C4_12  and  C13_27 
REMARK    9  A    between atoms: C5_13  and  C6_14 
REMARK   10  A    between atoms: C6_14  and  N3_16 
REMARK   11  A    between atoms: N3_16  and  C8_18 
REMARK   12  A    between atoms: C13_27  and  N7_28 
REMARK   13  A    between atoms: C13_27  and  O3_32 
ROOT
HETATM    1  C8  UNL     1      -8.145  26.840 -24.404  1.00  0.00     0.141 A 
HETATM    2  N4  UNL     1      -7.189  25.972 -24.030  1.00  0.00    -0.336 N 
ATOM      3  H4  UNL     1      -7.363  25.002 -23.764  1.00  0.00     0.168 HD
HETATM    4  C9  UNL     1      -5.972  26.545 -24.052  1.00  0.00     0.185 A 
HETATM    5  N5  UNL     1      -6.118  27.822 -24.450  1.00  0.00    -0.336 N 
HETATM    6  C10 UNL     1      -5.070  28.823 -24.620  1.00  0.00     0.158 C 
HETATM    7  C11 UNL     1      -7.429  28.015 -24.667  1.00  0.00     0.161 A 
HETATM    8  C12 UNL     1      -8.012  29.241 -25.101  1.00  0.00     0.122 C 
HETATM    9  N6  UNL     1      -8.497  30.241 -25.454  1.00  0.00    -0.190 NA
ENDROOT
BRANCH   1  10
HETATM   10  N3  UNL     1      -9.528  26.718 -24.536  1.00  0.00    -0.369 N 
ATOM     11  H3  UNL     1      -9.929  26.330 -25.389  1.00  0.00     0.161 HD
BRANCH  10  12
HETATM   12  C6  UNL     1     -10.398  27.147 -23.450  1.00  0.00     0.081 C 
HETATM   13  C7  UNL     1     -10.784  25.988 -22.575  1.00  0.00     0.032 C 
BRANCH  12  14
HETATM   14  C5  UNL     1     -11.440  28.072 -23.826  1.00  0.00     0.054 C 
BRANCH  14  15
HETATM   15  C4  UNL     1     -12.472  27.960 -24.835  1.00  0.00     0.137 C 
BRANCH  15  16
HETATM   16  N2  UNL     1     -12.599  26.489 -25.091  1.00  0.00    -0.385 N 
ATOM     17  H2  UNL     1     -12.436  25.798 -24.358  1.00  0.00     0.156 HD
BRANCH  16  18
HETATM   18  C3  UNL     1     -12.951  26.117 -26.385  1.00  0.00     0.262 C 
BRANCH  18  19
HETATM   19  C2  UNL     1     -12.165  24.971 -26.948  1.00  0.00     0.262 C 
BRANCH  19  20
HETATM   20  N1  UNL     1     -11.514  25.239 -28.191  1.00  0.00    -0.398 N 
HETATM   21  C1  UNL     1     -12.169  25.939 -29.197  1.00  0.00     0.142 C 
ATOM     22  H1  UNL     1     -10.559  24.914 -28.342  1.00  0.00     0.155 HD
ENDBRANCH  19  20
BRANCH  19  23
HETATM   23  O1  UNL     1     -11.094  24.798 -25.979  1.00  0.00    -0.373 OA
ATOM     24  H1  UNL     1     -11.207  23.921 -25.632  1.00  0.00     0.212 HD
ENDBRANCH  19  23
ENDBRANCH  18  19
BRANCH  18  25
HETATM   25  O2  UNL     1     -14.339  25.667 -26.323  1.00  0.00    -0.373 OA
ATOM     26  H2  UNL     1     -14.603  25.749 -25.414  1.00  0.00     0.212 HD
ENDBRANCH  18  25
ENDBRANCH  16  18
ENDBRANCH  15  16
BRANCH  15  27
HETATM   27  C13 UNL     1     -12.273  28.525 -26.201  1.00  0.00     0.338 C 
BRANCH  27  28
HETATM   28  N7  UNL     1     -13.014  29.729 -26.479  1.00  0.00    -0.051 N 
ATOM     29  H73 UNL     1     -13.789  29.527 -27.110  1.00  0.00     0.277 HD
ATOM     30  H72 UNL     1     -13.531  30.023 -25.650  1.00  0.00     0.277 HD
ATOM     31  H71 UNL     1     -12.459  30.505 -26.840  1.00  0.00     0.277 HD
ENDBRANCH  27  28
BRANCH  27  32
HETATM   32  O3  UNL     1     -10.952  28.840 -26.490  1.00  0.00    -0.368 OA
ATOM     33  H3  UNL     1     -10.664  29.666 -26.121  1.00  0.00     0.212 HD
ENDBRANCH  27  32
ENDBRANCH  15  27
ENDBRANCH  14  15
ENDBRANCH  12  14
ENDBRANCH  10  12
ENDBRANCH   1  10
TORSDOF 13
ENDMDL
MODEL 2
REMARK VINA RESULT: -6.694130141      0.846      1.889
REMARK  13 active torsions:
REMARK  status: ('A' for Active; 'I' for Inactive)
REMARK    1  A    between atoms: N1_2  and  C2_4 
REMARK    2  A    between atoms: C2_4  and  O1_5 
REMARK    3  A    between atoms: C2_4  and  C3_7 
REMARK    4  A    between atoms: C3_7  and  O2_8 
REMARK    5  A    between atoms: C3_7  and  N2_10 
REMARK    6  A    between atoms: N2_10  and  C4_12 
REMARK    7  A    between atoms: C4_12  and  C5_13 
REMARK    8  A    between atoms: C4_12  and  C13_27 
REMARK    9  A    between atoms: C5_13  and  C6_14 
REMARK   10  A    between atoms: C6_14  and  N3_16 
REMARK   11  A    between atoms: N3_16  and  C8_18 
REMARK   12  A    between atoms: C13_27  and  N7_28 
REMARK   13  A    between atoms: C13_27  and  O3_32 
ROOT
HETATM    1  C8  UNL     1      -8.490  27.299 -24.369  1.00  0.00     0.141 A 
HETATM    2  N4  UNL     1      -8.142  28.540 -24.751  1.00  0.00    -0.336 N 
ATOM      3  H4  UNL     1      -8.805  29.295 -24.929  1.00  0.00     0.168 HD
HETATM    4  C9  UNL     1      -6.808  28.660 -24.868  1.00  0.00     0.185 A 
HETATM    5  N5  UNL     1      -6.252  27.475 -24.556  1.00  0.00    -0.336 N 
HETATM    6  C10 UNL     1      -4.833  27.137 -24.545  1.00  0.00     0.158 C 
HETATM    7  C11 UNL     1      -7.258  26.640 -24.252  1.00  0.00     0.161 A 
HETATM    8  C12 UNL     1      -7.100  25.278 -23.865  1.00  0.00     0.122 C 
HETATM    9  N6  UNL     1      -6.980  24.161 -23.551  1.00  0.00    -0.190 NA
ENDROOT
BRANCH   1  10
HETATM   10  N3  UNL     1      -9.725  26.702 -24.120  1.00  0.00    -0.369 N 
ATOM     11  H3  UNL     1      -9.973  25.826 -24.581  1.00  0.00     0.161 HD
BRANCH  10  12
HETATM   12  C6  UNL     1     -10.660  27.332 -23.199  1.00  0.00     0.081 C 
HETATM   13  C7  UNL     1     -11.171  26.346 -22.186  1.00  0.00     0.032 C 
BRANCH  12  14
HETATM   14  C5  UNL     1     -11.624  28.216 -23.810  1.00  0.00     0.054 C 
BRANCH  14  15
HETATM   15  C4  UNL     1     -12.440  28.038 -24.993  1.00  0.00     0.137 C 
BRANCH  15  16
HETATM   16  N2  UNL     1     -12.470  26.556 -25.217  1.00  0.00    -0.385 N 
ATOM     17  H2  UNL     1     -12.261  25.894 -24.470  1.00  0.00     0.156 HD
BRANCH  16  18
HETATM   18  C3  UNL     1     -12.799  26.135 -26.502  1.00  0.00     0.262 C 
BRANCH  18  19
HETATM   19  C2  UNL     1     -11.964  25.005 -27.029  1.00  0.00     0.262 C 
BRANCH  19  20
HETATM   20  N1  UNL     1     -11.527  25.157 -28.381  1.00  0.00    -0.398 N 
HETATM   21  C1  UNL     1     -12.195  26.012 -29.249  1.00  0.00     0.142 C 
ATOM     22  H1  UNL     1     -10.718  24.633 -28.712  1.00  0.00     0.155 HD
ENDBRANCH  19  20
BRANCH  19  23
HETATM   23  O1  UNL     1     -10.757  25.083 -26.221  1.00  0.00    -0.373 OA
ATOM     24  H1  UNL     1     -11.057  25.107 -25.320  1.00  0.00     0.212 HD
ENDBRANCH  19  23
ENDBRANCH  18  19
BRANCH  18  25
HETATM   25  O2  UNL     1     -14.168  25.631 -26.435  1.00  0.00    -0.373 OA
ATOM     26  H2  UNL     1     -14.575  26.071 -25.697  1.00  0.00     0.212 HD
ENDBRANCH  18  25
ENDBRANCH  16  18
ENDBRANCH  15  16
BRANCH  15  27
HETATM   27  C13 UNL     1     -12.000  28.571 -26.314  1.00  0.00     0.338 C 
BRANCH  27  28
HETATM   28  N7  UNL     1     -12.780  29.673 -26.819  1.00  0.00    -0.051 N 
ATOM     29  H73 UNL     1     -13.532  29.898 -26.169  1.00  0.00     0.277 HD
ATOM     30  H72 UNL     1     -12.238  30.536 -26.773  1.00  0.00     0.277 HD
ATOM     31  H71 UNL     1     -13.154  29.543 -27.759  1.00  0.00     0.277 HD
ENDBRANCH  27  28
BRANCH  27  32
HETATM   32  O3  UNL     1     -10.687  29.021 -26.329  1.00  0.00    -0.368 OA
ATOM     33  H3  UNL     1     -10.041  28.325 -26.311  1.00  0.00     0.212 HD
ENDBRANCH  27  32
ENDBRANCH  15  27
ENDBRANCH  14  15
ENDBRANCH  12  14
ENDBRANCH  10  12
ENDBRANCH   1  10
TORSDOF 13
ENDMDL
MODEL 3
REMARK VINA RESULT: -6.654077788      2.053      6.227
REMARK  13 active torsions:
REMARK  status: ('A' for Active; 'I' for Inactive)
REMARK    1  A    between atoms: N1_2  and  C2_4 
REMARK    2  A    between atoms: C2_4  and  O1_5 
REMARK    3  A    between atoms: C2_4  and  C3_7 
REMARK    4  A    between atoms: C3_7  and  O2_8 
REMARK    5  A    between atoms: C3_7  and  N2_10 
REMARK    6  A    between atoms: N2_10  and  C4_12 
REMARK    7  A    between atoms: C4_12  and  C5_13 
REMARK    8  A    between atoms: C4_12  and  C13_27 
REMARK    9  A    between atoms: C5_13  and  C6_14 
REMARK   10  A    between atoms: C6_14  and  N3_16 
REMARK   11  A    between atoms: N3_16  and  C8_18 
REMARK   12  A    between atoms: C13_27  and  N7_28 
REMARK   13  A    between atoms: C13_27  and  O3_32 
ROOT
HETATM    1  C8  UNL     1     -12.230  25.807 -26.178  1.00  0.00     0.141 A 
HETATM    2  N4  UNL     1     -12.117  27.123 -26.428  1.00  0.00    -0.336 N 
ATOM      3  H4  UNL     1     -12.079  27.845 -25.708  1.00  0.00     0.168 HD
HETATM    4  C9  UNL     1     -12.061  27.366 -27.750  1.00  0.00     0.185 A 
HETATM    5  N5  UNL     1     -12.136  26.189 -28.396  1.00  0.00    -0.336 N 
HETATM    6  C10 UNL     1     -12.113  25.965 -29.838  1.00  0.00     0.158 C 
HETATM    7  C11 UNL     1     -12.239  25.235 -27.457  1.00  0.00     0.161 A 
HETATM    8  C12 UNL     1     -12.343  23.838 -27.721  1.00  0.00     0.122 C 
HETATM    9  N6  UNL     1     -12.432  22.694 -27.928  1.00  0.00    -0.190 NA
ENDROOT
BRANCH   1  10
HETATM   10  N3  UNL     1     -12.322  25.078 -24.992  1.00  0.00    -0.369 N 
ATOM     11  H3  UNL     1     -13.120  24.465 -24.829  1.00  0.00     0.161 HD
BRANCH  10  12
HETATM   12  C6  UNL     1     -11.275  25.196 -23.988  1.00  0.00     0.081 C 
HETATM   13  C7  UNL     1     -11.648  26.194 -22.929  1.00  0.00     0.032 C 
BRANCH  12  14
HETATM   14  C5  UNL     1      -9.929  25.250 -24.508  1.00  0.00     0.054 C 
BRANCH  14  15
HETATM   15  C4  UNL     1      -8.708  25.733 -23.897  1.00  0.00     0.137 C 
BRANCH  15  16
HETATM   16  N2  UNL     1      -8.253  26.852 -24.785  1.00  0.00    -0.385 N 
ATOM     17  H2  UNL     1      -7.682  26.684 -25.614  1.00  0.00     0.156 HD
BRANCH  16  18
HETATM   18  C3  UNL     1      -8.653  28.132 -24.415  1.00  0.00     0.262 C 
BRANCH  18  19
HETATM   19  C2  UNL     1      -7.745  29.234 -24.873  1.00  0.00     0.262 C 
BRANCH  19  20
HETATM   20  N1  UNL     1      -6.488  28.802 -25.398  1.00  0.00    -0.398 N 
HETATM   21  C1  UNL     1      -5.321  28.961 -24.663  1.00  0.00     0.142 C 
ATOM     22  H1  UNL     1      -6.448  28.372 -26.322  1.00  0.00     0.155 HD
ENDBRANCH  19  20
BRANCH  19  23
HETATM   23  O1  UNL     1      -8.461  29.804 -26.004  1.00  0.00    -0.373 OA
ATOM     24  H1  UNL     1      -8.143  30.696 -26.080  1.00  0.00     0.212 HD
ENDBRANCH  19  23
ENDBRANCH  18  19
BRANCH  18  25
HETATM   25  O2  UNL     1      -9.939  28.368 -25.066  1.00  0.00    -0.373 OA
ATOM     26  H2  UNL     1     -10.589  28.376 -24.373  1.00  0.00     0.212 HD
ENDBRANCH  18  25
ENDBRANCH  16  18
ENDBRANCH  15  16
BRANCH  15  27
HETATM   27  C13 UNL     1      -7.501  24.863 -23.805  1.00  0.00     0.338 C 
BRANCH  27  28
HETATM   28  N7  UNL     1      -6.281  25.455 -24.293  1.00  0.00    -0.051 N 
ATOM     29  H73 UNL     1      -6.079  25.119 -25.234  1.00  0.00     0.277 HD
ATOM     30  H72 UNL     1      -6.424  26.447 -24.483  1.00  0.00     0.277 HD
ATOM     31  H71 UNL     1      -5.467  25.327 -23.691  1.00  0.00     0.277 HD
ENDBRANCH  27  28
BRANCH  27  32
HETATM   32  O3  UNL     1      -7.207  24.446 -22.513  1.00  0.00    -0.368 OA
ATOM     33  H3  UNL     1      -7.955  24.095 -22.043  1.00  0.00     0.212 HD
ENDBRANCH  27  32
ENDBRANCH  15  27
ENDBRANCH  14  15
ENDBRANCH  12  14
ENDBRANCH  10  12
ENDBRANCH   1  10
TORSDOF 13
ENDMDL
MODEL 4
REMARK VINA RESULT: -6.611130533      1.491      2.649
REMARK  13 active torsions:
REMARK  status: ('A' for Active; 'I' for Inactive)
REMARK    1  A    between atoms: N1_2  and  C2_4 
REMARK    2  A    between atoms: C2_4  and  O1_5 
REMARK    3  A    between atoms: C2_4  and  C3_7 
REMARK    4  A    between atoms: C3_7  and  O2_8 
REMARK    5  A    between atoms: C3_7  and  N2_10 
REMARK    6  A    between atoms: N2_10  and  C4_12 
REMARK    7  A    between atoms: C4_12  and  C5_13 
REMARK    8  A    between atoms: C4_12  and  C13_27 
REMARK    9  A    between atoms: C5_13  and  C6_14 
REMARK   10  A    between atoms: C6_14  and  N3_16 
REMARK   11  A    between atoms: N3_16  and  C8_18 
REMARK   12  A    between atoms: C13_27  and  N7_28 
REMARK   13  A    between atoms: C13_27  and  O3_32 
ROOT
HETATM    1  C8  UNL     1      -8.831  27.086 -24.122  1.00  0.00     0.141 A 
HETATM    2  N4  UNL     1      -8.640  28.278 -24.714  1.00  0.00    -0.336 N 
ATOM      3  H4  UNL     1      -9.388  28.926 -24.958  1.00  0.00     0.168 HD
HETATM    4  C9  UNL     1      -7.334  28.506 -24.943  1.00  0.00     0.185 A 
HETATM    5  N5  UNL     1      -6.639  27.445 -24.494  1.00  0.00    -0.336 N 
HETATM    6  C10 UNL     1      -5.193  27.253 -24.532  1.00  0.00     0.158 C 
HETATM    7  C11 UNL     1      -7.532  26.576 -23.994  1.00  0.00     0.161 A 
HETATM    8  C12 UNL     1      -7.208  25.315 -23.415  1.00  0.00     0.122 C 
HETATM    9  N6  UNL     1      -6.951  24.280 -22.943  1.00  0.00    -0.190 NA
ENDROOT
BRANCH   1  10
HETATM   10  N3  UNL     1      -9.980  26.419 -23.697  1.00  0.00    -0.369 N 
ATOM     11  H3  UNL     1     -10.017  25.400 -23.716  1.00  0.00     0.161 HD
BRANCH  10  12
HETATM   12  C6  UNL     1     -11.126  27.182 -23.226  1.00  0.00     0.081 C 
HETATM   13  C7  UNL     1     -11.522  26.765 -21.838  1.00  0.00     0.032 C 
BRANCH  12  14
HETATM   14  C5  UNL     1     -12.183  27.364 -24.192  1.00  0.00     0.054 C 
BRANCH  14  15
HETATM   15  C4  UNL     1     -13.140  26.415 -24.723  1.00  0.00     0.137 C 
BRANCH  15  16
HETATM   16  N2  UNL     1     -12.714  26.198 -26.143  1.00  0.00    -0.385 N 
ATOM     17  H2  UNL     1     -12.840  26.914 -26.859  1.00  0.00     0.156 HD
BRANCH  16  18
HETATM   18  C3  UNL     1     -12.138  24.964 -26.431  1.00  0.00     0.262 C 
BRANCH  18  19
HETATM   19  C2  UNL     1     -12.505  24.393 -27.769  1.00  0.00     0.262 C 
BRANCH  19  20
HETATM   20  N1  UNL     1     -11.686  24.829 -28.856  1.00  0.00    -0.398 N 
HETATM   21  C1  UNL     1     -12.088  25.884 -29.666  1.00  0.00     0.142 C 
ATOM     22  H1  UNL     1     -10.799  24.361 -29.039  1.00  0.00     0.155 HD
ENDBRANCH  19  20
BRANCH  19  23
HETATM   23  O1  UNL     1     -12.217  22.976 -27.612  1.00  0.00    -0.373 OA
ATOM     24  H1  UNL     1     -12.438  22.580 -28.446  1.00  0.00     0.212 HD
ENDBRANCH  19  23
ENDBRANCH  18  19
BRANCH  18  25
HETATM   25  O2  UNL     1     -10.694  25.179 -26.462  1.00  0.00    -0.373 OA
ATOM     26  H2  UNL     1     -10.568  26.121 -26.483  1.00  0.00     0.212 HD
ENDBRANCH  18  25
ENDBRANCH  16  18
ENDBRANCH  15  16
BRANCH  15  27
HETATM   27  C13 UNL     1     -14.581  26.772 -24.852  1.00  0.00     0.338 C 
BRANCH  27  28
HETATM   28  N7  UNL     1     -14.842  28.150 -25.186  1.00  0.00    -0.051 N 
ATOM     29  H73 UNL     1     -15.087  28.675 -24.347  1.00  0.00     0.277 HD
ATOM     30  H72 UNL     1     -13.974  28.619 -25.445  1.00  0.00     0.277 HD
ATOM     31  H71 UNL     1     -15.549  28.294 -25.909  1.00  0.00     0.277 HD
ENDBRANCH  27  28
BRANCH  27  32
HETATM   32  O3  UNL     1     -15.258  26.034 -25.814  1.00  0.00    -0.368 OA
ATOM     33  H3  UNL     1     -16.204  26.098 -25.752  1.00  0.00     0.212 HD
ENDBRANCH  27  32
ENDBRANCH  15  27
ENDBRANCH  14  15
ENDBRANCH  12  14
ENDBRANCH  10  12
ENDBRANCH   1  10
TORSDOF 13
ENDMDL
MODEL 5
REMARK VINA RESULT: -6.610942613      1.478      3.282
REMARK  13 active torsions:
REMARK  status: ('A' for Active; 'I' for Inactive)
REMARK    1  A    between atoms: N1_2  and  C2_4 
REMARK    2  A    between atoms: C2_4  and  O1_5 
REMARK    3  A    between atoms: C2_4  and  C3_7 
REMARK    4  A    between atoms: C3_7  and  O2_8 
REMARK    5  A    between atoms: C3_7  and  N2_10 
REMARK    6  A    between atoms: N2_10  and  C4_12 
REMARK    7  A    between atoms: C4_12  and  C5_13 
REMARK    8  A    between atoms: C4_12  and  C13_27 
REMARK    9  A    between atoms: C5_13  and  C6_14 
REMARK   10  A    between atoms: C6_14  and  N3_16 
REMARK   11  A    between atoms: N3_16  and  C8_18 
REMARK   12  A    between atoms: C13_27  and  N7_28 
REMARK   13  A    between atoms: C13_27  and  O3_32 
ROOT
HETATM    1  C8  UNL     1      -8.781  26.302 -23.754  1.00  0.00     0.141 A 
HETATM    2  N4  UNL     1      -8.274  25.095 -23.449  1.00  0.00    -0.336 N 
ATOM      3  H4  UNL     1      -8.819  24.320 -23.071  1.00  0.00     0.168 HD
HETATM    4  C9  UNL     1      -6.955  25.041 -23.706  1.00  0.00     0.185 A 
HETATM    5  N5  UNL     1      -6.573  26.235 -24.193  1.00  0.00    -0.336 N 
HETATM    6  C10 UNL     1      -5.234  26.636 -24.611  1.00  0.00     0.158 C 
HETATM    7  C11 UNL     1      -7.669  27.010 -24.229  1.00  0.00     0.161 A 
HETATM    8  C12 UNL     1      -7.699  28.361 -24.682  1.00  0.00     0.122 C 
HETATM    9  N6  UNL     1      -7.732  29.467 -25.049  1.00  0.00    -0.190 NA
ENDROOT
BRANCH   1  10
HETATM   10  N3  UNL     1     -10.068  26.832 -23.665  1.00  0.00    -0.369 N 
ATOM     11  H3  UNL     1     -10.207  27.786 -23.332  1.00  0.00     0.161 HD
BRANCH  10  12
HETATM   12  C6  UNL     1     -11.213  26.019 -24.049  1.00  0.00     0.081 C 
HETATM   13  C7  UNL     1     -11.652  25.132 -22.919  1.00  0.00     0.032 C 
BRANCH  12  14
HETATM   14  C5  UNL     1     -11.135  25.430 -25.364  1.00  0.00     0.054 C 
BRANCH  14  15
HETATM   15  C4  UNL     1     -11.618  25.918 -26.639  1.00  0.00     0.137 C 
BRANCH  15  16
HETATM   16  N2  UNL     1     -12.702  26.892 -26.290  1.00  0.00    -0.385 N 
ATOM     17  H2  UNL     1     -13.453  26.653 -25.641  1.00  0.00     0.156 HD
BRANCH  16  18
HETATM   18  C3  UNL     1     -12.629  28.140 -26.900  1.00  0.00     0.262 C 
BRANCH  18  19
HETATM   19  C2  UNL     1     -12.154  29.251 -26.012  1.00  0.00     0.262 C 
BRANCH  19  20
HETATM   20  N1  UNL     1     -12.594  29.168 -24.655  1.00  0.00    -0.398 N 
HETATM   21  C1  UNL     1     -11.980  29.924 -23.664  1.00  0.00     0.142 C 
ATOM     22  H1  UNL     1     -13.367  28.549 -24.411  1.00  0.00     0.155 HD
ENDBRANCH  19  20
BRANCH  19  23
HETATM   23  O1  UNL     1     -10.715  29.043 -25.965  1.00  0.00    -0.373 OA
ATOM     24  H1  UNL     1     -10.586  28.123 -26.162  1.00  0.00     0.212 HD
ENDBRANCH  19  23
ENDBRANCH  18  19
BRANCH  18  25
HETATM   25  O2  UNL     1     -11.638  28.021 -27.967  1.00  0.00    -0.373 OA
ATOM     26  H2  UNL     1     -12.084  28.265 -28.770  1.00  0.00     0.212 HD
ENDBRANCH  18  25
ENDBRANCH  16  18
ENDBRANCH  15  16
BRANCH  15  27
HETATM   27  C13 UNL     1     -12.286  25.001 -27.607  1.00  0.00     0.338 C 
BRANCH  27  28
HETATM   28  N7  UNL     1     -11.803  25.085 -28.962  1.00  0.00    -0.051 N 
ATOM     29  H73 UNL     1     -12.434  24.589 -29.592  1.00  0.00     0.277 HD
ATOM     30  H72 UNL     1     -11.910  26.036 -29.315  1.00  0.00     0.277 HD
ATOM     31  H71 UNL     1     -10.845  24.764 -29.100  1.00  0.00     0.277 HD
ENDBRANCH  27  28
BRANCH  27  32
HETATM   32  O3  UNL     1     -12.183  23.658 -27.270  1.00  0.00    -0.368 OA
ATOM     33  H3  UNL     1     -12.180  23.073 -28.019  1.00  0.00     0.212 HD
ENDBRANCH  27  32
ENDBRANCH  15  27
ENDBRANCH  14  15
ENDBRANCH  12  14
ENDBRANCH  10  12
ENDBRANCH   1  10
TORSDOF 13
ENDMDL
