MODEL 1
REMARK VINA RESULT: -6.772876764      0.000      0.000
REMARK  8 active torsions:
REMARK  status: ('A' for Active; 'I' for Inactive)
REMARK    1  A    between atoms: N1_1  and  C1_4 
REMARK    2  A    between atoms: C2_7  and  N3_8 
REMARK    3  A    between atoms: N3_8  and  C3_10 
REMARK    4  A    between atoms: C3_10  and  C4_11 
REMARK    5  A    between atoms: C4_11  and  O1_12 
REMARK    6  A    between atoms: O1_12  and  C5_13 
REMARK    7  A    between atoms: C5_13  and  C6_14 
REMARK    8  A    between atoms: C6_14  and  N4_15 
ROOT
HETATM    1  N3  UNL     1      19.724   4.714  10.311  1.00  0.00    -0.224 N 
ATOM      2  H3  UNL     1      19.888   5.146   9.401  1.00  0.00     0.177 HD
ENDROOT
BRANCH   1   3
HETATM    3  C2  UNL     1      19.389   5.461  11.283  1.00  0.00     0.679 A 
HETATM    4  N2  UNL     1      19.807   5.351  12.536  1.00  0.00    -0.176 N 
HETATM    5  C1  UNL     1      19.407   6.185  13.522  1.00  0.00     0.133 A 
ATOM      6  H2  UNL     1      20.461   4.603  12.767  1.00  0.00     0.186 HD
HETATM    7  C15 UNL     1      18.527   7.193  13.203  1.00  0.00     0.070 A 
HETATM    8  C14 UNL     1      18.076   7.326  11.896  1.00  0.00     0.129 A 
HETATM    9 BR1  UNL     1      17.957   8.379  14.594  1.00  0.00    -0.046 Br
HETATM   10  N5  UNL     1      18.520   6.460  10.985  1.00  0.00    -0.201 N 
ATOM     11  H5  UNL     1      18.194   6.552  10.023  1.00  0.00     0.183 HD
BRANCH   5  12
HETATM   12  N1  UNL     1      19.823   6.066  14.739  1.00  0.00    -0.384 N 
ATOM     13  H12 UNL     1      20.797   5.822  14.915  1.00  0.00     0.157 HD
ATOM     14  H11 UNL     1      19.209   6.208  15.542  1.00  0.00     0.157 HD
ENDBRANCH   5  12
ENDBRANCH   1   3
BRANCH   1  15
HETATM   15  C3  UNL     1      19.884   3.301  10.432  1.00  0.00     0.164 C 
BRANCH  15  16
HETATM   16  C4  UNL     1      18.607   2.577  10.815  1.00  0.00     0.188 C 
BRANCH  16  17
HETATM   17  O1  UNL     1      18.472   2.464  12.193  1.00  0.00    -0.385 OA
BRANCH  17  18
HETATM   18  C5  UNL     1      17.146   2.462  12.601  1.00  0.00     0.212 C 
BRANCH  18  19
HETATM   19  C6  UNL     1      16.623   3.829  12.960  1.00  0.00     0.094 C 
BRANCH  19  20
HETATM   20  N4  UNL     1      16.633   3.998  14.356  1.00  0.00    -0.352 N 
HETATM   21  C7  UNL     1      16.793   2.841  15.136  1.00  0.00     0.068 C 
HETATM   22  C8  UNL     1      16.599   3.005  16.593  1.00  0.00     0.045 C 
HETATM   23  C9  UNL     1      15.254   2.536  17.091  1.00  0.00     0.005 C 
HETATM   24  C10 UNL     1      14.445   3.628  17.712  1.00  0.00     0.001 C 
HETATM   25  C11 UNL     1      14.599   4.958  17.030  1.00  0.00     0.005 C 
HETATM   26  C12 UNL     1      14.605   4.774  15.527  1.00  0.00     0.045 C 
HETATM   27  C13 UNL     1      15.915   5.083  14.896  1.00  0.00     0.068 C 
ENDBRANCH  19  20
ENDBRANCH  18  19
ENDBRANCH  17  18
ENDBRANCH  16  17
ENDBRANCH  15  16
ENDBRANCH   1  15
TORSDOF 8
ENDMDL
MODEL 2
REMARK VINA RESULT: -6.749385827      2.481      3.978
REMARK  8 active torsions:
REMARK  status: ('A' for Active; 'I' for Inactive)
REMARK    1  A    between atoms: N1_1  and  C1_4 
REMARK    2  A    between atoms: C2_7  and  N3_8 
REMARK    3  A    between atoms: N3_8  and  C3_10 
REMARK    4  A    between atoms: C3_10  and  C4_11 
REMARK    5  A    between atoms: C4_11  and  O1_12 
REMARK    6  A    between atoms: O1_12  and  C5_13 
REMARK    7  A    between atoms: C5_13  and  C6_14 
REMARK    8  A    between atoms: C6_14  and  N4_15 
ROOT
HETATM    1  N3  UNL     1      16.933   6.330  10.644  1.00  0.00    -0.224 N 
ATOM      2  H3  UNL     1      16.747   6.630   9.687  1.00  0.00     0.177 HD
ENDROOT
BRANCH   1   3
HETATM    3  C2  UNL     1      17.242   5.114  10.846  1.00  0.00     0.679 A 
HETATM    4  N2  UNL     1      18.455   4.646  11.102  1.00  0.00    -0.176 N 
HETATM    5  C1  UNL     1      18.710   3.335  11.310  1.00  0.00     0.133 A 
ATOM      6  H2  UNL     1      19.232   5.305  11.144  1.00  0.00     0.186 HD
HETATM    7  C15 UNL     1      17.658   2.451  11.253  1.00  0.00     0.070 A 
HETATM    8  C14 UNL     1      16.378   2.920  10.986  1.00  0.00     0.129 A 
HETATM    9 BR1  UNL     1      18.011   0.593  11.547  1.00  0.00    -0.046 Br
HETATM   10  N5  UNL     1      16.214   4.229  10.794  1.00  0.00    -0.201 N 
ATOM     11  H5  UNL     1      15.277   4.581  10.598  1.00  0.00     0.183 HD
BRANCH   5  12
HETATM   12  N1  UNL     1      19.898   2.892  11.558  1.00  0.00    -0.384 N 
ATOM     13  H12 UNL     1      20.152   1.948  11.269  1.00  0.00     0.157 HD
ATOM     14  H11 UNL     1      20.602   3.454  12.037  1.00  0.00     0.157 HD
ENDBRANCH   5  12
ENDBRANCH   1   3
BRANCH   1  15
HETATM   15  C3  UNL     1      16.835   7.294  11.691  1.00  0.00     0.164 C 
BRANCH  15  16
HETATM   16  C4  UNL     1      18.133   8.033  11.960  1.00  0.00     0.188 C 
BRANCH  16  17
HETATM   17  O1  UNL     1      18.924   7.364  12.885  1.00  0.00    -0.385 OA
BRANCH  17  18
HETATM   18  C5  UNL     1      18.283   7.178  14.102  1.00  0.00     0.212 C 
BRANCH  18  19
HETATM   19  C6  UNL     1      18.446   5.789  14.663  1.00  0.00     0.094 C 
BRANCH  19  20
HETATM   20  N4  UNL     1      17.202   5.136  14.701  1.00  0.00    -0.352 N 
HETATM   21  C7  UNL     1      16.072   5.930  14.959  1.00  0.00     0.068 C 
HETATM   22  C8  UNL     1      14.806   5.205  15.196  1.00  0.00     0.045 C 
HETATM   23  C9  UNL     1      14.425   5.091  16.651  1.00  0.00     0.005 C 
HETATM   24  C10 UNL     1      14.343   3.677  17.127  1.00  0.00     0.001 C 
HETATM   25  C11 UNL     1      15.382   2.775  16.524  1.00  0.00     0.005 C 
HETATM   26  C12 UNL     1      16.719   3.485  16.469  1.00  0.00     0.045 C 
HETATM   27  C13 UNL     1      17.178   3.781  15.086  1.00  0.00     0.068 C 
ENDBRANCH  19  20
ENDBRANCH  18  19
ENDBRANCH  17  18
ENDBRANCH  16  17
ENDBRANCH  15  16
ENDBRANCH   1  15
TORSDOF 8
ENDMDL
MODEL 3
REMARK VINA RESULT: -6.668117912      2.768      4.172
REMARK  8 active torsions:
REMARK  status: ('A' for Active; 'I' for Inactive)
REMARK    1  A    between atoms: N1_1  and  C1_4 
REMARK    2  A    between atoms: C2_7  and  N3_8 
REMARK    3  A    between atoms: N3_8  and  C3_10 
REMARK    4  A    between atoms: C3_10  and  C4_11 
REMARK    5  A    between atoms: C4_11  and  O1_12 
REMARK    6  A    between atoms: O1_12  and  C5_13 
REMARK    7  A    between atoms: C5_13  and  C6_14 
REMARK    8  A    between atoms: C6_14  and  N4_15 
ROOT
HETATM    1  N3  UNL     1      16.471   5.547  10.599  1.00  0.00    -0.224 N 
ATOM      2  H3  UNL     1      15.456   5.648  10.608  1.00  0.00     0.177 HD
ENDROOT
BRANCH   1   3
HETATM    3  C2  UNL     1      16.966   4.393  10.791  1.00  0.00     0.679 A 
HETATM    4  N2  UNL     1      18.239   4.117  11.036  1.00  0.00    -0.176 N 
HETATM    5  C1  UNL     1      18.696   2.860  11.233  1.00  0.00     0.133 A 
ATOM      6  H2  UNL     1      18.905   4.889  11.077  1.00  0.00     0.186 HD
HETATM    7  C15 UNL     1      17.793   1.824  11.177  1.00  0.00     0.070 A 
HETATM    8  C14 UNL     1      16.454   2.091  10.922  1.00  0.00     0.129 A 
HETATM    9 BR1  UNL     1      18.432   0.042  11.456  1.00  0.00    -0.046 Br
HETATM   10  N5  UNL     1      16.088   3.360  10.739  1.00  0.00    -0.201 N 
ATOM     11  H5  UNL     1      15.106   3.563  10.553  1.00  0.00     0.183 HD
BRANCH   5  12
HETATM   12  N1  UNL     1      19.940   2.606  11.470  1.00  0.00    -0.384 N 
ATOM     13  H12 UNL     1      20.466   3.215  12.095  1.00  0.00     0.157 HD
ATOM     14  H11 UNL     1      20.424   1.811  11.052  1.00  0.00     0.157 HD
ENDBRANCH   5  12
ENDBRANCH   1   3
BRANCH   1  15
HETATM   15  C3  UNL     1      17.268   6.709  10.371  1.00  0.00     0.164 C 
BRANCH  15  16
HETATM   16  C4  UNL     1      17.041   7.811  11.389  1.00  0.00     0.188 C 
BRANCH  16  17
HETATM   17  O1  UNL     1      16.086   7.452  12.331  1.00  0.00    -0.385 OA
BRANCH  17  18
HETATM   18  C5  UNL     1      16.552   7.559  13.633  1.00  0.00     0.212 C 
BRANCH  18  19
HETATM   19  C6  UNL     1      17.294   6.337  14.110  1.00  0.00     0.094 C 
BRANCH  19  20
HETATM   20  N4  UNL     1      16.381   5.349  14.519  1.00  0.00    -0.352 N 
HETATM   21  C7  UNL     1      15.304   5.768  15.317  1.00  0.00     0.068 C 
HETATM   22  C8  UNL     1      14.472   4.696  15.905  1.00  0.00     0.045 C 
HETATM   23  C9  UNL     1      14.771   4.409  17.355  1.00  0.00     0.005 C 
HETATM   24  C10 UNL     1      15.246   3.012  17.591  1.00  0.00     0.001 C 
HETATM   25  C11 UNL     1      16.127   2.479  16.496  1.00  0.00     0.005 C 
HETATM   26  C12 UNL     1      17.100   3.549  16.045  1.00  0.00     0.045 C 
HETATM   27  C13 UNL     1      16.854   4.030  14.660  1.00  0.00     0.068 C 
ENDBRANCH  19  20
ENDBRANCH  18  19
ENDBRANCH  17  18
ENDBRANCH  16  17
ENDBRANCH  15  16
ENDBRANCH   1  15
TORSDOF 8
ENDMDL
MODEL 4
REMARK VINA RESULT: -6.631336160      1.348      1.670
REMARK  8 active torsions:
REMARK  status: ('A' for Active; 'I' for Inactive)
REMARK    1  A    between atoms: N1_1  and  C1_4 
REMARK    2  A    between atoms: C2_7  and  N3_8 
REMARK    3  A    between atoms: N3_8  and  C3_10 
REMARK    4  A    between atoms: C3_10  and  C4_11 
REMARK    5  A    between atoms: C4_11  and  O1_12 
REMARK    6  A    between atoms: O1_12  and  C5_13 
REMARK    7  A    between atoms: C5_13  and  C6_14 
REMARK    8  A    between atoms: C6_14  and  N4_15 
ROOT
HETATM    1  N3  UNL     1      20.866   4.819  11.906  1.00  0.00    -0.224 N 
ATOM      2  H3  UNL     1      21.618   4.279  12.332  1.00  0.00     0.177 HD
ENDROOT
BRANCH   1   3
HETATM    3  C2  UNL     1      20.526   5.916  12.449  1.00  0.00     0.679 A 
HETATM    4  N2  UNL     1      20.809   7.132  12.002  1.00  0.00    -0.176 N 
HETATM    5  C1  UNL     1      20.412   8.260  12.634  1.00  0.00     0.133 A 
ATOM      6  H2  UNL     1      21.352   7.221  11.143  1.00  0.00     0.186 HD
HETATM    7  C15 UNL     1      19.681   8.133  13.792  1.00  0.00     0.070 A 
HETATM    8  C14 UNL     1      19.373   6.869  14.277  1.00  0.00     0.129 A 
HETATM    9 BR1  UNL     1      19.114   9.725  14.691  1.00  0.00    -0.046 Br
HETATM   10  N5  UNL     1      19.804   5.809  13.592  1.00  0.00    -0.201 N 
ATOM     11  H5  UNL     1      19.580   4.877  13.942  1.00  0.00     0.183 HD
BRANCH   5  12
HETATM   12  N1  UNL     1      20.696   9.439  12.188  1.00  0.00    -0.384 N 
ATOM     13  H12 UNL     1      21.648   9.646  11.890  1.00  0.00     0.157 HD
ATOM     14  H11 UNL     1      19.998  10.180  12.121  1.00  0.00     0.157 HD
ENDBRANCH   5  12
ENDBRANCH   1   3
BRANCH   1  15
HETATM   15  C3  UNL     1      20.245   4.308  10.727  1.00  0.00     0.164 C 
BRANCH  15  16
HETATM   16  C4  UNL     1      19.316   3.137  10.989  1.00  0.00     0.188 C 
BRANCH  16  17
HETATM   17  O1  UNL     1      18.882   3.110  12.308  1.00  0.00    -0.385 OA
BRANCH  17  18
HETATM   18  C5  UNL     1      17.528   2.829  12.419  1.00  0.00     0.212 C 
BRANCH  18  19
HETATM   19  C6  UNL     1      16.701   4.010  12.862  1.00  0.00     0.094 C 
BRANCH  19  20
HETATM   20  N4  UNL     1      16.685   4.087  14.265  1.00  0.00    -0.352 N 
HETATM   21  C7  UNL     1      16.759   2.875  14.972  1.00  0.00     0.068 C 
HETATM   22  C8  UNL     1      16.536   2.956  16.431  1.00  0.00     0.045 C 
HETATM   23  C9  UNL     1      15.155   2.537  16.868  1.00  0.00     0.005 C 
HETATM   24  C10 UNL     1      14.395   3.632  17.542  1.00  0.00     0.001 C 
HETATM   25  C11 UNL     1      14.642   4.992  16.952  1.00  0.00     0.005 C 
HETATM   26  C12 UNL     1      14.676   4.905  15.440  1.00  0.00     0.045 C 
HETATM   27  C13 UNL     1      16.017   5.176  14.859  1.00  0.00     0.068 C 
ENDBRANCH  19  20
ENDBRANCH  18  19
ENDBRANCH  17  18
ENDBRANCH  16  17
ENDBRANCH  15  16
ENDBRANCH   1  15
TORSDOF 8
ENDMDL
MODEL 5
REMARK VINA RESULT: -6.561913405      2.848      3.968
REMARK  8 active torsions:
REMARK  status: ('A' for Active; 'I' for Inactive)
REMARK    1  A    between atoms: N1_1  and  C1_4 
REMARK    2  A    between atoms: C2_7  and  N3_8 
REMARK    3  A    between atoms: N3_8  and  C3_10 
REMARK    4  A    between atoms: C3_10  and  C4_11 
REMARK    5  A    between atoms: C4_11  and  O1_12 
REMARK    6  A    between atoms: O1_12  and  C5_13 
REMARK    7  A    between atoms: C5_13  and  C6_14 
REMARK    8  A    between atoms: C6_14  and  N4_15 
ROOT
HETATM    1  N3  UNL     1      16.861   6.191  10.517  1.00  0.00    -0.224 N 
ATOM      2  H3  UNL     1      16.015   6.366   9.976  1.00  0.00     0.177 HD
ENDROOT
BRANCH   1   3
HETATM    3  C2  UNL     1      17.197   4.987  10.742  1.00  0.00     0.679 A 
HETATM    4  N2  UNL     1      18.424   4.546  10.980  1.00  0.00    -0.176 N 
HETATM    5  C1  UNL     1      18.708   3.246  11.213  1.00  0.00     0.133 A 
ATOM      6  H2  UNL     1      19.190   5.220  10.988  1.00  0.00     0.186 HD
HETATM    7  C15 UNL     1      17.671   2.342  11.202  1.00  0.00     0.070 A 
HETATM    8  C14 UNL     1      16.377   2.781  10.955  1.00  0.00     0.129 A 
HETATM    9 BR1  UNL     1      18.066   0.498  11.532  1.00  0.00    -0.046 Br
HETATM   10  N5  UNL     1      16.185   4.082  10.735  1.00  0.00    -0.201 N 
ATOM     11  H5  UNL     1      15.237   4.412  10.553  1.00  0.00     0.183 HD
BRANCH   5  12
HETATM   12  N1  UNL     1      19.910   2.830  11.443  1.00  0.00    -0.384 N 
ATOM     13  H12 UNL     1      20.695   3.466  11.307  1.00  0.00     0.157 HD
ATOM     14  H11 UNL     1      20.108   1.881  11.759  1.00  0.00     0.157 HD
ENDBRANCH   5  12
ENDBRANCH   1   3
BRANCH   1  15
HETATM   15  C3  UNL     1      17.612   7.310  10.987  1.00  0.00     0.164 C 
BRANCH  15  16
HETATM   16  C4  UNL     1      16.774   8.339  11.722  1.00  0.00     0.188 C 
BRANCH  16  17
HETATM   17  O1  UNL     1      15.649   7.767  12.302  1.00  0.00    -0.385 OA
BRANCH  17  18
HETATM   18  C5  UNL     1      15.858   7.394  13.621  1.00  0.00     0.212 C 
BRANCH  18  19
HETATM   19  C6  UNL     1      14.950   6.284  14.085  1.00  0.00     0.094 C 
BRANCH  19  20
HETATM   20  N4  UNL     1      15.505   5.644  15.207  1.00  0.00    -0.352 N 
HETATM   21  C7  UNL     1      16.486   4.668  14.964  1.00  0.00     0.068 C 
HETATM   22  C8  UNL     1      16.911   3.867  16.132  1.00  0.00     0.045 C 
HETATM   23  C9  UNL     1      16.289   2.494  16.196  1.00  0.00     0.005 C 
HETATM   24  C10 UNL     1      15.456   2.283  17.418  1.00  0.00     0.001 C 
HETATM   25  C11 UNL     1      14.689   3.503  17.845  1.00  0.00     0.005 C 
HETATM   26  C12 UNL     1      14.104   4.200  16.633  1.00  0.00     0.045 C 
HETATM   27  C13 UNL     1      14.710   5.530  16.364  1.00  0.00     0.068 C 
ENDBRANCH  19  20
ENDBRANCH  18  19
ENDBRANCH  17  18
ENDBRANCH  16  17
ENDBRANCH  15  16
ENDBRANCH   1  15
TORSDOF 8
ENDMDL
