MODEL 1
REMARK VINA RESULT: -8.646691423      0.000      0.000
REMARK  7 active torsions:
REMARK  status: ('A' for Active; 'I' for Inactive)
REMARK    1  A    between atoms: C2_2  and  C4_4 
REMARK    2  A    between atoms: C4_4  and  N1_5 
REMARK    3  A    between atoms: C4_4  and  C18_27 
REMARK       I    between atoms: N1_5  and  C5_7 
REMARK    4  A    between atoms: C5_7  and  C6_9 
REMARK       I    between atoms: N2_13  and  C10_14 
REMARK    5  A    between atoms: C10_14  and  C11_16 
REMARK    6  A    between atoms: C11_16  and  N3_17 
REMARK    7  A    between atoms: C11_16  and  C12_21 
ROOT
HETATM    1  C6  UNL     1      17.182   3.858  15.234  1.00  0.00     0.179 C 
HETATM    2  C7  UNL     1      16.883   3.128  16.563  1.00  0.00     0.037 C 
HETATM    3  C8  UNL     1      15.531   3.607  16.952  1.00  0.00     0.022 C 
HETATM    4  C9  UNL     1      15.028   4.458  15.824  1.00  0.00     0.127 C 
HETATM    5  N2  UNL     1      16.256   4.935  15.150  1.00  0.00    -0.337 N 
HETATM    6  C10 UNL     1      16.355   6.198  14.568  1.00  0.00     0.251 C 
HETATM    7  O2  UNL     1      15.327   6.963  14.726  1.00  0.00    -0.271 OA
ENDROOT
BRANCH   1   8
HETATM    8  C5  UNL     1      16.991   2.837  14.180  1.00  0.00     0.241 C 
HETATM    9  N1  UNL     1      17.342   3.064  12.827  1.00  0.00    -0.344 N 
ATOM     10  H1  UNL     1      17.744   3.964  12.565  1.00  0.00     0.163 HD
HETATM   11  O1  UNL     1      16.498   1.725  14.483  1.00  0.00    -0.271 OA
BRANCH   9  12
HETATM   12  C4  UNL     1      17.149   2.057  11.804  1.00  0.00     0.189 C 
BRANCH  12  13
HETATM   13  C2  UNL     1      18.468   1.633  11.191  1.00  0.00     0.010 C 
HETATM   14  C1  UNL     1      19.551   2.657  11.430  1.00  0.00     0.012 C 
HETATM   15  C3  UNL     1      18.957   0.319  11.748  1.00  0.00     0.012 C 
ENDBRANCH  12  13
BRANCH  12  16
HETATM   16  C18 UNL     1      16.204   2.509  10.760  1.00  0.00     0.197 C 
HETATM   17  O3  UNL     1      16.184   1.970   9.626  1.00  0.00    -0.646 OA
HETATM   18  O4  UNL     1      15.329   3.534  11.021  1.00  0.00    -0.646 OA
ENDBRANCH  12  16
ENDBRANCH   9  12
ENDBRANCH   1   8
BRANCH   6  19
HETATM   19  C11 UNL     1      17.507   6.678  13.826  1.00  0.00     0.278 C 
BRANCH  19  20
HETATM   20  N3  UNL     1      17.551   6.237  12.468  1.00  0.00    -0.066 N 
ATOM     21  H33 UNL     1      18.503   5.980  12.207  1.00  0.00     0.275 HD
ATOM     22  H32 UNL     1      17.093   5.330  12.372  1.00  0.00     0.275 HD
ATOM     23  H31 UNL     1      17.166   6.905  11.801  1.00  0.00     0.275 HD
ENDBRANCH  19  20
BRANCH  19  24
HETATM   24  C12 UNL     1      17.630   8.214  13.793  1.00  0.00     0.025 C 
HETATM   25  C13 UNL     1      18.283   8.760  14.999  1.00  0.00     0.007 C 
HETATM   26  C14 UNL     1      19.174   9.929  14.862  1.00  0.00     0.000 C 
HETATM   27  C15 UNL     1      19.631  10.276  13.493  1.00  0.00     0.000 C 
HETATM   28  C16 UNL     1      18.558  10.024  12.435  1.00  0.00     0.000 C 
HETATM   29  C17 UNL     1      18.322   8.529  12.493  1.00  0.00     0.007 C 
ENDBRANCH  19  24
ENDBRANCH   6  19
TORSDOF 7
ENDMDL
MODEL 2
REMARK VINA RESULT: -8.575427757      1.758      2.286
REMARK  7 active torsions:
REMARK  status: ('A' for Active; 'I' for Inactive)
REMARK    1  A    between atoms: C2_2  and  C4_4 
REMARK    2  A    between atoms: C4_4  and  N1_5 
REMARK    3  A    between atoms: C4_4  and  C18_27 
REMARK       I    between atoms: N1_5  and  C5_7 
REMARK    4  A    between atoms: C5_7  and  C6_9 
REMARK       I    between atoms: N2_13  and  C10_14 
REMARK    5  A    between atoms: C10_14  and  C11_16 
REMARK    6  A    between atoms: C11_16  and  N3_17 
REMARK    7  A    between atoms: C11_16  and  C12_21 
ROOT
HETATM    1  C6  UNL     1      17.305   3.704  15.279  1.00  0.00     0.179 C 
HETATM    2  C7  UNL     1      16.660   3.085  16.539  1.00  0.00     0.037 C 
HETATM    3  C8  UNL     1      15.406   3.860  16.733  1.00  0.00     0.022 C 
HETATM    4  C9  UNL     1      15.276   4.780  15.555  1.00  0.00     0.127 C 
HETATM    5  N2  UNL     1      16.665   4.958  15.074  1.00  0.00    -0.337 N 
HETATM    6  C10 UNL     1      17.127   6.156  14.530  1.00  0.00     0.251 C 
HETATM    7  O2  UNL     1      16.283   7.133  14.546  1.00  0.00    -0.271 OA
ENDROOT
BRANCH   1   8
HETATM    8  C5  UNL     1      17.046   2.731  14.194  1.00  0.00     0.241 C 
HETATM    9  N1  UNL     1      17.415   2.975  12.848  1.00  0.00    -0.344 N 
ATOM     10  H1  UNL     1      17.877   3.853  12.613  1.00  0.00     0.163 HD
HETATM   11  O1  UNL     1      16.479   1.646  14.463  1.00  0.00    -0.271 OA
BRANCH   9  12
HETATM   12  C4  UNL     1      17.155   2.014  11.795  1.00  0.00     0.189 C 
BRANCH  12  13
HETATM   13  C2  UNL     1      18.443   1.515  11.174  1.00  0.00     0.010 C 
HETATM   14  C1  UNL     1      19.595   2.454  11.441  1.00  0.00     0.012 C 
HETATM   15  C3  UNL     1      18.837   0.157  11.698  1.00  0.00     0.012 C 
ENDBRANCH  12  13
BRANCH  12  16
HETATM   16  C18 UNL     1      16.250   2.564  10.762  1.00  0.00     0.197 C 
HETATM   17  O3  UNL     1      16.279   2.137   9.581  1.00  0.00    -0.646 OA
HETATM   18  O4  UNL     1      15.359   3.556  11.085  1.00  0.00    -0.646 OA
ENDBRANCH  12  16
ENDBRANCH   9  12
ENDBRANCH   1   8
BRANCH   6  19
HETATM   19  C11 UNL     1      18.453   6.352  13.971  1.00  0.00     0.278 C 
BRANCH  19  20
HETATM   20  N3  UNL     1      19.502   5.760  14.737  1.00  0.00    -0.066 N 
ATOM     21  H33 UNL     1      20.321   6.369  14.752  1.00  0.00     0.275 HD
ATOM     22  H32 UNL     1      19.265   5.763  15.729  1.00  0.00     0.275 HD
ATOM     23  H31 UNL     1      19.761   4.821  14.433  1.00  0.00     0.275 HD
ENDBRANCH  19  20
BRANCH  19  24
HETATM   24  C12 UNL     1      18.605   5.821  12.532  1.00  0.00     0.025 C 
HETATM   25  C13 UNL     1      17.489   6.223  11.654  1.00  0.00     0.007 C 
HETATM   26  C14 UNL     1      17.771   6.539  10.239  1.00  0.00     0.000 C 
HETATM   27  C15 UNL     1      19.189   6.767   9.865  1.00  0.00     0.000 C 
HETATM   28  C16 UNL     1      20.150   5.865  10.637  1.00  0.00     0.000 C 
HETATM   29  C17 UNL     1      19.968   6.277  12.083  1.00  0.00     0.007 C 
ENDBRANCH  19  24
ENDBRANCH   6  19
TORSDOF 7
ENDMDL
MODEL 3
REMARK VINA RESULT: -8.184507923      1.969      4.602
REMARK  7 active torsions:
REMARK  status: ('A' for Active; 'I' for Inactive)
REMARK    1  A    between atoms: C2_2  and  C4_4 
REMARK    2  A    between atoms: C4_4  and  N1_5 
REMARK    3  A    between atoms: C4_4  and  C18_27 
REMARK       I    between atoms: N1_5  and  C5_7 
REMARK    4  A    between atoms: C5_7  and  C6_9 
REMARK       I    between atoms: N2_13  and  C10_14 
REMARK    5  A    between atoms: C10_14  and  C11_16 
REMARK    6  A    between atoms: C11_16  and  N3_17 
REMARK    7  A    between atoms: C11_16  and  C12_21 
ROOT
HETATM    1  C6  UNL     1      17.328   5.584  11.835  1.00  0.00     0.179 C 
HETATM    2  C7  UNL     1      17.443   4.760  10.532  1.00  0.00     0.037 C 
HETATM    3  C8  UNL     1      18.828   4.222  10.555  1.00  0.00     0.022 C 
HETATM    4  C9  UNL     1      19.423   4.604  11.878  1.00  0.00     0.127 C 
HETATM    5  N2  UNL     1      18.658   5.802  12.291  1.00  0.00    -0.337 N 
HETATM    6  C10 UNL     1      19.232   6.857  13.000  1.00  0.00     0.251 C 
HETATM    7  O2  UNL     1      20.503   6.758  13.205  1.00  0.00    -0.271 OA
ENDROOT
BRANCH   1   8
HETATM    8  C5  UNL     1      16.525   4.745  12.753  1.00  0.00     0.241 C 
HETATM    9  N1  UNL     1      16.841   4.601  14.126  1.00  0.00    -0.344 N 
ATOM     10  H1  UNL     1      17.652   5.093  14.501  1.00  0.00     0.163 HD
HETATM   11  O1  UNL     1      15.525   4.133  12.311  1.00  0.00    -0.271 OA
BRANCH   9  12
HETATM   12  C4  UNL     1      16.047   3.777  15.015  1.00  0.00     0.189 C 
BRANCH  12  13
HETATM   13  C2  UNL     1      15.459   4.594  16.146  1.00  0.00     0.010 C 
HETATM   14  C1  UNL     1      14.855   5.885  15.649  1.00  0.00     0.012 C 
HETATM   15  C3  UNL     1      14.379   3.845  16.885  1.00  0.00     0.012 C 
ENDBRANCH  12  13
BRANCH  12  16
HETATM   16  C18 UNL     1      16.823   2.632  15.539  1.00  0.00     0.197 C 
HETATM   17  O3  UNL     1      16.521   1.451  15.236  1.00  0.00    -0.646 OA
HETATM   18  O4  UNL     1      17.893   2.847  16.370  1.00  0.00    -0.646 OA
ENDBRANCH  12  16
ENDBRANCH   9  12
ENDBRANCH   1   8
BRANCH   6  19
HETATM   19  C11 UNL     1      18.505   8.011  13.497  1.00  0.00     0.278 C 
BRANCH  19  20
HETATM   20  N3  UNL     1      17.819   7.782  14.728  1.00  0.00    -0.066 N 
ATOM     21  H33 UNL     1      17.482   6.821  14.776  1.00  0.00     0.275 HD
ATOM     22  H32 UNL     1      18.477   7.775  15.508  1.00  0.00     0.275 HD
ATOM     23  H31 UNL     1      17.058   8.437  14.909  1.00  0.00     0.275 HD
ENDBRANCH  19  20
BRANCH  19  24
HETATM   24  C12 UNL     1      19.388   9.257  13.711  1.00  0.00     0.025 C 
HETATM   25  C13 UNL     1      19.200  10.276  12.660  1.00  0.00     0.007 C 
HETATM   26  C14 UNL     1      19.260  11.704  13.031  1.00  0.00     0.000 C 
HETATM   27  C15 UNL     1      19.163  12.034  14.475  1.00  0.00     0.000 C 
HETATM   28  C16 UNL     1      19.858  11.001  15.360  1.00  0.00     0.000 C 
HETATM   29  C17 UNL     1      19.088   9.720  15.112  1.00  0.00     0.007 C 
ENDBRANCH  19  24
ENDBRANCH   6  19
TORSDOF 7
ENDMDL
MODEL 4
REMARK VINA RESULT: -8.084266688      1.954      4.783
REMARK  7 active torsions:
REMARK  status: ('A' for Active; 'I' for Inactive)
REMARK    1  A    between atoms: C2_2  and  C4_4 
REMARK    2  A    between atoms: C4_4  and  N1_5 
REMARK    3  A    between atoms: C4_4  and  C18_27 
REMARK       I    between atoms: N1_5  and  C5_7 
REMARK    4  A    between atoms: C5_7  and  C6_9 
REMARK       I    between atoms: N2_13  and  C10_14 
REMARK    5  A    between atoms: C10_14  and  C11_16 
REMARK    6  A    between atoms: C11_16  and  N3_17 
REMARK    7  A    between atoms: C11_16  and  C12_21 
ROOT
HETATM    1  C6  UNL     1      17.065   2.961  11.413  1.00  0.00     0.179 C 
HETATM    2  C7  UNL     1      16.856   1.533  10.858  1.00  0.00     0.037 C 
HETATM    3  C8  UNL     1      18.232   1.009  10.655  1.00  0.00     0.022 C 
HETATM    4  C9  UNL     1      19.176   2.038  11.204  1.00  0.00     0.127 C 
HETATM    5  N2  UNL     1      18.417   3.306  11.133  1.00  0.00    -0.337 N 
HETATM    6  C10 UNL     1      19.021   4.533  10.859  1.00  0.00     0.251 C 
HETATM    7  O2  UNL     1      20.283   4.481  10.591  1.00  0.00    -0.271 OA
ENDROOT
BRANCH   1   8
HETATM    8  C5  UNL     1      16.776   2.859  12.861  1.00  0.00     0.241 C 
HETATM    9  N1  UNL     1      16.530   3.996  13.670  1.00  0.00    -0.344 N 
ATOM     10  H1  UNL     1      16.552   4.922  13.242  1.00  0.00     0.163 HD
HETATM   11  O1  UNL     1      16.744   1.730  13.404  1.00  0.00    -0.271 OA
BRANCH   9  12
HETATM   12  C4  UNL     1      16.248   3.884  15.087  1.00  0.00     0.189 C 
BRANCH  12  13
HETATM   13  C2  UNL     1      15.561   5.127  15.612  1.00  0.00     0.010 C 
HETATM   14  C1  UNL     1      14.919   5.924  14.502  1.00  0.00     0.012 C 
HETATM   15  C3  UNL     1      14.484   4.800  16.616  1.00  0.00     0.012 C 
ENDBRANCH  12  13
BRANCH  12  16
HETATM   16  C18 UNL     1      17.469   3.585  15.866  1.00  0.00     0.197 C 
HETATM   17  O3  UNL     1      17.577   2.515  16.516  1.00  0.00    -0.646 OA
HETATM   18  O4  UNL     1      18.507   4.481  15.890  1.00  0.00    -0.646 OA
ENDBRANCH  12  16
ENDBRANCH   9  12
ENDBRANCH   1   8
BRANCH   6  19
HETATM   19  C11 UNL     1      18.333   5.812  10.861  1.00  0.00     0.278 C 
BRANCH  19  20
HETATM   20  N3  UNL     1      17.073   5.797  10.190  1.00  0.00    -0.066 N 
ATOM     21  H33 UNL     1      16.418   6.431  10.646  1.00  0.00     0.275 HD
ATOM     22  H32 UNL     1      17.148   6.249   9.279  1.00  0.00     0.275 HD
ATOM     23  H31 UNL     1      16.662   4.868  10.096  1.00  0.00     0.275 HD
ENDBRANCH  19  20
BRANCH  19  24
HETATM   24  C12 UNL     1      18.074   6.376  12.272  1.00  0.00     0.025 C 
HETATM   25  C13 UNL     1      19.257   6.287  13.149  1.00  0.00     0.007 C 
HETATM   26  C14 UNL     1      19.514   7.373  14.115  1.00  0.00     0.000 C 
HETATM   27  C15 UNL     1      18.772   8.644  13.920  1.00  0.00     0.000 C 
HETATM   28  C16 UNL     1      17.351   8.420  13.405  1.00  0.00     0.000 C 
HETATM   29  C17 UNL     1      17.545   7.769  12.051  1.00  0.00     0.007 C 
ENDBRANCH  19  24
ENDBRANCH   6  19
TORSDOF 7
ENDMDL
MODEL 5
REMARK VINA RESULT: -7.896700217      2.596      5.380
REMARK  7 active torsions:
REMARK  status: ('A' for Active; 'I' for Inactive)
REMARK    1  A    between atoms: C2_2  and  C4_4 
REMARK    2  A    between atoms: C4_4  and  N1_5 
REMARK    3  A    between atoms: C4_4  and  C18_27 
REMARK       I    between atoms: N1_5  and  C5_7 
REMARK    4  A    between atoms: C5_7  and  C6_9 
REMARK       I    between atoms: N2_13  and  C10_14 
REMARK    5  A    between atoms: C10_14  and  C11_16 
REMARK    6  A    between atoms: C11_16  and  N3_17 
REMARK    7  A    between atoms: C11_16  and  C12_21 
ROOT
HETATM    1  C6  UNL     1      18.074   2.686  12.258  1.00  0.00     0.179 C 
HETATM    2  C7  UNL     1      17.628   1.448  11.448  1.00  0.00     0.037 C 
HETATM    3  C8  UNL     1      16.357   1.866  10.802  1.00  0.00     0.022 C 
HETATM    4  C9  UNL     1      16.166   3.320  11.115  1.00  0.00     0.127 C 
HETATM    5  N2  UNL     1      16.933   3.529  12.364  1.00  0.00    -0.337 N 
HETATM    6  C10 UNL     1      16.527   4.418  13.359  1.00  0.00     0.251 C 
HETATM    7  O2  UNL     1      15.388   4.993  13.156  1.00  0.00    -0.271 OA
ENDROOT
BRANCH   1   8
HETATM    8  C5  UNL     1      19.175   3.287  11.472  1.00  0.00     0.241 C 
HETATM    9  N1  UNL     1      19.348   4.687  11.350  1.00  0.00    -0.344 N 
ATOM     10  H1  UNL     1      18.691   5.310  11.821  1.00  0.00     0.163 HD
HETATM   11  O1  UNL     1      19.992   2.538  10.887  1.00  0.00    -0.271 OA
BRANCH   9  12
HETATM   12  C4  UNL     1      20.430   5.263  10.577  1.00  0.00     0.189 C 
BRANCH  12  13
HETATM   13  C2  UNL     1      20.874   6.591  11.155  1.00  0.00     0.010 C 
HETATM   14  C1  UNL     1      20.376   6.782  12.567  1.00  0.00     0.012 C 
HETATM   15  C3  UNL     1      22.376   6.723  11.184  1.00  0.00     0.012 C 
ENDBRANCH  12  13
BRANCH  12  16
HETATM   16  C18 UNL     1      20.069   5.403   9.150  1.00  0.00     0.197 C 
HETATM   17  O3  UNL     1      20.866   5.055   8.243  1.00  0.00    -0.646 OA
HETATM   18  O4  UNL     1      18.849   5.919   8.794  1.00  0.00    -0.646 OA
ENDBRANCH  12  16
ENDBRANCH   9  12
ENDBRANCH   1   8
BRANCH   6  19
HETATM   19  C11 UNL     1      17.287   4.717  14.559  1.00  0.00     0.278 C 
BRANCH  19  20
HETATM   20  N3  UNL     1      17.655   6.091  14.690  1.00  0.00    -0.066 N 
ATOM     21  H33 UNL     1      18.664   6.181  14.804  1.00  0.00     0.275 HD
ATOM     22  H32 UNL     1      17.536   6.578  13.802  1.00  0.00     0.275 HD
ATOM     23  H31 UNL     1      17.166   6.584  15.437  1.00  0.00     0.275 HD
ENDBRANCH  19  20
BRANCH  19  24
HETATM   24  C12 UNL     1      16.564   4.330  15.865  1.00  0.00     0.025 C 
HETATM   25  C13 UNL     1      15.317   5.092  16.075  1.00  0.00     0.007 C 
HETATM   26  C14 UNL     1      14.163   4.415  16.698  1.00  0.00     0.000 C 
HETATM   27  C15 UNL     1      14.201   2.933  16.765  1.00  0.00     0.000 C 
HETATM   28  C16 UNL     1      15.608   2.394  17.013  1.00  0.00     0.000 C 
HETATM   29  C17 UNL     1      16.396   2.835  15.797  1.00  0.00     0.007 C 
ENDBRANCH  19  24
ENDBRANCH   6  19
TORSDOF 7
ENDMDL
