MODEL 1
REMARK VINA RESULT: -7.315805580      0.000      0.000
REMARK  7 active torsions:
REMARK  status: ('A' for Active; 'I' for Inactive)
REMARK    1  A    between atoms: C2_2  and  C3_3 
REMARK    2  A    between atoms: C2_2  and  N1_7 
REMARK    3  A    between atoms: C3_3  and  C4_4 
REMARK    4  A    between atoms: C11_12  and  N2_13 
REMARK    5  A    between atoms: C12_17  and  C13_18 
REMARK       I    between atoms: C13_18  and  N3_20 
REMARK    6  A    between atoms: N3_20  and  C14_22 
REMARK    7  A    between atoms: C14_22  and  C15_23 
ROOT
HETATM    1  N1  UNL     1      16.487   8.576   8.923  1.00  0.00    -0.386 N 
HETATM    2  C7  UNL     1      16.265   8.923  10.274  1.00  0.00     0.125 C 
HETATM    3  C8  UNL     1      17.598   8.737  11.015  1.00  0.00     0.054 C 
HETATM    4  C9  UNL     1      17.772   7.219  11.142  1.00  0.00     0.064 C 
HETATM    5  C10 UNL     1      19.091   6.966  11.788  1.00  0.00     0.067 C 
HETATM    6  C11 UNL     1      19.025   6.148  13.054  1.00  0.00     0.200 C 
HETATM    7  C12 UNL     1      17.960   6.573  14.006  1.00  0.00     0.125 C 
HETATM    8  C18 UNL     1      16.707   7.055  13.303  1.00  0.00     0.131 C 
HETATM    9  N4  UNL     1      16.650   6.762  11.919  1.00  0.00    -0.409 N 
ATOM     10  H4  UNL     1      15.867   6.261  11.500  1.00  0.00     0.154 HD
HETATM   11  C19 UNL     1      17.669   6.578   9.776  1.00  0.00     0.236 C 
HETATM   12  F1  UNL     1      18.855   5.913   9.429  1.00  0.00    -0.241 F 
HETATM   13  C20 UNL     1      17.414   7.552   8.664  1.00  0.00     0.098 C 
ENDROOT
BRANCH   6  14
HETATM   14  N2  UNL     1      19.018   4.733  12.747  1.00  0.00    -0.074 N 
ATOM     15  H23 UNL     1      18.252   4.485  12.120  1.00  0.00     0.274 HD
ATOM     16  H22 UNL     1      19.798   4.472  12.144  1.00  0.00     0.274 HD
ATOM     17  H21 UNL     1      18.999   4.179  13.603  1.00  0.00     0.274 HD
ENDBRANCH   6  14
BRANCH   1  18
HETATM   18  C2  UNL     1      15.444   8.765   7.994  1.00  0.00     0.079 C 
HETATM   19  C1  UNL     1      15.577   8.069   6.685  1.00  0.00     0.032 C 
BRANCH  18  20
HETATM   20  C3  UNL     1      14.097   8.466   8.634  1.00  0.00     0.029 C 
BRANCH  20  21
HETATM   21  C4  UNL     1      12.968   9.064   7.787  1.00  0.00    -0.013 A 
HETATM   22  C5  UNL     1      11.971   9.939   8.452  1.00  0.00     0.005 A 
HETATM   23  C6  UNL     1      13.039  10.528   7.514  1.00  0.00     0.005 A 
ENDBRANCH  20  21
ENDBRANCH  18  20
ENDBRANCH   1  18
BRANCH   7  24
HETATM   24  C13 UNL     1      17.598   5.409  14.865  1.00  0.00     0.225 C 
HETATM   25  O1  UNL     1      18.516   4.915  15.602  1.00  0.00    -0.273 OA
HETATM   26  N3  UNL     1      16.315   4.842  14.895  1.00  0.00    -0.360 N 
ATOM     27  H3  UNL     1      15.590   5.246  14.304  1.00  0.00     0.162 HD
BRANCH  26  28
HETATM   28  C14 UNL     1      15.979   3.714  15.725  1.00  0.00     0.127 C 
BRANCH  28  29
HETATM   29  C15 UNL     1      14.810   4.029  16.600  1.00  0.00     0.003 A 
HETATM   30  C16 UNL     1      14.064   2.902  17.219  1.00  0.00     0.007 A 
HETATM   31  C17 UNL     1      14.977   3.674  18.073  1.00  0.00     0.007 A 
ENDBRANCH  28  29
ENDBRANCH  26  28
ENDBRANCH   7  24
TORSDOF 7
ENDMDL
MODEL 2
REMARK VINA RESULT: -7.116237071      4.025      7.861
REMARK  7 active torsions:
REMARK  status: ('A' for Active; 'I' for Inactive)
REMARK    1  A    between atoms: C2_2  and  C3_3 
REMARK    2  A    between atoms: C2_2  and  N1_7 
REMARK    3  A    between atoms: C3_3  and  C4_4 
REMARK    4  A    between atoms: C11_12  and  N2_13 
REMARK    5  A    between atoms: C12_17  and  C13_18 
REMARK       I    between atoms: C13_18  and  N3_20 
REMARK    6  A    between atoms: N3_20  and  C14_22 
REMARK    7  A    between atoms: C14_22  and  C15_23 
ROOT
HETATM    1  N1  UNL     1      16.544   4.019  13.777  1.00  0.00    -0.386 N 
HETATM    2  C7  UNL     1      17.081   5.321  13.868  1.00  0.00     0.125 C 
HETATM    3  C8  UNL     1      17.215   5.859  12.436  1.00  0.00     0.054 C 
HETATM    4  C9  UNL     1      18.410   5.106  11.839  1.00  0.00     0.064 C 
HETATM    5  C10 UNL     1      18.547   5.528  10.417  1.00  0.00     0.067 C 
HETATM    6  C11 UNL     1      19.895   6.103  10.058  1.00  0.00     0.200 C 
HETATM    7  C12 UNL     1      20.417   7.100  11.035  1.00  0.00     0.125 C 
HETATM    8  C18 UNL     1      20.051   6.763  12.466  1.00  0.00     0.131 C 
HETATM    9  N4  UNL     1      19.539   5.457  12.658  1.00  0.00    -0.409 N 
ATOM     10  H4  UNL     1      19.944   4.808  13.333  1.00  0.00     0.154 HD
HETATM   11  C19 UNL     1      18.193   3.616  11.979  1.00  0.00     0.236 C 
HETATM   12  F1  UNL     1      18.150   2.983  10.727  1.00  0.00    -0.241 F 
HETATM   13  C20 UNL     1      16.909   3.247  12.659  1.00  0.00     0.098 C 
ENDROOT
BRANCH   6  14
HETATM   14  N2  UNL     1      20.830   5.046   9.730  1.00  0.00    -0.074 N 
ATOM     15  H23 UNL     1      21.255   5.187   8.814  1.00  0.00     0.274 HD
ATOM     16  H22 UNL     1      21.674   5.097  10.300  1.00  0.00     0.274 HD
ATOM     17  H21 UNL     1      20.379   4.133   9.801  1.00  0.00     0.274 HD
ENDBRANCH   6  14
BRANCH   1  18
HETATM   18  C2  UNL     1      16.215   3.335  14.965  1.00  0.00     0.079 C 
HETATM   19  C1  UNL     1      16.969   2.084  15.250  1.00  0.00     0.032 C 
BRANCH  18  20
HETATM   20  C3  UNL     1      16.261   4.280  16.156  1.00  0.00     0.029 C 
BRANCH  20  21
HETATM   21  C4  UNL     1      14.880   4.358  16.818  1.00  0.00    -0.013 A 
HETATM   22  C5  UNL     1      14.106   3.105  16.991  1.00  0.00     0.005 A 
HETATM   23  C6  UNL     1      14.766   3.799  18.195  1.00  0.00     0.005 A 
ENDBRANCH  20  21
ENDBRANCH  18  20
ENDBRANCH   1  18
BRANCH   7  24
HETATM   24  C13 UNL     1      21.905   7.136  10.928  1.00  0.00     0.225 C 
HETATM   25  O1  UNL     1      22.405   7.508   9.813  1.00  0.00    -0.273 OA
HETATM   26  N3  UNL     1      22.762   6.783  11.980  1.00  0.00    -0.360 N 
ATOM     27  H3  UNL     1      22.352   6.490  12.866  1.00  0.00     0.162 HD
BRANCH  26  28
HETATM   28  C14 UNL     1      24.197   6.816  11.864  1.00  0.00     0.127 C 
BRANCH  28  29
HETATM   29  C15 UNL     1      24.745   8.089  12.419  1.00  0.00     0.003 A 
HETATM   30  C16 UNL     1      25.828   8.012  13.436  1.00  0.00     0.007 A 
HETATM   31  C17 UNL     1      26.197   8.390  12.066  1.00  0.00     0.007 A 
ENDBRANCH  28  29
ENDBRANCH  26  28
ENDBRANCH   7  24
TORSDOF 7
ENDMDL
MODEL 3
REMARK VINA RESULT: -7.073528810      2.374      7.758
REMARK  7 active torsions:
REMARK  status: ('A' for Active; 'I' for Inactive)
REMARK    1  A    between atoms: C2_2  and  C3_3 
REMARK    2  A    between atoms: C2_2  and  N1_7 
REMARK    3  A    between atoms: C3_3  and  C4_4 
REMARK    4  A    between atoms: C11_12  and  N2_13 
REMARK    5  A    between atoms: C12_17  and  C13_18 
REMARK       I    between atoms: C13_18  and  N3_20 
REMARK    6  A    between atoms: N3_20  and  C14_22 
REMARK    7  A    between atoms: C14_22  and  C15_23 
ROOT
HETATM    1  N1  UNL     1      17.355   4.484  14.317  1.00  0.00    -0.386 N 
HETATM    2  C7  UNL     1      17.758   4.358  12.969  1.00  0.00     0.125 C 
HETATM    3  C8  UNL     1      18.579   5.609  12.622  1.00  0.00     0.054 C 
HETATM    4  C9  UNL     1      17.549   6.738  12.500  1.00  0.00     0.064 C 
HETATM    5  C10 UNL     1      18.292   8.003  12.239  1.00  0.00     0.067 C 
HETATM    6  C11 UNL     1      17.881   8.724  10.979  1.00  0.00     0.200 C 
HETATM    7  C12 UNL     1      17.748   7.846   9.783  1.00  0.00     0.125 C 
HETATM    8  C18 UNL     1      17.209   6.472  10.125  1.00  0.00     0.131 C 
HETATM    9  N4  UNL     1      16.671   6.350  11.429  1.00  0.00    -0.409 N 
ATOM     10  H4  UNL     1      15.725   6.010  11.597  1.00  0.00     0.154 HD
HETATM   11  C19 UNL     1      16.720   6.809  13.764  1.00  0.00     0.236 C 
HETATM   12  F1  UNL     1      16.865   8.049  14.405  1.00  0.00    -0.241 F 
HETATM   13  C20 UNL     1      17.085   5.780  14.791  1.00  0.00     0.098 C 
ENDROOT
BRANCH   6  14
HETATM   14  N2  UNL     1      16.731   9.569  11.227  1.00  0.00    -0.074 N 
ATOM     15  H23 UNL     1      17.002  10.474  11.613  1.00  0.00     0.274 HD
ATOM     16  H22 UNL     1      16.306   9.895  10.359  1.00  0.00     0.274 HD
ATOM     17  H21 UNL     1      16.055   9.090  11.824  1.00  0.00     0.274 HD
ENDBRANCH   6  14
BRANCH   1  18
HETATM   18  C2  UNL     1      16.675   3.409  14.925  1.00  0.00     0.079 C 
HETATM   19  C1  UNL     1      16.926   2.053  14.366  1.00  0.00     0.032 C 
BRANCH  18  20
HETATM   20  C3  UNL     1      16.890   3.425  16.431  1.00  0.00     0.029 C 
BRANCH  20  21
HETATM   21  C4  UNL     1      15.633   2.915  17.146  1.00  0.00    -0.013 A 
HETATM   22  C5  UNL     1      14.998   3.785  18.167  1.00  0.00     0.005 A 
HETATM   23  C6  UNL     1      14.345   3.576  16.790  1.00  0.00     0.005 A 
ENDBRANCH  20  21
ENDBRANCH  18  20
ENDBRANCH   1  18
BRANCH   7  24
HETATM   24  C13 UNL     1      16.809   8.492   8.820  1.00  0.00     0.225 C 
HETATM   25  O1  UNL     1      17.135   9.638   8.362  1.00  0.00    -0.273 OA
HETATM   26  N3  UNL     1      15.603   7.905   8.408  1.00  0.00    -0.360 N 
ATOM     27  H3  UNL     1      15.355   6.989   8.779  1.00  0.00     0.162 HD
BRANCH  26  28
HETATM   28  C14 UNL     1      14.701   8.541   7.483  1.00  0.00     0.127 C 
BRANCH  28  29
HETATM   29  C15 UNL     1      13.342   8.689   8.084  1.00  0.00     0.003 A 
HETATM   30  C16 UNL     1      13.153   9.682   9.174  1.00  0.00     0.007 A 
HETATM   31  C17 UNL     1      12.655  10.027   7.836  1.00  0.00     0.007 A 
ENDBRANCH  28  29
ENDBRANCH  26  28
ENDBRANCH   7  24
TORSDOF 7
ENDMDL
MODEL 4
REMARK VINA RESULT: -6.935017946      0.849      1.073
REMARK  7 active torsions:
REMARK  status: ('A' for Active; 'I' for Inactive)
REMARK    1  A    between atoms: C2_2  and  C3_3 
REMARK    2  A    between atoms: C2_2  and  N1_7 
REMARK    3  A    between atoms: C3_3  and  C4_4 
REMARK    4  A    between atoms: C11_12  and  N2_13 
REMARK    5  A    between atoms: C12_17  and  C13_18 
REMARK       I    between atoms: C13_18  and  N3_20 
REMARK    6  A    between atoms: N3_20  and  C14_22 
REMARK    7  A    between atoms: C14_22  and  C15_23 
ROOT
HETATM    1  N1  UNL     1      15.679   9.124   9.231  1.00  0.00    -0.386 N 
HETATM    2  C7  UNL     1      15.629   9.414  10.612  1.00  0.00     0.125 C 
HETATM    3  C8  UNL     1      17.051   9.236  11.164  1.00  0.00     0.054 C 
HETATM    4  C9  UNL     1      17.272   7.719  11.207  1.00  0.00     0.064 C 
HETATM    5  C10 UNL     1      18.670   7.477  11.664  1.00  0.00     0.067 C 
HETATM    6  C11 UNL     1      18.788   6.611  12.894  1.00  0.00     0.200 C 
HETATM    7  C12 UNL     1      17.849   6.973  13.993  1.00  0.00     0.125 C 
HETATM    8  C18 UNL     1      16.505   7.447  13.480  1.00  0.00     0.131 C 
HETATM    9  N4  UNL     1      16.273   7.205  12.104  1.00  0.00    -0.409 N 
ATOM     10  H4  UNL     1      15.452   6.700  11.772  1.00  0.00     0.154 HD
HETATM   11  C19 UNL     1      17.004   7.127   9.841  1.00  0.00     0.236 C 
HETATM   12  F1  UNL     1      18.148   6.506   9.315  1.00  0.00    -0.241 F 
HETATM   13  C20 UNL     1      16.585   8.134   8.812  1.00  0.00     0.098 C 
ENDROOT
BRANCH   6  14
HETATM   14  N2  UNL     1      18.770   5.208  12.534  1.00  0.00    -0.074 N 
ATOM     15  H23 UNL     1      17.916   4.957  12.035  1.00  0.00     0.274 HD
ATOM     16  H22 UNL     1      19.444   4.998  11.797  1.00  0.00     0.274 HD
ATOM     17  H21 UNL     1      18.913   4.624  13.357  1.00  0.00     0.274 HD
ENDBRANCH   6  14
BRANCH   1  18
HETATM   18  C2  UNL     1      14.518   9.320   8.454  1.00  0.00     0.079 C 
HETATM   19  C1  UNL     1      13.636   8.137   8.255  1.00  0.00     0.032 C 
BRANCH  18  20
HETATM   20  C3  UNL     1      13.724  10.509   8.971  1.00  0.00     0.029 C 
BRANCH  20  21
HETATM   21  C4  UNL     1      12.504  10.756   8.075  1.00  0.00    -0.013 A 
HETATM   22  C5  UNL     1      12.110  12.157   7.787  1.00  0.00     0.005 A 
HETATM   23  C6  UNL     1      12.774  11.284   6.707  1.00  0.00     0.005 A 
ENDBRANCH  20  21
ENDBRANCH  18  20
ENDBRANCH   1  18
BRANCH   7  24
HETATM   24  C13 UNL     1      17.628   5.768  14.845  1.00  0.00     0.225 C 
HETATM   25  O1  UNL     1      18.653   5.239  15.391  1.00  0.00    -0.273 OA
HETATM   26  N3  UNL     1      16.364   5.202  15.065  1.00  0.00    -0.360 N 
ATOM     27  H3  UNL     1      15.552   5.635  14.626  1.00  0.00     0.162 HD
BRANCH  26  28
HETATM   28  C14 UNL     1      16.163   4.035  15.885  1.00  0.00     0.127 C 
BRANCH  28  29
HETATM   29  C15 UNL     1      14.893   4.146  16.663  1.00  0.00     0.003 A 
HETATM   30  C16 UNL     1      14.236   2.897  17.130  1.00  0.00     0.007 A 
HETATM   31  C17 UNL     1      14.971   3.698  18.117  1.00  0.00     0.007 A 
ENDBRANCH  28  29
ENDBRANCH  26  28
ENDBRANCH   7  24
TORSDOF 7
ENDMDL
MODEL 5
REMARK VINA RESULT: -6.890861035      1.580      1.907
REMARK  7 active torsions:
REMARK  status: ('A' for Active; 'I' for Inactive)
REMARK    1  A    between atoms: C2_2  and  C3_3 
REMARK    2  A    between atoms: C2_2  and  N1_7 
REMARK    3  A    between atoms: C3_3  and  C4_4 
REMARK    4  A    between atoms: C11_12  and  N2_13 
REMARK    5  A    between atoms: C12_17  and  C13_18 
REMARK       I    between atoms: C13_18  and  N3_20 
REMARK    6  A    between atoms: N3_20  and  C14_22 
REMARK    7  A    between atoms: C14_22  and  C15_23 
ROOT
HETATM    1  N1  UNL     1      16.197   9.204  10.047  1.00  0.00    -0.386 N 
HETATM    2  C7  UNL     1      16.156   9.317  11.453  1.00  0.00     0.125 C 
HETATM    3  C8  UNL     1      17.537   8.900  11.982  1.00  0.00     0.054 C 
HETATM    4  C9  UNL     1      17.576   7.375  11.826  1.00  0.00     0.064 C 
HETATM    5  C10 UNL     1      18.926   6.910  12.253  1.00  0.00     0.067 C 
HETATM    6  C11 UNL     1      18.918   5.884  13.359  1.00  0.00     0.200 C 
HETATM    7  C12 UNL     1      18.008   6.210  14.493  1.00  0.00     0.125 C 
HETATM    8  C18 UNL     1      16.739   6.904  14.042  1.00  0.00     0.131 C 
HETATM    9  N4  UNL     1      16.506   6.872  12.645  1.00  0.00    -0.409 N 
ATOM     10  H4  UNL     1      15.637   6.516  12.247  1.00  0.00     0.154 HD
HETATM   11  C19 UNL     1      17.266   7.002  10.394  1.00  0.00     0.236 C 
HETATM   12  F1  UNL     1      18.338   6.322   9.796  1.00  0.00    -0.241 F 
HETATM   13  C20 UNL     1      16.988   8.176   9.504  1.00  0.00     0.098 C 
ENDROOT
BRANCH   6  14
HETATM   14  N2  UNL     1      18.741   4.552  12.818  1.00  0.00    -0.074 N 
ATOM     15  H23 UNL     1      19.619   4.033  12.796  1.00  0.00     0.274 HD
ATOM     16  H22 UNL     1      18.223   3.950  13.457  1.00  0.00     0.274 HD
ATOM     17  H21 UNL     1      18.303   4.594  11.897  1.00  0.00     0.274 HD
ENDBRANCH   6  14
BRANCH   1  18
HETATM   18  C2  UNL     1      15.083   9.637   9.298  1.00  0.00     0.079 C 
HETATM   19  C1  UNL     1      14.084   8.600   8.922  1.00  0.00     0.032 C 
BRANCH  18  20
HETATM   20  C3  UNL     1      14.410  10.819   9.977  1.00  0.00     0.029 C 
BRANCH  20  21
HETATM   21  C4  UNL     1      14.984  12.133   9.435  1.00  0.00    -0.013 A 
HETATM   22  C5  UNL     1      14.730  13.383  10.194  1.00  0.00     0.005 A 
HETATM   23  C6  UNL     1      16.123  12.729  10.190  1.00  0.00     0.005 A 
ENDBRANCH  20  21
ENDBRANCH  18  20
ENDBRANCH   1  18
BRANCH   7  24
HETATM   24  C13 UNL     1      17.629   4.940  15.178  1.00  0.00     0.225 C 
HETATM   25  O1  UNL     1      18.525   4.364  15.882  1.00  0.00    -0.273 OA
HETATM   26  N3  UNL     1      16.355   4.362  15.082  1.00  0.00    -0.360 N 
ATOM     27  H3  UNL     1      15.648   4.833  14.519  1.00  0.00     0.162 HD
BRANCH  26  28
HETATM   28  C14 UNL     1      16.003   3.133  15.744  1.00  0.00     0.127 C 
BRANCH  28  29
HETATM   29  C15 UNL     1      15.300   3.407  17.033  1.00  0.00     0.003 A 
HETATM   30  C16 UNL     1      14.247   4.457  17.057  1.00  0.00     0.007 A 
HETATM   31  C17 UNL     1      13.818   3.053  17.062  1.00  0.00     0.007 A 
ENDBRANCH  28  29
ENDBRANCH  26  28
ENDBRANCH   7  24
TORSDOF 7
ENDMDL
