MODEL 1
REMARK VINA RESULT: -7.548906129      0.000      0.000
REMARK  9 active torsions:
REMARK  status: ('A' for Active; 'I' for Inactive)
REMARK    1  A    between atoms: N1_2  and  C2_4 
REMARK    2  A    between atoms: C3_7  and  N3_8 
REMARK    3  A    between atoms: N3_8  and  C4_10 
REMARK    4  A    between atoms: C4_10  and  C5_11 
REMARK    5  A    between atoms: C5_11  and  O1_12 
REMARK    6  A    between atoms: O1_12  and  C6_13 
REMARK    7  A    between atoms: C6_13  and  C7_14 
REMARK    8  A    between atoms: C9_17  and  N4_18 
REMARK    9  A    between atoms: N4_18  and  C10_20 
ROOT
HETATM    1  C2  UNL     1      20.146   4.803  10.448  1.00  0.00     0.679 A 
HETATM    2  N2  UNL     1      19.844   5.455  11.593  1.00  0.00    -0.176 N 
ATOM      3  H2  UNL     1      20.276   6.360  11.783  1.00  0.00     0.186 HD
HETATM    4  C3  UNL     1      18.990   4.938  12.483  1.00  0.00     0.133 A 
HETATM    5  C8  UNL     1      18.420   3.703  12.194  1.00  0.00     0.079 A 
HETATM    6  C9  UNL     1      17.534   3.141  13.093  1.00  0.00     0.117 A 
HETATM    7  N5  UNL     1      16.988   1.947  12.807  1.00  0.00    -0.352 N 
ATOM      8  H5  UNL     1      16.334   1.530  13.469  1.00  0.00     0.166 HD
HETATM    9  C16 UNL     1      17.285   1.280  11.656  1.00  0.00     0.092 A 
HETATM   10  C17 UNL     1      18.158   1.813  10.752  1.00  0.00     0.048 A 
HETATM   11  C18 UNL     1      18.741   3.055  11.024  1.00  0.00     0.068 A 
HETATM   12  N6  UNL     1      19.601   3.610  10.160  1.00  0.00    -0.191 N 
ATOM     13  H6  UNL     1      19.839   3.130   9.293  1.00  0.00     0.184 HD
ENDROOT
BRANCH   4  14
HETATM   14  N3  UNL     1      18.662   5.506  13.587  1.00  0.00    -0.373 N 
ATOM     15  H3  UNL     1      18.127   4.977  14.276  1.00  0.00     0.161 HD
BRANCH  14  16
HETATM   16  C4  UNL     1      19.034   6.897  13.887  1.00  0.00     0.147 C 
BRANCH  16  17
HETATM   17  C5  UNL     1      17.871   7.624  14.507  1.00  0.00     0.187 C 
BRANCH  17  18
HETATM   18  O1  UNL     1      18.127   8.904  14.873  1.00  0.00    -0.387 OA
BRANCH  18  19
HETATM   19  C6  UNL     1      19.308   9.372  14.336  1.00  0.00     0.199 C 
BRANCH  19  20
HETATM   20  C7  UNL     1      19.682  10.696  15.009  1.00  0.00     0.248 C 
HETATM   21  F1  UNL     1      19.953  10.494  16.325  1.00  0.00    -0.253 F 
ENDBRANCH  19  20
ENDBRANCH  18  19
ENDBRANCH  17  18
ENDBRANCH  16  17
ENDBRANCH  14  16
ENDBRANCH   4  14
BRANCH   1  22
HETATM   22  N1  UNL     1      20.981   5.333   9.601  1.00  0.00    -0.230 N 
HETATM   23  C1  UNL     1      20.616   5.488   8.212  1.00  0.00     0.165 C 
ATOM     24  H1  UNL     1      21.899   5.640   9.920  1.00  0.00     0.177 HD
ENDBRANCH   1  22
BRANCH   6  25
HETATM   25  N4  UNL     1      17.264   3.768  14.160  1.00  0.00    -0.371 N 
ATOM     26  H4  UNL     1      17.897   4.524  14.422  1.00  0.00     0.161 HD
BRANCH  25  27
HETATM   27  C10 UNL     1      16.159   3.520  15.034  1.00  0.00     0.083 C 
HETATM   28  C11 UNL     1      16.649   3.052  16.406  1.00  0.00     0.025 C 
HETATM   29  C12 UNL     1      15.457   2.607  17.188  1.00  0.00     0.002 C 
HETATM   30  C13 UNL     1      14.246   3.470  17.001  1.00  0.00     0.000 C 
HETATM   31  C14 UNL     1      14.549   4.831  16.443  1.00  0.00     0.002 C 
HETATM   32  C15 UNL     1      15.452   4.834  15.269  1.00  0.00     0.025 C 
ENDBRANCH  25  27
ENDBRANCH   6  25
TORSDOF 9
ENDMDL
MODEL 2
REMARK VINA RESULT: -7.537731751      2.171      2.362
REMARK  9 active torsions:
REMARK  status: ('A' for Active; 'I' for Inactive)
REMARK    1  A    between atoms: N1_2  and  C2_4 
REMARK    2  A    between atoms: C3_7  and  N3_8 
REMARK    3  A    between atoms: N3_8  and  C4_10 
REMARK    4  A    between atoms: C4_10  and  C5_11 
REMARK    5  A    between atoms: C5_11  and  O1_12 
REMARK    6  A    between atoms: O1_12  and  C6_13 
REMARK    7  A    between atoms: C6_13  and  C7_14 
REMARK    8  A    between atoms: C9_17  and  N4_18 
REMARK    9  A    between atoms: N4_18  and  C10_20 
ROOT
HETATM    1  C2  UNL     1      20.050   4.795  10.487  1.00  0.00     0.679 A 
HETATM    2  N2  UNL     1      19.534   5.610  11.434  1.00  0.00    -0.176 N 
ATOM      3  H2  UNL     1      19.839   6.582  11.478  1.00  0.00     0.186 HD
HETATM    4  C3  UNL     1      18.631   5.166  12.315  1.00  0.00     0.133 A 
HETATM    5  C8  UNL     1      18.239   3.835  12.229  1.00  0.00     0.079 A 
HETATM    6  C9  UNL     1      17.308   3.345  13.125  1.00  0.00     0.117 A 
HETATM    7  N5  UNL     1      16.934   2.058  13.035  1.00  0.00    -0.352 N 
ATOM      8  H5  UNL     1      16.248   1.694  13.695  1.00  0.00     0.166 HD
HETATM    9  C16 UNL     1      17.447   1.227  12.084  1.00  0.00     0.092 A 
HETATM   10  C17 UNL     1      18.369   1.686  11.187  1.00  0.00     0.048 A 
HETATM   11  C18 UNL     1      18.776   3.023  11.258  1.00  0.00     0.068 A 
HETATM   12  N6  UNL     1      19.677   3.508  10.394  1.00  0.00    -0.191 N 
ATOM     13  H6  UNL     1      20.076   2.907   9.674  1.00  0.00     0.184 HD
ENDROOT
BRANCH   4  14
HETATM   14  N3  UNL     1      18.104   5.887  13.237  1.00  0.00    -0.373 N 
ATOM     15  H3  UNL     1      17.798   5.440  14.102  1.00  0.00     0.161 HD
BRANCH  14  16
HETATM   16  C4  UNL     1      17.928   7.340  13.084  1.00  0.00     0.147 C 
BRANCH  16  17
HETATM   17  C5  UNL     1      16.483   7.712  13.282  1.00  0.00     0.187 C 
BRANCH  17  18
HETATM   18  O1  UNL     1      15.741   7.749  12.148  1.00  0.00    -0.387 OA
BRANCH  18  19
HETATM   19  C6  UNL     1      15.822   8.971  11.514  1.00  0.00     0.199 C 
BRANCH  19  20
HETATM   20  C7  UNL     1      14.409   9.511  11.272  1.00  0.00     0.248 C 
HETATM   21  F1  UNL     1      13.586   9.148  12.290  1.00  0.00    -0.253 F 
ENDBRANCH  19  20
ENDBRANCH  18  19
ENDBRANCH  17  18
ENDBRANCH  16  17
ENDBRANCH  14  16
ENDBRANCH   4  14
BRANCH   1  22
HETATM   22  N1  UNL     1      20.927   5.256   9.642  1.00  0.00    -0.230 N 
HETATM   23  C1  UNL     1      20.564   5.492   8.264  1.00  0.00     0.165 C 
ATOM     24  H1  UNL     1      21.877   5.453   9.955  1.00  0.00     0.177 HD
ENDBRANCH   1  22
BRANCH   6  25
HETATM   25  N4  UNL     1      16.837   4.125  14.005  1.00  0.00    -0.371 N 
ATOM     26  H4  UNL     1      17.118   5.104  13.950  1.00  0.00     0.161 HD
BRANCH  25  27
HETATM   27  C10 UNL     1      15.949   3.767  15.068  1.00  0.00     0.083 C 
HETATM   28  C11 UNL     1      16.729   3.486  16.354  1.00  0.00     0.025 C 
HETATM   29  C12 UNL     1      15.776   2.914  17.350  1.00  0.00     0.002 C 
HETATM   30  C13 UNL     1      14.421   3.554  17.338  1.00  0.00     0.000 C 
HETATM   31  C14 UNL     1      14.391   4.902  16.675  1.00  0.00     0.002 C 
HETATM   32  C15 UNL     1      15.076   4.964  15.363  1.00  0.00     0.025 C 
ENDBRANCH  25  27
ENDBRANCH   6  25
TORSDOF 9
ENDMDL
MODEL 3
REMARK VINA RESULT: -7.413365549      2.118      2.424
REMARK  9 active torsions:
REMARK  status: ('A' for Active; 'I' for Inactive)
REMARK    1  A    between atoms: N1_2  and  C2_4 
REMARK    2  A    between atoms: C3_7  and  N3_8 
REMARK    3  A    between atoms: N3_8  and  C4_10 
REMARK    4  A    between atoms: C4_10  and  C5_11 
REMARK    5  A    between atoms: C5_11  and  O1_12 
REMARK    6  A    between atoms: O1_12  and  C6_13 
REMARK    7  A    between atoms: C6_13  and  C7_14 
REMARK    8  A    between atoms: C9_17  and  N4_18 
REMARK    9  A    between atoms: N4_18  and  C10_20 
ROOT
HETATM    1  C2  UNL     1      20.041   4.714  10.541  1.00  0.00     0.679 A 
HETATM    2  N2  UNL     1      19.658   5.436  11.618  1.00  0.00    -0.176 N 
ATOM      3  H2  UNL     1      20.037   6.374  11.753  1.00  0.00     0.186 HD
HETATM    4  C3  UNL     1      18.791   4.945  12.510  1.00  0.00     0.133 A 
HETATM    5  C8  UNL     1      18.295   3.664  12.298  1.00  0.00     0.079 A 
HETATM    6  C9  UNL     1      17.398   3.128  13.202  1.00  0.00     0.117 A 
HETATM    7  N5  UNL     1      16.923   1.890  12.989  1.00  0.00    -0.352 N 
ATOM      8  H5  UNL     1      16.261   1.491  13.655  1.00  0.00     0.166 HD
HETATM    9  C16 UNL     1      17.302   1.151  11.907  1.00  0.00     0.092 A 
HETATM   10  C17 UNL     1      18.188   1.658  11.000  1.00  0.00     0.048 A 
HETATM   11  C18 UNL     1      18.698   2.946  11.197  1.00  0.00     0.068 A 
HETATM   12  N6  UNL     1      19.568   3.476  10.327  1.00  0.00    -0.191 N 
ATOM     13  H6  UNL     1      19.867   2.944   9.510  1.00  0.00     0.184 HD
ENDROOT
BRANCH   4  14
HETATM   14  N3  UNL     1      18.387   5.579  13.552  1.00  0.00    -0.373 N 
ATOM     15  H3  UNL     1      18.143   5.050  14.389  1.00  0.00     0.161 HD
BRANCH  14  16
HETATM   16  C4  UNL     1      18.267   7.045  13.573  1.00  0.00     0.147 C 
BRANCH  16  17
HETATM   17  C5  UNL     1      16.818   7.449  13.539  1.00  0.00     0.187 C 
BRANCH  17  18
HETATM   18  O1  UNL     1      16.184   7.205  12.366  1.00  0.00    -0.387 OA
BRANCH  18  19
HETATM   19  C6  UNL     1      16.619   8.039  11.357  1.00  0.00     0.199 C 
BRANCH  19  20
HETATM   20  C7  UNL     1      16.858   7.218  10.087  1.00  0.00     0.248 C 
HETATM   21  F1  UNL     1      16.660   5.897  10.337  1.00  0.00    -0.253 F 
ENDBRANCH  19  20
ENDBRANCH  18  19
ENDBRANCH  17  18
ENDBRANCH  16  17
ENDBRANCH  14  16
ENDBRANCH   4  14
BRANCH   1  22
HETATM   22  N1  UNL     1      20.886   5.219   9.689  1.00  0.00    -0.230 N 
HETATM   23  C1  UNL     1      22.242   5.514  10.088  1.00  0.00     0.165 C 
ATOM     24  H1  UNL     1      20.588   5.408   8.732  1.00  0.00     0.177 HD
ENDBRANCH   1  22
BRANCH   6  25
HETATM   25  N4  UNL     1      17.051   3.821  14.204  1.00  0.00    -0.371 N 
ATOM     26  H4  UNL     1      17.572   4.682  14.370  1.00  0.00     0.161 HD
BRANCH  25  27
HETATM   27  C10 UNL     1      16.001   3.514  15.126  1.00  0.00     0.083 C 
HETATM   28  C11 UNL     1      16.574   3.024  16.456  1.00  0.00     0.025 C 
HETATM   29  C12 UNL     1      15.438   2.520  17.284  1.00  0.00     0.002 C 
HETATM   30  C13 UNL     1      14.194   3.349  17.184  1.00  0.00     0.000 C 
HETATM   31  C14 UNL     1      14.427   4.734  16.652  1.00  0.00     0.002 C 
HETATM   32  C15 UNL     1      15.268   4.798  15.435  1.00  0.00     0.025 C 
ENDBRANCH  25  27
ENDBRANCH   6  25
TORSDOF 9
ENDMDL
MODEL 4
REMARK VINA RESULT: -7.404031103      2.926      4.717
REMARK  9 active torsions:
REMARK  status: ('A' for Active; 'I' for Inactive)
REMARK    1  A    between atoms: N1_2  and  C2_4 
REMARK    2  A    between atoms: C3_7  and  N3_8 
REMARK    3  A    between atoms: N3_8  and  C4_10 
REMARK    4  A    between atoms: C4_10  and  C5_11 
REMARK    5  A    between atoms: C5_11  and  O1_12 
REMARK    6  A    between atoms: O1_12  and  C6_13 
REMARK    7  A    between atoms: C6_13  and  C7_14 
REMARK    8  A    between atoms: C9_17  and  N4_18 
REMARK    9  A    between atoms: N4_18  and  C10_20 
ROOT
HETATM    1  C2  UNL     1      17.299   6.633   9.864  1.00  0.00     0.679 A 
HETATM    2  N2  UNL     1      16.758   5.487  10.335  1.00  0.00    -0.176 N 
ATOM      3  H2  UNL     1      16.279   4.858   9.690  1.00  0.00     0.186 HD
HETATM    4  C3  UNL     1      16.838   5.163  11.630  1.00  0.00     0.133 A 
HETATM    5  C8  UNL     1      17.495   6.043  12.481  1.00  0.00     0.079 A 
HETATM    6  C9  UNL     1      17.594   5.738  13.825  1.00  0.00     0.117 A 
HETATM    7  N5  UNL     1      18.231   6.593  14.641  1.00  0.00    -0.352 N 
ATOM      8  H5  UNL     1      18.306   6.371  15.633  1.00  0.00     0.166 HD
HETATM    9  C16 UNL     1      18.781   7.752  14.178  1.00  0.00     0.092 A 
HETATM   10  C17 UNL     1      18.696   8.078  12.854  1.00  0.00     0.048 A 
HETATM   11  C18 UNL     1      18.038   7.204  11.982  1.00  0.00     0.068 A 
HETATM   12  N6  UNL     1      17.937   7.490  10.678  1.00  0.00    -0.191 N 
ATOM     13  H6  UNL     1      18.339   8.350  10.307  1.00  0.00     0.184 HD
ENDROOT
BRANCH   4  14
HETATM   14  N3  UNL     1      16.346   4.092  12.140  1.00  0.00    -0.373 N 
ATOM     15  H3  UNL     1      15.910   4.137  13.061  1.00  0.00     0.161 HD
BRANCH  14  16
HETATM   16  C4  UNL     1      16.391   2.802  11.433  1.00  0.00     0.147 C 
BRANCH  16  17
HETATM   17  C5  UNL     1      17.499   1.946  11.985  1.00  0.00     0.187 C 
BRANCH  17  18
HETATM   18  O1  UNL     1      18.652   2.607  12.252  1.00  0.00    -0.387 OA
BRANCH  18  19
HETATM   19  C6  UNL     1      19.559   2.508  11.217  1.00  0.00     0.199 C 
BRANCH  19  20
HETATM   20  C7  UNL     1      20.172   3.886  10.947  1.00  0.00     0.248 C 
HETATM   21  F1  UNL     1      19.797   4.335   9.722  1.00  0.00    -0.253 F 
ENDBRANCH  19  20
ENDBRANCH  18  19
ENDBRANCH  17  18
ENDBRANCH  16  17
ENDBRANCH  14  16
ENDBRANCH   4  14
BRANCH   1  22
HETATM   22  N1  UNL     1      17.206   6.922   8.597  1.00  0.00    -0.230 N 
HETATM   23  C1  UNL     1      18.391   7.014   7.777  1.00  0.00     0.165 C 
ATOM     24  H1  UNL     1      16.289   7.084   8.181  1.00  0.00     0.177 HD
ENDBRANCH   1  22
BRANCH   6  25
HETATM   25  N4  UNL     1      17.080   4.659  14.246  1.00  0.00    -0.371 N 
ATOM     26  H4  UNL     1      17.110   3.858  13.616  1.00  0.00     0.161 HD
BRANCH  25  27
HETATM   27  C10 UNL     1      16.463   4.454  15.521  1.00  0.00     0.083 C 
HETATM   28  C11 UNL     1      14.994   4.880  15.485  1.00  0.00     0.025 C 
HETATM   29  C12 UNL     1      14.476   4.846  16.885  1.00  0.00     0.002 C 
HETATM   30  C13 UNL     1      14.973   3.686  17.693  1.00  0.00     0.000 C 
HETATM   31  C14 UNL     1      15.519   2.558  16.865  1.00  0.00     0.002 C 
HETATM   32  C15 UNL     1      16.461   2.969  15.799  1.00  0.00     0.025 C 
ENDBRANCH  25  27
ENDBRANCH   6  25
TORSDOF 9
ENDMDL
MODEL 5
REMARK VINA RESULT: -7.150935552      3.302      5.256
REMARK  9 active torsions:
REMARK  status: ('A' for Active; 'I' for Inactive)
REMARK    1  A    between atoms: N1_2  and  C2_4 
REMARK    2  A    between atoms: C3_7  and  N3_8 
REMARK    3  A    between atoms: N3_8  and  C4_10 
REMARK    4  A    between atoms: C4_10  and  C5_11 
REMARK    5  A    between atoms: C5_11  and  O1_12 
REMARK    6  A    between atoms: O1_12  and  C6_13 
REMARK    7  A    between atoms: C6_13  and  C7_14 
REMARK    8  A    between atoms: C9_17  and  N4_18 
REMARK    9  A    between atoms: N4_18  and  C10_20 
ROOT
HETATM    1  C2  UNL     1      19.093   6.059  10.098  1.00  0.00     0.679 A 
HETATM    2  N2  UNL     1      18.251   5.061  10.448  1.00  0.00    -0.176 N 
ATOM      3  H2  UNL     1      17.915   4.415   9.734  1.00  0.00     0.186 HD
HETATM    4  C3  UNL     1      17.849   4.904  11.714  1.00  0.00     0.133 A 
HETATM    5  C8  UNL     1      18.324   5.802  12.663  1.00  0.00     0.079 A 
HETATM    6  C9  UNL     1      17.927   5.668  13.979  1.00  0.00     0.117 A 
HETATM    7  N5  UNL     1      18.391   6.540  14.890  1.00  0.00    -0.352 N 
ATOM      8  H5  UNL     1      18.099   6.444  15.863  1.00  0.00     0.166 HD
HETATM    9  C16 UNL     1      19.240   7.551  14.549  1.00  0.00     0.092 A 
HETATM   10  C17 UNL     1      19.647   7.706  13.254  1.00  0.00     0.048 A 
HETATM   11  C18 UNL     1      19.180   6.811  12.285  1.00  0.00     0.068 A 
HETATM   12  N6  UNL     1      19.558   6.932  11.006  1.00  0.00    -0.191 N 
ATOM     13  H6  UNL     1      20.192   7.679  10.725  1.00  0.00     0.184 HD
ENDROOT
BRANCH   4  14
HETATM   14  N3  UNL     1      17.052   3.979  12.112  1.00  0.00    -0.373 N 
ATOM     15  H3  UNL     1      17.120   3.647  13.074  1.00  0.00     0.161 HD
BRANCH  14  16
HETATM   16  C4  UNL     1      16.045   3.383  11.220  1.00  0.00     0.147 C 
BRANCH  16  17
HETATM   17  C5  UNL     1      16.478   2.006  10.794  1.00  0.00     0.187 C 
BRANCH  17  18
HETATM   18  O1  UNL     1      17.570   1.973   9.992  1.00  0.00    -0.387 OA
BRANCH  18  19
HETATM   19  C6  UNL     1      18.624   1.301  10.576  1.00  0.00     0.199 C 
BRANCH  19  20
HETATM   20  C7  UNL     1      18.079   0.185  11.471  1.00  0.00     0.248 C 
HETATM   21  F1  UNL     1      18.847  -0.929  11.354  1.00  0.00    -0.253 F 
ENDBRANCH  19  20
ENDBRANCH  18  19
ENDBRANCH  17  18
ENDBRANCH  16  17
ENDBRANCH  14  16
ENDBRANCH   4  14
BRANCH   1  22
HETATM   22  N1  UNL     1      19.467   6.185   8.857  1.00  0.00    -0.230 N 
HETATM   23  C1  UNL     1      20.600   5.445   8.353  1.00  0.00     0.165 C 
ATOM     24  H1  UNL     1      18.956   6.812   8.235  1.00  0.00     0.177 HD
ENDBRANCH   1  22
BRANCH   6  25
HETATM   25  N4  UNL     1      17.138   4.726  14.288  1.00  0.00    -0.371 N 
ATOM     26  H4  UNL     1      16.945   4.033  13.565  1.00  0.00     0.161 HD
BRANCH  25  27
HETATM   27  C10 UNL     1      16.491   4.541  15.550  1.00  0.00     0.083 C 
HETATM   28  C11 UNL     1      15.004   4.889  15.452  1.00  0.00     0.025 C 
HETATM   29  C12 UNL     1      14.444   4.883  16.836  1.00  0.00     0.002 C 
HETATM   30  C13 UNL     1      14.972   3.783  17.706  1.00  0.00     0.000 C 
HETATM   31  C14 UNL     1      15.600   2.652  16.942  1.00  0.00     0.002 C 
HETATM   32  C15 UNL     1      16.554   3.069  15.888  1.00  0.00     0.025 C 
ENDBRANCH  25  27
ENDBRANCH   6  25
TORSDOF 9
ENDMDL
