MODEL 1
REMARK VINA RESULT: -7.337344435      0.000      0.000
REMARK  6 active torsions:
REMARK  status: ('A' for Active; 'I' for Inactive)
REMARK    1  A    between atoms: S1_2  and  C2_3 
REMARK    2  A    between atoms: C2_3  and  C3_4 
REMARK    3  A    between atoms: C3_4  and  C4_5 
REMARK    4  A    between atoms: C4_5  and  N1_6 
REMARK    5  A    between atoms: C4_5  and  C5_10 
REMARK       I    between atoms: C5_10  and  N2_12 
REMARK    6  A    between atoms: N2_12  and  C6_14 
ROOT
HETATM    1  C6  UNL     1     -21.625   0.533  -4.931  1.00  0.00     0.084 C 
HETATM    2  C7  UNL     1     -21.558   1.640  -3.933  1.00  0.00     0.025 C 
HETATM    3  C8  UNL     1     -22.865   1.980  -3.286  1.00  0.00     0.002 C 
HETATM    4  C9  UNL     1     -22.803   1.966  -1.750  1.00  0.00     0.000 C 
HETATM    5  C10 UNL     1     -22.409   0.574  -1.382  1.00  0.00     0.000 C 
HETATM    6  C11 UNL     1     -22.511   0.175   0.038  1.00  0.00     0.000 C 
HETATM    7  C12 UNL     1     -21.197  -0.241   0.632  1.00  0.00     0.000 C 
HETATM    8  C13 UNL     1     -20.804  -1.650   0.448  1.00  0.00     0.000 C 
HETATM    9  C14 UNL     1     -20.786  -2.210  -0.920  1.00  0.00     0.000 C 
HETATM   10  C15 UNL     1     -19.467  -1.980  -1.674  1.00  0.00     0.000 C 
HETATM   11  C16 UNL     1     -19.637  -2.193  -3.153  1.00  0.00     0.000 C 
HETATM   12  C17 UNL     1     -19.774  -0.880  -3.933  1.00  0.00     0.002 C 
HETATM   13  C18 UNL     1     -21.138  -0.800  -4.521  1.00  0.00     0.025 C 
ENDROOT
BRANCH   1  14
HETATM   14  N2  UNL     1     -20.985   0.867  -6.197  1.00  0.00    -0.355 N 
HETATM   15  C5  UNL     1     -21.725   1.107  -7.376  1.00  0.00     0.248 C 
HETATM   16  O1  UNL     1     -22.977   1.026  -7.319  1.00  0.00    -0.271 OA
ATOM     17  H2  UNL     1     -19.968   0.930  -6.233  1.00  0.00     0.162 HD
BRANCH  15  18
HETATM   18  C4  UNL     1     -21.104   1.446  -8.674  1.00  0.00     0.275 C 
BRANCH  18  19
HETATM   19  C3  UNL     1     -21.436   0.411  -9.736  1.00  0.00     0.053 C 
BRANCH  19  20
HETATM   20  C2  UNL     1     -20.647  -0.836  -9.419  1.00  0.00     0.076 C 
BRANCH  20  21
HETATM   21  S1  UNL     1     -21.743  -2.288  -9.406  1.00  0.00    -0.173 SA
HETATM   22  C1  UNL     1     -22.924  -2.243  -8.057  1.00  0.00     0.089 C 
ENDBRANCH  20  21
ENDBRANCH  19  20
ENDBRANCH  18  19
BRANCH  18  23
HETATM   23  N1  UNL     1     -21.559   2.735  -9.153  1.00  0.00    -0.066 N 
ATOM     24  H13 UNL     1     -21.149   2.990 -10.051  1.00  0.00     0.275 HD
ATOM     25  H12 UNL     1     -22.535   2.725  -9.447  1.00  0.00     0.275 HD
ATOM     26  H11 UNL     1     -21.372   3.422  -8.424  1.00  0.00     0.275 HD
ENDBRANCH  18  23
ENDBRANCH  15  18
ENDBRANCH   1  14
TORSDOF 6
ENDMDL
MODEL 2
REMARK VINA RESULT: -7.331351641      1.971      3.753
REMARK  6 active torsions:
REMARK  status: ('A' for Active; 'I' for Inactive)
REMARK    1  A    between atoms: S1_2  and  C2_3 
REMARK    2  A    between atoms: C2_3  and  C3_4 
REMARK    3  A    between atoms: C3_4  and  C4_5 
REMARK    4  A    between atoms: C4_5  and  N1_6 
REMARK    5  A    between atoms: C4_5  and  C5_10 
REMARK       I    between atoms: C5_10  and  N2_12 
REMARK    6  A    between atoms: N2_12  and  C6_14 
ROOT
HETATM    1  C6  UNL     1     -21.888  -0.484  -4.921  1.00  0.00     0.084 C 
HETATM    2  C7  UNL     1     -21.956  -1.602  -3.936  1.00  0.00     0.025 C 
HETATM    3  C8  UNL     1     -20.650  -1.948  -3.291  1.00  0.00     0.002 C 
HETATM    4  C9  UNL     1     -20.715  -1.952  -1.754  1.00  0.00     0.000 C 
HETATM    5  C10 UNL     1     -21.110  -0.564  -1.372  1.00  0.00     0.000 C 
HETATM    6  C11 UNL     1     -21.011  -0.181   0.053  1.00  0.00     0.000 C 
HETATM    7  C12 UNL     1     -22.326   0.227   0.650  1.00  0.00     0.000 C 
HETATM    8  C13 UNL     1     -22.720   1.638   0.481  1.00  0.00     0.000 C 
HETATM    9  C14 UNL     1     -22.735   2.214  -0.881  1.00  0.00     0.000 C 
HETATM   10  C15 UNL     1     -24.053   1.991  -1.639  1.00  0.00     0.000 C 
HETATM   11  C16 UNL     1     -23.880   2.222  -3.116  1.00  0.00     0.000 C 
HETATM   12  C17 UNL     1     -23.742   0.917  -3.910  1.00  0.00     0.002 C 
HETATM   13  C18 UNL     1     -22.376   0.845  -4.497  1.00  0.00     0.025 C 
ENDROOT
BRANCH   1  14
HETATM   14  N2  UNL     1     -22.526  -0.803  -6.192  1.00  0.00    -0.355 N 
HETATM   15  C5  UNL     1     -21.782  -1.086  -7.359  1.00  0.00     0.248 C 
HETATM   16  O1  UNL     1     -20.528  -1.057  -7.287  1.00  0.00    -0.271 OA
ATOM     17  H2  UNL     1     -23.545  -0.824  -6.240  1.00  0.00     0.162 HD
BRANCH  15  18
HETATM   18  C4  UNL     1     -22.401  -1.412  -8.661  1.00  0.00     0.275 C 
BRANCH  18  19
HETATM   19  C3  UNL     1     -22.047  -0.380  -9.719  1.00  0.00     0.053 C 
BRANCH  19  20
HETATM   20  C2  UNL     1     -22.879   0.851  -9.450  1.00  0.00     0.076 C 
BRANCH  20  21
HETATM   21  S1  UNL     1     -21.819   2.330  -9.410  1.00  0.00    -0.173 SA
HETATM   22  C1  UNL     1     -20.585   2.252  -8.111  1.00  0.00     0.089 C 
ENDBRANCH  20  21
ENDBRANCH  19  20
ENDBRANCH  18  19
BRANCH  18  23
HETATM   23  N1  UNL     1     -21.963  -2.706  -9.141  1.00  0.00    -0.066 N 
ATOM     24  H13 UNL     1     -20.949  -2.811  -9.127  1.00  0.00     0.275 HD
ATOM     25  H12 UNL     1     -22.187  -3.463  -8.495  1.00  0.00     0.275 HD
ATOM     26  H11 UNL     1     -22.362  -2.846 -10.069  1.00  0.00     0.275 HD
ENDBRANCH  18  23
ENDBRANCH  15  18
ENDBRANCH   1  14
TORSDOF 6
ENDMDL
MODEL 3
REMARK VINA RESULT: -7.177559187      1.144      2.970
REMARK  6 active torsions:
REMARK  status: ('A' for Active; 'I' for Inactive)
REMARK    1  A    between atoms: S1_2  and  C2_3 
REMARK    2  A    between atoms: C2_3  and  C3_4 
REMARK    3  A    between atoms: C3_4  and  C4_5 
REMARK    4  A    between atoms: C4_5  and  N1_6 
REMARK    5  A    between atoms: C4_5  and  C5_10 
REMARK       I    between atoms: C5_10  and  N2_12 
REMARK    6  A    between atoms: N2_12  and  C6_14 
ROOT
HETATM    1  C6  UNL     1     -21.066   0.506  -5.032  1.00  0.00     0.084 C 
HETATM    2  C7  UNL     1     -21.084  -0.868  -4.452  1.00  0.00     0.025 C 
HETATM    3  C8  UNL     1     -19.813  -1.278  -3.775  1.00  0.00     0.002 C 
HETATM    4  C9  UNL     1     -20.026  -1.775  -2.336  1.00  0.00     0.000 C 
HETATM    5  C10 UNL     1     -20.635  -0.624  -1.605  1.00  0.00     0.000 C 
HETATM    6  C11 UNL     1     -20.726  -0.707  -0.131  1.00  0.00     0.000 C 
HETATM    7  C12 UNL     1     -22.135  -0.634   0.380  1.00  0.00     0.000 C 
HETATM    8  C13 UNL     1     -22.692   0.714   0.598  1.00  0.00     0.000 C 
HETATM    9  C14 UNL     1     -22.649   1.688  -0.514  1.00  0.00     0.000 C 
HETATM   10  C15 UNL     1     -23.847   1.596  -1.473  1.00  0.00     0.000 C 
HETATM   11  C16 UNL     1     -23.562   2.299  -2.772  1.00  0.00     0.000 C 
HETATM   12  C17 UNL     1     -23.177   1.334  -3.900  1.00  0.00     0.002 C 
HETATM   13  C18 UNL     1     -21.764   1.579  -4.293  1.00  0.00     0.025 C 
ENDROOT
BRANCH   1  14
HETATM   14  N2  UNL     1     -21.530   0.549  -6.413  1.00  0.00    -0.355 N 
HETATM   15  C5  UNL     1     -20.917   1.366  -7.389  1.00  0.00     0.248 C 
HETATM   16  O1  UNL     1     -19.941   2.076  -7.043  1.00  0.00    -0.271 OA
ATOM     17  H2  UNL     1     -22.324  -0.031  -6.684  1.00  0.00     0.162 HD
BRANCH  15  18
HETATM   18  C4  UNL     1     -21.366   1.431  -8.796  1.00  0.00     0.275 C 
BRANCH  18  19
HETATM   19  C3  UNL     1     -22.569   0.534  -9.038  1.00  0.00     0.053 C 
BRANCH  19  20
HETATM   20  C2  UNL     1     -22.112  -0.619  -9.898  1.00  0.00     0.076 C 
BRANCH  20  21
HETATM   21  S1  UNL     1     -22.153  -2.169  -8.946  1.00  0.00    -0.173 SA
HETATM   22  C1  UNL     1     -23.317  -2.105  -7.583  1.00  0.00     0.089 C 
ENDBRANCH  20  21
ENDBRANCH  19  20
ENDBRANCH  18  19
BRANCH  18  23
HETATM   23  N1  UNL     1     -21.736   2.780  -9.168  1.00  0.00    -0.066 N 
ATOM     24  H13 UNL     1     -22.318   2.814 -10.005  1.00  0.00     0.275 HD
ATOM     25  H12 UNL     1     -22.404   3.199  -8.521  1.00  0.00     0.275 HD
ATOM     26  H11 UNL     1     -20.880   3.325  -9.260  1.00  0.00     0.275 HD
ENDBRANCH  18  23
ENDBRANCH  15  18
ENDBRANCH   1  14
TORSDOF 6
ENDMDL
MODEL 4
REMARK VINA RESULT: -7.176525690      1.803      2.353
REMARK  6 active torsions:
REMARK  status: ('A' for Active; 'I' for Inactive)
REMARK    1  A    between atoms: S1_2  and  C2_3 
REMARK    2  A    between atoms: C2_3  and  C3_4 
REMARK    3  A    between atoms: C3_4  and  C4_5 
REMARK    4  A    between atoms: C4_5  and  N1_6 
REMARK    5  A    between atoms: C4_5  and  C5_10 
REMARK       I    between atoms: C5_10  and  N2_12 
REMARK    6  A    between atoms: N2_12  and  C6_14 
ROOT
HETATM    1  C6  UNL     1     -22.466  -0.517  -5.020  1.00  0.00     0.084 C 
HETATM    2  C7  UNL     1     -22.449   0.855  -4.434  1.00  0.00     0.025 C 
HETATM    3  C8  UNL     1     -23.715   1.256  -3.744  1.00  0.00     0.002 C 
HETATM    4  C9  UNL     1     -23.492   1.747  -2.304  1.00  0.00     0.000 C 
HETATM    5  C10 UNL     1     -22.874   0.595  -1.584  1.00  0.00     0.000 C 
HETATM    6  C11 UNL     1     -22.771   0.670  -0.111  1.00  0.00     0.000 C 
HETATM    7  C12 UNL     1     -21.358   0.600   0.388  1.00  0.00     0.000 C 
HETATM    8  C13 UNL     1     -20.794  -0.747   0.595  1.00  0.00     0.000 C 
HETATM    9  C14 UNL     1     -20.842  -1.716  -0.521  1.00  0.00     0.000 C 
HETATM   10  C15 UNL     1     -19.653  -1.615  -1.489  1.00  0.00     0.000 C 
HETATM   11  C16 UNL     1     -19.945  -2.312  -2.790  1.00  0.00     0.000 C 
HETATM   12  C17 UNL     1     -20.343  -1.342  -3.910  1.00  0.00     0.002 C 
HETATM   13  C18 UNL     1     -21.759  -1.591  -4.292  1.00  0.00     0.025 C 
ENDROOT
BRANCH   1  14
HETATM   14  N2  UNL     1     -22.013  -0.551  -6.406  1.00  0.00    -0.355 N 
HETATM   15  C5  UNL     1     -22.619  -1.379  -7.376  1.00  0.00     0.248 C 
HETATM   16  O1  UNL     1     -23.579  -2.107  -7.022  1.00  0.00    -0.271 OA
ATOM     17  H2  UNL     1     -21.232   0.044  -6.683  1.00  0.00     0.162 HD
BRANCH  15  18
HETATM   18  C4  UNL     1     -22.181  -1.435  -8.787  1.00  0.00     0.275 C 
BRANCH  18  19
HETATM   19  C3  UNL     1     -20.971  -0.548  -9.030  1.00  0.00     0.053 C 
BRANCH  19  20
HETATM   20  C2  UNL     1     -21.414   0.594  -9.912  1.00  0.00     0.076 C 
BRANCH  20  21
HETATM   21  S1  UNL     1     -21.375   2.158  -8.983  1.00  0.00    -0.173 SA
HETATM   22  C1  UNL     1     -20.232   2.105  -7.601  1.00  0.00     0.089 C 
ENDBRANCH  20  21
ENDBRANCH  19  20
ENDBRANCH  18  19
BRANCH  18  23
HETATM   23  N1  UNL     1     -21.826  -2.785  -9.174  1.00  0.00    -0.066 N 
ATOM     24  H13 UNL     1     -21.120  -3.198  -8.565  1.00  0.00     0.275 HD
ATOM     25  H12 UNL     1     -22.572  -3.457  -8.993  1.00  0.00     0.275 HD
ATOM     26  H11 UNL     1     -21.541  -2.764 -10.152  1.00  0.00     0.275 HD
ENDBRANCH  18  23
ENDBRANCH  15  18
ENDBRANCH   1  14
TORSDOF 6
ENDMDL
MODEL 5
REMARK VINA RESULT: -6.722342445      1.600      2.145
REMARK  6 active torsions:
REMARK  status: ('A' for Active; 'I' for Inactive)
REMARK    1  A    between atoms: S1_2  and  C2_3 
REMARK    2  A    between atoms: C2_3  and  C3_4 
REMARK    3  A    between atoms: C3_4  and  C4_5 
REMARK    4  A    between atoms: C4_5  and  N1_6 
REMARK    5  A    between atoms: C4_5  and  C5_10 
REMARK       I    between atoms: C5_10  and  N2_12 
REMARK    6  A    between atoms: N2_12  and  C6_14 
ROOT
HETATM    1  C6  UNL     1     -21.730  -0.450  -4.501  1.00  0.00     0.084 C 
HETATM    2  C7  UNL     1     -21.442   0.949  -4.071  1.00  0.00     0.025 C 
HETATM    3  C8  UNL     1     -22.655   1.785  -3.808  1.00  0.00     0.002 C 
HETATM    4  C9  UNL     1     -22.649   2.444  -2.419  1.00  0.00     0.000 C 
HETATM    5  C10 UNL     1     -22.600   1.314  -1.445  1.00  0.00     0.000 C 
HETATM    6  C11 UNL     1     -22.838   1.617  -0.017  1.00  0.00     0.000 C 
HETATM    7  C12 UNL     1     -21.676   1.264   0.864  1.00  0.00     0.000 C 
HETATM    8  C13 UNL     1     -21.612  -0.126   1.352  1.00  0.00     0.000 C 
HETATM    9  C14 UNL     1     -21.679  -1.228   0.368  1.00  0.00     0.000 C 
HETATM   10  C15 UNL     1     -20.318  -1.615  -0.231  1.00  0.00     0.000 C 
HETATM   11  C16 UNL     1     -20.484  -2.427  -1.487  1.00  0.00     0.000 C 
HETATM   12  C17 UNL     1     -20.289  -1.599  -2.763  1.00  0.00     0.002 C 
HETATM   13  C18 UNL     1     -21.577  -1.528  -3.502  1.00  0.00     0.025 C 
ENDROOT
BRANCH   1  14
HETATM   14  N2  UNL     1     -20.988  -0.844  -5.693  1.00  0.00    -0.355 N 
HETATM   15  C5  UNL     1     -21.562  -0.812  -6.983  1.00  0.00     0.248 C 
HETATM   16  O1  UNL     1     -22.753  -0.429  -7.095  1.00  0.00    -0.271 OA
ATOM     17  H2  UNL     1     -20.021  -1.154  -5.591  1.00  0.00     0.162 HD
BRANCH  15  18
HETATM   18  C4  UNL     1     -20.835  -1.206  -8.208  1.00  0.00     0.275 C 
BRANCH  18  19
HETATM   19  C3  UNL     1     -21.761  -1.252  -9.413  1.00  0.00     0.053 C 
BRANCH  19  20
HETATM   20  C2  UNL     1     -21.319  -0.172 -10.369  1.00  0.00     0.076 C 
BRANCH  20  21
HETATM   21  S1  UNL     1     -22.425   1.268 -10.247  1.00  0.00    -0.173 SA
HETATM   22  C1  UNL     1     -21.643   2.665  -9.438  1.00  0.00     0.089 C 
ENDBRANCH  20  21
ENDBRANCH  19  20
ENDBRANCH  18  19
BRANCH  18  23
HETATM   23  N1  UNL     1     -19.766  -0.277  -8.507  1.00  0.00    -0.066 N 
ATOM     24  H13 UNL     1     -19.986   0.342  -9.287  1.00  0.00     0.275 HD
ATOM     25  H12 UNL     1     -19.655   0.440  -7.791  1.00  0.00     0.275 HD
ATOM     26  H11 UNL     1     -18.916  -0.819  -8.660  1.00  0.00     0.275 HD
ENDBRANCH  18  23
ENDBRANCH  15  18
ENDBRANCH   1  14
TORSDOF 6
ENDMDL
