MODEL 1
REMARK VINA RESULT: -7.808508240      0.000      0.000
REMARK  7 active torsions:
REMARK  status: ('A' for Active; 'I' for Inactive)
REMARK    1  A    between atoms: C5_6  and  C6_7 
REMARK    2  A    between atoms: C6_7  and  N2_8 
REMARK    3  A    between atoms: C10_12  and  C11_13 
REMARK    4  A    between atoms: C12_14  and  C13_15 
REMARK    5  A    between atoms: C18_20  and  C19_21 
REMARK    6  A    between atoms: C19_21  and  C20_22 
REMARK    7  A    between atoms: C20_22  and  O1_23 
ROOT
HETATM    1  N2  UNL     1     -22.600   0.402  -3.721  1.00  0.00     0.098 N 
HETATM    2  C7  UNL     1     -21.704   1.505  -3.944  1.00  0.00     0.273 C 
HETATM    3  C8  UNL     1     -20.323   1.064  -3.518  1.00  0.00     0.031 C 
HETATM    4  C9  UNL     1     -20.057  -0.342  -3.938  1.00  0.00     0.012 C 
HETATM    5  C10 UNL     1     -20.992  -0.885  -4.977  1.00  0.00     0.041 C 
HETATM    6  C18 UNL     1     -22.440  -0.533  -4.766  1.00  0.00     0.233 C 
ENDROOT
BRANCH   1   7
HETATM    7  C6  UNL     1     -23.961   0.832  -3.505  1.00  0.00     0.311 C 
BRANCH   7   8
HETATM    8  C5  UNL     1     -24.273   1.194  -2.102  1.00  0.00    -0.028 A 
HETATM    9  C4  UNL     1     -23.352   0.847  -1.122  1.00  0.00     0.009 A 
HETATM   10  C3  UNL     1     -23.577   1.158   0.200  1.00  0.00     0.002 A 
HETATM   11  C2  UNL     1     -24.717   1.821   0.581  1.00  0.00     0.026 A 
HETATM   12  C1  UNL     1     -25.645   2.175  -0.382  1.00  0.00     0.046 A 
HETATM   13  N1  UNL     1     -26.849   2.872   0.002  1.00  0.00    -0.102 NA
HETATM   14  C21 UNL     1     -25.399   1.853  -1.692  1.00  0.00     0.035 A 
ENDBRANCH   7   8
ENDBRANCH   1   7
BRANCH   6  15
HETATM   15  C19 UNL     1     -23.357  -1.712  -4.736  1.00  0.00     0.062 C 
BRANCH  15  16
HETATM   16  C20 UNL     1     -23.505  -2.500  -5.976  1.00  0.00     0.166 C 
BRANCH  16  17
HETATM   17  O1  UNL     1     -24.350  -3.577  -5.947  1.00  0.00    -0.401 OA
ATOM     18  H1  UNL     1     -24.221  -4.256  -6.599  1.00  0.00     0.209 HD
ENDBRANCH  16  17
ENDBRANCH  15  16
ENDBRANCH   6  15
BRANCH   5  19
HETATM   19  C11 UNL     1     -20.530  -0.588  -6.372  1.00  0.00    -0.024 C 
HETATM   20  C12 UNL     1     -21.087   0.284  -7.164  1.00  0.00    -0.026 C 
BRANCH  20  21
HETATM   21  C13 UNL     1     -20.539   0.494  -8.529  1.00  0.00     0.008 C 
HETATM   22  C14 UNL     1     -21.400   1.542  -9.198  1.00  0.00     0.008 C 
HETATM   23  C15 UNL     1     -22.533   0.782  -9.806  1.00  0.00     0.001 C 
HETATM   24  C16 UNL     1     -22.182  -0.678  -9.747  1.00  0.00     0.001 C 
HETATM   25  C17 UNL     1     -20.732  -0.766  -9.371  1.00  0.00     0.008 C 
ENDBRANCH  20  21
ENDBRANCH   5  19
TORSDOF 7
ENDMDL
MODEL 2
REMARK VINA RESULT: -7.774462550      3.275      5.138
REMARK  7 active torsions:
REMARK  status: ('A' for Active; 'I' for Inactive)
REMARK    1  A    between atoms: C5_6  and  C6_7 
REMARK    2  A    between atoms: C6_7  and  N2_8 
REMARK    3  A    between atoms: C10_12  and  C11_13 
REMARK    4  A    between atoms: C12_14  and  C13_15 
REMARK    5  A    between atoms: C18_20  and  C19_21 
REMARK    6  A    between atoms: C19_21  and  C20_22 
REMARK    7  A    between atoms: C20_22  and  O1_23 
ROOT
HETATM    1  N2  UNL     1     -20.938  -0.385  -3.696  1.00  0.00     0.098 N 
HETATM    2  C7  UNL     1     -21.855  -1.474  -3.902  1.00  0.00     0.273 C 
HETATM    3  C8  UNL     1     -23.228  -0.999  -3.487  1.00  0.00     0.031 C 
HETATM    4  C9  UNL     1     -23.466   0.405  -3.933  1.00  0.00     0.012 C 
HETATM    5  C10 UNL     1     -22.518   0.911  -4.978  1.00  0.00     0.041 C 
HETATM    6  C18 UNL     1     -21.077   0.534  -4.757  1.00  0.00     0.233 C 
ENDROOT
BRANCH   1   7
HETATM    7  C6  UNL     1     -19.586  -0.837  -3.468  1.00  0.00     0.311 C 
BRANCH   7   8
HETATM    8  C5  UNL     1     -19.292  -1.202  -2.062  1.00  0.00    -0.028 A 
HETATM    9  C4  UNL     1     -20.217  -0.842  -1.090  1.00  0.00     0.009 A 
HETATM   10  C3  UNL     1     -20.007  -1.156   0.234  1.00  0.00     0.002 A 
HETATM   11  C2  UNL     1     -18.880  -1.833   0.625  1.00  0.00     0.026 A 
HETATM   12  C1  UNL     1     -17.948  -2.200  -0.330  1.00  0.00     0.046 A 
HETATM   13  N1  UNL     1     -16.756  -2.913   0.066  1.00  0.00    -0.102 NA
HETATM   14  C21 UNL     1     -18.178  -1.876  -1.642  1.00  0.00     0.035 A 
ENDBRANCH   7   8
ENDBRANCH   1   7
BRANCH   6  15
HETATM   15  C19 UNL     1     -20.138   1.696  -4.746  1.00  0.00     0.062 C 
BRANCH  15  16
HETATM   16  C20 UNL     1     -19.992   2.476  -5.991  1.00  0.00     0.166 C 
BRANCH  16  17
HETATM   17  O1  UNL     1     -19.181   3.577  -5.959  1.00  0.00    -0.401 OA
ATOM     18  H1  UNL     1     -18.270   3.461  -6.200  1.00  0.00     0.209 HD
ENDBRANCH  16  17
ENDBRANCH  15  16
ENDBRANCH   6  15
BRANCH   5  19
HETATM   19  C11 UNL     1     -22.982   0.598  -6.369  1.00  0.00    -0.024 C 
HETATM   20  C12 UNL     1     -22.422  -0.279  -7.155  1.00  0.00    -0.026 C 
BRANCH  20  21
HETATM   21  C13 UNL     1     -22.973  -0.504  -8.516  1.00  0.00     0.008 C 
HETATM   22  C14 UNL     1     -22.118  -1.567  -9.171  1.00  0.00     0.008 C 
HETATM   23  C15 UNL     1     -20.981  -0.822  -9.790  1.00  0.00     0.001 C 
HETATM   24  C16 UNL     1     -21.324   0.640  -9.752  1.00  0.00     0.001 C 
HETATM   25  C17 UNL     1     -22.772   0.742  -9.376  1.00  0.00     0.008 C 
ENDBRANCH  20  21
ENDBRANCH   5  19
TORSDOF 7
ENDMDL
MODEL 3
REMARK VINA RESULT: -7.626521194      3.266      4.766
REMARK  7 active torsions:
REMARK  status: ('A' for Active; 'I' for Inactive)
REMARK    1  A    between atoms: C5_6  and  C6_7 
REMARK    2  A    between atoms: C6_7  and  N2_8 
REMARK    3  A    between atoms: C10_12  and  C11_13 
REMARK    4  A    between atoms: C12_14  and  C13_15 
REMARK    5  A    between atoms: C18_20  and  C19_21 
REMARK    6  A    between atoms: C19_21  and  C20_22 
REMARK    7  A    between atoms: C20_22  and  O1_23 
ROOT
HETATM    1  N2  UNL     1     -20.942  -0.408  -3.808  1.00  0.00     0.098 N 
HETATM    2  C7  UNL     1     -21.831  -1.511  -4.059  1.00  0.00     0.273 C 
HETATM    3  C8  UNL     1     -23.220  -1.081  -3.649  1.00  0.00     0.031 C 
HETATM    4  C9  UNL     1     -23.484   0.330  -4.056  1.00  0.00     0.012 C 
HETATM    5  C10 UNL     1     -22.536   0.889  -5.074  1.00  0.00     0.041 C 
HETATM    6  C18 UNL     1     -21.090   0.540  -4.844  1.00  0.00     0.233 C 
ENDROOT
BRANCH   1   7
HETATM    7  C6  UNL     1     -19.583  -0.835  -3.576  1.00  0.00     0.311 C 
BRANCH   7   8
HETATM    8  C5  UNL     1     -19.271  -1.138  -2.159  1.00  0.00    -0.028 A 
HETATM    9  C4  UNL     1     -18.000  -1.612  -1.861  1.00  0.00     0.009 A 
HETATM   10  C3  UNL     1     -17.643  -1.907  -0.564  1.00  0.00     0.002 A 
HETATM   11  C2  UNL     1     -18.535  -1.740   0.465  1.00  0.00     0.026 A 
HETATM   12  C1  UNL     1     -19.806  -1.269   0.186  1.00  0.00     0.046 A 
HETATM   13  N1  UNL     1     -20.756  -1.088   1.258  1.00  0.00    -0.102 NA
HETATM   14  C21 UNL     1     -20.138  -0.982  -1.113  1.00  0.00     0.035 A 
ENDBRANCH   7   8
ENDBRANCH   1   7
BRANCH   6  15
HETATM   15  C19 UNL     1     -20.178   1.722  -4.785  1.00  0.00     0.062 C 
BRANCH  15  16
HETATM   16  C20 UNL     1     -20.039   2.545  -6.003  1.00  0.00     0.166 C 
BRANCH  16  17
HETATM   17  O1  UNL     1     -19.145   3.580  -5.971  1.00  0.00    -0.401 OA
ATOM     18  H1  UNL     1     -19.333   4.342  -6.507  1.00  0.00     0.209 HD
ENDBRANCH  16  17
ENDBRANCH  15  16
ENDBRANCH   6  15
BRANCH   5  19
HETATM   19  C11 UNL     1     -22.975   0.607  -6.479  1.00  0.00    -0.024 C 
HETATM   20  C12 UNL     1     -22.456  -0.312  -7.244  1.00  0.00    -0.026 C 
BRANCH  20  21
HETATM   21  C13 UNL     1     -22.975  -0.500  -8.624  1.00  0.00     0.008 C 
HETATM   22  C14 UNL     1     -22.122  -1.563  -9.278  1.00  0.00     0.008 C 
HETATM   23  C15 UNL     1     -20.957  -0.825  -9.854  1.00  0.00     0.001 C 
HETATM   24  C16 UNL     1     -21.277   0.641  -9.793  1.00  0.00     0.001 C 
HETATM   25  C17 UNL     1     -22.733   0.760  -9.452  1.00  0.00     0.008 C 
ENDBRANCH  20  21
ENDBRANCH   5  19
TORSDOF 7
ENDMDL
MODEL 4
REMARK VINA RESULT: -7.528346720      2.911      7.903
REMARK  7 active torsions:
REMARK  status: ('A' for Active; 'I' for Inactive)
REMARK    1  A    between atoms: C5_6  and  C6_7 
REMARK    2  A    between atoms: C6_7  and  N2_8 
REMARK    3  A    between atoms: C10_12  and  C11_13 
REMARK    4  A    between atoms: C12_14  and  C13_15 
REMARK    5  A    between atoms: C18_20  and  C19_21 
REMARK    6  A    between atoms: C19_21  and  C20_22 
REMARK    7  A    between atoms: C20_22  and  O1_23 
ROOT
HETATM    1  N2  UNL     1     -21.896  -0.207  -4.973  1.00  0.00     0.098 N 
HETATM    2  C7  UNL     1     -22.398  -1.363  -4.279  1.00  0.00     0.273 C 
HETATM    3  C8  UNL     1     -21.258  -1.944  -3.476  1.00  0.00     0.031 C 
HETATM    4  C9  UNL     1     -20.444  -0.865  -2.845  1.00  0.00     0.012 C 
HETATM    5  C10 UNL     1     -21.095   0.485  -2.805  1.00  0.00     0.041 C 
HETATM    6  C18 UNL     1     -21.820   0.871  -4.067  1.00  0.00     0.233 C 
ENDROOT
BRANCH   1   7
HETATM    7  C6  UNL     1     -22.633   0.075  -6.181  1.00  0.00     0.311 C 
BRANCH   7   8
HETATM    8  C5  UNL     1     -21.959  -0.362  -7.427  1.00  0.00    -0.028 A 
HETATM    9  C4  UNL     1     -20.906   0.410  -7.900  1.00  0.00     0.009 A 
HETATM   10  C3  UNL     1     -20.233   0.057  -9.048  1.00  0.00     0.002 A 
HETATM   11  C2  UNL     1     -20.586  -1.066  -9.752  1.00  0.00     0.026 A 
HETATM   12  C1  UNL     1     -21.633  -1.847  -9.295  1.00  0.00     0.046 A 
HETATM   13  N1  UNL     1     -22.017  -3.032 -10.024  1.00  0.00    -0.102 NA
HETATM   14  C21 UNL     1     -22.289  -1.475  -8.149  1.00  0.00     0.035 A 
ENDBRANCH   7   8
ENDBRANCH   1   7
BRANCH   6  15
HETATM   15  C19 UNL     1     -21.391   2.182  -4.641  1.00  0.00     0.062 C 
BRANCH  15  16
HETATM   16  C20 UNL     1     -19.972   2.337  -5.018  1.00  0.00     0.166 C 
BRANCH  16  17
HETATM   17  O1  UNL     1     -19.655   3.331  -5.903  1.00  0.00    -0.401 OA
ATOM     18  H1  UNL     1     -19.721   3.134  -6.830  1.00  0.00     0.209 HD
ENDBRANCH  16  17
ENDBRANCH  15  16
ENDBRANCH   6  15
BRANCH   5  19
HETATM   19  C11 UNL     1     -21.938   0.676  -1.581  1.00  0.00    -0.024 C 
HETATM   20  C12 UNL     1     -21.774   0.026  -0.462  1.00  0.00    -0.026 C 
BRANCH  20  21
HETATM   21  C13 UNL     1     -22.673   0.300   0.688  1.00  0.00     0.008 C 
HETATM   22  C14 UNL     1     -22.712   1.800   0.873  1.00  0.00     0.008 C 
HETATM   23  C15 UNL     1     -21.546   2.112   1.754  1.00  0.00     0.001 C 
HETATM   24  C16 UNL     1     -21.031   0.811   2.299  1.00  0.00     0.001 C 
HETATM   25  C17 UNL     1     -22.054  -0.237   1.977  1.00  0.00     0.008 C 
ENDBRANCH  20  21
ENDBRANCH   5  19
TORSDOF 7
ENDMDL
MODEL 5
REMARK VINA RESULT: -7.522091616      2.405      7.350
REMARK  7 active torsions:
REMARK  status: ('A' for Active; 'I' for Inactive)
REMARK    1  A    between atoms: C5_6  and  C6_7 
REMARK    2  A    between atoms: C6_7  and  N2_8 
REMARK    3  A    between atoms: C10_12  and  C11_13 
REMARK    4  A    between atoms: C12_14  and  C13_15 
REMARK    5  A    between atoms: C18_20  and  C19_21 
REMARK    6  A    between atoms: C19_21  and  C20_22 
REMARK    7  A    between atoms: C20_22  and  O1_23 
ROOT
HETATM    1  N2  UNL     1     -21.634   0.247  -4.888  1.00  0.00     0.098 N 
HETATM    2  C7  UNL     1     -21.139   1.400  -4.184  1.00  0.00     0.273 C 
HETATM    3  C8  UNL     1     -22.285   1.969  -3.379  1.00  0.00     0.031 C 
HETATM    4  C9  UNL     1     -23.094   0.880  -2.759  1.00  0.00     0.012 C 
HETATM    5  C10 UNL     1     -22.436  -0.466  -2.727  1.00  0.00     0.041 C 
HETATM    6  C18 UNL     1     -21.705  -0.839  -3.990  1.00  0.00     0.233 C 
ENDROOT
BRANCH   1   7
HETATM    7  C6  UNL     1     -20.892  -0.022  -6.096  1.00  0.00     0.311 C 
BRANCH   7   8
HETATM    8  C5  UNL     1     -21.574   0.404  -7.341  1.00  0.00    -0.028 A 
HETATM    9  C4  UNL     1     -22.652  -0.352  -7.782  1.00  0.00     0.009 A 
HETATM   10  C3  UNL     1     -23.334  -0.007  -8.928  1.00  0.00     0.002 A 
HETATM   11  C2  UNL     1     -22.963   1.091  -9.661  1.00  0.00     0.026 A 
HETATM   12  C1  UNL     1     -21.891   1.855  -9.237  1.00  0.00     0.046 A 
HETATM   13  N1  UNL     1     -21.488   3.014  -9.999  1.00  0.00    -0.102 NA
HETATM   14  C21 UNL     1     -21.227   1.492  -8.093  1.00  0.00     0.035 A 
ENDBRANCH   7   8
ENDBRANCH   1   7
BRANCH   6  15
HETATM   15  C19 UNL     1     -22.126  -2.147  -4.574  1.00  0.00     0.062 C 
BRANCH  15  16
HETATM   16  C20 UNL     1     -23.530  -2.287  -5.009  1.00  0.00     0.166 C 
BRANCH  16  17
HETATM   17  O1  UNL     1     -23.835  -3.328  -5.844  1.00  0.00    -0.401 OA
ATOM     18  H1  UNL     1     -23.762  -3.179  -6.779  1.00  0.00     0.209 HD
ENDBRANCH  16  17
ENDBRANCH  15  16
ENDBRANCH   6  15
BRANCH   5  19
HETATM   19  C11 UNL     1     -21.594  -0.662  -1.502  1.00  0.00    -0.024 C 
HETATM   20  C12 UNL     1     -21.744   0.003  -0.390  1.00  0.00    -0.026 C 
BRANCH  20  21
HETATM   21  C13 UNL     1     -20.848  -0.278   0.762  1.00  0.00     0.008 C 
HETATM   22  C14 UNL     1     -20.787  -1.780   0.921  1.00  0.00     0.008 C 
HETATM   23  C15 UNL     1     -21.954  -2.126   1.788  1.00  0.00     0.001 C 
HETATM   24  C16 UNL     1     -22.494  -0.842   2.352  1.00  0.00     0.001 C 
HETATM   25  C17 UNL     1     -21.484   0.227   2.056  1.00  0.00     0.008 C 
ENDBRANCH  20  21
ENDBRANCH   5  19
TORSDOF 7
ENDMDL
