MODEL 1
REMARK VINA RESULT: -7.519637026      0.000      0.000
REMARK  8 active torsions:
REMARK  status: ('A' for Active; 'I' for Inactive)
REMARK    1  A    between atoms: C2_2  and  C3_3 
REMARK    2  A    between atoms: C3_3  and  C5_5 
REMARK    3  A    between atoms: C5_5  and  C7_7 
REMARK    4  A    between atoms: C7_7  and  C8_8 
REMARK    5  A    between atoms: C8_8  and  C9_9 
REMARK    6  A    between atoms: C12_12  and  O1_13 
REMARK    7  A    between atoms: C16_18  and  C17_19 
REMARK    8  A    between atoms: C17_19  and  O2_21 
ROOT
HETATM    1  C9  UNL     1     -21.319   0.668  -5.905  1.00  0.00     0.122 C 
HETATM    2  C10 UNL     1     -20.650  -0.609  -5.534  1.00  0.00     0.034 C 
HETATM    3  C11 UNL     1     -20.963  -1.115  -4.169  1.00  0.00     0.037 C 
HETATM    4  C12 UNL     1     -21.062   0.040  -3.223  1.00  0.00     0.152 C 
HETATM    5  C13 UNL     1     -22.024   1.095  -3.766  1.00  0.00     0.087 C 
HETATM    6  C14 UNL     1     -22.176   2.133  -2.707  1.00  0.00     0.041 C 
HETATM    7  C15 UNL     1     -23.533   2.781  -2.674  1.00  0.00     0.010 C 
HETATM    8  C16 UNL     1     -24.661   1.807  -2.627  1.00  0.00     0.014 C 
HETATM    9  C19 UNL     1     -24.241   0.401  -2.969  1.00  0.00     0.010 C 
HETATM   10  C20 UNL     1     -23.336   0.503  -4.188  1.00  0.00     0.041 C 
HETATM   11  O3  UNL     1     -21.379   1.609  -4.913  1.00  0.00    -0.372 OA
ENDROOT
BRANCH   4  12
HETATM   12  O1  UNL     1     -21.326  -0.305  -1.924  1.00  0.00    -0.393 OA
ATOM     13  H1  UNL     1     -21.499   0.428  -1.346  1.00  0.00     0.210 HD
ENDBRANCH   4  12
BRANCH   1  14
HETATM   14  C8  UNL     1     -20.575   1.268  -7.080  1.00  0.00     0.032 C 
BRANCH  14  15
HETATM   15  C7  UNL     1     -20.465   0.305  -8.229  1.00  0.00     0.007 C 
BRANCH  15  16
HETATM   16  C5  UNL     1     -21.309   0.651  -9.401  1.00  0.00    -0.015 C 
HETATM   17  C6  UNL     1     -21.698   2.092  -9.485  1.00  0.00     0.010 C 
BRANCH  16  18
HETATM   18  C3  UNL     1     -22.573  -0.184  -9.494  1.00  0.00    -0.015 C 
HETATM   19  C4  UNL     1     -23.711   0.493  -8.776  1.00  0.00     0.010 C 
BRANCH  18  20
HETATM   20  C2  UNL     1     -22.256  -1.519  -8.808  1.00  0.00    -0.000 C 
HETATM   21  C1  UNL     1     -23.376  -1.875  -7.832  1.00  0.00     0.005 C 
ENDBRANCH  18  20
ENDBRANCH  16  18
ENDBRANCH  15  16
ENDBRANCH  14  15
ENDBRANCH   1  14
BRANCH   8  22
HETATM   22  C17 UNL     1     -25.436   1.864  -1.330  1.00  0.00     0.118 C 
HETATM   23  C18 UNL     1     -24.592   1.480  -0.144  1.00  0.00     0.040 C 
BRANCH  22  24
HETATM   24  O2  UNL     1     -26.524   0.994  -1.362  1.00  0.00    -0.396 OA
ATOM     25  H2  UNL     1     -26.536   0.497  -2.172  1.00  0.00     0.210 HD
ENDBRANCH  22  24
ENDBRANCH   8  22
TORSDOF 8
ENDMDL
MODEL 2
REMARK VINA RESULT: -7.518543764      2.097      4.559
REMARK  8 active torsions:
REMARK  status: ('A' for Active; 'I' for Inactive)
REMARK    1  A    between atoms: C2_2  and  C3_3 
REMARK    2  A    between atoms: C3_3  and  C5_5 
REMARK    3  A    between atoms: C5_5  and  C7_7 
REMARK    4  A    between atoms: C7_7  and  C8_8 
REMARK    5  A    between atoms: C8_8  and  C9_9 
REMARK    6  A    between atoms: C12_12  and  O1_13 
REMARK    7  A    between atoms: C16_18  and  C17_19 
REMARK    8  A    between atoms: C17_19  and  O2_21 
ROOT
HETATM    1  C9  UNL     1     -22.202  -0.680  -5.905  1.00  0.00     0.122 C 
HETATM    2  C10 UNL     1     -22.832   0.623  -5.561  1.00  0.00     0.034 C 
HETATM    3  C11 UNL     1     -22.495   1.153  -4.211  1.00  0.00     0.037 C 
HETATM    4  C12 UNL     1     -22.419   0.018  -3.238  1.00  0.00     0.152 C 
HETATM    5  C13 UNL     1     -21.491  -1.075  -3.763  1.00  0.00     0.087 C 
HETATM    6  C14 UNL     1     -21.359  -2.091  -2.680  1.00  0.00     0.041 C 
HETATM    7  C15 UNL     1     -20.019  -2.775  -2.642  1.00  0.00     0.010 C 
HETATM    8  C16 UNL     1     -18.866  -1.831  -2.626  1.00  0.00     0.014 C 
HETATM    9  C19 UNL     1     -19.249  -0.423  -3.000  1.00  0.00     0.010 C 
HETATM   10  C20 UNL     1     -20.167  -0.529  -4.208  1.00  0.00     0.041 C 
HETATM   11  O3  UNL     1     -22.159  -1.598  -4.892  1.00  0.00    -0.372 OA
ENDROOT
BRANCH   4  12
HETATM   12  O1  UNL     1     -22.136   0.387  -1.950  1.00  0.00    -0.393 OA
ATOM     13  H1  UNL     1     -22.829   0.867  -1.512  1.00  0.00     0.210 HD
ENDBRANCH   4  12
BRANCH   1  14
HETATM   14  C8  UNL     1     -22.971  -1.287  -7.060  1.00  0.00     0.032 C 
BRANCH  14  15
HETATM   15  C7  UNL     1     -23.050  -0.356  -8.237  1.00  0.00     0.007 C 
BRANCH  15  16
HETATM   16  C5  UNL     1     -22.176  -0.733  -9.377  1.00  0.00    -0.015 C 
HETATM   17  C6  UNL     1     -21.752  -2.167  -9.389  1.00  0.00     0.010 C 
BRANCH  16  18
HETATM   18  C3  UNL     1     -20.931   0.127  -9.484  1.00  0.00    -0.015 C 
HETATM   19  C4  UNL     1     -19.781  -0.508  -8.748  1.00  0.00     0.010 C 
BRANCH  18  20
HETATM   20  C2  UNL     1     -21.279   1.470  -8.829  1.00  0.00    -0.000 C 
HETATM   21  C1  UNL     1     -20.173   1.871  -7.855  1.00  0.00     0.005 C 
ENDBRANCH  18  20
ENDBRANCH  16  18
ENDBRANCH  15  16
ENDBRANCH  14  15
ENDBRANCH   1  14
BRANCH   8  22
HETATM   22  C17 UNL     1     -18.081  -1.879  -1.334  1.00  0.00     0.118 C 
HETATM   23  C18 UNL     1     -18.920  -1.494  -0.145  1.00  0.00     0.040 C 
BRANCH  22  24
HETATM   24  O2  UNL     1     -16.998  -1.004  -1.378  1.00  0.00    -0.396 OA
ATOM     25  H2  UNL     1     -17.134  -0.267  -0.793  1.00  0.00     0.210 HD
ENDBRANCH  22  24
ENDBRANCH   8  22
TORSDOF 8
ENDMDL
MODEL 3
REMARK VINA RESULT: -7.509233360      1.018      1.124
REMARK  8 active torsions:
REMARK  status: ('A' for Active; 'I' for Inactive)
REMARK    1  A    between atoms: C2_2  and  C3_3 
REMARK    2  A    between atoms: C3_3  and  C5_5 
REMARK    3  A    between atoms: C5_5  and  C7_7 
REMARK    4  A    between atoms: C7_7  and  C8_8 
REMARK    5  A    between atoms: C8_8  and  C9_9 
REMARK    6  A    between atoms: C12_12  and  O1_13 
REMARK    7  A    between atoms: C16_18  and  C17_19 
REMARK    8  A    between atoms: C17_19  and  O2_21 
ROOT
HETATM    1  C9  UNL     1     -21.476   0.961  -5.927  1.00  0.00     0.122 C 
HETATM    2  C10 UNL     1     -21.303  -0.512  -6.050  1.00  0.00     0.034 C 
HETATM    3  C11 UNL     1     -21.776  -1.306  -4.884  1.00  0.00     0.037 C 
HETATM    4  C12 UNL     1     -21.463  -0.567  -3.621  1.00  0.00     0.152 C 
HETATM    5  C13 UNL     1     -21.989   0.865  -3.695  1.00  0.00     0.087 C 
HETATM    6  C14 UNL     1     -21.765   1.481  -2.356  1.00  0.00     0.041 C 
HETATM    7  C15 UNL     1     -22.806   2.496  -1.967  1.00  0.00     0.010 C 
HETATM    8  C16 UNL     1     -24.205   1.997  -2.094  1.00  0.00     0.014 C 
HETATM    9  C19 UNL     1     -24.309   0.730  -2.903  1.00  0.00     0.010 C 
HETATM   10  C20 UNL     1     -23.424   0.920  -4.125  1.00  0.00     0.041 C 
HETATM   11  O3  UNL     1     -21.201   1.483  -4.692  1.00  0.00    -0.372 OA
ENDROOT
BRANCH   4  12
HETATM   12  O1  UNL     1     -21.834  -1.213  -2.472  1.00  0.00    -0.393 OA
ATOM     13  H1  UNL     1     -22.770  -1.337  -2.371  1.00  0.00     0.210 HD
ENDBRANCH   4  12
BRANCH   1  14
HETATM   14  C8  UNL     1     -20.566   1.631  -6.935  1.00  0.00     0.032 C 
BRANCH  14  15
HETATM   15  C7  UNL     1     -20.301   0.753  -8.126  1.00  0.00     0.007 C 
BRANCH  15  16
HETATM   16  C5  UNL     1     -21.001   1.174  -9.366  1.00  0.00    -0.015 C 
HETATM   17  C6  UNL     1     -21.727   2.477  -9.260  1.00  0.00     0.010 C 
BRANCH  16  18
HETATM   18  C3  UNL     1     -21.975   0.133  -9.884  1.00  0.00    -0.015 C 
HETATM   19  C4  UNL     1     -23.243   0.139  -9.069  1.00  0.00     0.010 C 
BRANCH  18  20
HETATM   20  C2  UNL     1     -21.275  -1.224  -9.731  1.00  0.00    -0.000 C 
HETATM   21  C1  UNL     1     -22.257  -2.250  -9.169  1.00  0.00     0.005 C 
ENDBRANCH  18  20
ENDBRANCH  16  18
ENDBRANCH  15  16
ENDBRANCH  14  15
ENDBRANCH   1  14
BRANCH   8  22
HETATM   22  C17 UNL     1     -24.913   1.877  -0.763  1.00  0.00     0.118 C 
HETATM   23  C18 UNL     1     -26.354   2.307  -0.844  1.00  0.00     0.040 C 
BRANCH  22  24
HETATM   24  O2  UNL     1     -24.297   2.673   0.200  1.00  0.00    -0.396 OA
ATOM     25  H2  UNL     1     -24.830   3.433   0.402  1.00  0.00     0.210 HD
ENDBRANCH  22  24
ENDBRANCH   8  22
TORSDOF 8
ENDMDL
MODEL 4
REMARK VINA RESULT: -7.500737756      2.242      4.470
REMARK  8 active torsions:
REMARK  status: ('A' for Active; 'I' for Inactive)
REMARK    1  A    between atoms: C2_2  and  C3_3 
REMARK    2  A    between atoms: C3_3  and  C5_5 
REMARK    3  A    between atoms: C5_5  and  C7_7 
REMARK    4  A    between atoms: C7_7  and  C8_8 
REMARK    5  A    between atoms: C8_8  and  C9_9 
REMARK    6  A    between atoms: C12_12  and  O1_13 
REMARK    7  A    between atoms: C16_18  and  C17_19 
REMARK    8  A    between atoms: C17_19  and  O2_21 
ROOT
HETATM    1  C9  UNL     1     -22.011  -0.935  -5.889  1.00  0.00     0.122 C 
HETATM    2  C10 UNL     1     -22.173   0.539  -6.011  1.00  0.00     0.034 C 
HETATM    3  C11 UNL     1     -21.697   1.329  -4.843  1.00  0.00     0.037 C 
HETATM    4  C12 UNL     1     -22.018   0.590  -3.581  1.00  0.00     0.152 C 
HETATM    5  C13 UNL     1     -21.502  -0.845  -3.656  1.00  0.00     0.087 C 
HETATM    6  C14 UNL     1     -21.732  -1.461  -2.319  1.00  0.00     0.041 C 
HETATM    7  C15 UNL     1     -20.699  -2.484  -1.928  1.00  0.00     0.010 C 
HETATM    8  C16 UNL     1     -19.296  -1.994  -2.053  1.00  0.00     0.014 C 
HETATM    9  C19 UNL     1     -19.182  -0.727  -2.859  1.00  0.00     0.010 C 
HETATM   10  C20 UNL     1     -20.066  -0.910  -4.083  1.00  0.00     0.041 C 
HETATM   11  O3  UNL     1     -22.291  -1.456  -4.656  1.00  0.00    -0.372 OA
ENDROOT
BRANCH   4  12
HETATM   12  O1  UNL     1     -21.645   1.233  -2.431  1.00  0.00    -0.393 OA
ATOM     13  H1  UNL     1     -22.216   1.946  -2.171  1.00  0.00     0.210 HD
ENDBRANCH   4  12
BRANCH   1  14
HETATM   14  C8  UNL     1     -22.923  -1.597  -6.900  1.00  0.00     0.032 C 
BRANCH  14  15
HETATM   15  C7  UNL     1     -23.185  -0.714  -8.088  1.00  0.00     0.007 C 
BRANCH  15  16
HETATM   16  C5  UNL     1     -22.500  -1.142  -9.334  1.00  0.00    -0.015 C 
HETATM   17  C6  UNL     1     -21.774  -2.445  -9.229  1.00  0.00     0.010 C 
BRANCH  16  18
HETATM   18  C3  UNL     1     -21.530  -0.105  -9.868  1.00  0.00    -0.015 C 
HETATM   19  C4  UNL     1     -20.260  -0.098  -9.058  1.00  0.00     0.010 C 
BRANCH  18  20
HETATM   20  C2  UNL     1     -22.233   1.251  -9.730  1.00  0.00    -0.000 C 
HETATM   21  C1  UNL     1     -21.270   2.274  -9.131  1.00  0.00     0.005 C 
ENDBRANCH  18  20
ENDBRANCH  16  18
ENDBRANCH  15  16
ENDBRANCH  14  15
ENDBRANCH   1  14
BRANCH   8  22
HETATM   22  C17 UNL     1     -18.590  -1.881  -0.720  1.00  0.00     0.118 C 
HETATM   23  C18 UNL     1     -17.136  -2.259  -0.813  1.00  0.00     0.040 C 
BRANCH  22  24
HETATM   24  O2  UNL     1     -19.176  -2.720   0.225  1.00  0.00    -0.396 OA
ATOM     25  H2  UNL     1     -18.521  -3.263   0.648  1.00  0.00     0.210 HD
ENDBRANCH  22  24
ENDBRANCH   8  22
TORSDOF 8
ENDMDL
MODEL 5
REMARK VINA RESULT: -7.148548398      2.217      7.097
REMARK  8 active torsions:
REMARK  status: ('A' for Active; 'I' for Inactive)
REMARK    1  A    between atoms: C2_2  and  C3_3 
REMARK    2  A    between atoms: C3_3  and  C5_5 
REMARK    3  A    between atoms: C5_5  and  C7_7 
REMARK    4  A    between atoms: C7_7  and  C8_8 
REMARK    5  A    between atoms: C8_8  and  C9_9 
REMARK    6  A    between atoms: C12_12  and  O1_13 
REMARK    7  A    between atoms: C16_18  and  C17_19 
REMARK    8  A    between atoms: C17_19  and  O2_21 
ROOT
HETATM    1  C9  UNL     1     -21.978   0.245  -4.479  1.00  0.00     0.122 C 
HETATM    2  C10 UNL     1     -22.349  -1.089  -3.935  1.00  0.00     0.034 C 
HETATM    3  C11 UNL     1     -22.548  -2.156  -4.954  1.00  0.00     0.037 C 
HETATM    4  C12 UNL     1     -23.210  -1.572  -6.162  1.00  0.00     0.152 C 
HETATM    5  C13 UNL     1     -22.450  -0.339  -6.645  1.00  0.00     0.087 C 
HETATM    6  C14 UNL     1     -23.085   0.092  -7.922  1.00  0.00     0.041 C 
HETATM    7  C15 UNL     1     -22.129   0.717  -8.902  1.00  0.00     0.010 C 
HETATM    8  C16 UNL     1     -20.917  -0.109  -9.165  1.00  0.00     0.014 C 
HETATM    9  C19 UNL     1     -20.723  -1.212  -8.158  1.00  0.00     0.010 C 
HETATM   10  C20 UNL     1     -20.980  -0.600  -6.789  1.00  0.00     0.041 C 
HETATM   11  O3  UNL     1     -22.633   0.617  -5.621  1.00  0.00    -0.372 OA
ENDROOT
BRANCH   4  12
HETATM   12  O1  UNL     1     -23.466  -2.469  -7.164  1.00  0.00    -0.393 OA
ATOM     13  H1  UNL     1     -22.936  -2.354  -7.944  1.00  0.00     0.210 HD
ENDBRANCH   4  12
BRANCH   1  14
HETATM   14  C8  UNL     1     -22.257   1.285  -3.415  1.00  0.00     0.032 C 
BRANCH  14  15
HETATM   15  C7  UNL     1     -23.197   0.774  -2.359  1.00  0.00     0.007 C 
BRANCH  15  16
HETATM   16  C5  UNL     1     -24.550   1.386  -2.394  1.00  0.00    -0.015 C 
HETATM   17  C6  UNL     1     -24.724   2.453  -3.426  1.00  0.00     0.010 C 
BRANCH  16  18
HETATM   18  C3  UNL     1     -24.984   1.950  -1.055  1.00  0.00    -0.015 C 
HETATM   19  C4  UNL     1     -24.192   1.328   0.066  1.00  0.00     0.010 C 
BRANCH  18  20
HETATM   20  C2  UNL     1     -26.466   1.590  -0.897  1.00  0.00    -0.000 C 
HETATM   21  C1  UNL     1     -27.141   2.583   0.047  1.00  0.00     0.005 C 
ENDBRANCH  18  20
ENDBRANCH  16  18
ENDBRANCH  15  16
ENDBRANCH  14  15
ENDBRANCH   1  14
BRANCH   8  22
HETATM   22  C17 UNL     1     -20.850  -0.623 -10.586  1.00  0.00     0.118 C 
HETATM   23  C18 UNL     1     -21.884   0.018 -11.472  1.00  0.00     0.040 C 
BRANCH  22  24
HETATM   24  O2  UNL     1     -21.067  -1.999 -10.627  1.00  0.00    -0.396 OA
ATOM     25  H2  UNL     1     -21.165  -2.353  -9.750  1.00  0.00     0.210 HD
ENDBRANCH  22  24
ENDBRANCH   8  22
TORSDOF 8
ENDMDL
