MODEL 1
REMARK VINA RESULT: -7.331419941      0.000      0.000
REMARK  5 active torsions:
REMARK  status: ('A' for Active; 'I' for Inactive)
REMARK    1  A    between atoms: C4_8  and  S1_9 
REMARK    2  A    between atoms: S1_9  and  C5_10 
REMARK    3  A    between atoms: C5_10  and  C7_12 
REMARK    4  A    between atoms: C8_13  and  C9_14 
REMARK    5  A    between atoms: C9_14  and  C10_15 
ROOT
HETATM    1  C9  UNL     1     -21.434  -0.212  -3.669  1.00  0.00    -0.016 C 
HETATM    2  C15 UNL     1     -21.880  -1.677  -3.441  1.00  0.00     0.041 C 
HETATM    3  C16 UNL     1     -20.771  -2.467  -2.773  1.00  0.00     0.233 C 
HETATM    4  N3  UNL     1     -20.775  -2.135  -1.384  1.00  0.00    -0.075 N 
ATOM      5  H31 UNL     1     -19.929  -2.454  -0.912  1.00  0.00     0.277 HD
ATOM      6  H32 UNL     1     -21.453  -2.688  -0.861  1.00  0.00     0.277 HD
HETATM    7  C17 UNL     1     -20.986  -0.728  -1.218  1.00  0.00     0.233 C 
HETATM    8  C18 UNL     1     -20.615   0.074  -2.446  1.00  0.00     0.041 C 
ENDROOT
BRANCH   1   9
HETATM    9  C8  UNL     1     -20.679  -0.305  -4.947  1.00  0.00    -0.019 C 
HETATM   10  C7  UNL     1     -21.089  -1.068  -6.095  1.00  0.00    -0.015 C 
BRANCH  10  11
HETATM   11  C5  UNL     1     -22.322  -0.822  -6.853  1.00  0.00     0.072 C 
HETATM   12  C6  UNL     1     -23.281  -2.001  -6.641  1.00  0.00     0.026 C 
BRANCH  11  13
HETATM   13  S1  UNL     1     -22.039  -0.770  -8.664  1.00  0.00    -0.102 SA
BRANCH  13  14
HETATM   14  C4  UNL     1     -21.996   0.921  -9.238  1.00  0.00     0.093 A 
HETATM   15  C2  UNL     1     -21.142   1.922  -8.838  1.00  0.00     0.040 A 
HETATM   16  C1  UNL     1     -20.053   1.838  -7.839  1.00  0.00     0.071 C 
HETATM   17  N1  UNL     1     -21.434   3.065  -9.510  1.00  0.00    -0.354 N 
HETATM   18  C3  UNL     1     -22.465   2.791 -10.329  1.00  0.00     0.181 A 
ATOM     19  H1  UNL     1     -20.960   3.962  -9.413  1.00  0.00     0.166 HD
HETATM   20  N2  UNL     1     -22.808   1.492 -10.166  1.00  0.00    -0.345 N 
ATOM     21  H2  UNL     1     -23.560   1.015 -10.664  1.00  0.00     0.167 HD
ENDBRANCH  13  14
ENDBRANCH  11  13
ENDBRANCH  10  11
ENDBRANCH   1   9
BRANCH   1  22
HETATM   22  C10 UNL     1     -22.656   0.628  -3.724  1.00  0.00    -0.002 C 
HETATM   23  C11 UNL     1     -23.888  -0.010  -3.139  1.00  0.00     0.005 C 
HETATM   24  C12 UNL     1     -24.847   1.134  -2.837  1.00  0.00     0.000 C 
HETATM   25  C13 UNL     1     -24.102   2.409  -3.104  1.00  0.00     0.000 C 
HETATM   26  C14 UNL     1     -22.644   1.936  -3.030  1.00  0.00     0.005 C 
ENDBRANCH   1  22
TORSDOF 5
ENDMDL
MODEL 2
REMARK VINA RESULT: -7.306855015      2.273      4.119
REMARK  5 active torsions:
REMARK  status: ('A' for Active; 'I' for Inactive)
REMARK    1  A    between atoms: C4_8  and  S1_9 
REMARK    2  A    between atoms: S1_9  and  C5_10 
REMARK    3  A    between atoms: C5_10  and  C7_12 
REMARK    4  A    between atoms: C8_13  and  C9_14 
REMARK    5  A    between atoms: C9_14  and  C10_15 
ROOT
HETATM    1  C9  UNL     1     -22.103   0.244  -3.675  1.00  0.00    -0.016 C 
HETATM    2  C15 UNL     1     -21.654   1.707  -3.438  1.00  0.00     0.041 C 
HETATM    3  C16 UNL     1     -22.759   2.495  -2.762  1.00  0.00     0.233 C 
HETATM    4  N3  UNL     1     -22.751   2.154  -1.375  1.00  0.00    -0.075 N 
ATOM      5  H31 UNL     1     -23.596   2.471  -0.899  1.00  0.00     0.277 HD
ATOM      6  H32 UNL     1     -22.071   2.702  -0.850  1.00  0.00     0.277 HD
HETATM    7  C17 UNL     1     -22.542   0.746  -1.219  1.00  0.00     0.233 C 
HETATM    8  C18 UNL     1     -22.919  -0.048  -2.450  1.00  0.00     0.041 C 
ENDROOT
BRANCH   1   9
HETATM    9  C8  UNL     1     -22.861   0.348  -4.949  1.00  0.00    -0.019 C 
HETATM   10  C7  UNL     1     -22.442   1.097  -6.102  1.00  0.00    -0.015 C 
BRANCH  10  11
HETATM   11  C5  UNL     1     -21.217   0.823  -6.865  1.00  0.00     0.072 C 
HETATM   12  C6  UNL     1     -20.232   1.981  -6.657  1.00  0.00     0.026 C 
BRANCH  11  13
HETATM   13  S1  UNL     1     -21.508   0.777  -8.675  1.00  0.00    -0.102 SA
BRANCH  13  14
HETATM   14  C4  UNL     1     -21.526  -0.911  -9.258  1.00  0.00     0.093 A 
HETATM   15  C2  UNL     1     -22.331  -1.940  -8.828  1.00  0.00     0.040 A 
HETATM   16  C1  UNL     1     -23.376  -1.894  -7.781  1.00  0.00     0.071 C 
HETATM   17  N1  UNL     1     -22.036  -3.070  -9.520  1.00  0.00    -0.354 N 
HETATM   18  C3  UNL     1     -21.050  -2.760 -10.382  1.00  0.00     0.181 A 
ATOM     19  H1  UNL     1     -22.478  -3.982  -9.409  1.00  0.00     0.166 HD
HETATM   20  N2  UNL     1     -20.739  -1.452 -10.226  1.00  0.00    -0.345 N 
ATOM     21  H2  UNL     1     -20.025  -0.950 -10.752  1.00  0.00     0.167 HD
ENDBRANCH  13  14
ENDBRANCH  11  13
ENDBRANCH  10  11
ENDBRANCH   1   9
BRANCH   1  22
HETATM   22  C10 UNL     1     -20.883  -0.597  -3.738  1.00  0.00    -0.002 C 
HETATM   23  C11 UNL     1     -19.660   0.013  -3.104  1.00  0.00     0.005 C 
HETATM   24  C12 UNL     1     -18.711  -1.146  -2.828  1.00  0.00     0.000 C 
HETATM   25  C13 UNL     1     -19.454  -2.407  -3.162  1.00  0.00     0.000 C 
HETATM   26  C14 UNL     1     -20.912  -1.931  -3.098  1.00  0.00     0.005 C 
ENDBRANCH   1  22
TORSDOF 5
ENDMDL
MODEL 3
REMARK VINA RESULT: -7.097303189      1.951      2.816
REMARK  5 active torsions:
REMARK  status: ('A' for Active; 'I' for Inactive)
REMARK    1  A    between atoms: C4_8  and  S1_9 
REMARK    2  A    between atoms: S1_9  and  C5_10 
REMARK    3  A    between atoms: C5_10  and  C7_12 
REMARK    4  A    between atoms: C8_13  and  C9_14 
REMARK    5  A    between atoms: C9_14  and  C10_15 
ROOT
HETATM    1  C9  UNL     1     -21.459  -0.407  -3.698  1.00  0.00    -0.016 C 
HETATM    2  C15 UNL     1     -21.506  -1.850  -3.138  1.00  0.00     0.041 C 
HETATM    3  C16 UNL     1     -20.181  -2.550  -3.373  1.00  0.00     0.233 C 
HETATM    4  N3  UNL     1     -19.260  -2.082  -2.389  1.00  0.00    -0.075 N 
ATOM      5  H31 UNL     1     -18.297  -2.336  -2.613  1.00  0.00     0.277 HD
ATOM      6  H32 UNL     1     -19.346  -2.592  -1.510  1.00  0.00     0.277 HD
HETATM    7  C17 UNL     1     -19.413  -0.669  -2.207  1.00  0.00     0.233 C 
HETATM    8  C18 UNL     1     -20.051   0.014  -3.397  1.00  0.00     0.041 C 
ENDROOT
BRANCH   1   9
HETATM    9  C8  UNL     1     -21.781  -0.614  -5.135  1.00  0.00    -0.019 C 
HETATM   10  C7  UNL     1     -21.605   0.367  -6.171  1.00  0.00    -0.015 C 
BRANCH  10  11
HETATM   11  C5  UNL     1     -20.308   0.938  -6.554  1.00  0.00     0.072 C 
HETATM   12  C6  UNL     1     -20.282   2.422  -6.162  1.00  0.00     0.026 C 
BRANCH  11  13
HETATM   13  S1  UNL     1     -20.041   0.931  -8.369  1.00  0.00    -0.102 SA
BRANCH  13  14
HETATM   14  C4  UNL     1     -20.785  -0.519  -9.099  1.00  0.00     0.093 A 
HETATM   15  C2  UNL     1     -21.667  -0.571 -10.152  1.00  0.00     0.040 A 
HETATM   16  C1  UNL     1     -22.210   0.563 -10.935  1.00  0.00     0.071 C 
HETATM   17  N1  UNL     1     -22.000  -1.863 -10.405  1.00  0.00    -0.354 N 
HETATM   18  C3  UNL     1     -21.335  -2.624  -9.518  1.00  0.00     0.181 A 
ATOM     19  H1  UNL     1     -22.635  -2.194 -11.131  1.00  0.00     0.166 HD
HETATM   20  N2  UNL     1     -20.597  -1.813  -8.725  1.00  0.00    -0.345 N 
ATOM     21  H2  UNL     1     -19.993  -2.124  -7.964  1.00  0.00     0.167 HD
ENDBRANCH  13  14
ENDBRANCH  11  13
ENDBRANCH  10  11
ENDBRANCH   1   9
BRANCH   1  22
HETATM   22  C10 UNL     1     -22.449   0.401  -2.945  1.00  0.00    -0.002 C 
HETATM   23  C11 UNL     1     -22.243   1.891  -3.026  1.00  0.00     0.005 C 
HETATM   24  C12 UNL     1     -23.577   2.519  -2.644  1.00  0.00     0.000 C 
HETATM   25  C13 UNL     1     -24.562   1.396  -2.502  1.00  0.00     0.000 C 
HETATM   26  C14 UNL     1     -23.879   0.282  -3.309  1.00  0.00     0.005 C 
ENDBRANCH   1  22
TORSDOF 5
ENDMDL
MODEL 4
REMARK VINA RESULT: -7.081704492      1.680      3.296
REMARK  5 active torsions:
REMARK  status: ('A' for Active; 'I' for Inactive)
REMARK    1  A    between atoms: C4_8  and  S1_9 
REMARK    2  A    between atoms: S1_9  and  C5_10 
REMARK    3  A    between atoms: C5_10  and  C7_12 
REMARK    4  A    between atoms: C8_13  and  C9_14 
REMARK    5  A    between atoms: C9_14  and  C10_15 
ROOT
HETATM    1  C9  UNL     1     -22.072   0.431  -3.688  1.00  0.00    -0.016 C 
HETATM    2  C15 UNL     1     -22.019   1.874  -3.129  1.00  0.00     0.041 C 
HETATM    3  C16 UNL     1     -23.335   2.585  -3.376  1.00  0.00     0.233 C 
HETATM    4  N3  UNL     1     -24.269   2.125  -2.399  1.00  0.00    -0.075 N 
ATOM      5  H31 UNL     1     -25.227   2.387  -2.632  1.00  0.00     0.277 HD
ATOM      6  H32 UNL     1     -24.185   2.635  -1.520  1.00  0.00     0.277 HD
HETATM    7  C17 UNL     1     -24.129   0.711  -2.215  1.00  0.00     0.233 C 
HETATM    8  C18 UNL     1     -23.486   0.022  -3.398  1.00  0.00     0.041 C 
ENDROOT
BRANCH   1   9
HETATM    9  C8  UNL     1     -21.737   0.634  -5.122  1.00  0.00    -0.019 C 
HETATM   10  C7  UNL     1     -21.906  -0.350  -6.157  1.00  0.00    -0.015 C 
BRANCH  10  11
HETATM   11  C5  UNL     1     -23.200  -0.920  -6.551  1.00  0.00     0.072 C 
HETATM   12  C6  UNL     1     -23.240  -2.398  -6.136  1.00  0.00     0.026 C 
BRANCH  11  13
HETATM   13  S1  UNL     1     -23.439  -0.940  -8.369  1.00  0.00    -0.102 SA
BRANCH  13  14
HETATM   14  C4  UNL     1     -22.720   0.519  -9.105  1.00  0.00     0.093 A 
HETATM   15  C2  UNL     1     -21.850   0.582 -10.168  1.00  0.00     0.040 A 
HETATM   16  C1  UNL     1     -21.302  -0.544 -10.958  1.00  0.00     0.071 C 
HETATM   17  N1  UNL     1     -21.534   1.878 -10.423  1.00  0.00    -0.354 N 
HETATM   18  C3  UNL     1     -22.198   2.631  -9.527  1.00  0.00     0.181 A 
ATOM     19  H1  UNL     1     -20.911   2.217 -11.155  1.00  0.00     0.166 HD
HETATM   20  N2  UNL     1     -22.918   1.810  -8.727  1.00  0.00    -0.345 N 
ATOM     21  H2  UNL     1     -23.517   2.114  -7.959  1.00  0.00     0.167 HD
ENDBRANCH  13  14
ENDBRANCH  11  13
ENDBRANCH  10  11
ENDBRANCH   1   9
BRANCH   1  22
HETATM   22  C10 UNL     1     -21.095  -0.384  -2.925  1.00  0.00    -0.002 C 
HETATM   23  C11 UNL     1     -21.318  -1.872  -3.000  1.00  0.00     0.005 C 
HETATM   24  C12 UNL     1     -19.992  -2.513  -2.609  1.00  0.00     0.000 C 
HETATM   25  C13 UNL     1     -18.996  -1.400  -2.466  1.00  0.00     0.000 C 
HETATM   26  C14 UNL     1     -19.662  -0.283  -3.282  1.00  0.00     0.005 C 
ENDBRANCH   1  22
TORSDOF 5
ENDMDL
MODEL 5
REMARK VINA RESULT: -7.068899580      1.897      3.399
REMARK  5 active torsions:
REMARK  status: ('A' for Active; 'I' for Inactive)
REMARK    1  A    between atoms: C4_8  and  S1_9 
REMARK    2  A    between atoms: S1_9  and  C5_10 
REMARK    3  A    between atoms: C5_10  and  C7_12 
REMARK    4  A    between atoms: C8_13  and  C9_14 
REMARK    5  A    between atoms: C9_14  and  C10_15 
ROOT
HETATM    1  C9  UNL     1     -22.263   0.079  -2.313  1.00  0.00    -0.016 C 
HETATM    2  C15 UNL     1     -21.942   1.509  -2.811  1.00  0.00     0.041 C 
HETATM    3  C16 UNL     1     -23.009   2.482  -2.346  1.00  0.00     0.233 C 
HETATM    4  N3  UNL     1     -22.754   2.784  -0.974  1.00  0.00    -0.075 N 
ATOM      5  H31 UNL     1     -23.545   3.253  -0.532  1.00  0.00     0.277 HD
ATOM      6  H32 UNL     1     -22.063   3.527  -0.868  1.00  0.00     0.277 HD
HETATM    7  C17 UNL     1     -22.374   1.594  -0.272  1.00  0.00     0.233 C 
HETATM    8  C18 UNL     1     -22.848   0.330  -0.954  1.00  0.00     0.041 C 
ENDROOT
BRANCH   1   9
HETATM    9  C8  UNL     1     -23.214  -0.410  -3.347  1.00  0.00    -0.019 C 
HETATM   10  C7  UNL     1     -23.172  -0.059  -4.740  1.00  0.00    -0.015 C 
BRANCH  10  11
HETATM   11  C5  UNL     1     -22.053  -0.370  -5.637  1.00  0.00     0.072 C 
HETATM   12  C6  UNL     1     -21.391   0.942  -6.081  1.00  0.00     0.026 C 
BRANCH  11  13
HETATM   13  S1  UNL     1     -22.597  -1.168  -7.196  1.00  0.00    -0.102 SA
BRANCH  13  14
HETATM   14  C4  UNL     1     -22.298  -0.086  -8.585  1.00  0.00     0.093 A 
HETATM   15  C2  UNL     1     -21.113   0.115  -9.253  1.00  0.00     0.040 A 
HETATM   16  C1  UNL     1     -19.803  -0.519  -8.983  1.00  0.00     0.071 C 
HETATM   17  N1  UNL     1     -21.299   1.017 -10.250  1.00  0.00    -0.354 N 
HETATM   18  C3  UNL     1     -22.592   1.387 -10.214  1.00  0.00     0.181 A 
ATOM     19  H1  UNL     1     -20.592   1.352 -10.905  1.00  0.00     0.166 HD
HETATM   20  N2  UNL     1     -23.200   0.719  -9.205  1.00  0.00    -0.345 N 
ATOM     21  H2  UNL     1     -24.184   0.807  -8.950  1.00  0.00     0.167 HD
ENDBRANCH  13  14
ENDBRANCH  11  13
ENDBRANCH  10  11
ENDBRANCH   1   9
BRANCH   1  22
HETATM   22  C10 UNL     1     -20.985  -0.669  -2.234  1.00  0.00    -0.002 C 
HETATM   23  C11 UNL     1     -21.050  -2.088  -2.736  1.00  0.00     0.005 C 
HETATM   24  C12 UNL     1     -19.612  -2.490  -3.038  1.00  0.00     0.000 C 
HETATM   25  C13 UNL     1     -18.768  -1.262  -2.855  1.00  0.00     0.000 C 
HETATM   26  C14 UNL     1     -19.816  -0.147  -2.979  1.00  0.00     0.005 C 
ENDBRANCH   1  22
TORSDOF 5
ENDMDL
