MODEL 1
REMARK VINA RESULT: -7.414694769      0.000      0.000
REMARK  10 active torsions:
REMARK  status: ('A' for Active; 'I' for Inactive)
REMARK    1  A    between atoms: C3_3  and  C4_4 
REMARK    2  A    between atoms: C4_4  and  C6_6 
REMARK    3  A    between atoms: C6_6  and  C7_7 
REMARK    4  A    between atoms: C7_7  and  C8_8 
REMARK    5  A    between atoms: C8_8  and  O1_9 
REMARK    6  A    between atoms: C8_8  and  C9_11 
REMARK    7  A    between atoms: C13_15  and  C15_17 
REMARK    8  A    between atoms: C15_17  and  C16_18 
REMARK    9  A    between atoms: C16_18  and  S1_19 
REMARK   10  A    between atoms: S1_19  and  N1_20 
ROOT
HETATM    1  C9  UNL     1      21.978  -1.169 -25.761  1.00  0.00    -0.051 C 
HETATM    2  C10 UNL     1      20.649  -1.209 -25.771  1.00  0.00    -0.021 C 
HETATM    3  C11 UNL     1      19.970  -1.197 -27.084  1.00  0.00     0.033 C 
HETATM    4  C12 UNL     1      20.637  -0.352 -28.133  1.00  0.00     0.005 C 
HETATM    5  C13 UNL     1      20.102  -0.775 -29.490  1.00  0.00    -0.039 C 
HETATM    6  C14 UNL     1      20.474  -2.167 -29.858  1.00  0.00     0.015 C 
HETATM    7  C17 UNL     1      20.681   0.277 -30.450  1.00  0.00     0.010 C 
HETATM    8  C18 UNL     1      22.135   0.010 -30.569  1.00  0.00     0.002 C 
HETATM    9  C19 UNL     1      22.858  -0.305 -29.330  1.00  0.00     0.010 C 
HETATM   10  C20 UNL     1      22.089  -0.190 -28.039  1.00  0.00    -0.036 C 
HETATM   11  C21 UNL     1      22.410   1.230 -27.533  1.00  0.00     0.016 C 
HETATM   12  C22 UNL     1      22.689  -1.130 -27.030  1.00  0.00     0.046 C 
ENDROOT
BRANCH   1  13
HETATM   13  C8  UNL     1      22.643  -1.187 -24.396  1.00  0.00     0.170 C 
BRANCH  13  14
HETATM   14  C7  UNL     1      22.949   0.204 -24.013  1.00  0.00     0.009 C 
BRANCH  14  15
HETATM   15  C6  UNL     1      22.423   0.845 -22.859  1.00  0.00     0.005 C 
BRANCH  15  16
HETATM   16  C4  UNL     1      21.443   1.708 -22.697  1.00  0.00    -0.062 C 
HETATM   17  C5  UNL     1      21.625   2.947 -21.954  1.00  0.00     0.048 C 
BRANCH  16  18
HETATM   18  C3  UNL     1      20.139   1.307 -23.205  1.00  0.00     0.002 C 
HETATM   19  C2  UNL     1      19.489   1.574 -24.278  1.00  0.00    -0.030 C 
HETATM   20  C1  UNL     1      19.767   2.388 -25.456  1.00  0.00     0.036 C 
ENDBRANCH  16  18
ENDBRANCH  15  16
ENDBRANCH  14  15
ENDBRANCH  13  14
BRANCH  13  21
HETATM   21  O1  UNL     1      23.812  -1.968 -24.546  1.00  0.00    -0.387 OA
ATOM     22  H1  UNL     1      24.099  -2.014 -25.450  1.00  0.00     0.210 HD
ENDBRANCH  13  21
ENDBRANCH   1  13
BRANCH   5  23
HETATM   23  C15 UNL     1      18.601  -0.676 -29.496  1.00  0.00     0.024 C 
BRANCH  23  24
HETATM   24  C16 UNL     1      17.854  -1.942 -29.674  1.00  0.00     0.132 C 
BRANCH  24  25
HETATM   25  S1  UNL     1      16.918  -1.772 -31.232  1.00  0.00     0.107 S 
HETATM   26  O2  UNL     1      15.809  -0.741 -31.043  1.00  0.00    -0.236 OA
BRANCH  25  27
HETATM   27  N1  UNL     1      17.953  -1.196 -32.508  1.00  0.00    -0.350 NA
ATOM     28  H12 UNL     1      17.396  -1.162 -33.361  1.00  0.00     0.166 HD
ATOM     29  H11 UNL     1      18.299  -0.260 -32.294  1.00  0.00     0.166 HD
ENDBRANCH  25  27
ENDBRANCH  24  25
ENDBRANCH  23  24
ENDBRANCH   5  23
TORSDOF 10
ENDMDL
MODEL 2
REMARK VINA RESULT: -7.399628323      3.320      4.713
REMARK  10 active torsions:
REMARK  status: ('A' for Active; 'I' for Inactive)
REMARK    1  A    between atoms: C3_3  and  C4_4 
REMARK    2  A    between atoms: C4_4  and  C6_6 
REMARK    3  A    between atoms: C6_6  and  C7_7 
REMARK    4  A    between atoms: C7_7  and  C8_8 
REMARK    5  A    between atoms: C8_8  and  O1_9 
REMARK    6  A    between atoms: C8_8  and  C9_11 
REMARK    7  A    between atoms: C13_15  and  C15_17 
REMARK    8  A    between atoms: C15_17  and  C16_18 
REMARK    9  A    between atoms: C16_18  and  S1_19 
REMARK   10  A    between atoms: S1_19  and  N1_20 
ROOT
HETATM    1  C9  UNL     1      20.891  -0.060 -26.077  1.00  0.00    -0.051 C 
HETATM    2  C10 UNL     1      22.209   0.091 -26.001  1.00  0.00    -0.021 C 
HETATM    3  C11 UNL     1      22.920   0.555 -27.212  1.00  0.00     0.033 C 
HETATM    4  C12 UNL     1      22.364   0.036 -28.508  1.00  0.00     0.005 C 
HETATM    5  C13 UNL     1      22.890   0.913 -29.631  1.00  0.00    -0.039 C 
HETATM    6  C14 UNL     1      22.395   2.313 -29.561  1.00  0.00     0.015 C 
HETATM    7  C17 UNL     1      22.438   0.178 -30.905  1.00  0.00     0.010 C 
HETATM    8  C18 UNL     1      20.969   0.347 -31.012  1.00  0.00     0.002 C 
HETATM    9  C19 UNL     1      20.188   0.190 -29.778  1.00  0.00     0.010 C 
HETATM   10  C20 UNL     1      20.931  -0.267 -28.550  1.00  0.00    -0.036 C 
HETATM   11  C21 UNL     1      20.735  -1.795 -28.536  1.00  0.00     0.016 C 
HETATM   12  C22 UNL     1      20.219   0.249 -27.330  1.00  0.00     0.046 C 
ENDROOT
BRANCH   1  13
HETATM   13  C8  UNL     1      20.192  -0.534 -24.814  1.00  0.00     0.170 C 
BRANCH  13  14
HETATM   14  C7  UNL     1      19.891   0.646 -23.982  1.00  0.00     0.009 C 
BRANCH  14  15
HETATM   15  C6  UNL     1      20.860   1.606 -23.582  1.00  0.00     0.005 C 
BRANCH  15  16
HETATM   16  C4  UNL     1      21.540   1.762 -22.466  1.00  0.00    -0.062 C 
HETATM   17  C5  UNL     1      21.765   3.076 -21.883  1.00  0.00     0.048 C 
BRANCH  16  18
HETATM   18  C3  UNL     1      22.149   0.564 -21.907  1.00  0.00     0.002 C 
HETATM   19  C2  UNL     1      21.896  -0.156 -20.877  1.00  0.00    -0.030 C 
HETATM   20  C1  UNL     1      20.895  -0.095 -19.817  1.00  0.00     0.036 C 
ENDBRANCH  16  18
ENDBRANCH  15  16
ENDBRANCH  14  15
ENDBRANCH  13  14
BRANCH  13  21
HETATM   21  O1  UNL     1      21.097  -1.417 -24.180  1.00  0.00    -0.387 OA
ATOM     22  H1  UNL     1      22.001  -1.160 -24.315  1.00  0.00     0.210 HD
ENDBRANCH  13  21
ENDBRANCH   1  13
BRANCH   5  23
HETATM   23  C15 UNL     1      24.393   0.946 -29.586  1.00  0.00     0.024 C 
BRANCH  23  24
HETATM   24  C16 UNL     1      25.040   2.212 -29.994  1.00  0.00     0.132 C 
BRANCH  24  25
HETATM   25  S1  UNL     1      26.188   1.790 -31.350  1.00  0.00     0.107 S 
HETATM   26  O2  UNL     1      27.066   0.620 -30.921  1.00  0.00    -0.236 OA
BRANCH  25  27
HETATM   27  N1  UNL     1      25.304   1.288 -32.764  1.00  0.00    -0.350 NA
ATOM     28  H12 UNL     1      25.586   1.898 -33.532  1.00  0.00     0.166 HD
ATOM     29  H11 UNL     1      25.528   0.322 -33.002  1.00  0.00     0.166 HD
ENDBRANCH  25  27
ENDBRANCH  24  25
ENDBRANCH  23  24
ENDBRANCH   5  23
TORSDOF 10
ENDMDL
MODEL 3
REMARK VINA RESULT: -7.396982792      1.771      2.485
REMARK  10 active torsions:
REMARK  status: ('A' for Active; 'I' for Inactive)
REMARK    1  A    between atoms: C3_3  and  C4_4 
REMARK    2  A    between atoms: C4_4  and  C6_6 
REMARK    3  A    between atoms: C6_6  and  C7_7 
REMARK    4  A    between atoms: C7_7  and  C8_8 
REMARK    5  A    between atoms: C8_8  and  O1_9 
REMARK    6  A    between atoms: C8_8  and  C9_11 
REMARK    7  A    between atoms: C13_15  and  C15_17 
REMARK    8  A    between atoms: C15_17  and  C16_18 
REMARK    9  A    between atoms: C16_18  and  S1_19 
REMARK   10  A    between atoms: S1_19  and  N1_20 
ROOT
HETATM    1  C9  UNL     1      21.886   0.020 -26.137  1.00  0.00    -0.051 C 
HETATM    2  C10 UNL     1      20.567  -0.112 -26.032  1.00  0.00    -0.021 C 
HETATM    3  C11 UNL     1      19.825  -0.578 -27.223  1.00  0.00     0.033 C 
HETATM    4  C12 UNL     1      20.361  -0.079 -28.536  1.00  0.00     0.005 C 
HETATM    5  C13 UNL     1      19.799  -0.959 -29.639  1.00  0.00    -0.039 C 
HETATM    6  C14 UNL     1      20.275  -2.365 -29.565  1.00  0.00     0.015 C 
HETATM    7  C17 UNL     1      20.233  -0.243 -30.929  1.00  0.00     0.010 C 
HETATM    8  C18 UNL     1      21.698  -0.433 -31.065  1.00  0.00     0.002 C 
HETATM    9  C19 UNL     1      22.506  -0.275 -29.850  1.00  0.00     0.010 C 
HETATM   10  C20 UNL     1      21.796   0.204 -28.611  1.00  0.00    -0.036 C 
HETATM   11  C21 UNL     1      22.013   1.729 -28.616  1.00  0.00     0.016 C 
HETATM   12  C22 UNL     1      22.526  -0.310 -27.401  1.00  0.00     0.046 C 
ENDROOT
BRANCH   1  13
HETATM   13  C8  UNL     1      22.617   0.496 -24.894  1.00  0.00     0.170 C 
BRANCH  13  14
HETATM   14  C7  UNL     1      22.921  -0.680 -24.057  1.00  0.00     0.009 C 
BRANCH  14  15
HETATM   15  C6  UNL     1      21.948  -1.625 -23.631  1.00  0.00     0.005 C 
BRANCH  15  16
HETATM   16  C4  UNL     1      21.274  -1.755 -22.508  1.00  0.00    -0.062 C 
HETATM   17  C5  UNL     1      21.058  -3.054 -21.889  1.00  0.00     0.048 C 
BRANCH  16  18
HETATM   18  C3  UNL     1      20.663  -0.544 -21.978  1.00  0.00     0.002 C 
HETATM   19  C2  UNL     1      20.860   0.154 -20.921  1.00  0.00    -0.030 C 
HETATM   20  C1  UNL     1      21.777   0.046 -19.790  1.00  0.00     0.036 C 
ENDBRANCH  16  18
ENDBRANCH  15  16
ENDBRANCH  14  15
ENDBRANCH  13  14
BRANCH  13  21
HETATM   21  O1  UNL     1      21.738   1.397 -24.250  1.00  0.00    -0.387 OA
ATOM     22  H1  UNL     1      20.828   1.214 -24.450  1.00  0.00     0.210 HD
ENDBRANCH  13  21
ENDBRANCH   1  13
BRANCH   5  23
HETATM   23  C15 UNL     1      18.296  -0.971 -29.562  1.00  0.00     0.024 C 
BRANCH  23  24
HETATM   24  C16 UNL     1      17.618  -2.196 -30.040  1.00  0.00     0.132 C 
BRANCH  24  25
HETATM   25  S1  UNL     1      16.660  -1.711 -31.516  1.00  0.00     0.107 S 
HETATM   26  O2  UNL     1      15.929  -2.931 -32.066  1.00  0.00    -0.236 OA
BRANCH  25  27
HETATM   27  N1  UNL     1      15.454  -0.525 -31.099  1.00  0.00    -0.350 NA
ATOM     28  H12 UNL     1      15.929   0.236 -30.616  1.00  0.00     0.166 HD
ATOM     29  H11 UNL     1      15.003  -0.162 -31.939  1.00  0.00     0.166 HD
ENDBRANCH  25  27
ENDBRANCH  24  25
ENDBRANCH  23  24
ENDBRANCH   5  23
TORSDOF 10
ENDMDL
MODEL 4
REMARK VINA RESULT: -7.228488209      3.637      5.069
REMARK  10 active torsions:
REMARK  status: ('A' for Active; 'I' for Inactive)
REMARK    1  A    between atoms: C3_3  and  C4_4 
REMARK    2  A    between atoms: C4_4  and  C6_6 
REMARK    3  A    between atoms: C6_6  and  C7_7 
REMARK    4  A    between atoms: C7_7  and  C8_8 
REMARK    5  A    between atoms: C8_8  and  O1_9 
REMARK    6  A    between atoms: C8_8  and  C9_11 
REMARK    7  A    between atoms: C13_15  and  C15_17 
REMARK    8  A    between atoms: C15_17  and  C16_18 
REMARK    9  A    between atoms: C16_18  and  S1_19 
REMARK   10  A    between atoms: S1_19  and  N1_20 
ROOT
HETATM    1  C9  UNL     1      20.685   0.680 -27.065  1.00  0.00    -0.051 C 
HETATM    2  C10 UNL     1      21.973   1.007 -27.025  1.00  0.00    -0.021 C 
HETATM    3  C11 UNL     1      22.668   1.226 -28.312  1.00  0.00     0.033 C 
HETATM    4  C12 UNL     1      22.225   0.325 -29.430  1.00  0.00     0.005 C 
HETATM    5  C13 UNL     1      22.685   0.939 -30.741  1.00  0.00    -0.039 C 
HETATM    6  C14 UNL     1      22.027   2.237 -31.042  1.00  0.00     0.015 C 
HETATM    7  C17 UNL     1      22.371  -0.151 -31.780  1.00  0.00     0.010 C 
HETATM    8  C18 UNL     1      20.897  -0.198 -31.935  1.00  0.00     0.002 C 
HETATM    9  C19 UNL     1      20.095  -0.126 -30.706  1.00  0.00     0.010 C 
HETATM   10  C20 UNL     1      20.841  -0.154 -29.398  1.00  0.00    -0.036 C 
HETATM   11  C21 UNL     1      20.826  -1.638 -28.985  1.00  0.00     0.016 C 
HETATM   12  C22 UNL     1      20.028   0.568 -28.358  1.00  0.00     0.046 C 
ENDROOT
BRANCH   1  13
HETATM   13  C8  UNL     1      20.001   0.467 -25.726  1.00  0.00     0.170 C 
BRANCH  13  14
HETATM   14  C7  UNL     1      20.598   1.396 -24.749  1.00  0.00     0.009 C 
BRANCH  14  15
HETATM   15  C6  UNL     1      20.601   1.180 -23.344  1.00  0.00     0.005 C 
BRANCH  15  16
HETATM   16  C4  UNL     1      21.449   0.565 -22.547  1.00  0.00    -0.062 C 
HETATM   17  C5  UNL     1      21.050   0.071 -21.237  1.00  0.00     0.048 C 
BRANCH  16  18
HETATM   18  C3  UNL     1      22.831   0.502 -22.998  1.00  0.00     0.002 C 
HETATM   19  C2  UNL     1      23.499  -0.354 -23.680  1.00  0.00    -0.030 C 
HETATM   20  C1  UNL     1      23.173  -1.633 -24.302  1.00  0.00     0.036 C 
ENDBRANCH  16  18
ENDBRANCH  15  16
ENDBRANCH  14  15
ENDBRANCH  13  14
BRANCH  13  21
HETATM   21  O1  UNL     1      20.233  -0.886 -25.385  1.00  0.00    -0.387 OA
ATOM     22  H1  UNL     1      20.686  -1.357 -26.074  1.00  0.00     0.210 HD
ENDBRANCH  13  21
ENDBRANCH   1  13
BRANCH   5  23
HETATM   23  C15 UNL     1      24.171   1.168 -30.699  1.00  0.00     0.024 C 
BRANCH  23  24
HETATM   24  C16 UNL     1      24.780   1.788 -31.897  1.00  0.00     0.132 C 
BRANCH  24  25
HETATM   25  S1  UNL     1      26.552   2.009 -31.517  1.00  0.00     0.107 S 
HETATM   26  O2  UNL     1      27.252   0.656 -31.571  1.00  0.00    -0.236 OA
BRANCH  25  27
HETATM   27  N1  UNL     1      27.308   3.034 -32.705  1.00  0.00    -0.350 NA
ATOM     28  H12 UNL     1      27.821   3.757 -32.201  1.00  0.00     0.166 HD
ATOM     29  H11 UNL     1      27.958   2.498 -33.279  1.00  0.00     0.166 HD
ENDBRANCH  25  27
ENDBRANCH  24  25
ENDBRANCH  23  24
ENDBRANCH   5  23
TORSDOF 10
ENDMDL
MODEL 5
REMARK VINA RESULT: -7.204516339      1.726      2.246
REMARK  10 active torsions:
REMARK  status: ('A' for Active; 'I' for Inactive)
REMARK    1  A    between atoms: C3_3  and  C4_4 
REMARK    2  A    between atoms: C4_4  and  C6_6 
REMARK    3  A    between atoms: C6_6  and  C7_7 
REMARK    4  A    between atoms: C7_7  and  C8_8 
REMARK    5  A    between atoms: C8_8  and  O1_9 
REMARK    6  A    between atoms: C8_8  and  C9_11 
REMARK    7  A    between atoms: C13_15  and  C15_17 
REMARK    8  A    between atoms: C15_17  and  C16_18 
REMARK    9  A    between atoms: C16_18  and  S1_19 
REMARK   10  A    between atoms: S1_19  and  N1_20 
ROOT
HETATM    1  C9  UNL     1      21.692  -0.238 -26.977  1.00  0.00    -0.051 C 
HETATM    2  C10 UNL     1      20.401  -0.553 -26.972  1.00  0.00    -0.021 C 
HETATM    3  C11 UNL     1      19.789  -0.969 -28.253  1.00  0.00     0.033 C 
HETATM    4  C12 UNL     1      20.315  -0.254 -29.466  1.00  0.00     0.005 C 
HETATM    5  C13 UNL     1      19.935  -1.065 -30.692  1.00  0.00    -0.039 C 
HETATM    6  C14 UNL     1      20.597  -2.395 -30.743  1.00  0.00     0.015 C 
HETATM    7  C17 UNL     1      20.330  -0.151 -31.865  1.00  0.00     0.010 C 
HETATM    8  C18 UNL     1      21.811  -0.130 -31.927  1.00  0.00     0.002 C 
HETATM    9  C19 UNL     1      22.530  -0.011 -30.652  1.00  0.00     0.010 C 
HETATM   10  C20 UNL     1      21.700   0.222 -29.416  1.00  0.00    -0.036 C 
HETATM   11  C21 UNL     1      21.705   1.752 -29.240  1.00  0.00     0.016 C 
HETATM   12  C22 UNL     1      22.434  -0.330 -28.225  1.00  0.00     0.046 C 
ENDROOT
BRANCH   1  13
HETATM   13  C8  UNL     1      22.289   0.181 -25.645  1.00  0.00     0.170 C 
BRANCH  13  14
HETATM   14  C7  UNL     1      22.291  -0.992 -24.750  1.00  0.00     0.009 C 
BRANCH  14  15
HETATM   15  C6  UNL     1      22.366  -0.910 -23.333  1.00  0.00     0.005 C 
BRANCH  15  16
HETATM   16  C4  UNL     1      21.510  -0.488 -22.426  1.00  0.00    -0.062 C 
HETATM   17  C5  UNL     1      20.081  -0.738 -22.544  1.00  0.00     0.048 C 
BRANCH  16  18
HETATM   18  C3  UNL     1      22.056   0.336 -21.357  1.00  0.00     0.002 C 
HETATM   19  C2  UNL     1      22.167   1.602 -21.187  1.00  0.00    -0.030 C 
HETATM   20  C1  UNL     1      21.800   2.768 -21.983  1.00  0.00     0.036 C 
ENDBRANCH  16  18
ENDBRANCH  15  16
ENDBRANCH  14  15
ENDBRANCH  13  14
BRANCH  13  21
HETATM   21  O1  UNL     1      21.462   1.220 -25.160  1.00  0.00    -0.387 OA
ATOM     22  H1  UNL     1      20.539   1.017 -25.255  1.00  0.00     0.210 HD
ENDBRANCH  13  21
ENDBRANCH   1  13
BRANCH   5  23
HETATM   23  C15 UNL     1      18.447  -1.282 -30.715  1.00  0.00     0.024 C 
BRANCH  23  24
HETATM   24  C16 UNL     1      17.903  -2.024 -31.874  1.00  0.00     0.132 C 
BRANCH  24  25
HETATM   25  S1  UNL     1      16.089  -2.047 -31.665  1.00  0.00     0.107 S 
HETATM   26  O2  UNL     1      15.532  -0.654 -31.942  1.00  0.00    -0.236 OA
BRANCH  25  27
HETATM   27  N1  UNL     1      15.356  -3.138 -32.807  1.00  0.00    -0.350 NA
ATOM     28  H12 UNL     1      15.179  -2.611 -33.662  1.00  0.00     0.166 HD
ATOM     29  H11 UNL     1      15.985  -3.915 -33.014  1.00  0.00     0.166 HD
ENDBRANCH  25  27
ENDBRANCH  24  25
ENDBRANCH  23  24
ENDBRANCH   5  23
TORSDOF 10
ENDMDL
