MODEL 1
REMARK VINA RESULT: -7.509142795      0.000      0.000
REMARK  7 active torsions:
REMARK  status: ('A' for Active; 'I' for Inactive)
REMARK    1  A    between atoms: C2_2  and  C3_3 
REMARK    2  A    between atoms: C4_4  and  C5_5 
REMARK    3  A    between atoms: C10_10  and  C12_12 
REMARK    4  A    between atoms: C14_14  and  C15_15 
REMARK    5  A    between atoms: C16_18  and  C18_20 
REMARK    6  A    between atoms: C19_23  and  C20_24 
REMARK    7  A    between atoms: C20_24  and  C21_25 
ROOT
HETATM    1  C5  UNL     1      22.211   0.146 -28.255  1.00  0.00     0.017 C 
HETATM    2  C6  UNL     1      21.845   0.164 -29.730  1.00  0.00     0.009 C 
HETATM    3  C7  UNL     1      20.845  -0.830 -30.152  1.00  0.00     0.001 C 
HETATM    4  C8  UNL     1      20.791  -1.871 -29.060  1.00  0.00     0.001 C 
HETATM    5  C9  UNL     1      20.149  -1.163 -27.897  1.00  0.00     0.010 C 
HETATM    6  C10 UNL     1      21.054  -0.011 -27.351  1.00  0.00    -0.028 C 
HETATM    7  C11 UNL     1      20.222   1.266 -27.686  1.00  0.00     0.016 C 
ENDROOT
BRANCH   6   8
HETATM    8  C12 UNL     1      21.016  -0.179 -25.918  1.00  0.00    -0.003 A 
HETATM    9  C13 UNL     1      19.489  -0.566 -25.655  1.00  0.00     0.018 C 
HETATM   10  C14 UNL     1      21.732  -1.110 -25.015  1.00  0.00     0.116 A 
HETATM   11  C16 UNL     1      21.674   0.423 -24.815  1.00  0.00     0.068 A 
HETATM   12  C17 UNL     1      23.093   0.896 -24.621  1.00  0.00     0.029 C 
BRANCH  10  13
HETATM   13  C15 UNL     1      22.932  -1.852 -25.186  1.00  0.00     0.179 C 
HETATM   14  O1  UNL     1      23.196  -2.556 -26.156  1.00  0.00    -0.648 OA
HETATM   15  O2  UNL     1      23.941  -1.840 -24.228  1.00  0.00    -0.648 OA
ENDBRANCH  10  13
BRANCH  11  16
HETATM   16  C18 UNL     1      20.900   1.010 -23.695  1.00  0.00     0.183 C 
HETATM   17  O3  UNL     1      20.360   2.113 -23.765  1.00  0.00    -0.647 OA
HETATM   18  O4  UNL     1      20.713   0.356 -22.458  1.00  0.00    -0.647 OA
ENDBRANCH  11  16
ENDBRANCH   6   8
BRANCH   1  19
HETATM   19  C4  UNL     1      22.846   1.482 -28.123  1.00  0.00    -0.021 C 
HETATM   20  C3  UNL     1      23.596   2.138 -28.906  1.00  0.00     0.003 C 
BRANCH  20  21
HETATM   21  C2  UNL     1      24.133   1.899 -30.235  1.00  0.00    -0.066 C 
HETATM   22  C1  UNL     1      23.391   2.159 -31.460  1.00  0.00     0.048 C 
HETATM   23  C19 UNL     1      25.408   1.494 -30.329  1.00  0.00    -0.018 C 
BRANCH  23  24
HETATM   24  C20 UNL     1      26.133   1.279 -31.558  1.00  0.00     0.061 C 
BRANCH  24  25
HETATM   25  C21 UNL     1      26.987   2.513 -31.882  1.00  0.00     0.148 A 
HETATM   26  C22 UNL     1      27.817   2.572 -33.053  1.00  0.00     0.200 A 
HETATM   27  O5  UNL     1      26.537   3.190 -33.115  1.00  0.00    -0.381 OA
ENDBRANCH  24  25
ENDBRANCH  23  24
ENDBRANCH  20  21
ENDBRANCH   1  19
TORSDOF 7
ENDMDL
MODEL 2
REMARK VINA RESULT: -7.486343746      3.103      6.121
REMARK  7 active torsions:
REMARK  status: ('A' for Active; 'I' for Inactive)
REMARK    1  A    between atoms: C2_2  and  C3_3 
REMARK    2  A    between atoms: C4_4  and  C5_5 
REMARK    3  A    between atoms: C10_10  and  C12_12 
REMARK    4  A    between atoms: C14_14  and  C15_15 
REMARK    5  A    between atoms: C16_18  and  C18_20 
REMARK    6  A    between atoms: C19_23  and  C20_24 
REMARK    7  A    between atoms: C20_24  and  C21_25 
ROOT
HETATM    1  C5  UNL     1      20.487  -0.106 -28.180  1.00  0.00     0.017 C 
HETATM    2  C6  UNL     1      20.835  -0.151 -29.659  1.00  0.00     0.009 C 
HETATM    3  C7  UNL     1      21.871   0.798 -30.101  1.00  0.00     0.001 C 
HETATM    4  C8  UNL     1      21.980   1.844 -29.017  1.00  0.00     0.001 C 
HETATM    5  C9  UNL     1      22.606   1.119 -27.856  1.00  0.00     0.010 C 
HETATM    6  C10 UNL     1      21.660   0.010 -27.290  1.00  0.00    -0.028 C 
HETATM    7  C11 UNL     1      22.434  -1.304 -27.624  1.00  0.00     0.016 C 
ENDROOT
BRANCH   6   8
HETATM    8  C12 UNL     1      21.722   0.187 -25.860  1.00  0.00    -0.003 A 
HETATM    9  C13 UNL     1      23.256   0.560 -25.622  1.00  0.00     0.018 C 
HETATM   10  C14 UNL     1      21.029   1.131 -24.952  1.00  0.00     0.116 A 
HETATM   11  C16 UNL     1      21.075  -0.401 -24.742  1.00  0.00     0.068 A 
HETATM   12  C17 UNL     1      19.654  -0.859 -24.524  1.00  0.00     0.029 C 
BRANCH  10  13
HETATM   13  C15 UNL     1      19.834   1.884 -25.109  1.00  0.00     0.179 C 
HETATM   14  O1  UNL     1      19.556   2.572 -26.087  1.00  0.00    -0.648 OA
HETATM   15  O2  UNL     1      18.847   1.901 -24.130  1.00  0.00    -0.648 OA
ENDBRANCH  10  13
BRANCH  11  16
HETATM   16  C18 UNL     1      21.860  -0.988 -23.630  1.00  0.00     0.183 C 
HETATM   17  O3  UNL     1      22.360  -2.111 -23.689  1.00  0.00    -0.647 OA
HETATM   18  O4  UNL     1      22.103  -0.313 -22.414  1.00  0.00    -0.647 OA
ENDBRANCH  11  16
ENDBRANCH   6   8
BRANCH   1  19
HETATM   19  C4  UNL     1      19.799  -1.414 -28.030  1.00  0.00    -0.021 C 
HETATM   20  C3  UNL     1      19.069  -2.076 -28.826  1.00  0.00     0.003 C 
BRANCH  20  21
HETATM   21  C2  UNL     1      18.612  -1.874 -30.191  1.00  0.00    -0.066 C 
HETATM   22  C1  UNL     1      19.428  -2.160 -31.361  1.00  0.00     0.048 C 
HETATM   23  C19 UNL     1      17.343  -1.481 -30.372  1.00  0.00    -0.018 C 
BRANCH  23  24
HETATM   24  C20 UNL     1      16.692  -1.303 -31.648  1.00  0.00     0.061 C 
BRANCH  24  25
HETATM   25  C21 UNL     1      15.771  -2.497 -31.935  1.00  0.00     0.148 A 
HETATM   26  C22 UNL     1      14.961  -2.560 -33.119  1.00  0.00     0.200 A 
HETATM   27  O5  UNL     1      16.202  -3.255 -33.127  1.00  0.00    -0.381 OA
ENDBRANCH  24  25
ENDBRANCH  23  24
ENDBRANCH  20  21
ENDBRANCH   1  19
TORSDOF 7
ENDMDL
MODEL 3
REMARK VINA RESULT: -7.364550549      2.828      5.072
REMARK  7 active torsions:
REMARK  status: ('A' for Active; 'I' for Inactive)
REMARK    1  A    between atoms: C2_2  and  C3_3 
REMARK    2  A    between atoms: C4_4  and  C5_5 
REMARK    3  A    between atoms: C10_10  and  C12_12 
REMARK    4  A    between atoms: C14_14  and  C15_15 
REMARK    5  A    between atoms: C16_18  and  C18_20 
REMARK    6  A    between atoms: C19_23  and  C20_24 
REMARK    7  A    between atoms: C20_24  and  C21_25 
ROOT
HETATM    1  C5  UNL     1      20.571  -0.172 -28.194  1.00  0.00     0.017 C 
HETATM    2  C6  UNL     1      20.957  -0.183 -29.664  1.00  0.00     0.009 C 
HETATM    3  C7  UNL     1      21.953   0.823 -30.071  1.00  0.00     0.001 C 
HETATM    4  C8  UNL     1      21.983   1.861 -28.974  1.00  0.00     0.001 C 
HETATM    5  C9  UNL     1      22.617   1.155 -27.806  1.00  0.00     0.010 C 
HETATM    6  C10 UNL     1      21.716  -0.007 -27.274  1.00  0.00    -0.028 C 
HETATM    7  C11 UNL     1      22.563  -1.276 -27.602  1.00  0.00     0.016 C 
ENDROOT
BRANCH   6   8
HETATM    8  C12 UNL     1      21.733   0.157 -25.841  1.00  0.00    -0.003 A 
HETATM    9  C13 UNL     1      23.264   0.508 -25.551  1.00  0.00     0.018 C 
HETATM   10  C14 UNL     1      21.024   1.102 -24.948  1.00  0.00     0.116 A 
HETATM   11  C16 UNL     1      21.044  -0.432 -24.750  1.00  0.00     0.068 A 
HETATM   12  C17 UNL     1      19.611  -0.873 -24.581  1.00  0.00     0.029 C 
BRANCH  10  13
HETATM   13  C15 UNL     1      19.844   1.872 -25.136  1.00  0.00     0.179 C 
HETATM   14  O1  UNL     1      19.587   2.538 -26.135  1.00  0.00    -0.648 OA
HETATM   15  O2  UNL     1      18.850   1.935 -24.166  1.00  0.00    -0.648 OA
ENDBRANCH  10  13
BRANCH  11  16
HETATM   16  C18 UNL     1      21.785  -1.039 -23.619  1.00  0.00     0.183 C 
HETATM   17  O3  UNL     1      22.285  -2.162 -23.677  1.00  0.00    -0.647 OA
HETATM   18  O4  UNL     1      21.984  -0.384 -22.384  1.00  0.00    -0.647 OA
ENDBRANCH  11  16
ENDBRANCH   6   8
BRANCH   1  19
HETATM   19  C4  UNL     1      19.947  -1.514 -28.074  1.00  0.00    -0.021 C 
HETATM   20  C3  UNL     1      19.129  -2.131 -28.819  1.00  0.00     0.003 C 
BRANCH  20  21
HETATM   21  C2  UNL     1      18.475  -1.825 -30.081  1.00  0.00    -0.066 C 
HETATM   22  C1  UNL     1      17.207  -1.118 -30.176  1.00  0.00     0.048 C 
HETATM   23  C19 UNL     1      19.121  -2.143 -31.212  1.00  0.00    -0.018 C 
BRANCH  23  24
HETATM   24  C20 UNL     1      18.667  -1.851 -32.550  1.00  0.00     0.061 C 
BRANCH  24  25
HETATM   25  C21 UNL     1      19.767  -1.111 -33.324  1.00  0.00     0.148 A 
HETATM   26  C22 UNL     1      19.512  -0.494 -34.596  1.00  0.00     0.200 A 
HETATM   27  O5  UNL     1      19.488   0.334 -33.439  1.00  0.00    -0.381 OA
ENDBRANCH  24  25
ENDBRANCH  23  24
ENDBRANCH  20  21
ENDBRANCH   1  19
TORSDOF 7
ENDMDL
MODEL 4
REMARK VINA RESULT: -7.352153990      1.323      1.793
REMARK  7 active torsions:
REMARK  status: ('A' for Active; 'I' for Inactive)
REMARK    1  A    between atoms: C2_2  and  C3_3 
REMARK    2  A    between atoms: C4_4  and  C5_5 
REMARK    3  A    between atoms: C10_10  and  C12_12 
REMARK    4  A    between atoms: C14_14  and  C15_15 
REMARK    5  A    between atoms: C16_18  and  C18_20 
REMARK    6  A    between atoms: C19_23  and  C20_24 
REMARK    7  A    between atoms: C20_24  and  C21_25 
ROOT
HETATM    1  C5  UNL     1      22.177   0.175 -28.251  1.00  0.00     0.017 C 
HETATM    2  C6  UNL     1      21.793   0.172 -29.722  1.00  0.00     0.009 C 
HETATM    3  C7  UNL     1      20.810  -0.848 -30.124  1.00  0.00     0.001 C 
HETATM    4  C8  UNL     1      20.792  -1.880 -29.021  1.00  0.00     0.001 C 
HETATM    5  C9  UNL     1      20.148  -1.176 -27.857  1.00  0.00     0.010 C 
HETATM    6  C10 UNL     1      21.034   0.000 -27.332  1.00  0.00    -0.028 C 
HETATM    7  C11 UNL     1      20.171   1.256 -27.668  1.00  0.00     0.016 C 
ENDROOT
BRANCH   6   8
HETATM    8  C12 UNL     1      21.018  -0.156 -25.898  1.00  0.00    -0.003 A 
HETATM    9  C13 UNL     1      19.490  -0.522 -25.607  1.00  0.00     0.018 C 
HETATM   10  C14 UNL     1      21.737  -1.087 -24.999  1.00  0.00     0.116 A 
HETATM   11  C16 UNL     1      21.699   0.447 -24.810  1.00  0.00     0.068 A 
HETATM   12  C17 UNL     1      23.127   0.905 -24.642  1.00  0.00     0.029 C 
BRANCH  10  13
HETATM   13  C15 UNL     1      22.925  -1.846 -25.182  1.00  0.00     0.179 C 
HETATM   14  O1  UNL     1      23.172  -2.547 -26.158  1.00  0.00    -0.648 OA
HETATM   15  O2  UNL     1      23.941  -1.853 -24.232  1.00  0.00    -0.648 OA
ENDBRANCH  10  13
BRANCH  11  16
HETATM   16  C18 UNL     1      20.951   1.052 -23.682  1.00  0.00     0.183 C 
HETATM   17  O3  UNL     1      20.473   2.185 -23.733  1.00  0.00    -0.647 OA
HETATM   18  O4  UNL     1      20.719   0.384 -22.461  1.00  0.00    -0.647 OA
ENDBRANCH  11  16
ENDBRANCH   6   8
BRANCH   1  19
HETATM   19  C4  UNL     1      22.784   1.525 -28.139  1.00  0.00    -0.021 C 
HETATM   20  C3  UNL     1      23.619   2.136 -28.871  1.00  0.00     0.003 C 
BRANCH  20  21
HETATM   21  C2  UNL     1      24.314   1.813 -30.106  1.00  0.00    -0.066 C 
HETATM   22  C1  UNL     1      25.588   1.111 -30.149  1.00  0.00     0.048 C 
HETATM   23  C19 UNL     1      23.702   2.109 -31.262  1.00  0.00    -0.018 C 
BRANCH  23  24
HETATM   24  C20 UNL     1      24.200   1.796 -32.580  1.00  0.00     0.061 C 
BRANCH  24  25
HETATM   25  C21 UNL     1      23.095   1.130 -33.411  1.00  0.00     0.148 A 
HETATM   26  C22 UNL     1      23.390   0.387 -34.604  1.00  0.00     0.200 A 
HETATM   27  O5  UNL     1      23.202  -0.342 -33.397  1.00  0.00    -0.381 OA
ENDBRANCH  24  25
ENDBRANCH  23  24
ENDBRANCH  20  21
ENDBRANCH   1  19
TORSDOF 7
ENDMDL
MODEL 5
REMARK VINA RESULT: -7.312908107      2.022      3.196
REMARK  7 active torsions:
REMARK  status: ('A' for Active; 'I' for Inactive)
REMARK    1  A    between atoms: C2_2  and  C3_3 
REMARK    2  A    between atoms: C4_4  and  C5_5 
REMARK    3  A    between atoms: C10_10  and  C12_12 
REMARK    4  A    between atoms: C14_14  and  C15_15 
REMARK    5  A    between atoms: C16_18  and  C18_20 
REMARK    6  A    between atoms: C19_23  and  C20_24 
REMARK    7  A    between atoms: C20_24  and  C21_25 
ROOT
HETATM    1  C5  UNL     1      22.154   0.009 -26.049  1.00  0.00     0.017 C 
HETATM    2  C6  UNL     1      22.429  -1.181 -26.953  1.00  0.00     0.009 C 
HETATM    3  C7  UNL     1      22.864  -2.413 -26.273  1.00  0.00     0.001 C 
HETATM    4  C8  UNL     1      23.323  -1.999 -24.895  1.00  0.00     0.001 C 
HETATM    5  C9  UNL     1      22.060  -1.602 -24.181  1.00  0.00     0.010 C 
HETATM    6  C10 UNL     1      21.411  -0.330 -24.818  1.00  0.00    -0.028 C 
HETATM    7  C11 UNL     1      20.075  -0.884 -25.405  1.00  0.00     0.016 C 
ENDROOT
BRANCH   6   8
HETATM    8  C12 UNL     1      21.068   0.498 -23.688  1.00  0.00    -0.003 A 
HETATM    9  C13 UNL     1      20.020   1.527 -24.318  1.00  0.00     0.018 C 
HETATM   10  C14 UNL     1      20.441   0.177 -22.385  1.00  0.00     0.116 A 
HETATM   11  C16 UNL     1      21.755   0.978 -22.544  1.00  0.00     0.068 A 
HETATM   12  C17 UNL     1      22.775   0.337 -21.636  1.00  0.00     0.029 C 
BRANCH  10  13
HETATM   13  C15 UNL     1      20.328  -1.046 -21.669  1.00  0.00     0.179 C 
HETATM   14  O1  UNL     1      20.035  -2.130 -22.164  1.00  0.00    -0.648 OA
HETATM   15  O2  UNL     1      20.549  -1.113 -20.297  1.00  0.00    -0.648 OA
ENDBRANCH  10  13
BRANCH  11  16
HETATM   16  C18 UNL     1      21.799   2.427 -22.234  1.00  0.00     0.183 C 
HETATM   17  O3  UNL     1      22.685   3.170 -22.653  1.00  0.00    -0.647 OA
HETATM   18  O4  UNL     1      20.832   3.077 -21.437  1.00  0.00    -0.647 OA
ENDBRANCH  11  16
ENDBRANCH   6   8
BRANCH   1  19
HETATM   19  C4  UNL     1      21.355   0.860 -26.967  1.00  0.00    -0.021 C 
HETATM   20  C3  UNL     1      21.529   1.183 -28.180  1.00  0.00     0.003 C 
BRANCH  20  21
HETATM   21  C2  UNL     1      22.535   0.867 -29.181  1.00  0.00    -0.066 C 
HETATM   22  C1  UNL     1      22.275   0.031 -30.343  1.00  0.00     0.048 C 
HETATM   23  C19 UNL     1      23.738   1.446 -29.061  1.00  0.00    -0.018 C 
BRANCH  23  24
HETATM   24  C20 UNL     1      24.832   1.313 -29.993  1.00  0.00     0.061 C 
BRANCH  24  25
HETATM   25  C21 UNL     1      24.522   2.096 -31.276  1.00  0.00     0.148 A 
HETATM   26  C22 UNL     1      25.537   2.381 -32.252  1.00  0.00     0.200 A 
HETATM   27  O5  UNL     1      24.686   1.265 -32.486  1.00  0.00    -0.381 OA
ENDBRANCH  24  25
ENDBRANCH  23  24
ENDBRANCH  20  21
ENDBRANCH   1  19
TORSDOF 7
ENDMDL
