MODEL 1
REMARK VINA RESULT: -7.916109573      0.000      0.000
REMARK  8 active torsions:
REMARK  status: ('A' for Active; 'I' for Inactive)
REMARK    1  A    between atoms: C4_4  and  C5_5 
REMARK    2  A    between atoms: C5_5  and  O1_6 
REMARK    3  A    between atoms: O1_6  and  C6_7 
REMARK    4  A    between atoms: C8_9  and  N1_10 
REMARK    5  A    between atoms: N1_10  and  C9_12 
REMARK    6  A    between atoms: C9_12  and  C10_13 
REMARK    7  A    between atoms: C18_21  and  N2_22 
REMARK       I    between atoms: N2_22  and  C19_24 
REMARK    8  A    between atoms: C19_24  and  C20_26 
ROOT
HETATM    1  C6  UNL     1      22.324   0.695 -28.378  1.00  0.00     0.146 C 
HETATM    2  C7  UNL     1      22.296   0.085 -26.959  1.00  0.00     0.058 C 
HETATM    3  C8  UNL     1      21.039   0.382 -26.210  1.00  0.00     0.079 C 
HETATM    4  C16 UNL     1      20.220   1.357 -27.037  1.00  0.00     0.027 C 
HETATM    5  C17 UNL     1      19.905   0.700 -28.351  1.00  0.00     0.030 C 
HETATM    6  C18 UNL     1      21.146   0.209 -29.097  1.00  0.00     0.113 C 
ENDROOT
BRANCH   3   7
HETATM    7  N1  UNL     1      21.363   0.905 -24.923  1.00  0.00    -0.417 N 
ATOM      8  H1  UNL     1      20.946   1.778 -24.599  1.00  0.00     0.153 HD
BRANCH   7   9
HETATM    9  C9  UNL     1      22.260   0.205 -24.110  1.00  0.00     0.118 C 
BRANCH   9  10
HETATM   10  C10 UNL     1      21.511  -0.587 -23.032  1.00  0.00     0.003 C 
HETATM   11  C11 UNL     1      21.921  -0.161 -21.655  1.00  0.00     0.006 C 
HETATM   12  C12 UNL     1      20.935  -0.754 -20.665  1.00  0.00     0.000 C 
HETATM   13  C13 UNL     1      20.217  -1.941 -21.259  1.00  0.00     0.000 C 
HETATM   14  C14 UNL     1      21.128  -2.814 -22.069  1.00  0.00     0.000 C 
HETATM   15  C15 UNL     1      21.890  -2.073 -23.140  1.00  0.00     0.006 C 
ENDBRANCH   9  10
ENDBRANCH   7   9
ENDBRANCH   3   7
BRANCH   1  16
HETATM   16  O1  UNL     1      23.546   0.374 -28.880  1.00  0.00    -0.380 OA
BRANCH  16  17
HETATM   17  C5  UNL     1      24.387   1.357 -29.280  1.00  0.00     0.196 C 
BRANCH  17  18
HETATM   18  C4  UNL     1      24.185   1.704 -30.703  1.00  0.00     0.001 C 
HETATM   19  C2  UNL     1      25.107   1.851 -31.621  1.00  0.00    -0.089 C 
HETATM   20  C1  UNL     1      26.538   1.682 -31.340  1.00  0.00     0.042 C 
HETATM   21  C3  UNL     1      24.737   2.192 -33.043  1.00  0.00     0.042 C 
ENDBRANCH  17  18
ENDBRANCH  16  17
ENDBRANCH   1  16
BRANCH   6  22
HETATM   22  N2  UNL     1      20.993   0.597 -30.469  1.00  0.00    -0.353 N 
HETATM   23  C19 UNL     1      21.093  -0.363 -31.551  1.00  0.00     0.225 C 
HETATM   24  O2  UNL     1      21.315  -1.546 -31.231  1.00  0.00    -0.273 OA
ATOM     25  H2  UNL     1      20.809   1.576 -30.690  1.00  0.00     0.163 HD
BRANCH  23  26
HETATM   26  C20 UNL     1      20.945   0.016 -32.951  1.00  0.00     0.030 C 
HETATM   27  C21 UNL     1      22.072  -0.559 -33.813  1.00  0.00     0.024 C 
HETATM   28  C22 UNL     1      19.644  -0.354 -33.596  1.00  0.00     0.024 C 
HETATM   29  C23 UNL     1      21.055   1.556 -33.066  1.00  0.00     0.024 C 
ENDBRANCH  23  26
ENDBRANCH   6  22
TORSDOF 8
ENDMDL
MODEL 2
REMARK VINA RESULT: -7.902663777      2.115      4.365
REMARK  8 active torsions:
REMARK  status: ('A' for Active; 'I' for Inactive)
REMARK    1  A    between atoms: C4_4  and  C5_5 
REMARK    2  A    between atoms: C5_5  and  O1_6 
REMARK    3  A    between atoms: O1_6  and  C6_7 
REMARK    4  A    between atoms: C8_9  and  N1_10 
REMARK    5  A    between atoms: N1_10  and  C9_12 
REMARK    6  A    between atoms: C9_12  and  C10_13 
REMARK    7  A    between atoms: C18_21  and  N2_22 
REMARK       I    between atoms: N2_22  and  C19_24 
REMARK    8  A    between atoms: C19_24  and  C20_26 
ROOT
HETATM    1  C6  UNL     1      20.396  -0.718 -28.370  1.00  0.00     0.146 C 
HETATM    2  C7  UNL     1      20.406  -0.132 -26.940  1.00  0.00     0.058 C 
HETATM    3  C8  UNL     1      21.686  -0.371 -26.210  1.00  0.00     0.079 C 
HETATM    4  C16 UNL     1      22.548  -1.284 -27.062  1.00  0.00     0.027 C 
HETATM    5  C17 UNL     1      22.812  -0.587 -28.366  1.00  0.00     0.030 C 
HETATM    6  C18 UNL     1      21.538  -0.154 -29.091  1.00  0.00     0.113 C 
ENDROOT
BRANCH   3   7
HETATM    7  N1  UNL     1      21.405  -0.934 -24.928  1.00  0.00    -0.417 N 
ATOM      8  H1  UNL     1      21.850  -1.805 -24.637  1.00  0.00     0.153 HD
BRANCH   7   9
HETATM    9  C9  UNL     1      20.513  -0.276 -24.076  1.00  0.00     0.118 C 
BRANCH   9  10
HETATM   10  C10 UNL     1      21.271   0.543 -23.025  1.00  0.00     0.003 C 
HETATM   11  C11 UNL     1      20.887   0.137 -21.634  1.00  0.00     0.006 C 
HETATM   12  C12 UNL     1      21.883   0.756 -20.671  1.00  0.00     0.000 C 
HETATM   13  C13 UNL     1      22.578   1.941 -21.296  1.00  0.00     0.000 C 
HETATM   14  C14 UNL     1      21.646   2.790 -22.107  1.00  0.00     0.000 C 
HETATM   15  C15 UNL     1      20.874   2.023 -23.152  1.00  0.00     0.006 C 
ENDBRANCH   9  10
ENDBRANCH   7   9
ENDBRANCH   3   7
BRANCH   1  16
HETATM   16  O1  UNL     1      19.153  -0.457 -28.853  1.00  0.00    -0.380 OA
BRANCH  16  17
HETATM   17  C5  UNL     1      18.372  -1.476 -29.282  1.00  0.00     0.196 C 
BRANCH  17  18
HETATM   18  C4  UNL     1      18.590  -1.766 -30.716  1.00  0.00     0.001 C 
HETATM   19  C2  UNL     1      17.677  -1.903 -31.645  1.00  0.00    -0.089 C 
HETATM   20  C1  UNL     1      16.240  -1.778 -31.367  1.00  0.00     0.042 C 
HETATM   21  C3  UNL     1      18.062  -2.182 -33.075  1.00  0.00     0.042 C 
ENDBRANCH  17  18
ENDBRANCH  16  17
ENDBRANCH   1  16
BRANCH   6  22
HETATM   22  N2  UNL     1      21.697  -0.509 -30.472  1.00  0.00    -0.353 N 
HETATM   23  C19 UNL     1      21.740   0.493 -31.519  1.00  0.00     0.225 C 
HETATM   24  O2  UNL     1      21.636   1.682 -31.161  1.00  0.00    -0.273 OA
ATOM     25  H2  UNL     1      21.782  -1.494 -30.723  1.00  0.00     0.163 HD
BRANCH  23  26
HETATM   26  C20 UNL     1      21.896   0.149 -32.926  1.00  0.00     0.030 C 
HETATM   27  C21 UNL     1      20.760   0.722 -33.778  1.00  0.00     0.024 C 
HETATM   28  C22 UNL     1      23.191   0.558 -33.561  1.00  0.00     0.024 C 
HETATM   29  C23 UNL     1      21.814  -1.390 -33.077  1.00  0.00     0.024 C 
ENDBRANCH  23  26
ENDBRANCH   6  22
TORSDOF 8
ENDMDL
MODEL 3
REMARK VINA RESULT: -7.798792993      2.052      4.159
REMARK  8 active torsions:
REMARK  status: ('A' for Active; 'I' for Inactive)
REMARK    1  A    between atoms: C4_4  and  C5_5 
REMARK    2  A    between atoms: C5_5  and  O1_6 
REMARK    3  A    between atoms: O1_6  and  C6_7 
REMARK    4  A    between atoms: C8_9  and  N1_10 
REMARK    5  A    between atoms: N1_10  and  C9_12 
REMARK    6  A    between atoms: C9_12  and  C10_13 
REMARK    7  A    between atoms: C18_21  and  N2_22 
REMARK       I    between atoms: N2_22  and  C19_24 
REMARK    8  A    between atoms: C19_24  and  C20_26 
ROOT
HETATM    1  C6  UNL     1      20.329  -0.612 -28.514  1.00  0.00     0.146 C 
HETATM    2  C7  UNL     1      20.371   0.102 -27.145  1.00  0.00     0.058 C 
HETATM    3  C8  UNL     1      21.630  -0.149 -26.383  1.00  0.00     0.079 C 
HETATM    4  C16 UNL     1      22.435  -1.190 -27.139  1.00  0.00     0.027 C 
HETATM    5  C17 UNL     1      22.748  -0.636 -28.500  1.00  0.00     0.030 C 
HETATM    6  C18 UNL     1      21.507  -0.192 -29.274  1.00  0.00     0.113 C 
ENDROOT
BRANCH   3   7
HETATM    7  N1  UNL     1      21.309  -0.571 -25.058  1.00  0.00    -0.417 N 
ATOM      8  H1  UNL     1      21.831  -1.328 -24.616  1.00  0.00     0.153 HD
BRANCH   7   9
HETATM    9  C9  UNL     1      20.271   0.067 -24.373  1.00  0.00     0.118 C 
BRANCH   9  10
HETATM   10  C10 UNL     1      20.579   0.147 -22.873  1.00  0.00     0.003 C 
HETATM   11  C11 UNL     1      21.963   0.668 -22.627  1.00  0.00     0.006 C 
HETATM   12  C12 UNL     1      22.083   1.008 -21.153  1.00  0.00     0.000 C 
HETATM   13  C13 UNL     1      21.046   0.272 -20.340  1.00  0.00     0.000 C 
HETATM   14  C14 UNL     1      20.855  -1.142 -20.801  1.00  0.00     0.000 C 
HETATM   15  C15 UNL     1      20.554  -1.268 -22.274  1.00  0.00     0.006 C 
ENDBRANCH   9  10
ENDBRANCH   7   9
ENDBRANCH   3   7
BRANCH   1  16
HETATM   16  O1  UNL     1      19.107  -0.318 -29.032  1.00  0.00    -0.380 OA
BRANCH  16  17
HETATM   17  C5  UNL     1      18.253  -1.321 -29.346  1.00  0.00     0.196 C 
BRANCH  17  18
HETATM   18  C4  UNL     1      18.453  -1.795 -30.733  1.00  0.00     0.001 C 
HETATM   19  C2  UNL     1      17.538  -1.944 -31.659  1.00  0.00    -0.089 C 
HETATM   20  C1  UNL     1      16.119  -1.644 -31.426  1.00  0.00     0.042 C 
HETATM   21  C3  UNL     1      17.905  -2.424 -33.040  1.00  0.00     0.042 C 
ENDBRANCH  17  18
ENDBRANCH  16  17
ENDBRANCH   1  16
BRANCH   6  22
HETATM   22  N2  UNL     1      21.648  -0.683 -30.614  1.00  0.00    -0.353 N 
HETATM   23  C19 UNL     1      21.511   0.187 -31.766  1.00  0.00     0.225 C 
HETATM   24  O2  UNL     1      21.267   1.387 -31.536  1.00  0.00    -0.273 OA
ATOM     25  H2  UNL     1      21.851  -1.672 -30.761  1.00  0.00     0.163 HD
BRANCH  23  26
HETATM   26  C20 UNL     1      21.646  -0.297 -33.134  1.00  0.00     0.030 C 
HETATM   27  C21 UNL     1      20.494   0.184 -34.020  1.00  0.00     0.024 C 
HETATM   28  C22 UNL     1      22.929   0.049 -33.827  1.00  0.00     0.024 C 
HETATM   29  C23 UNL     1      21.569  -1.844 -33.127  1.00  0.00     0.024 C 
ENDBRANCH  23  26
ENDBRANCH   6  22
TORSDOF 8
ENDMDL
MODEL 4
REMARK VINA RESULT: -7.791538677      2.029      4.202
REMARK  8 active torsions:
REMARK  status: ('A' for Active; 'I' for Inactive)
REMARK    1  A    between atoms: C4_4  and  C5_5 
REMARK    2  A    between atoms: C5_5  and  O1_6 
REMARK    3  A    between atoms: O1_6  and  C6_7 
REMARK    4  A    between atoms: C8_9  and  N1_10 
REMARK    5  A    between atoms: N1_10  and  C9_12 
REMARK    6  A    between atoms: C9_12  and  C10_13 
REMARK    7  A    between atoms: C18_21  and  N2_22 
REMARK       I    between atoms: N2_22  and  C19_24 
REMARK    8  A    between atoms: C19_24  and  C20_26 
ROOT
HETATM    1  C6  UNL     1      20.375  -0.598 -28.505  1.00  0.00     0.146 C 
HETATM    2  C7  UNL     1      20.432   0.119 -27.138  1.00  0.00     0.058 C 
HETATM    3  C8  UNL     1      21.704  -0.121 -26.395  1.00  0.00     0.079 C 
HETATM    4  C16 UNL     1      22.505  -1.158 -27.160  1.00  0.00     0.027 C 
HETATM    5  C17 UNL     1      22.794  -0.605 -28.527  1.00  0.00     0.030 C 
HETATM    6  C18 UNL     1      21.538  -0.172 -29.283  1.00  0.00     0.113 C 
ENDROOT
BRANCH   3   7
HETATM    7  N1  UNL     1      21.406  -0.542 -25.064  1.00  0.00    -0.417 N 
ATOM      8  H1  UNL     1      20.448  -0.509 -24.714  1.00  0.00     0.153 HD
BRANCH   7   9
HETATM    9  C9  UNL     1      22.444  -1.001 -24.247  1.00  0.00     0.118 C 
BRANCH   9  10
HETATM   10  C10 UNL     1      22.167  -0.660 -22.777  1.00  0.00     0.003 C 
HETATM   11  C11 UNL     1      20.749  -0.968 -22.402  1.00  0.00     0.006 C 
HETATM   12  C12 UNL     1      20.637  -0.901 -20.890  1.00  0.00     0.000 C 
HETATM   13  C13 UNL     1      21.756  -0.080 -20.299  1.00  0.00     0.000 C 
HETATM   14  C14 UNL     1      22.062   1.142 -21.112  1.00  0.00     0.000 C 
HETATM   15  C15 UNL     1      22.336   0.854 -22.568  1.00  0.00     0.006 C 
ENDBRANCH   9  10
ENDBRANCH   7   9
ENDBRANCH   3   7
BRANCH   1  16
HETATM   16  O1  UNL     1      19.143  -0.315 -29.006  1.00  0.00    -0.380 OA
BRANCH  16  17
HETATM   17  C5  UNL     1      18.296  -1.325 -29.316  1.00  0.00     0.196 C 
BRANCH  17  18
HETATM   18  C4  UNL     1      18.488  -1.792 -30.705  1.00  0.00     0.001 C 
HETATM   19  C2  UNL     1      17.567  -1.947 -31.624  1.00  0.00    -0.089 C 
HETATM   20  C1  UNL     1      16.147  -1.660 -31.378  1.00  0.00     0.042 C 
HETATM   21  C3  UNL     1      17.926  -2.418 -33.010  1.00  0.00     0.042 C 
ENDBRANCH  17  18
ENDBRANCH  16  17
ENDBRANCH   1  16
BRANCH   6  22
HETATM   22  N2  UNL     1      21.663  -0.665 -30.624  1.00  0.00    -0.353 N 
HETATM   23  C19 UNL     1      21.538   0.208 -31.775  1.00  0.00     0.225 C 
HETATM   24  O2  UNL     1      21.319   1.412 -31.544  1.00  0.00    -0.273 OA
ATOM     25  H2  UNL     1      21.845  -1.658 -30.772  1.00  0.00     0.163 HD
BRANCH  23  26
HETATM   26  C20 UNL     1      21.656  -0.278 -33.144  1.00  0.00     0.030 C 
HETATM   27  C21 UNL     1      20.492   0.199 -34.016  1.00  0.00     0.024 C 
HETATM   28  C22 UNL     1      22.930   0.069 -33.854  1.00  0.00     0.024 C 
HETATM   29  C23 UNL     1      21.583  -1.825 -33.133  1.00  0.00     0.024 C 
ENDBRANCH  23  26
ENDBRANCH   6  22
TORSDOF 8
ENDMDL
MODEL 5
REMARK VINA RESULT: -7.788011555      2.009      4.082
REMARK  8 active torsions:
REMARK  status: ('A' for Active; 'I' for Inactive)
REMARK    1  A    between atoms: C4_4  and  C5_5 
REMARK    2  A    between atoms: C5_5  and  O1_6 
REMARK    3  A    between atoms: O1_6  and  C6_7 
REMARK    4  A    between atoms: C8_9  and  N1_10 
REMARK    5  A    between atoms: N1_10  and  C9_12 
REMARK    6  A    between atoms: C9_12  and  C10_13 
REMARK    7  A    between atoms: C18_21  and  N2_22 
REMARK       I    between atoms: N2_22  and  C19_24 
REMARK    8  A    between atoms: C19_24  and  C20_26 
ROOT
HETATM    1  C6  UNL     1      20.405  -0.802 -28.446  1.00  0.00     0.146 C 
HETATM    2  C7  UNL     1      20.456  -0.004 -27.124  1.00  0.00     0.058 C 
HETATM    3  C8  UNL     1      21.805   0.001 -26.485  1.00  0.00     0.079 C 
HETATM    4  C16 UNL     1      22.698  -0.943 -27.270  1.00  0.00     0.027 C 
HETATM    5  C17 UNL     1      22.785  -0.434 -28.680  1.00  0.00     0.030 C 
HETATM    6  C18 UNL     1      21.420  -0.246 -29.342  1.00  0.00     0.113 C 
ENDROOT
BRANCH   3   7
HETATM    7  N1  UNL     1      21.685  -0.381 -25.115  1.00  0.00    -0.417 N 
ATOM      8  H1  UNL     1      22.434  -0.900 -24.656  1.00  0.00     0.153 HD
BRANCH   7   9
HETATM    9  C9  UNL     1      20.528  -0.035 -24.411  1.00  0.00     0.118 C 
BRANCH   9  10
HETATM   10  C10 UNL     1      20.411  -0.859 -23.123  1.00  0.00     0.003 C 
HETATM   11  C11 UNL     1      21.003  -0.133 -21.953  1.00  0.00     0.006 C 
HETATM   12  C12 UNL     1      20.581  -0.855 -20.687  1.00  0.00     0.000 C 
HETATM   13  C13 UNL     1      20.182  -2.280 -20.983  1.00  0.00     0.000 C 
HETATM   14  C14 UNL     1      21.084  -2.931 -21.988  1.00  0.00     0.000 C 
HETATM   15  C15 UNL     1      21.232  -2.151 -23.271  1.00  0.00     0.006 C 
ENDBRANCH   9  10
ENDBRANCH   7   9
ENDBRANCH   3   7
BRANCH   1  16
HETATM   16  O1  UNL     1      19.107  -0.743 -28.848  1.00  0.00    -0.380 OA
BRANCH  16  17
HETATM   17  C5  UNL     1      18.486  -1.868 -29.274  1.00  0.00     0.196 C 
BRANCH  17  18
HETATM   18  C4  UNL     1      17.262  -1.558 -30.044  1.00  0.00     0.001 C 
HETATM   19  C2  UNL     1      17.050  -1.778 -31.317  1.00  0.00    -0.089 C 
HETATM   20  C1  UNL     1      18.056  -2.394 -32.193  1.00  0.00     0.042 C 
HETATM   21  C3  UNL     1      15.733  -1.419 -31.957  1.00  0.00     0.042 C 
ENDBRANCH  17  18
ENDBRANCH  16  17
ENDBRANCH   1  16
BRANCH   6  22
HETATM   22  N2  UNL     1      21.514  -0.794 -30.665  1.00  0.00    -0.353 N 
HETATM   23  C19 UNL     1      21.460   0.046 -31.846  1.00  0.00     0.225 C 
HETATM   24  O2  UNL     1      21.331   1.271 -31.656  1.00  0.00    -0.273 OA
ATOM     25  H2  UNL     1      21.622  -1.802 -30.778  1.00  0.00     0.163 HD
BRANCH  23  26
HETATM   26  C20 UNL     1      21.549  -0.494 -33.196  1.00  0.00     0.030 C 
HETATM   27  C21 UNL     1      22.811  -0.010 -33.916  1.00  0.00     0.024 C 
HETATM   28  C22 UNL     1      21.506  -1.988 -33.308  1.00  0.00     0.024 C 
HETATM   29  C23 UNL     1      20.350   0.030 -34.024  1.00  0.00     0.024 C 
ENDBRANCH  23  26
ENDBRANCH   6  22
TORSDOF 8
ENDMDL
