MODEL 1
REMARK VINA RESULT: -7.987013520      0.000      0.000
REMARK  8 active torsions:
REMARK  status: ('A' for Active; 'I' for Inactive)
REMARK    1  A    between atoms: C2_2  and  C5_5 
REMARK    2  A    between atoms: C8_8  and  C9_9 
REMARK    3  A    between atoms: C9_9  and  C10_10 
REMARK    4  A    between atoms: C10_10  and  C11_11 
REMARK    5  A    between atoms: C11_11  and  C12_12 
REMARK    6  A    between atoms: C12_12  and  C13_13 
REMARK    7  A    between atoms: C13_13  and  C14_14 
REMARK       I    between atoms: C14_14  and  N1_16 
REMARK    8  A    between atoms: N1_16  and  S1_18 
ROOT
HETATM    1  C5  UNL     1      22.111   1.145 -30.593  1.00  0.00    -0.006 C 
HETATM    2  C6  UNL     1      23.374   1.201 -29.763  1.00  0.00     0.006 C 
HETATM    3  C7  UNL     1      23.240   0.278 -28.564  1.00  0.00     0.006 C 
HETATM    4  C8  UNL     1      21.754   0.227 -28.124  1.00  0.00    -0.006 C 
HETATM    5  C15 UNL     1      20.948  -0.514 -29.100  1.00  0.00    -0.036 C 
HETATM    6  C16 UNL     1      20.854  -1.994 -28.984  1.00  0.00     0.010 C 
HETATM    7  C17 UNL     1      19.566  -2.369 -29.728  1.00  0.00     0.001 C 
HETATM    8  C18 UNL     1      18.632  -1.248 -29.423  1.00  0.00     0.001 C 
HETATM    9  C19 UNL     1      19.520  -0.046 -29.239  1.00  0.00     0.010 C 
HETATM   10  C20 UNL     1      21.590  -0.268 -30.483  1.00  0.00     0.015 C 
ENDROOT
BRANCH   4  11
HETATM   11  C9  UNL     1      21.776  -0.247 -26.706  1.00  0.00     0.005 C 
BRANCH  11  12
HETATM   12  C10 UNL     1      20.537  -0.047 -25.923  1.00  0.00     0.000 C 
BRANCH  12  13
HETATM   13  C11 UNL     1      20.212   1.426 -25.818  1.00  0.00     0.000 C 
BRANCH  13  14
HETATM   14  C12 UNL     1      19.706   1.777 -24.451  1.00  0.00     0.009 C 
BRANCH  14  15
HETATM   15  C13 UNL     1      20.822   2.036 -23.487  1.00  0.00     0.104 C 
BRANCH  15  16
HETATM   16  C14 UNL     1      21.319   0.867 -22.752  1.00  0.00     0.233 C 
HETATM   17  O1  UNL     1      22.508   0.665 -22.415  1.00  0.00    -0.273 OA
HETATM   18  N1  UNL     1      20.395  -0.173 -22.359  1.00  0.00    -0.235 N 
ATOM     19  H1  UNL     1      19.410  -0.070 -22.602  1.00  0.00     0.184 HD
BRANCH  18  20
HETATM   20  S1  UNL     1      20.885  -1.565 -21.505  1.00  0.00     0.211 S 
HETATM   21  O2  UNL     1      19.691  -2.348 -21.021  1.00  0.00    -0.578 OA
HETATM   22  O3  UNL     1      21.654  -1.157 -20.269  1.00  0.00    -0.578 OA
HETATM   23  O4  UNL     1      21.854  -2.501 -22.508  1.00  0.00    -0.578 OA
ENDBRANCH  18  20
ENDBRANCH  15  16
ENDBRANCH  14  15
ENDBRANCH  13  14
ENDBRANCH  12  13
ENDBRANCH  11  12
ENDBRANCH   4  11
BRANCH   1  24
HETATM   24  C2  UNL     1      22.364   1.408 -32.053  1.00  0.00    -0.048 C 
HETATM   25  C1  UNL     1      22.397   0.058 -32.752  1.00  0.00     0.015 C 
HETATM   26  C3  UNL     1      21.325   2.249 -32.704  1.00  0.00     0.015 C 
HETATM   27  C4  UNL     1      23.759   2.010 -32.265  1.00  0.00     0.015 C 
ENDBRANCH   1  24
TORSDOF 8
ENDMDL
MODEL 2
REMARK VINA RESULT: -7.980906779      1.184      2.911
REMARK  8 active torsions:
REMARK  status: ('A' for Active; 'I' for Inactive)
REMARK    1  A    between atoms: C2_2  and  C5_5 
REMARK    2  A    between atoms: C8_8  and  C9_9 
REMARK    3  A    between atoms: C9_9  and  C10_10 
REMARK    4  A    between atoms: C10_10  and  C11_11 
REMARK    5  A    between atoms: C11_11  and  C12_12 
REMARK    6  A    between atoms: C12_12  and  C13_13 
REMARK    7  A    between atoms: C13_13  and  C14_14 
REMARK       I    between atoms: C14_14  and  N1_16 
REMARK    8  A    between atoms: N1_16  and  S1_18 
ROOT
HETATM    1  C5  UNL     1      20.918  -1.351 -30.575  1.00  0.00    -0.006 C 
HETATM    2  C6  UNL     1      19.872  -1.824 -29.591  1.00  0.00     0.006 C 
HETATM    3  C7  UNL     1      20.035  -1.080 -28.276  1.00  0.00     0.006 C 
HETATM    4  C8  UNL     1      21.533  -0.746 -28.061  1.00  0.00    -0.006 C 
HETATM    5  C15 UNL     1      21.972   0.298 -28.994  1.00  0.00    -0.036 C 
HETATM    6  C16 UNL     1      21.778   1.725 -28.622  1.00  0.00     0.010 C 
HETATM    7  C17 UNL     1      22.798   2.497 -29.467  1.00  0.00     0.001 C 
HETATM    8  C18 UNL     1      23.985   1.595 -29.518  1.00  0.00     0.001 C 
HETATM    9  C19 UNL     1      23.414   0.205 -29.428  1.00  0.00     0.010 C 
HETATM   10  C20 UNL     1      21.147   0.113 -30.285  1.00  0.00     0.015 C 
ENDROOT
BRANCH   4  11
HETATM   11  C9  UNL     1      21.680  -0.504 -26.593  1.00  0.00     0.005 C 
BRANCH  11  12
HETATM   12  C10 UNL     1      20.439  -0.204 -25.845  1.00  0.00     0.000 C 
BRANCH  12  13
HETATM   13  C11 UNL     1      20.245   1.290 -25.721  1.00  0.00     0.000 C 
BRANCH  13  14
HETATM   14  C12 UNL     1      19.662   1.656 -24.389  1.00  0.00     0.009 C 
BRANCH  14  15
HETATM   15  C13 UNL     1      20.722   1.958 -23.375  1.00  0.00     0.104 C 
BRANCH  15  16
HETATM   16  C14 UNL     1      21.246   0.805 -22.634  1.00  0.00     0.233 C 
HETATM   17  O1  UNL     1      22.438   0.638 -22.288  1.00  0.00    -0.273 OA
HETATM   18  N1  UNL     1      20.349  -0.259 -22.243  1.00  0.00    -0.235 N 
ATOM     19  H1  UNL     1      19.364  -0.184 -22.494  1.00  0.00     0.184 HD
BRANCH  18  20
HETATM   20  S1  UNL     1      20.872  -1.634 -21.382  1.00  0.00     0.211 S 
HETATM   21  O2  UNL     1      19.699  -2.401 -20.827  1.00  0.00    -0.578 OA
HETATM   22  O3  UNL     1      21.698  -1.203 -20.191  1.00  0.00    -0.578 OA
HETATM   23  O4  UNL     1      21.793  -2.596 -22.406  1.00  0.00    -0.578 OA
ENDBRANCH  18  20
ENDBRANCH  15  16
ENDBRANCH  14  15
ENDBRANCH  13  14
ENDBRANCH  12  13
ENDBRANCH  11  12
ENDBRANCH   4  11
BRANCH   1  24
HETATM   24  C2  UNL     1      20.457  -1.450 -32.005  1.00  0.00    -0.048 C 
HETATM   25  C1  UNL     1      20.409  -0.035 -32.558  1.00  0.00     0.015 C 
HETATM   26  C3  UNL     1      21.347  -2.264 -32.872  1.00  0.00     0.015 C 
HETATM   27  C4  UNL     1      19.013  -1.964 -32.077  1.00  0.00     0.015 C 
ENDBRANCH   1  24
TORSDOF 8
ENDMDL
MODEL 3
REMARK VINA RESULT: -7.971276239      1.909      3.760
REMARK  8 active torsions:
REMARK  status: ('A' for Active; 'I' for Inactive)
REMARK    1  A    between atoms: C2_2  and  C5_5 
REMARK    2  A    between atoms: C8_8  and  C9_9 
REMARK    3  A    between atoms: C9_9  and  C10_10 
REMARK    4  A    between atoms: C10_10  and  C11_11 
REMARK    5  A    between atoms: C11_11  and  C12_12 
REMARK    6  A    between atoms: C12_12  and  C13_13 
REMARK    7  A    between atoms: C13_13  and  C14_14 
REMARK       I    between atoms: C14_14  and  N1_16 
REMARK    8  A    between atoms: N1_16  and  S1_18 
ROOT
HETATM    1  C5  UNL     1      20.592  -1.094 -30.539  1.00  0.00    -0.006 C 
HETATM    2  C6  UNL     1      19.323  -1.080 -29.717  1.00  0.00     0.006 C 
HETATM    3  C7  UNL     1      19.485  -0.130 -28.542  1.00  0.00     0.006 C 
HETATM    4  C8  UNL     1      20.968  -0.123 -28.094  1.00  0.00    -0.006 C 
HETATM    5  C15 UNL     1      21.807   0.560 -29.084  1.00  0.00    -0.036 C 
HETATM    6  C16 UNL     1      21.956   2.039 -29.007  1.00  0.00     0.010 C 
HETATM    7  C17 UNL     1      23.261   2.345 -29.752  1.00  0.00     0.001 C 
HETATM    8  C18 UNL     1      24.152   1.199 -29.411  1.00  0.00     0.001 C 
HETATM    9  C19 UNL     1      23.218   0.037 -29.201  1.00  0.00     0.010 C 
HETATM   10  C20 UNL     1      21.165   0.302 -30.464  1.00  0.00     0.015 C 
ENDROOT
BRANCH   4  11
HETATM   11  C9  UNL     1      20.957   0.390 -26.689  1.00  0.00     0.005 C 
BRANCH  11  12
HETATM   12  C10 UNL     1      22.175   0.146 -25.887  1.00  0.00     0.000 C 
BRANCH  12  13
HETATM   13  C11 UNL     1      22.483  -1.333 -25.830  1.00  0.00     0.000 C 
BRANCH  13  14
HETATM   14  C12 UNL     1      23.101  -1.712 -24.517  1.00  0.00     0.009 C 
BRANCH  14  15
HETATM   15  C13 UNL     1      22.068  -2.049 -23.486  1.00  0.00     0.104 C 
BRANCH  15  16
HETATM   16  C14 UNL     1      21.505  -0.913 -22.748  1.00  0.00     0.233 C 
HETATM   17  O1  UNL     1      20.303  -0.770 -22.430  1.00  0.00    -0.273 OA
HETATM   18  N1  UNL     1      22.374   0.164 -22.326  1.00  0.00    -0.235 N 
ATOM     19  H1  UNL     1      23.366   0.108 -22.552  1.00  0.00     0.184 HD
BRANCH  18  20
HETATM   20  S1  UNL     1      21.806   1.521 -21.465  1.00  0.00     0.211 S 
HETATM   21  O2  UNL     1      20.972   2.411 -22.351  1.00  0.00    -0.578 OA
HETATM   22  O3  UNL     1      22.979   2.358 -21.005  1.00  0.00    -0.578 OA
HETATM   23  O4  UNL     1      20.920   0.989 -20.140  1.00  0.00    -0.578 OA
ENDBRANCH  18  20
ENDBRANCH  15  16
ENDBRANCH  14  15
ENDBRANCH  13  14
ENDBRANCH  12  13
ENDBRANCH  11  12
ENDBRANCH   4  11
BRANCH   1  24
HETATM   24  C2  UNL     1      20.338  -1.387 -31.994  1.00  0.00    -0.048 C 
HETATM   25  C1  UNL     1      20.536  -0.085 -32.754  1.00  0.00     0.015 C 
HETATM   26  C3  UNL     1      21.247  -2.411 -32.572  1.00  0.00     0.015 C 
HETATM   27  C4  UNL     1      18.871  -1.772 -32.224  1.00  0.00     0.015 C 
ENDBRANCH   1  24
TORSDOF 8
ENDMDL
MODEL 4
REMARK VINA RESULT: -7.948648554      1.584      2.375
REMARK  8 active torsions:
REMARK  status: ('A' for Active; 'I' for Inactive)
REMARK    1  A    between atoms: C2_2  and  C5_5 
REMARK    2  A    between atoms: C8_8  and  C9_9 
REMARK    3  A    between atoms: C9_9  and  C10_10 
REMARK    4  A    between atoms: C10_10  and  C11_11 
REMARK    5  A    between atoms: C11_11  and  C12_12 
REMARK    6  A    between atoms: C12_12  and  C13_13 
REMARK    7  A    between atoms: C13_13  and  C14_14 
REMARK       I    between atoms: C14_14  and  N1_16 
REMARK    8  A    between atoms: N1_16  and  S1_18 
ROOT
HETATM    1  C5  UNL     1      21.814   1.361 -30.643  1.00  0.00    -0.006 C 
HETATM    2  C6  UNL     1      22.871   1.834 -29.671  1.00  0.00     0.006 C 
HETATM    3  C7  UNL     1      22.719   1.095 -28.351  1.00  0.00     0.006 C 
HETATM    4  C8  UNL     1      21.222   0.767 -28.121  1.00  0.00    -0.006 C 
HETATM    5  C15 UNL     1      20.771  -0.279 -29.045  1.00  0.00    -0.036 C 
HETATM    6  C16 UNL     1      20.964  -1.706 -28.671  1.00  0.00     0.010 C 
HETATM    7  C17 UNL     1      19.934  -2.478 -29.504  1.00  0.00     0.001 C 
HETATM    8  C18 UNL     1      18.749  -1.572 -29.545  1.00  0.00     0.001 C 
HETATM    9  C19 UNL     1      19.325  -0.184 -29.466  1.00  0.00     0.010 C 
HETATM   10  C20 UNL     1      21.584  -0.101 -30.346  1.00  0.00     0.015 C 
ENDROOT
BRANCH   4  11
HETATM   11  C9  UNL     1      21.090   0.529 -26.651  1.00  0.00     0.005 C 
BRANCH  11  12
HETATM   12  C10 UNL     1      22.334   0.206 -25.918  1.00  0.00     0.000 C 
BRANCH  12  13
HETATM   13  C11 UNL     1      22.476  -1.290 -25.753  1.00  0.00     0.000 C 
BRANCH  13  14
HETATM   14  C12 UNL     1      23.118  -1.636 -24.443  1.00  0.00     0.009 C 
BRANCH  14  15
HETATM   15  C13 UNL     1      22.107  -1.988 -23.396  1.00  0.00     0.104 C 
BRANCH  15  16
HETATM   16  C14 UNL     1      21.539  -0.860 -22.649  1.00  0.00     0.233 C 
HETATM   17  O1  UNL     1      20.338  -0.734 -22.317  1.00  0.00    -0.273 OA
HETATM   18  N1  UNL     1      22.397   0.227 -22.236  1.00  0.00    -0.235 N 
ATOM     19  H1  UNL     1      23.388   0.185 -22.475  1.00  0.00     0.184 HD
BRANCH  18  20
HETATM   20  S1  UNL     1      21.822   1.576 -21.367  1.00  0.00     0.211 S 
HETATM   21  O2  UNL     1      20.982   2.466 -22.247  1.00  0.00    -0.578 OA
HETATM   22  O3  UNL     1      22.990   2.417 -20.904  1.00  0.00    -0.578 OA
HETATM   23  O4  UNL     1      20.941   1.031 -20.045  1.00  0.00    -0.578 OA
ENDBRANCH  18  20
ENDBRANCH  15  16
ENDBRANCH  14  15
ENDBRANCH  13  14
ENDBRANCH  12  13
ENDBRANCH  11  12
ENDBRANCH   4  11
BRANCH   1  24
HETATM   24  C2  UNL     1      22.261   1.454 -32.077  1.00  0.00    -0.048 C 
HETATM   25  C1  UNL     1      22.429   0.031 -32.586  1.00  0.00     0.015 C 
HETATM   26  C3  UNL     1      21.302   2.161 -32.965  1.00  0.00     0.015 C 
HETATM   27  C4  UNL     1      23.656   2.087 -32.173  1.00  0.00     0.015 C 
ENDBRANCH   1  24
TORSDOF 8
ENDMDL
MODEL 5
REMARK VINA RESULT: -7.901618383      3.397      5.408
REMARK  8 active torsions:
REMARK  status: ('A' for Active; 'I' for Inactive)
REMARK    1  A    between atoms: C2_2  and  C5_5 
REMARK    2  A    between atoms: C8_8  and  C9_9 
REMARK    3  A    between atoms: C9_9  and  C10_10 
REMARK    4  A    between atoms: C10_10  and  C11_11 
REMARK    5  A    between atoms: C11_11  and  C12_12 
REMARK    6  A    between atoms: C12_12  and  C13_13 
REMARK    7  A    between atoms: C13_13  and  C14_14 
REMARK       I    between atoms: C14_14  and  N1_16 
REMARK    8  A    between atoms: N1_16  and  S1_18 
ROOT
HETATM    1  C5  UNL     1      20.837   0.411 -26.965  1.00  0.00    -0.006 C 
HETATM    2  C6  UNL     1      19.992   1.582 -26.518  1.00  0.00     0.006 C 
HETATM    3  C7  UNL     1      20.152   1.785 -25.020  1.00  0.00     0.006 C 
HETATM    4  C8  UNL     1      20.400   0.413 -24.344  1.00  0.00    -0.006 C 
HETATM    5  C15 UNL     1      21.737  -0.094 -24.671  1.00  0.00    -0.036 C 
HETATM    6  C16 UNL     1      22.894   0.333 -23.837  1.00  0.00     0.010 C 
HETATM    7  C17 UNL     1      23.958  -0.750 -24.053  1.00  0.00     0.001 C 
HETATM    8  C18 UNL     1      23.173  -2.014 -24.161  1.00  0.00     0.001 C 
HETATM    9  C19 UNL     1      21.853  -1.596 -24.751  1.00  0.00     0.010 C 
HETATM   10  C20 UNL     1      22.068   0.414 -26.091  1.00  0.00     0.015 C 
ENDROOT
BRANCH   4  11
HETATM   11  C9  UNL     1      20.039   0.607 -22.906  1.00  0.00     0.005 C 
BRANCH  11  12
HETATM   12  C10 UNL     1      19.807  -0.619 -22.111  1.00  0.00     0.000 C 
BRANCH  12  13
HETATM   13  C11 UNL     1      20.982  -0.886 -21.198  1.00  0.00     0.000 C 
BRANCH  13  14
HETATM   14  C12 UNL     1      20.878  -0.096 -19.928  1.00  0.00     0.009 C 
BRANCH  14  15
HETATM   15  C13 UNL     1      22.222   0.306 -19.403  1.00  0.00     0.104 C 
BRANCH  15  16
HETATM   16  C14 UNL     1      22.423   0.135 -17.960  1.00  0.00     0.233 C 
HETATM   17  O1  UNL     1      21.517   0.085 -17.096  1.00  0.00    -0.273 OA
HETATM   18  N1  UNL     1      23.765   0.009 -17.436  1.00  0.00    -0.235 N 
ATOM     19  H1  UNL     1      24.548   0.041 -18.088  1.00  0.00     0.184 HD
BRANCH  18  20
HETATM   20  S1  UNL     1      24.089  -0.191 -15.775  1.00  0.00     0.211 S 
HETATM   21  O2  UNL     1      24.790   1.020 -15.212  1.00  0.00    -0.578 OA
HETATM   22  O3  UNL     1      25.033  -1.356 -15.579  1.00  0.00    -0.578 OA
HETATM   23  O4  UNL     1      22.642  -0.478 -14.972  1.00  0.00    -0.578 OA
ENDBRANCH  18  20
ENDBRANCH  15  16
ENDBRANCH  14  15
ENDBRANCH  13  14
ENDBRANCH  12  13
ENDBRANCH  11  12
ENDBRANCH   4  11
BRANCH   1  24
HETATM   24  C2  UNL     1      21.309   0.546 -28.389  1.00  0.00    -0.048 C 
HETATM   25  C1  UNL     1      22.510  -0.372 -28.551  1.00  0.00     0.015 C 
HETATM   26  C3  UNL     1      20.289   0.169 -29.402  1.00  0.00     0.015 C 
HETATM   27  C4  UNL     1      21.840   1.961 -28.655  1.00  0.00     0.015 C 
ENDBRANCH   1  24
TORSDOF 8
ENDMDL
