MODEL 1
REMARK VINA RESULT: -6.183560812      0.000      0.000
REMARK  9 active torsions:
REMARK  status: ('A' for Active; 'I' for Inactive)
REMARK    1  A    between atoms: C2_2  and  C3_3 
REMARK    2  A    between atoms: C4_4  and  C5_5 
REMARK    3  A    between atoms: C5_5  and  O1_7 
REMARK    4  A    between atoms: C5_5  and  C7_9 
REMARK    5  A    between atoms: C7_9  and  C8_10 
REMARK    6  A    between atoms: C8_10  and  O2_12 
REMARK    7  A    between atoms: C10_14  and  C11_15 
REMARK    8  A    between atoms: C19_23  and  C20_24 
REMARK    9  A    between atoms: C20_24  and  O3_25 
ROOT
HETATM    1  C3  UNL     1       0.281  -0.092  -1.751  1.00  0.00    -0.047 C 
HETATM    2  C4  UNL     1      -0.443   0.341  -2.828  1.00  0.00    -0.035 C 
HETATM    3  C10 UNL     1       0.241  -0.125  -4.070  1.00  0.00     0.022 C 
HETATM    4  C17 UNL     1       1.713   0.268  -3.810  1.00  0.00     0.010 C 
HETATM    5  C18 UNL     1       2.283  -0.881  -3.022  1.00  0.00     0.012 C 
HETATM    6  C19 UNL     1       1.405  -1.034  -1.805  1.00  0.00     0.042 C 
ENDROOT
BRANCH   2   7
HETATM    7  C5  UNL     1      -1.577   1.233  -2.748  1.00  0.00     0.081 C 
HETATM    8  C6  UNL     1      -1.216   2.689  -2.404  1.00  0.00     0.051 C 
BRANCH   7   9
HETATM    9  O1  UNL     1      -2.003   1.317  -4.161  1.00  0.00    -0.386 OA
ATOM     10  H1  UNL     1      -1.255   1.738  -4.568  1.00  0.00     0.211 HD
ENDBRANCH   7   9
BRANCH   7  11
HETATM   11  C7  UNL     1      -2.880   0.937  -2.195  1.00  0.00     0.073 C 
BRANCH  11  12
HETATM   12  C8  UNL     1      -3.209   2.088  -1.189  1.00  0.00     0.117 C 
HETATM   13  C9  UNL     1      -3.092   1.459   0.210  1.00  0.00     0.039 C 
BRANCH  12  14
HETATM   14  O2  UNL     1      -4.512   2.498  -1.295  1.00  0.00    -0.396 OA
ATOM     15  H2  UNL     1      -4.575   3.418  -1.525  1.00  0.00     0.210 HD
ENDBRANCH  12  14
ENDBRANCH  11  12
ENDBRANCH   7  11
ENDBRANCH   2   7
BRANCH   1  16
HETATM   16  C2  UNL     1      -0.062   0.359  -0.422  1.00  0.00    -0.002 C 
HETATM   17  C1  UNL     1       0.634   0.214   0.669  1.00  0.00     0.012 C 
ENDBRANCH   1  16
BRANCH   3  18
HETATM   18  C11 UNL     1      -0.065   0.279  -5.400  1.00  0.00    -0.006 C 
HETATM   19  C12 UNL     1      -0.516  -1.006  -6.183  1.00  0.00     0.005 C 
HETATM   20  C13 UNL     1      -1.295  -0.591  -7.403  1.00  0.00     0.000 C 
HETATM   21  C14 UNL     1      -0.917   0.729  -7.969  1.00  0.00     0.000 C 
HETATM   22  C15 UNL     1       0.328   1.375  -7.553  1.00  0.00     0.000 C 
HETATM   23  C16 UNL     1       1.014   0.749  -6.335  1.00  0.00     0.005 C 
ENDBRANCH   3  18
BRANCH   6  24
HETATM   24  C20 UNL     1       1.041  -2.496  -1.703  1.00  0.00     0.173 C 
BRANCH  24  25
HETATM   25  O3  UNL     1       1.047  -3.178  -2.917  1.00  0.00    -0.400 OA
ATOM     26  H3  UNL     1       0.793  -4.092  -2.857  1.00  0.00     0.209 HD
ENDBRANCH  24  25
ENDBRANCH   6  24
TORSDOF 9
ENDMDL
MODEL 2
REMARK VINA RESULT: -6.180877961      1.605      4.578
REMARK  9 active torsions:
REMARK  status: ('A' for Active; 'I' for Inactive)
REMARK    1  A    between atoms: C2_2  and  C3_3 
REMARK    2  A    between atoms: C4_4  and  C5_5 
REMARK    3  A    between atoms: C5_5  and  O1_7 
REMARK    4  A    between atoms: C5_5  and  C7_9 
REMARK    5  A    between atoms: C7_9  and  C8_10 
REMARK    6  A    between atoms: C8_10  and  O2_12 
REMARK    7  A    between atoms: C10_14  and  C11_15 
REMARK    8  A    between atoms: C19_23  and  C20_24 
REMARK    9  A    between atoms: C20_24  and  O3_25 
ROOT
HETATM    1  C3  UNL     1      -0.279   0.097  -1.756  1.00  0.00    -0.047 C 
HETATM    2  C4  UNL     1       0.448  -0.335  -2.832  1.00  0.00    -0.035 C 
HETATM    3  C10 UNL     1      -0.234   0.133  -4.074  1.00  0.00     0.022 C 
HETATM    4  C17 UNL     1      -1.707  -0.261  -3.818  1.00  0.00     0.010 C 
HETATM    5  C18 UNL     1      -2.278   0.888  -3.029  1.00  0.00     0.012 C 
HETATM    6  C19 UNL     1      -1.403   1.039  -1.810  1.00  0.00     0.042 C 
ENDROOT
BRANCH   2   7
HETATM    7  C5  UNL     1       1.581  -1.228  -2.751  1.00  0.00     0.081 C 
HETATM    8  C6  UNL     1       1.219  -2.684  -2.413  1.00  0.00     0.051 C 
BRANCH   7   9
HETATM    9  O1  UNL     1       2.012  -1.307  -4.161  1.00  0.00    -0.386 OA
ATOM     10  H1  UNL     1       2.605  -2.049  -4.146  1.00  0.00     0.211 HD
ENDBRANCH   7   9
BRANCH   7  11
HETATM   11  C7  UNL     1       2.881  -0.934  -2.192  1.00  0.00     0.073 C 
BRANCH  11  12
HETATM   12  C8  UNL     1       3.208  -2.090  -1.191  1.00  0.00     0.117 C 
HETATM   13  C9  UNL     1       3.074  -1.473   0.212  1.00  0.00     0.039 C 
BRANCH  12  14
HETATM   14  O2  UNL     1       4.516  -2.491  -1.287  1.00  0.00    -0.396 OA
ATOM     15  H2  UNL     1       4.782  -3.006  -0.535  1.00  0.00     0.210 HD
ENDBRANCH  12  14
ENDBRANCH  11  12
ENDBRANCH   7  11
ENDBRANCH   2   7
BRANCH   1  16
HETATM   16  C2  UNL     1       0.062  -0.356  -0.426  1.00  0.00    -0.002 C 
HETATM   17  C1  UNL     1      -0.654  -0.249   0.656  1.00  0.00     0.012 C 
ENDBRANCH   1  16
BRANCH   3  18
HETATM   18  C11 UNL     1       0.074  -0.271  -5.404  1.00  0.00    -0.006 C 
HETATM   19  C12 UNL     1       0.533   1.014  -6.183  1.00  0.00     0.005 C 
HETATM   20  C13 UNL     1       1.314   0.598  -7.402  1.00  0.00     0.000 C 
HETATM   21  C14 UNL     1       0.932  -0.719  -7.971  1.00  0.00     0.000 C 
HETATM   22  C15 UNL     1      -0.316  -1.361  -7.561  1.00  0.00     0.000 C 
HETATM   23  C16 UNL     1      -1.004  -0.734  -6.343  1.00  0.00     0.005 C 
ENDBRANCH   3  18
BRANCH   6  24
HETATM   24  C20 UNL     1      -1.038   2.501  -1.707  1.00  0.00     0.173 C 
BRANCH  24  25
HETATM   25  O3  UNL     1      -1.039   3.184  -2.920  1.00  0.00    -0.400 OA
ATOM     26  H3  UNL     1      -0.247   3.679  -3.096  1.00  0.00     0.209 HD
ENDBRANCH  24  25
ENDBRANCH   6  24
TORSDOF 9
ENDMDL
MODEL 3
REMARK VINA RESULT: -6.153756533      2.652      5.365
REMARK  9 active torsions:
REMARK  status: ('A' for Active; 'I' for Inactive)
REMARK    1  A    between atoms: C2_2  and  C3_3 
REMARK    2  A    between atoms: C4_4  and  C5_5 
REMARK    3  A    between atoms: C5_5  and  O1_7 
REMARK    4  A    between atoms: C5_5  and  C7_9 
REMARK    5  A    between atoms: C7_9  and  C8_10 
REMARK    6  A    between atoms: C8_10  and  O2_12 
REMARK    7  A    between atoms: C10_14  and  C11_15 
REMARK    8  A    between atoms: C19_23  and  C20_24 
REMARK    9  A    between atoms: C20_24  and  O3_25 
ROOT
HETATM    1  C3  UNL     1      -0.869   0.568  -1.997  1.00  0.00    -0.047 C 
HETATM    2  C4  UNL     1      -0.009   0.281  -0.971  1.00  0.00    -0.035 C 
HETATM    3  C10 UNL     1       1.121  -0.524  -1.521  1.00  0.00     0.022 C 
HETATM    4  C17 UNL     1       0.391  -1.600  -2.356  1.00  0.00     0.010 C 
HETATM    5  C18 UNL     1       0.156  -0.952  -3.694  1.00  0.00     0.012 C 
HETATM    6  C19 UNL     1      -0.611   0.317  -3.419  1.00  0.00     0.042 C 
ENDROOT
BRANCH   2   7
HETATM    7  C5  UNL     1      -0.263   0.580   0.420  1.00  0.00     0.081 C 
HETATM    8  C6  UNL     1      -0.925  -0.566   1.204  1.00  0.00     0.051 C 
BRANCH   7   9
HETATM    9  O1  UNL     1       1.103   0.625   0.979  1.00  0.00    -0.386 OA
ATOM     10  H1  UNL     1       0.964   1.076   1.804  1.00  0.00     0.211 HD
ENDBRANCH   7   9
BRANCH   7  11
HETATM   11  C7  UNL     1      -0.715   1.838   0.971  1.00  0.00     0.073 C 
BRANCH  11  12
HETATM   12  C8  UNL     1      -0.730   1.663   2.525  1.00  0.00     0.117 C 
HETATM   13  C9  UNL     1      -2.005   2.376   3.008  1.00  0.00     0.039 C 
BRANCH  12  14
HETATM   14  O2  UNL     1       0.307   2.331   3.122  1.00  0.00    -0.396 OA
ATOM     15  H2  UNL     1      -0.002   2.959   3.765  1.00  0.00     0.210 HD
ENDBRANCH  12  14
ENDBRANCH  11  12
ENDBRANCH   7  11
ENDBRANCH   2   7
BRANCH   1  16
HETATM   16  C2  UNL     1      -2.140   1.197  -1.718  1.00  0.00    -0.002 C 
HETATM   17  C1  UNL     1      -3.137   1.369  -2.538  1.00  0.00     0.012 C 
ENDBRANCH   1  16
BRANCH   3  18
HETATM   18  C11 UNL     1       2.119  -1.199  -0.761  1.00  0.00    -0.006 C 
HETATM   19  C12 UNL     1       3.240  -1.647  -1.765  1.00  0.00     0.005 C 
HETATM   20  C13 UNL     1       4.508  -1.918  -0.997  1.00  0.00     0.000 C 
HETATM   21  C14 UNL     1       4.308  -2.373   0.401  1.00  0.00     0.000 C 
HETATM   22  C15 UNL     1       2.990  -2.829   0.843  1.00  0.00     0.000 C 
HETATM   23  C16 UNL     1       1.838  -2.530  -0.121  1.00  0.00     0.005 C 
ENDBRANCH   3  18
BRANCH   6  24
HETATM   24  C20 UNL     1       0.091   1.427  -4.164  1.00  0.00     0.173 C 
BRANCH  24  25
HETATM   25  O3  UNL     1       1.415   1.153  -4.497  1.00  0.00    -0.400 OA
ATOM     26  H3  UNL     1       1.776   1.715  -5.174  1.00  0.00     0.209 HD
ENDBRANCH  24  25
ENDBRANCH   6  24
TORSDOF 9
ENDMDL
MODEL 4
REMARK VINA RESULT: -6.139724087      2.334      5.437
REMARK  9 active torsions:
REMARK  status: ('A' for Active; 'I' for Inactive)
REMARK    1  A    between atoms: C2_2  and  C3_3 
REMARK    2  A    between atoms: C4_4  and  C5_5 
REMARK    3  A    between atoms: C5_5  and  O1_7 
REMARK    4  A    between atoms: C5_5  and  C7_9 
REMARK    5  A    between atoms: C7_9  and  C8_10 
REMARK    6  A    between atoms: C8_10  and  O2_12 
REMARK    7  A    between atoms: C10_14  and  C11_15 
REMARK    8  A    between atoms: C19_23  and  C20_24 
REMARK    9  A    between atoms: C20_24  and  O3_25 
ROOT
HETATM    1  C3  UNL     1       0.814  -0.542  -1.987  1.00  0.00    -0.047 C 
HETATM    2  C4  UNL     1      -0.035  -0.258  -0.952  1.00  0.00    -0.035 C 
HETATM    3  C10 UNL     1      -1.167   0.554  -1.487  1.00  0.00     0.022 C 
HETATM    4  C17 UNL     1      -0.442   1.632  -2.324  1.00  0.00     0.010 C 
HETATM    5  C18 UNL     1      -0.222   0.989  -3.668  1.00  0.00     0.012 C 
HETATM    6  C19 UNL     1       0.544  -0.283  -3.406  1.00  0.00     0.042 C 
ENDROOT
BRANCH   2   7
HETATM    7  C5  UNL     1       0.231  -0.563   0.434  1.00  0.00     0.081 C 
HETATM    8  C6  UNL     1       0.901   0.578   1.218  1.00  0.00     0.051 C 
BRANCH   7   9
HETATM    9  O1  UNL     1      -1.130  -0.611   1.006  1.00  0.00    -0.386 OA
ATOM     10  H1  UNL     1      -1.529   0.165   0.630  1.00  0.00     0.211 HD
ENDBRANCH   7   9
BRANCH   7  11
HETATM   11  C7  UNL     1       0.687  -1.825   0.975  1.00  0.00     0.073 C 
BRANCH  11  12
HETATM   12  C8  UNL     1       0.717  -1.658   2.530  1.00  0.00     0.117 C 
HETATM   13  C9  UNL     1       1.999  -2.368   2.996  1.00  0.00     0.039 C 
BRANCH  12  14
HETATM   14  O2  UNL     1      -0.312  -2.333   3.134  1.00  0.00    -0.396 OA
ATOM     15  H2  UNL     1      -1.017  -1.748   3.384  1.00  0.00     0.210 HD
ENDBRANCH  12  14
ENDBRANCH  11  12
ENDBRANCH   7  11
ENDBRANCH   2   7
BRANCH   1  16
HETATM   16  C2  UNL     1       2.086  -1.176  -1.724  1.00  0.00    -0.002 C 
HETATM   17  C1  UNL     1       3.074  -1.348  -2.554  1.00  0.00     0.012 C 
ENDBRANCH   1  16
BRANCH   3  18
HETATM   18  C11 UNL     1      -2.156   1.227  -0.715  1.00  0.00    -0.006 C 
HETATM   19  C12 UNL     1      -3.286   1.684  -1.706  1.00  0.00     0.005 C 
HETATM   20  C13 UNL     1      -4.545   1.955  -0.926  1.00  0.00     0.000 C 
HETATM   21  C14 UNL     1      -4.331   2.403   0.473  1.00  0.00     0.000 C 
HETATM   22  C15 UNL     1      -3.008   2.853   0.904  1.00  0.00     0.000 C 
HETATM   23  C16 UNL     1      -1.865   2.555  -0.072  1.00  0.00     0.005 C 
ENDBRANCH   3  18
BRANCH   6  24
HETATM   24  C20 UNL     1      -0.168  -1.388  -4.150  1.00  0.00     0.173 C 
BRANCH  24  25
HETATM   25  O3  UNL     1      -1.545  -1.214  -4.264  1.00  0.00    -0.400 OA
ATOM     26  H3  UNL     1      -1.813  -0.332  -4.496  1.00  0.00     0.209 HD
ENDBRANCH  24  25
ENDBRANCH   6  24
TORSDOF 9
ENDMDL
MODEL 5
REMARK VINA RESULT: -6.124437578      1.685      2.041
REMARK  9 active torsions:
REMARK  status: ('A' for Active; 'I' for Inactive)
REMARK    1  A    between atoms: C2_2  and  C3_3 
REMARK    2  A    between atoms: C4_4  and  C5_5 
REMARK    3  A    between atoms: C5_5  and  O1_7 
REMARK    4  A    between atoms: C5_5  and  C7_9 
REMARK    5  A    between atoms: C7_9  and  C8_10 
REMARK    6  A    between atoms: C8_10  and  O2_12 
REMARK    7  A    between atoms: C10_14  and  C11_15 
REMARK    8  A    between atoms: C19_23  and  C20_24 
REMARK    9  A    between atoms: C20_24  and  O3_25 
ROOT
HETATM    1  C3  UNL     1      -0.024   0.170  -0.324  1.00  0.00    -0.047 C 
HETATM    2  C4  UNL     1      -0.630   0.422  -1.525  1.00  0.00    -0.035 C 
HETATM    3  C10 UNL     1      -0.099  -0.548  -2.527  1.00  0.00     0.022 C 
HETATM    4  C17 UNL     1       1.428  -0.464  -2.301  1.00  0.00     0.010 C 
HETATM    5  C18 UNL     1       1.701  -1.424  -1.174  1.00  0.00     0.012 C 
HETATM    6  C19 UNL     1       0.828  -0.986  -0.025  1.00  0.00     0.042 C 
ENDROOT
BRANCH   2   7
HETATM    7  C5  UNL     1      -1.503   1.543  -1.784  1.00  0.00     0.081 C 
HETATM    8  C6  UNL     1      -0.974   2.529  -2.840  1.00  0.00     0.051 C 
BRANCH   7   9
HETATM    9  O1  UNL     1      -2.641   0.895  -2.469  1.00  0.00    -0.386 OA
ATOM     10  H1  UNL     1      -3.385   1.342  -2.082  1.00  0.00     0.211 HD
ENDBRANCH   7   9
BRANCH   7  11
HETATM   11  C7  UNL     1      -2.285   2.279  -0.816  1.00  0.00     0.073 C 
BRANCH  11  12
HETATM   12  C8  UNL     1      -3.620   1.487  -0.626  1.00  0.00     0.117 C 
HETATM   13  C9  UNL     1      -4.734   2.548  -0.635  1.00  0.00     0.039 C 
BRANCH  12  14
HETATM   14  O2  UNL     1      -3.690   0.898   0.609  1.00  0.00    -0.396 OA
ATOM     15  H2  UNL     1      -4.588   0.804   0.904  1.00  0.00     0.210 HD
ENDBRANCH  12  14
ENDBRANCH  11  12
ENDBRANCH   7  11
ENDBRANCH   2   7
BRANCH   1  16
HETATM   16  C2  UNL     1      -0.227   1.070   0.789  1.00  0.00    -0.002 C 
HETATM   17  C1  UNL     1       0.516   1.201   1.850  1.00  0.00     0.012 C 
ENDBRANCH   1  16
BRANCH   3  18
HETATM   18  C11 UNL     1      -0.310  -0.501  -3.934  1.00  0.00    -0.006 C 
HETATM   19  C12 UNL     1      -0.773  -1.934  -4.381  1.00  0.00     0.005 C 
HETATM   20  C13 UNL     1      -1.461  -1.834  -5.717  1.00  0.00     0.000 C 
HETATM   21  C14 UNL     1      -0.992  -0.723  -6.582  1.00  0.00     0.000 C 
HETATM   22  C15 UNL     1       0.255  -0.026  -6.268  1.00  0.00     0.000 C 
HETATM   23  C16 UNL     1       0.842  -0.327  -4.885  1.00  0.00     0.005 C 
ENDBRANCH   3  18
BRANCH   6  24
HETATM   24  C20 UNL     1       0.110  -2.216   0.478  1.00  0.00     0.173 C 
BRANCH  24  25
HETATM   25  O3  UNL     1      -0.232  -2.174   1.828  1.00  0.00    -0.400 OA
ATOM     26  H3  UNL     1      -1.109  -2.484   2.022  1.00  0.00     0.209 HD
ENDBRANCH  24  25
ENDBRANCH   6  24
TORSDOF 9
ENDMDL
