MODEL 1
REMARK VINA RESULT: -8.072396974      0.000      0.000
REMARK  6 active torsions:
REMARK  status: ('A' for Active; 'I' for Inactive)
REMARK    1  A    between atoms: O1_1  and  C1_3 
REMARK    2  A    between atoms: C1_3  and  C2_4 
REMARK    3  A    between atoms: C2_4  and  C3_5 
REMARK    4  A    between atoms: C4_6  and  C5_7 
REMARK    5  A    between atoms: C5_7  and  C6_8 
REMARK    6  A    between atoms: C14_18  and  N2_19 
ROOT
HETATM    1  C1  UNL     1      -0.859  -0.827  -4.261  1.00  0.00     0.078 C 
HETATM    2  C11 UNL     1      -0.282   0.419  -3.684  1.00  0.00     0.007 C 
HETATM    3  C12 UNL     1       0.181   0.739  -2.494  1.00  0.00    -0.026 C 
HETATM    4  C13 UNL     1       0.269  -0.113  -1.286  1.00  0.00     0.062 C 
HETATM    5  C14 UNL     1       1.030  -1.379  -1.519  1.00  0.00     0.226 C 
HETATM    6  C20 UNL     1       1.202  -1.589  -3.027  1.00  0.00     0.039 C 
HETATM    7  C21 UNL     1      -0.107  -1.982  -3.634  1.00  0.00     0.044 C 
ENDROOT
BRANCH   1   8
HETATM    8  O1  UNL     1      -2.188  -0.839  -3.877  1.00  0.00    -0.386 OA
ATOM      9  H1  UNL     1      -2.375  -1.424  -3.152  1.00  0.00     0.211 HD
ENDBRANCH   1   8
BRANCH   1  10
HETATM   10  C2  UNL     1      -0.652  -0.765  -5.754  1.00  0.00     0.069 C 
BRANCH  10  11
HETATM   11  C3  UNL     1      -1.317  -1.769  -6.565  1.00  0.00    -0.024 C 
HETATM   12  C4  UNL     1      -1.563  -1.742  -7.978  1.00  0.00    -0.006 C 
BRANCH  12  13
HETATM   13  C5  UNL     1      -0.596  -1.817  -9.066  1.00  0.00    -0.002 C 
BRANCH  13  14
HETATM   14  C6  UNL     1      -0.221  -0.669  -9.906  1.00  0.00     0.103 C 
HETATM   15  C7  UNL     1       1.304  -0.479  -9.767  1.00  0.00     0.029 C 
HETATM   16  C8  UNL     1       1.547   0.214  -8.463  1.00  0.00     0.007 C 
HETATM   17  C9  UNL     1       0.931   1.587  -8.553  1.00  0.00     0.044 C 
HETATM   18  C10 UNL     1      -0.511   1.558  -8.940  1.00  0.00     0.056 C 
HETATM   19  N1  UNL     1      -0.902   0.534  -9.808  1.00  0.00    -0.394 N 
ATOM     20  H1  UNL     1      -1.724   0.679 -10.395  1.00  0.00     0.159 HD
ENDBRANCH  13  14
ENDBRANCH  12  13
ENDBRANCH  10  11
ENDBRANCH   1  10
BRANCH   5  21
HETATM   21  N2  UNL     1       2.314  -1.447  -0.899  1.00  0.00     0.093 N 
HETATM   22  C15 UNL     1       2.406  -2.324   0.224  1.00  0.00     0.273 C 
HETATM   23  C16 UNL     1       3.717  -1.977   0.944  1.00  0.00     0.030 C 
HETATM   24  C17 UNL     1       4.820  -2.386   0.003  1.00  0.00     0.003 C 
HETATM   25  C18 UNL     1       4.733  -1.650  -1.291  1.00  0.00     0.030 C 
HETATM   26  C19 UNL     1       3.346  -1.590  -1.868  1.00  0.00     0.273 C 
ENDBRANCH   5  21
TORSDOF 6
ENDMDL
MODEL 2
REMARK VINA RESULT: -8.069750886      2.883      4.649
REMARK  6 active torsions:
REMARK  status: ('A' for Active; 'I' for Inactive)
REMARK    1  A    between atoms: O1_1  and  C1_3 
REMARK    2  A    between atoms: C1_3  and  C2_4 
REMARK    3  A    between atoms: C2_4  and  C3_5 
REMARK    4  A    between atoms: C4_6  and  C5_7 
REMARK    5  A    between atoms: C5_7  and  C6_8 
REMARK    6  A    between atoms: C14_18  and  N2_19 
ROOT
HETATM    1  C1  UNL     1       0.356   0.757  -4.210  1.00  0.00     0.078 C 
HETATM    2  C11 UNL     1       0.024  -0.420  -3.360  1.00  0.00     0.007 C 
HETATM    3  C12 UNL     1      -0.273  -0.563  -2.086  1.00  0.00    -0.026 C 
HETATM    4  C13 UNL     1      -0.369   0.484  -1.043  1.00  0.00     0.062 C 
HETATM    5  C14 UNL     1      -1.323   1.578  -1.400  1.00  0.00     0.226 C 
HETATM    6  C20 UNL     1      -1.667   1.475  -2.891  1.00  0.00     0.039 C 
HETATM    7  C21 UNL     1      -0.491   1.907  -3.709  1.00  0.00     0.044 C 
ENDROOT
BRANCH   1   8
HETATM    8  O1  UNL     1       1.700   1.008  -3.996  1.00  0.00    -0.386 OA
ATOM      9  H1  UNL     1       1.996   1.845  -4.335  1.00  0.00     0.211 HD
ENDBRANCH   1   8
BRANCH   1  10
HETATM   10  C2  UNL     1       0.021   0.389  -5.634  1.00  0.00     0.069 C 
BRANCH  10  11
HETATM   11  C3  UNL     1      -0.704  -0.849  -5.852  1.00  0.00    -0.024 C 
HETATM   12  C4  UNL     1      -1.352  -1.294  -7.052  1.00  0.00    -0.006 C 
BRANCH  12  13
HETATM   13  C5  UNL     1      -0.743  -1.682  -8.319  1.00  0.00    -0.002 C 
BRANCH  13  14
HETATM   14  C6  UNL     1      -0.648  -0.792  -9.486  1.00  0.00     0.103 C 
HETATM   15  C7  UNL     1       0.849  -0.655  -9.836  1.00  0.00     0.029 C 
HETATM   16  C8  UNL     1       1.443   0.318  -8.866  1.00  0.00     0.007 C 
HETATM   17  C9  UNL     1       0.800   1.660  -9.113  1.00  0.00     0.044 C 
HETATM   18  C10 UNL     1      -0.691   1.615  -9.057  1.00  0.00     0.056 C 
HETATM   19  N1  UNL     1      -1.295   0.434  -9.499  1.00  0.00    -0.394 N 
ATOM     20  H1  UNL     1      -2.254   0.476  -9.845  1.00  0.00     0.159 HD
ENDBRANCH  13  14
ENDBRANCH  12  13
ENDBRANCH  10  11
ENDBRANCH   1  10
BRANCH   5  21
HETATM   21  N2  UNL     1      -2.539   1.601  -0.652  1.00  0.00     0.093 N 
HETATM   22  C15 UNL     1      -2.532   2.442   0.502  1.00  0.00     0.273 C 
HETATM   23  C16 UNL     1      -3.757   2.047   1.338  1.00  0.00     0.030 C 
HETATM   24  C17 UNL     1      -4.957   2.461   0.526  1.00  0.00     0.003 C 
HETATM   25  C18 UNL     1      -4.988   1.766  -0.793  1.00  0.00     0.030 C 
HETATM   26  C19 UNL     1      -3.666   1.751  -1.508  1.00  0.00     0.273 C 
ENDBRANCH   5  21
TORSDOF 6
ENDMDL
MODEL 3
REMARK VINA RESULT: -8.054117755      1.017      2.026
REMARK  6 active torsions:
REMARK  status: ('A' for Active; 'I' for Inactive)
REMARK    1  A    between atoms: O1_1  and  C1_3 
REMARK    2  A    between atoms: C1_3  and  C2_4 
REMARK    3  A    between atoms: C2_4  and  C3_5 
REMARK    4  A    between atoms: C4_6  and  C5_7 
REMARK    5  A    between atoms: C5_7  and  C6_8 
REMARK    6  A    between atoms: C14_18  and  N2_19 
ROOT
HETATM    1  C1  UNL     1      -0.341  -0.764  -4.222  1.00  0.00     0.078 C 
HETATM    2  C11 UNL     1      -0.030   0.413  -3.362  1.00  0.00     0.007 C 
HETATM    3  C12 UNL     1       0.252   0.554  -2.085  1.00  0.00    -0.026 C 
HETATM    4  C13 UNL     1       0.349  -0.497  -1.046  1.00  0.00     0.062 C 
HETATM    5  C14 UNL     1       1.319  -1.578  -1.398  1.00  0.00     0.226 C 
HETATM    6  C20 UNL     1       1.676  -1.466  -2.884  1.00  0.00     0.039 C 
HETATM    7  C21 UNL     1       0.514  -1.906  -3.717  1.00  0.00     0.044 C 
ENDROOT
BRANCH   1   8
HETATM    8  O1  UNL     1      -1.684  -1.030  -4.022  1.00  0.00    -0.386 OA
ATOM      9  H1  UNL     1      -2.087  -0.499  -3.345  1.00  0.00     0.211 HD
ENDBRANCH   1   8
BRANCH   1  10
HETATM   10  C2  UNL     1       0.005  -0.385  -5.640  1.00  0.00     0.069 C 
BRANCH  10  11
HETATM   11  C3  UNL     1       0.714   0.864  -5.846  1.00  0.00    -0.024 C 
HETATM   12  C4  UNL     1       1.367   1.323  -7.038  1.00  0.00    -0.006 C 
BRANCH  12  13
HETATM   13  C5  UNL     1       0.764   1.708  -8.309  1.00  0.00    -0.002 C 
BRANCH  13  14
HETATM   14  C6  UNL     1       0.690   0.821  -9.480  1.00  0.00     0.103 C 
HETATM   15  C7  UNL     1      -0.800   0.684  -9.856  1.00  0.00     0.029 C 
HETATM   16  C8  UNL     1      -1.411  -0.291  -8.900  1.00  0.00     0.007 C 
HETATM   17  C9  UNL     1      -0.764  -1.633  -9.138  1.00  0.00     0.044 C 
HETATM   18  C10 UNL     1       0.726  -1.587  -9.055  1.00  0.00     0.056 C 
HETATM   19  N1  UNL     1       1.338  -0.405  -9.483  1.00  0.00    -0.394 N 
ATOM     20  H1  UNL     1       2.303  -0.446  -9.812  1.00  0.00     0.159 HD
ENDBRANCH  13  14
ENDBRANCH  12  13
ENDBRANCH  10  11
ENDBRANCH   1  10
BRANCH   5  21
HETATM   21  N2  UNL     1       2.527  -1.592  -0.638  1.00  0.00     0.093 N 
HETATM   22  C15 UNL     1       2.502  -2.401   0.538  1.00  0.00     0.273 C 
HETATM   23  C16 UNL     1       3.723  -1.994   1.376  1.00  0.00     0.030 C 
HETATM   24  C17 UNL     1       4.926  -2.440   0.587  1.00  0.00     0.003 C 
HETATM   25  C18 UNL     1       4.976  -1.783  -0.750  1.00  0.00     0.030 C 
HETATM   26  C19 UNL     1       3.661  -1.776  -1.478  1.00  0.00     0.273 C 
ENDBRANCH   5  21
TORSDOF 6
ENDMDL
MODEL 4
REMARK VINA RESULT: -8.032305911      2.889      4.978
REMARK  6 active torsions:
REMARK  status: ('A' for Active; 'I' for Inactive)
REMARK    1  A    between atoms: O1_1  and  C1_3 
REMARK    2  A    between atoms: C1_3  and  C2_4 
REMARK    3  A    between atoms: C2_4  and  C3_5 
REMARK    4  A    between atoms: C4_6  and  C5_7 
REMARK    5  A    between atoms: C5_7  and  C6_8 
REMARK    6  A    between atoms: C14_18  and  N2_19 
ROOT
HETATM    1  C1  UNL     1       0.905   0.858  -4.268  1.00  0.00     0.078 C 
HETATM    2  C11 UNL     1       0.352  -0.400  -3.691  1.00  0.00     0.007 C 
HETATM    3  C12 UNL     1      -0.105  -0.728  -2.502  1.00  0.00    -0.026 C 
HETATM    4  C13 UNL     1      -0.209   0.121  -1.293  1.00  0.00     0.062 C 
HETATM    5  C14 UNL     1      -0.993   1.372  -1.525  1.00  0.00     0.226 C 
HETATM    6  C20 UNL     1      -1.169   1.580  -3.033  1.00  0.00     0.039 C 
HETATM    7  C21 UNL     1       0.133   1.998  -3.640  1.00  0.00     0.044 C 
ENDROOT
BRANCH   1   8
HETATM    8  O1  UNL     1       2.234   0.894  -3.884  1.00  0.00    -0.386 OA
ATOM      9  H1  UNL     1       2.837   0.583  -4.550  1.00  0.00     0.211 HD
ENDBRANCH   1   8
BRANCH   1  10
HETATM   10  C2  UNL     1       0.700   0.793  -5.760  1.00  0.00     0.069 C 
BRANCH  10  11
HETATM   11  C3  UNL     1       1.311   1.833  -6.567  1.00  0.00    -0.024 C 
HETATM   12  C4  UNL     1       1.566   1.822  -7.979  1.00  0.00    -0.006 C 
BRANCH  12  13
HETATM   13  C5  UNL     1       0.602   1.843  -9.072  1.00  0.00    -0.002 C 
BRANCH  13  14
HETATM   14  C6  UNL     1       0.277   0.669  -9.897  1.00  0.00     0.103 C 
HETATM   15  C7  UNL     1      -1.244   0.437  -9.781  1.00  0.00     0.029 C 
HETATM   16  C8  UNL     1      -1.491  -0.238  -8.469  1.00  0.00     0.007 C 
HETATM   17  C9  UNL     1      -0.834  -1.595  -8.521  1.00  0.00     0.044 C 
HETATM   18  C10 UNL     1       0.613  -1.531  -8.883  1.00  0.00     0.056 C 
HETATM   19  N1  UNL     1       0.991  -0.512  -9.764  1.00  0.00    -0.394 N 
ATOM     20  H1  UNL     1       1.828  -0.643 -10.332  1.00  0.00     0.159 HD
ENDBRANCH  13  14
ENDBRANCH  12  13
ENDBRANCH  10  11
ENDBRANCH   1  10
BRANCH   5  21
HETATM   21  N2  UNL     1      -2.278   1.416  -0.905  1.00  0.00     0.093 N 
HETATM   22  C15 UNL     1      -2.357   2.202   0.285  1.00  0.00     0.273 C 
HETATM   23  C16 UNL     1      -3.678   1.825   0.971  1.00  0.00     0.030 C 
HETATM   24  C17 UNL     1      -4.768   2.330   0.063  1.00  0.00     0.003 C 
HETATM   25  C18 UNL     1      -4.690   1.699  -1.285  1.00  0.00     0.030 C 
HETATM   26  C19 UNL     1      -3.302   1.657  -1.862  1.00  0.00     0.273 C 
ENDBRANCH   5  21
TORSDOF 6
ENDMDL
MODEL 5
REMARK VINA RESULT: -7.820220715      4.700      8.703
REMARK  6 active torsions:
REMARK  status: ('A' for Active; 'I' for Inactive)
REMARK    1  A    between atoms: O1_1  and  C1_3 
REMARK    2  A    between atoms: C1_3  and  C2_4 
REMARK    3  A    between atoms: C2_4  and  C3_5 
REMARK    4  A    between atoms: C4_6  and  C5_7 
REMARK    5  A    between atoms: C5_7  and  C6_8 
REMARK    6  A    between atoms: C14_18  and  N2_19 
ROOT
HETATM    1  C1  UNL     1      -1.019   0.966  -2.748  1.00  0.00     0.078 C 
HETATM    2  C11 UNL     1       0.016   1.743  -3.486  1.00  0.00     0.007 C 
HETATM    3  C12 UNL     1       0.899   1.428  -4.410  1.00  0.00    -0.026 C 
HETATM    4  C13 UNL     1       1.142   0.108  -5.035  1.00  0.00     0.062 C 
HETATM    5  C14 UNL     1      -0.086  -0.480  -5.651  1.00  0.00     0.226 C 
HETATM    6  C20 UNL     1      -1.314   0.294  -5.159  1.00  0.00     0.039 C 
HETATM    7  C21 UNL     1      -1.581  -0.043  -3.726  1.00  0.00     0.044 C 
ENDROOT
BRANCH   1   8
HETATM    8  O1  UNL     1      -0.349   0.332  -1.717  1.00  0.00    -0.386 OA
ATOM      9  H1  UNL     1      -0.357  -0.617  -1.778  1.00  0.00     0.211 HD
ENDBRANCH   1   8
BRANCH   1  10
HETATM   10  C2  UNL     1      -2.067   1.947  -2.286  1.00  0.00     0.069 C 
BRANCH  10  11
HETATM   11  C3  UNL     1      -3.453   1.519  -2.335  1.00  0.00    -0.024 C 
HETATM   12  C4  UNL     1      -4.397   1.455  -1.256  1.00  0.00    -0.006 C 
BRANCH  12  13
HETATM   13  C5  UNL     1      -4.991   2.556  -0.507  1.00  0.00    -0.002 C 
BRANCH  13  14
HETATM   14  C6  UNL     1      -5.142   2.561   0.956  1.00  0.00     0.103 C 
HETATM   15  C7  UNL     1      -5.919   1.284   1.340  1.00  0.00     0.029 C 
HETATM   16  C8  UNL     1      -7.364   1.540   1.046  1.00  0.00     0.007 C 
HETATM   17  C9  UNL     1      -7.830   2.641   1.965  1.00  0.00     0.044 C 
HETATM   18  C10 UNL     1      -6.989   3.872   1.878  1.00  0.00     0.056 C 
HETATM   19  N1  UNL     1      -5.629   3.679   1.615  1.00  0.00    -0.394 N 
ATOM     20  H1  UNL     1      -4.967   4.393   1.921  1.00  0.00     0.159 HD
ENDBRANCH  13  14
ENDBRANCH  12  13
ENDBRANCH  10  11
ENDBRANCH   1  10
BRANCH   5  21
HETATM   21  N2  UNL     1      -0.105  -0.506  -7.079  1.00  0.00     0.093 N 
HETATM   22  C15 UNL     1      -1.040   0.380  -7.695  1.00  0.00     0.273 C 
HETATM   23  C16 UNL     1      -1.159  -0.060  -9.161  1.00  0.00     0.030 C 
HETATM   24  C17 UNL     1       0.178   0.240  -9.787  1.00  0.00     0.003 C 
HETATM   25  C18 UNL     1       1.277  -0.508  -9.112  1.00  0.00     0.030 C 
HETATM   26  C19 UNL     1       1.214  -0.465  -7.611  1.00  0.00     0.273 C 
ENDBRANCH   5  21
TORSDOF 6
ENDMDL
