MODEL 1
REMARK VINA RESULT: -7.837772629      0.000      0.000
REMARK  7 active torsions:
REMARK  status: ('A' for Active; 'I' for Inactive)
REMARK    1  A    between atoms: N1_2  and  C3_4 
REMARK    2  A    between atoms: C3_4  and  C4_5 
REMARK    3  A    between atoms: C7_8  and  C8_9 
REMARK    4  A    between atoms: C8_9  and  N3_13 
REMARK    5  A    between atoms: N3_13  and  C9_15 
REMARK    6  A    between atoms: C9_15  and  C10_16 
REMARK    7  A    between atoms: C9_15  and  C16_22 
ROOT
HETATM    1  N3  UNL     1      -0.926  -1.694  -4.393  1.00  0.00    -0.369 N 
ATOM      2  H3  UNL     1      -1.385  -2.025  -3.543  1.00  0.00     0.161 HD
ENDROOT
BRANCH   1   3
HETATM    3  C8  UNL     1      -1.518  -2.124  -5.581  1.00  0.00     0.129 C 
HETATM    4  N2  UNL     1      -2.268  -3.151  -5.658  1.00  0.00    -0.383 N 
ATOM      5  H22 UNL     1      -2.700  -3.465  -6.526  1.00  0.00     0.157 HD
ATOM      6  H21 UNL     1      -2.434  -3.668  -4.795  1.00  0.00     0.157 HD
BRANCH   3   7
HETATM    7  C7  UNL     1      -1.277  -1.373  -6.834  1.00  0.00     0.118 A 
HETATM    8  C6  UNL     1      -1.619  -1.778  -8.109  1.00  0.00     0.043 A 
HETATM    9  C5  UNL     1      -1.216  -0.791  -8.961  1.00  0.00     0.037 A 
HETATM   10  C4  UNL     1      -0.638   0.192  -8.191  1.00  0.00     0.082 A 
HETATM   11  O1  UNL     1      -0.701  -0.200  -6.963  1.00  0.00    -0.309 OA
BRANCH  10  12
HETATM   12  C3  UNL     1      -0.069   1.443  -8.750  1.00  0.00     0.335 C 
BRANCH  12  13
HETATM   13  N1  UNL     1       1.371   1.467  -8.687  1.00  0.00     0.086 N 
HETATM   14  C1  UNL     1       1.940   0.125  -8.673  1.00  0.00     0.309 C 
HETATM   15  C2  UNL     1       1.720   2.059  -7.390  1.00  0.00     0.309 C 
ENDBRANCH  12  13
ENDBRANCH  10  12
ENDBRANCH   3   7
ENDBRANCH   1   3
BRANCH   1  16
HETATM   16  C9  UNL     1       0.210  -0.869  -4.171  1.00  0.00     0.091 C 
BRANCH  16  17
HETATM   17  C10 UNL     1       1.463  -1.628  -3.823  1.00  0.00     0.009 C 
HETATM   18  C11 UNL     1       2.371  -0.688  -3.012  1.00  0.00     0.007 C 
HETATM   19  C12 UNL     1       3.178  -1.450  -1.982  1.00  0.00     0.000 C 
HETATM   20  C13 UNL     1       2.305  -1.929  -0.832  1.00  0.00     0.000 C 
HETATM   21  C14 UNL     1       0.955  -2.261  -1.444  1.00  0.00     0.000 C 
HETATM   22  C15 UNL     1       1.154  -2.750  -2.875  1.00  0.00     0.007 C 
ENDBRANCH  16  17
BRANCH  16  23
HETATM   23  C16 UNL     1      -0.122   0.246  -3.258  1.00  0.00     0.009 C 
HETATM   24  C17 UNL     1      -0.191   1.579  -4.025  1.00  0.00     0.007 C 
HETATM   25  C18 UNL     1      -0.673   2.499  -2.899  1.00  0.00     0.000 C 
HETATM   26  C19 UNL     1      -1.345   1.614  -1.870  1.00  0.00     0.000 C 
HETATM   27  C20 UNL     1      -1.442   0.249  -2.590  1.00  0.00     0.007 C 
ENDBRANCH  16  23
ENDBRANCH   1  16
TORSDOF 7
ENDMDL
MODEL 2
REMARK VINA RESULT: -7.814601663      1.664      4.444
REMARK  7 active torsions:
REMARK  status: ('A' for Active; 'I' for Inactive)
REMARK    1  A    between atoms: N1_2  and  C3_4 
REMARK    2  A    between atoms: C3_4  and  C4_5 
REMARK    3  A    between atoms: C7_8  and  C8_9 
REMARK    4  A    between atoms: C8_9  and  N3_13 
REMARK    5  A    between atoms: N3_13  and  C9_15 
REMARK    6  A    between atoms: C9_15  and  C10_16 
REMARK    7  A    between atoms: C9_15  and  C16_22 
ROOT
HETATM    1  N3  UNL     1       0.935   1.669  -4.404  1.00  0.00    -0.369 N 
ATOM      2  H3  UNL     1       1.399   2.006  -3.560  1.00  0.00     0.161 HD
ENDROOT
BRANCH   1   3
HETATM    3  C8  UNL     1       1.521   2.090  -5.599  1.00  0.00     0.129 C 
HETATM    4  N2  UNL     1       2.251   3.130  -5.692  1.00  0.00    -0.383 N 
ATOM      5  H22 UNL     1       2.679   3.437  -6.566  1.00  0.00     0.157 HD
ATOM      6  H21 UNL     1       2.406   3.664  -4.838  1.00  0.00     0.157 HD
BRANCH   3   7
HETATM    7  C7  UNL     1       1.296   1.313  -6.839  1.00  0.00     0.118 A 
HETATM    8  C6  UNL     1       1.696   1.671  -8.112  1.00  0.00     0.043 A 
HETATM    9  C5  UNL     1       1.288   0.675  -8.951  1.00  0.00     0.037 A 
HETATM   10  C4  UNL     1       0.650  -0.265  -8.176  1.00  0.00     0.082 A 
HETATM   11  O1  UNL     1       0.685   0.158  -6.958  1.00  0.00    -0.309 OA
BRANCH  10  12
HETATM   12  C3  UNL     1       0.057  -1.511  -8.722  1.00  0.00     0.335 C 
BRANCH  12  13
HETATM   13  N1  UNL     1      -1.383  -1.507  -8.658  1.00  0.00     0.086 N 
HETATM   14  C1  UNL     1      -1.926  -0.155  -8.650  1.00  0.00     0.309 C 
HETATM   15  C2  UNL     1      -1.744  -2.087  -7.360  1.00  0.00     0.309 C 
ENDBRANCH  12  13
ENDBRANCH  10  12
ENDBRANCH   3   7
ENDBRANCH   1   3
BRANCH   1  16
HETATM   16  C9  UNL     1      -0.202   0.849  -4.171  1.00  0.00     0.091 C 
BRANCH  16  17
HETATM   17  C10 UNL     1      -1.451   1.612  -3.823  1.00  0.00     0.009 C 
HETATM   18  C11 UNL     1      -2.365   0.675  -3.016  1.00  0.00     0.007 C 
HETATM   19  C12 UNL     1      -3.170   1.437  -1.984  1.00  0.00     0.000 C 
HETATM   20  C13 UNL     1      -2.296   1.909  -0.832  1.00  0.00     0.000 C 
HETATM   21  C14 UNL     1      -0.944   2.236  -1.441  1.00  0.00     0.000 C 
HETATM   22  C15 UNL     1      -1.138   2.730  -2.870  1.00  0.00     0.007 C 
ENDBRANCH  16  17
BRANCH  16  23
HETATM   23  C16 UNL     1       0.133  -0.260  -3.251  1.00  0.00     0.009 C 
HETATM   24  C17 UNL     1       0.189  -1.600  -4.007  1.00  0.00     0.007 C 
HETATM   25  C18 UNL     1       0.676  -2.513  -2.877  1.00  0.00     0.000 C 
HETATM   26  C19 UNL     1       1.361  -1.622  -1.862  1.00  0.00     0.000 C 
HETATM   27  C20 UNL     1       1.459  -0.264  -2.595  1.00  0.00     0.007 C 
ENDBRANCH  16  23
ENDBRANCH   1  16
TORSDOF 7
ENDMDL
MODEL 3
REMARK VINA RESULT: -7.539272607      1.741      3.226
REMARK  7 active torsions:
REMARK  status: ('A' for Active; 'I' for Inactive)
REMARK    1  A    between atoms: N1_2  and  C3_4 
REMARK    2  A    between atoms: C3_4  and  C4_5 
REMARK    3  A    between atoms: C7_8  and  C8_9 
REMARK    4  A    between atoms: C8_9  and  N3_13 
REMARK    5  A    between atoms: N3_13  and  C9_15 
REMARK    6  A    between atoms: C9_15  and  C10_16 
REMARK    7  A    between atoms: C9_15  and  C16_22 
ROOT
HETATM    1  N3  UNL     1       0.351   1.897  -4.407  1.00  0.00    -0.369 N 
ATOM      2  H3  UNL     1      -0.470   2.496  -4.496  1.00  0.00     0.161 HD
ENDROOT
BRANCH   1   3
HETATM    3  C8  UNL     1       1.316   2.080  -5.398  1.00  0.00     0.129 C 
HETATM    4  N2  UNL     1       2.295   2.886  -5.281  1.00  0.00    -0.383 N 
ATOM      5  H22 UNL     1       3.001   3.020  -6.006  1.00  0.00     0.157 HD
ATOM      6  H21 UNL     1       2.361   3.411  -4.409  1.00  0.00     0.157 HD
BRANCH   3   7
HETATM    7  C7  UNL     1       1.221   1.318  -6.664  1.00  0.00     0.118 A 
HETATM    8  C6  UNL     1       1.795   1.664  -7.872  1.00  0.00     0.043 A 
HETATM    9  C5  UNL     1       1.458   0.689  -8.765  1.00  0.00     0.037 A 
HETATM   10  C4  UNL     1       0.688  -0.228  -8.087  1.00  0.00     0.082 A 
HETATM   11  O1  UNL     1       0.584   0.189  -6.870  1.00  0.00    -0.309 OA
BRANCH  10  12
HETATM   12  C3  UNL     1       0.120  -1.446  -8.715  1.00  0.00     0.335 C 
BRANCH  12  13
HETATM   13  N1  UNL     1      -1.321  -1.434  -8.730  1.00  0.00     0.086 N 
HETATM   14  C1  UNL     1      -1.857  -0.080  -8.724  1.00  0.00     0.309 C 
HETATM   15  C2  UNL     1      -1.755  -2.038  -7.465  1.00  0.00     0.309 C 
ENDBRANCH  12  13
ENDBRANCH  10  12
ENDBRANCH   3   7
ENDBRANCH   1   3
BRANCH   1  16
HETATM   16  C9  UNL     1       0.325   1.012  -3.295  1.00  0.00     0.091 C 
BRANCH  16  17
HETATM   17  C10 UNL     1       0.914  -0.344  -3.573  1.00  0.00     0.009 C 
HETATM   18  C11 UNL     1       2.407  -0.292  -3.208  1.00  0.00     0.007 C 
HETATM   19  C12 UNL     1       2.896  -1.623  -2.678  1.00  0.00     0.000 C 
HETATM   20  C13 UNL     1       2.357  -1.901  -1.283  1.00  0.00     0.000 C 
HETATM   21  C14 UNL     1       0.964  -1.296  -1.247  1.00  0.00     0.000 C 
HETATM   22  C15 UNL     1       0.343  -1.370  -2.637  1.00  0.00     0.007 C 
ENDBRANCH  16  17
BRANCH  16  23
HETATM   23  C16 UNL     1      -1.015   0.997  -2.670  1.00  0.00     0.009 C 
HETATM   24  C17 UNL     1      -1.038   1.872  -1.403  1.00  0.00     0.007 C 
HETATM   25  C18 UNL     1      -2.528   1.787  -1.057  1.00  0.00     0.000 C 
HETATM   26  C19 UNL     1      -3.252   1.424  -2.337  1.00  0.00     0.000 C 
HETATM   27  C20 UNL     1      -2.155   1.574  -3.416  1.00  0.00     0.007 C 
ENDBRANCH  16  23
ENDBRANCH   1  16
TORSDOF 7
ENDMDL
MODEL 4
REMARK VINA RESULT: -7.529418172      0.760      3.280
REMARK  7 active torsions:
REMARK  status: ('A' for Active; 'I' for Inactive)
REMARK    1  A    between atoms: N1_2  and  C3_4 
REMARK    2  A    between atoms: C3_4  and  C4_5 
REMARK    3  A    between atoms: C7_8  and  C8_9 
REMARK    4  A    between atoms: C8_9  and  N3_13 
REMARK    5  A    between atoms: N3_13  and  C9_15 
REMARK    6  A    between atoms: C9_15  and  C10_16 
REMARK    7  A    between atoms: C9_15  and  C16_22 
ROOT
HETATM    1  N3  UNL     1      -0.326  -1.876  -4.393  1.00  0.00    -0.369 N 
ATOM      2  H3  UNL     1       0.507  -2.454  -4.504  1.00  0.00     0.161 HD
ENDROOT
BRANCH   1   3
HETATM    3  C8  UNL     1      -1.300  -2.062  -5.375  1.00  0.00     0.129 C 
HETATM    4  N2  UNL     1      -2.283  -2.862  -5.244  1.00  0.00    -0.383 N 
ATOM      5  H22 UNL     1      -2.995  -2.997  -5.962  1.00  0.00     0.157 HD
ATOM      6  H21 UNL     1      -2.344  -3.380  -4.368  1.00  0.00     0.157 HD
BRANCH   3   7
HETATM    7  C7  UNL     1      -1.211  -1.310  -6.647  1.00  0.00     0.118 A 
HETATM    8  C6  UNL     1      -1.786  -1.668  -7.851  1.00  0.00     0.043 A 
HETATM    9  C5  UNL     1      -1.455  -0.698  -8.753  1.00  0.00     0.037 A 
HETATM   10  C4  UNL     1      -0.689   0.227  -8.083  1.00  0.00     0.082 A 
HETATM   11  O1  UNL     1      -0.580  -0.180  -6.863  1.00  0.00    -0.309 OA
BRANCH  10  12
HETATM   12  C3  UNL     1      -0.128   1.443  -8.722  1.00  0.00     0.335 C 
BRANCH  12  13
HETATM   13  N1  UNL     1       1.314   1.445  -8.727  1.00  0.00     0.086 N 
HETATM   14  C1  UNL     1       1.862   0.095  -8.750  1.00  0.00     0.309 C 
HETATM   15  C2  UNL     1       1.733   2.021  -7.444  1.00  0.00     0.309 C 
ENDBRANCH  12  13
ENDBRANCH  10  12
ENDBRANCH   3   7
ENDBRANCH   1   3
BRANCH   1  16
HETATM   16  C9  UNL     1      -0.306  -1.014  -3.263  1.00  0.00     0.091 C 
BRANCH  16  17
HETATM   17  C10 UNL     1      -0.881   0.352  -3.520  1.00  0.00     0.009 C 
HETATM   18  C11 UNL     1      -2.382   0.300  -3.188  1.00  0.00     0.007 C 
HETATM   19  C12 UNL     1      -2.875   1.621  -2.637  1.00  0.00     0.000 C 
HETATM   20  C13 UNL     1      -2.365   1.861  -1.225  1.00  0.00     0.000 C 
HETATM   21  C14 UNL     1      -0.976   1.247  -1.173  1.00  0.00     0.000 C 
HETATM   22  C15 UNL     1      -0.325   1.352  -2.548  1.00  0.00     0.007 C 
ENDBRANCH  16  17
BRANCH  16  23
HETATM   23  C16 UNL     1       1.027  -1.022  -2.623  1.00  0.00     0.009 C 
HETATM   24  C17 UNL     1       1.035  -1.937  -1.385  1.00  0.00     0.007 C 
HETATM   25  C18 UNL     1       2.521  -1.867  -1.021  1.00  0.00     0.000 C 
HETATM   26  C19 UNL     1       3.259  -1.464  -2.280  1.00  0.00     0.000 C 
HETATM   27  C20 UNL     1       2.175  -1.576  -3.375  1.00  0.00     0.007 C 
ENDBRANCH  16  23
ENDBRANCH   1  16
TORSDOF 7
ENDMDL
MODEL 5
REMARK VINA RESULT: -7.309447853      2.560      6.427
REMARK  7 active torsions:
REMARK  status: ('A' for Active; 'I' for Inactive)
REMARK    1  A    between atoms: N1_2  and  C3_4 
REMARK    2  A    between atoms: C3_4  and  C4_5 
REMARK    3  A    between atoms: C7_8  and  C8_9 
REMARK    4  A    between atoms: C8_9  and  N3_13 
REMARK    5  A    between atoms: N3_13  and  C9_15 
REMARK    6  A    between atoms: C9_15  and  C10_16 
REMARK    7  A    between atoms: C9_15  and  C16_22 
ROOT
HETATM    1  N3  UNL     1       1.316  -0.109  -4.164  1.00  0.00    -0.369 N 
ATOM      2  H3  UNL     1       1.907   0.723  -4.139  1.00  0.00     0.161 HD
ENDROOT
BRANCH   1   3
HETATM    3  C8  UNL     1       1.755  -1.160  -3.359  1.00  0.00     0.129 C 
HETATM    4  N2  UNL     1       2.521  -2.089  -3.775  1.00  0.00    -0.383 N 
ATOM      5  H22 UNL     1       2.842  -2.857  -3.187  1.00  0.00     0.157 HD
ATOM      6  H21 UNL     1       2.820  -2.040  -4.749  1.00  0.00     0.157 HD
BRANCH   3   7
HETATM    7  C7  UNL     1       1.322  -1.231  -1.945  1.00  0.00     0.118 A 
HETATM    8  C6  UNL     1       1.351  -2.350  -1.135  1.00  0.00     0.043 A 
HETATM    9  C5  UNL     1       0.865  -1.971   0.083  1.00  0.00     0.037 A 
HETATM   10  C4  UNL     1       0.550  -0.636  -0.008  1.00  0.00     0.082 A 
HETATM   11  O1  UNL     1       0.837  -0.258  -1.209  1.00  0.00    -0.309 OA
BRANCH  10  12
HETATM   12  C3  UNL     1      -0.012   0.153   1.116  1.00  0.00     0.335 C 
BRANCH  12  13
HETATM   13  N1  UNL     1      -1.391   0.510   0.898  1.00  0.00     0.086 N 
HETATM   14  C1  UNL     1      -1.554   1.936   0.648  1.00  0.00     0.309 C 
HETATM   15  C2  UNL     1      -2.094   0.246   2.160  1.00  0.00     0.309 C 
ENDBRANCH  12  13
ENDBRANCH  10  12
ENDBRANCH   3   7
ENDBRANCH   1   3
BRANCH   1  16
HETATM   16  C9  UNL     1       0.182  -0.007  -5.014  1.00  0.00     0.091 C 
BRANCH  16  17
HETATM   17  C10 UNL     1       0.508   0.367  -6.435  1.00  0.00     0.009 C 
HETATM   18  C11 UNL     1       1.281  -0.804  -7.063  1.00  0.00     0.007 C 
HETATM   19  C12 UNL     1       0.976  -0.942  -8.540  1.00  0.00     0.000 C 
HETATM   20  C13 UNL     1      -0.427  -1.478  -8.772  1.00  0.00     0.000 C 
HETATM   21  C14 UNL     1      -1.283  -0.905  -7.655  1.00  0.00     0.000 C 
HETATM   22  C15 UNL     1      -0.745   0.464  -7.256  1.00  0.00     0.007 C 
ENDBRANCH  16  17
BRANCH  16  23
HETATM   23  C16 UNL     1      -0.877   0.807  -4.379  1.00  0.00     0.009 C 
HETATM   24  C17 UNL     1      -1.761  -0.061  -3.465  1.00  0.00     0.007 C 
HETATM   25  C18 UNL     1      -2.648   1.028  -2.854  1.00  0.00     0.000 C 
HETATM   26  C19 UNL     1      -1.889   2.332  -2.984  1.00  0.00     0.000 C 
HETATM   27  C20 UNL     1      -0.482   1.877  -3.436  1.00  0.00     0.007 C 
ENDBRANCH  16  23
ENDBRANCH   1  16
TORSDOF 7
ENDMDL
