MODEL 1
REMARK VINA RESULT: -6.314918293      0.000      0.000
REMARK  8 active torsions:
REMARK  status: ('A' for Active; 'I' for Inactive)
REMARK    1  A    between atoms: C2_2  and  C3_3 
REMARK    2  A    between atoms: C4_4  and  O1_5 
REMARK    3  A    between atoms: C9_11  and  C10_12 
REMARK    4  A    between atoms: C10_12  and  C11_13 
REMARK    5  A    between atoms: C10_12  and  C13_15 
REMARK    6  A    between atoms: C13_15  and  C15_17 
REMARK    7  A    between atoms: C15_17  and  C16_19 
REMARK    8  A    between atoms: C17_21  and  C19_23 
ROOT
HETATM    1  C3  UNL     1      -0.386  -0.341   5.898  1.00  0.00     0.045 C 
HETATM    2  C4  UNL     1      -0.408   1.107   6.162  1.00  0.00     0.126 C 
HETATM    3  C5  UNL     1      -1.191   1.713   5.033  1.00  0.00     0.033 C 
HETATM    4  C6  UNL     1      -0.421   1.515   3.737  1.00  0.00     0.013 C 
HETATM    5  C7  UNL     1       0.316   0.292   3.522  1.00  0.00    -0.031 C 
HETATM    6  C8  UNL     1       1.819   0.536   3.847  1.00  0.00     0.016 C 
HETATM    7  C9  UNL     1       0.376  -0.319   2.108  1.00  0.00     0.011 C 
HETATM    8  C17 UNL     1      -0.931  -0.846   1.641  1.00  0.00    -0.022 C 
HETATM    9  C18 UNL     1      -1.766  -0.091   0.699  1.00  0.00     0.020 C 
HETATM   10  C21 UNL     1      -1.854  -1.040   2.894  1.00  0.00     0.014 C 
HETATM   11  C22 UNL     1      -1.111  -1.678   3.983  1.00  0.00     0.012 C 
HETATM   12  C23 UNL     1       0.016  -0.817   4.560  1.00  0.00    -0.027 C 
HETATM   13  C24 UNL     1       1.170  -1.756   4.794  1.00  0.00     0.016 C 
ENDROOT
BRANCH   7  14
HETATM   14  C10 UNL     1       1.369   0.278   1.189  1.00  0.00     0.002 C 
BRANCH  14  15
HETATM   15  C11 UNL     1       1.237  -0.714  -0.057  1.00  0.00     0.001 C 
HETATM   16  C12 UNL     1       1.110  -0.093  -1.388  1.00  0.00     0.005 C 
ENDBRANCH  14  15
BRANCH  14  17
HETATM   17  C13 UNL     1       1.294   1.534   0.456  1.00  0.00     0.061 C 
HETATM   18  C14 UNL     1       0.769   2.807   1.033  1.00  0.00     0.018 C 
BRANCH  17  19
HETATM   19  C15 UNL     1       2.750   2.045   0.395  1.00  0.00     0.166 C 
HETATM   20  O2  UNL     1       3.016   2.808  -0.483  1.00  0.00    -0.292 OA
BRANCH  19  21
HETATM   21  C16 UNL     1       3.802   1.647   1.321  1.00  0.00     0.150 C 
HETATM   22  N1  UNL     1       5.050   1.233   0.819  1.00  0.00    -0.111 NA
ENDBRANCH  19  21
ENDBRANCH  17  19
ENDBRANCH  14  17
ENDBRANCH   7  14
BRANCH   8  23
HETATM   23  C19 UNL     1      -0.917  -2.261   1.156  1.00  0.00    -0.027 C 
HETATM   24  C20 UNL     1      -1.775  -2.681   0.263  1.00  0.00     0.007 C 
ENDBRANCH   8  23
BRANCH   1  25
HETATM   25  C2  UNL     1       0.275  -1.021   7.035  1.00  0.00    -0.029 C 
HETATM   26  C1  UNL     1       1.266  -0.539   7.749  1.00  0.00     0.007 C 
ENDBRANCH   1  25
BRANCH   2  27
HETATM   27  O1  UNL     1      -1.218   1.318   7.310  1.00  0.00    -0.395 OA
ATOM     28  H1  UNL     1      -0.643   1.573   8.022  1.00  0.00     0.210 HD
ENDBRANCH   2  27
TORSDOF 8
ENDMDL
MODEL 2
REMARK VINA RESULT: -6.284479691      2.871      4.625
REMARK  8 active torsions:
REMARK  status: ('A' for Active; 'I' for Inactive)
REMARK    1  A    between atoms: C2_2  and  C3_3 
REMARK    2  A    between atoms: C4_4  and  O1_5 
REMARK    3  A    between atoms: C9_11  and  C10_12 
REMARK    4  A    between atoms: C10_12  and  C11_13 
REMARK    5  A    between atoms: C10_12  and  C13_15 
REMARK    6  A    between atoms: C13_15  and  C15_17 
REMARK    7  A    between atoms: C15_17  and  C16_19 
REMARK    8  A    between atoms: C17_21  and  C19_23 
ROOT
HETATM    1  C3  UNL     1       0.282   0.435   5.821  1.00  0.00     0.045 C 
HETATM    2  C4  UNL     1       0.304  -1.006   6.115  1.00  0.00     0.126 C 
HETATM    3  C5  UNL     1       1.103  -1.634   5.009  1.00  0.00     0.033 C 
HETATM    4  C6  UNL     1       0.350  -1.464   3.699  1.00  0.00     0.013 C 
HETATM    5  C7  UNL     1      -0.387  -0.249   3.450  1.00  0.00    -0.031 C 
HETATM    6  C8  UNL     1      -1.894  -0.489   3.760  1.00  0.00     0.016 C 
HETATM    7  C9  UNL     1      -0.431   0.333   2.022  1.00  0.00     0.011 C 
HETATM    8  C17 UNL     1       0.882   0.853   1.561  1.00  0.00    -0.022 C 
HETATM    9  C18 UNL     1       1.730   0.080   0.647  1.00  0.00     0.020 C 
HETATM   10  C21 UNL     1       1.788   1.075   2.822  1.00  0.00     0.014 C 
HETATM   11  C22 UNL     1       1.029   1.735   3.887  1.00  0.00     0.012 C 
HETATM   12  C23 UNL     1      -0.103   0.883   4.468  1.00  0.00    -0.027 C 
HETATM   13  C24 UNL     1      -1.262   1.824   4.667  1.00  0.00     0.016 C 
ENDROOT
BRANCH   7  14
HETATM   14  C10 UNL     1      -1.410  -0.285   1.103  1.00  0.00     0.002 C 
BRANCH  14  15
HETATM   15  C11 UNL     1      -1.277   0.692  -0.154  1.00  0.00     0.001 C 
HETATM   16  C12 UNL     1      -1.156   0.055  -1.479  1.00  0.00     0.005 C 
ENDBRANCH  14  15
BRANCH  14  17
HETATM   17  C13 UNL     1      -1.317  -1.550   0.388  1.00  0.00     0.061 C 
HETATM   18  C14 UNL     1      -0.799  -2.814   0.990  1.00  0.00     0.018 C 
BRANCH  17  19
HETATM   19  C15 UNL     1      -2.770  -2.066   0.305  1.00  0.00     0.166 C 
HETATM   20  O2  UNL     1      -3.018  -2.838  -0.571  1.00  0.00    -0.292 OA
BRANCH  19  21
HETATM   21  C16 UNL     1      -3.840  -1.663   1.209  1.00  0.00     0.150 C 
HETATM   22  N1  UNL     1      -5.074  -1.240   0.680  1.00  0.00    -0.111 NA
ENDBRANCH  19  21
ENDBRANCH  17  19
ENDBRANCH  14  17
ENDBRANCH   7  14
BRANCH   8  23
HETATM   23  C19 UNL     1       0.871   2.257   1.047  1.00  0.00    -0.027 C 
HETATM   24  C20 UNL     1       1.741   2.661   0.157  1.00  0.00     0.007 C 
ENDBRANCH   8  23
BRANCH   1  25
HETATM   25  C2  UNL     1      -0.394   1.138   6.935  1.00  0.00    -0.029 C 
HETATM   26  C1  UNL     1      -1.298   0.620   7.734  1.00  0.00     0.007 C 
ENDBRANCH   1  25
BRANCH   2  27
HETATM   27  O1  UNL     1       1.100  -1.192   7.278  1.00  0.00    -0.395 OA
ATOM     28  H1  UNL     1       0.855  -2.027   7.661  1.00  0.00     0.210 HD
ENDBRANCH   2  27
TORSDOF 8
ENDMDL
MODEL 3
REMARK VINA RESULT: -6.008881815      3.061      6.773
REMARK  8 active torsions:
REMARK  status: ('A' for Active; 'I' for Inactive)
REMARK    1  A    between atoms: C2_2  and  C3_3 
REMARK    2  A    between atoms: C4_4  and  O1_5 
REMARK    3  A    between atoms: C9_11  and  C10_12 
REMARK    4  A    between atoms: C10_12  and  C11_13 
REMARK    5  A    between atoms: C10_12  and  C13_15 
REMARK    6  A    between atoms: C13_15  and  C15_17 
REMARK    7  A    between atoms: C15_17  and  C16_19 
REMARK    8  A    between atoms: C17_21  and  C19_23 
ROOT
HETATM    1  C3  UNL     1      -0.173   0.950   2.472  1.00  0.00     0.045 C 
HETATM    2  C4  UNL     1      -0.763  -0.268   1.894  1.00  0.00     0.126 C 
HETATM    3  C5  UNL     1      -1.835  -0.694   2.853  1.00  0.00     0.033 C 
HETATM    4  C6  UNL     1      -1.188  -1.101   4.167  1.00  0.00     0.013 C 
HETATM    5  C7  UNL     1      -0.039  -0.376   4.654  1.00  0.00    -0.031 C 
HETATM    6  C8  UNL     1       1.254  -1.165   4.295  1.00  0.00     0.016 C 
HETATM    7  C9  UNL     1       0.125  -0.140   6.169  1.00  0.00     0.011 C 
HETATM    8  C17 UNL     1      -0.890   0.788   6.730  1.00  0.00    -0.022 C 
HETATM    9  C18 UNL     1      -2.052   0.289   7.474  1.00  0.00     0.020 C 
HETATM   10  C21 UNL     1      -1.518   1.598   5.544  1.00  0.00     0.014 C 
HETATM   11  C22 UNL     1      -0.472   2.062   4.630  1.00  0.00     0.012 C 
HETATM   12  C23 UNL     1       0.252   0.936   3.885  1.00  0.00    -0.027 C 
HETATM   13  C24 UNL     1       1.708   1.323   3.875  1.00  0.00     0.016 C 
ENDROOT
BRANCH   7  14
HETATM   14  C10 UNL     1       0.685  -1.270   6.941  1.00  0.00     0.002 C 
BRANCH  14  15
HETATM   15  C11 UNL     1       1.714  -1.863   5.873  1.00  0.00     0.001 C 
HETATM   16  C12 UNL     1       2.451  -3.078   6.266  1.00  0.00     0.005 C 
ENDBRANCH  14  15
BRANCH  14  17
HETATM   17  C13 UNL     1       1.581  -1.235   8.089  1.00  0.00     0.061 C 
HETATM   18  C14 UNL     1       2.240   0.005   8.596  1.00  0.00     0.018 C 
BRANCH  17  19
HETATM   19  C15 UNL     1       0.656  -1.368   9.318  1.00  0.00     0.166 C 
HETATM   20  O2  UNL     1       0.762  -0.533  10.164  1.00  0.00    -0.292 OA
BRANCH  19  21
HETATM   21  C16 UNL     1      -0.311  -2.441   9.508  1.00  0.00     0.150 C 
HETATM   22  N1  UNL     1      -0.642  -2.856  10.812  1.00  0.00    -0.111 NA
ENDBRANCH  19  21
ENDBRANCH  17  19
ENDBRANCH  14  17
ENDBRANCH   7  14
BRANCH   8  23
HETATM   23  C19 UNL     1      -0.342   1.937   7.517  1.00  0.00    -0.027 C 
HETATM   24  C20 UNL     1      -0.803   2.225   8.707  1.00  0.00     0.007 C 
ENDBRANCH   8  23
BRANCH   1  25
HETATM   25  C2  UNL     1       0.821   1.495   1.519  1.00  0.00    -0.029 C 
HETATM   26  C1  UNL     1       0.610   2.467   0.661  1.00  0.00     0.007 C 
ENDBRANCH   1  25
BRANCH   2  27
HETATM   27  O1  UNL     1      -1.467   0.115   0.720  1.00  0.00    -0.395 OA
ATOM     28  H1  UNL     1      -0.821   0.318   0.053  1.00  0.00     0.210 HD
ENDBRANCH   2  27
TORSDOF 8
ENDMDL
MODEL 4
REMARK VINA RESULT: -5.989944072      2.748      6.678
REMARK  8 active torsions:
REMARK  status: ('A' for Active; 'I' for Inactive)
REMARK    1  A    between atoms: C2_2  and  C3_3 
REMARK    2  A    between atoms: C4_4  and  O1_5 
REMARK    3  A    between atoms: C9_11  and  C10_12 
REMARK    4  A    between atoms: C10_12  and  C11_13 
REMARK    5  A    between atoms: C10_12  and  C13_15 
REMARK    6  A    between atoms: C13_15  and  C15_17 
REMARK    7  A    between atoms: C15_17  and  C16_19 
REMARK    8  A    between atoms: C17_21  and  C19_23 
ROOT
HETATM    1  C3  UNL     1       0.222  -0.948   2.483  1.00  0.00     0.045 C 
HETATM    2  C4  UNL     1       0.813   0.275   1.916  1.00  0.00     0.126 C 
HETATM    3  C5  UNL     1       1.880   0.697   2.884  1.00  0.00     0.033 C 
HETATM    4  C6  UNL     1       1.224   1.094   4.197  1.00  0.00     0.013 C 
HETATM    5  C7  UNL     1       0.074   0.364   4.673  1.00  0.00    -0.031 C 
HETATM    6  C8  UNL     1      -1.219   1.153   4.312  1.00  0.00     0.016 C 
HETATM    7  C9  UNL     1      -0.098   0.119   6.185  1.00  0.00     0.011 C 
HETATM    8  C17 UNL     1       0.915  -0.811   6.747  1.00  0.00    -0.022 C 
HETATM    9  C18 UNL     1       2.072  -0.315   7.500  1.00  0.00     0.020 C 
HETATM   10  C21 UNL     1       1.552  -1.613   5.559  1.00  0.00     0.014 C 
HETATM   11  C22 UNL     1       0.511  -2.073   4.636  1.00  0.00     0.012 C 
HETATM   12  C23 UNL     1      -0.210  -0.944   3.894  1.00  0.00    -0.027 C 
HETATM   13  C24 UNL     1      -1.665  -1.334   3.873  1.00  0.00     0.016 C 
ENDROOT
BRANCH   7  14
HETATM   14  C10 UNL     1      -0.665   1.242   6.962  1.00  0.00     0.002 C 
BRANCH  14  15
HETATM   15  C11 UNL     1      -1.671   1.855   5.883  1.00  0.00     0.001 C 
HETATM   16  C12 UNL     1      -2.418   3.062   6.283  1.00  0.00     0.005 C 
ENDBRANCH  14  15
BRANCH  14  17
HETATM   17  C13 UNL     1      -1.581   1.198   8.093  1.00  0.00     0.061 C 
HETATM   18  C14 UNL     1      -2.221  -0.051   8.602  1.00  0.00     0.018 C 
BRANCH  17  19
HETATM   19  C15 UNL     1      -0.683   1.366   9.337  1.00  0.00     0.166 C 
HETATM   20  O2  UNL     1      -0.770   0.526  10.181  1.00  0.00    -0.292 OA
BRANCH  19  21
HETATM   21  C16 UNL     1       0.238   2.476   9.545  1.00  0.00     0.150 C 
HETATM   22  N1  UNL     1       0.619   2.829  10.853  1.00  0.00    -0.111 NA
ENDBRANCH  19  21
ENDBRANCH  17  19
ENDBRANCH  14  17
ENDBRANCH   7  14
BRANCH   8  23
HETATM   23  C19 UNL     1       0.366  -1.966   7.523  1.00  0.00    -0.027 C 
HETATM   24  C20 UNL     1       0.766  -2.215   8.743  1.00  0.00     0.007 C 
ENDBRANCH   8  23
BRANCH   1  25
HETATM   25  C2  UNL     1      -0.765  -1.489   1.521  1.00  0.00    -0.029 C 
HETATM   26  C1  UNL     1      -0.552  -2.464   0.668  1.00  0.00     0.007 C 
ENDBRANCH   1  25
BRANCH   2  27
HETATM   27  O1  UNL     1       1.525  -0.100   0.744  1.00  0.00    -0.395 OA
ATOM     28  H1  UNL     1       1.951   0.680   0.407  1.00  0.00     0.210 HD
ENDBRANCH   2  27
TORSDOF 8
ENDMDL
MODEL 5
REMARK VINA RESULT: -5.912695569      2.432      6.051
REMARK  8 active torsions:
REMARK  status: ('A' for Active; 'I' for Inactive)
REMARK    1  A    between atoms: C2_2  and  C3_3 
REMARK    2  A    between atoms: C4_4  and  O1_5 
REMARK    3  A    between atoms: C9_11  and  C10_12 
REMARK    4  A    between atoms: C10_12  and  C11_13 
REMARK    5  A    between atoms: C10_12  and  C13_15 
REMARK    6  A    between atoms: C13_15  and  C15_17 
REMARK    7  A    between atoms: C15_17  and  C16_19 
REMARK    8  A    between atoms: C17_21  and  C19_23 
ROOT
HETATM    1  C3  UNL     1       2.678   1.614   0.856  1.00  0.00     0.045 C 
HETATM    2  C4  UNL     1       3.937   1.402   1.588  1.00  0.00     0.126 C 
HETATM    3  C5  UNL     1       3.770   0.100   2.314  1.00  0.00     0.033 C 
HETATM    4  C6  UNL     1       2.676   0.254   3.359  1.00  0.00     0.013 C 
HETATM    5  C7  UNL     1       1.518   1.065   3.067  1.00  0.00    -0.031 C 
HETATM    6  C8  UNL     1       1.702   2.471   3.711  1.00  0.00     0.016 C 
HETATM    7  C9  UNL     1       0.136   0.635   3.599  1.00  0.00     0.011 C 
HETATM    8  C17 UNL     1      -0.379  -0.602   2.958  1.00  0.00    -0.022 C 
HETATM    9  C18 UNL     1      -0.307  -1.900   3.636  1.00  0.00     0.020 C 
HETATM   10  C21 UNL     1       0.414  -0.826   1.624  1.00  0.00     0.014 C 
HETATM   11  C22 UNL     1       0.537   0.432   0.884  1.00  0.00     0.012 C 
HETATM   12  C23 UNL     1       1.399   1.487   1.582  1.00  0.00    -0.027 C 
HETATM   13  C24 UNL     1       0.686   2.798   1.379  1.00  0.00     0.016 C 
ENDROOT
BRANCH   7  14
HETATM   14  C10 UNL     1      -0.150   0.980   5.008  1.00  0.00     0.002 C 
BRANCH  14  15
HETATM   15  C11 UNL     1      -1.669   1.456   4.883  1.00  0.00     0.001 C 
HETATM   16  C12 UNL     1      -2.013   2.749   5.503  1.00  0.00     0.005 C 
ENDBRANCH  14  15
BRANCH  14  17
HETATM   17  C13 UNL     1      -0.309   0.091   6.151  1.00  0.00     0.061 C 
HETATM   18  C14 UNL     1       0.642  -1.007   6.493  1.00  0.00     0.018 C 
BRANCH  17  19
HETATM   19  C15 UNL     1       0.079   0.946   7.376  1.00  0.00     0.166 C 
HETATM   20  O2  UNL     1       1.225   1.262   7.471  1.00  0.00    -0.292 OA
BRANCH  19  21
HETATM   21  C16 UNL     1      -0.854   1.370   8.413  1.00  0.00     0.150 C 
HETATM   22  N1  UNL     1      -0.527   2.463   9.238  1.00  0.00    -0.111 NA
ENDBRANCH  19  21
ENDBRANCH  17  19
ENDBRANCH  14  17
ENDBRANCH   7  14
BRANCH   8  23
HETATM   23  C19 UNL     1      -1.756  -0.499   2.381  1.00  0.00    -0.027 C 
HETATM   24  C20 UNL     1      -2.703  -1.330   2.734  1.00  0.00     0.007 C 
ENDBRANCH   8  23
BRANCH   1  25
HETATM   25  C2  UNL     1       2.812   2.830   0.021  1.00  0.00    -0.029 C 
HETATM   26  C1  UNL     1       3.201   2.862  -1.233  1.00  0.00     0.007 C 
ENDBRANCH   1  25
BRANCH   2  27
HETATM   27  O1  UNL     1       4.952   1.146   0.626  1.00  0.00    -0.395 OA
ATOM     28  H1  UNL     1       4.934   0.215   0.434  1.00  0.00     0.210 HD
ENDBRANCH   2  27
TORSDOF 8
ENDMDL
