MODEL 1
REMARK VINA RESULT: -8.370907981      0.000      0.000
REMARK  7 active torsions:
REMARK  status: ('A' for Active; 'I' for Inactive)
REMARK    1  A    between atoms: C2_2  and  C3_3 
REMARK    2  A    between atoms: C9_9  and  C10_10 
REMARK    3  A    between atoms: C10_10  and  N1_16 
REMARK    4  A    between atoms: C11_11  and  C12_12 
REMARK    5  A    between atoms: C12_12  and  C13_13 
REMARK    6  A    between atoms: C13_13  and  O1_14 
REMARK       I    between atoms: N1_16  and  C14_18 
REMARK    7  A    between atoms: C14_18  and  C15_20 
ROOT
HETATM    1  C10 UNL     1      -0.515  -0.287   4.374  1.00  0.00     0.013 C 
HETATM    2  C11 UNL     1      -1.612  -1.018   4.208  1.00  0.00     0.001 C 
ENDROOT
BRANCH   1   3
HETATM    3  C9  UNL     1       0.060   0.440   3.313  1.00  0.00     0.044 C 
HETATM    4  C5  UNL     1       0.674   1.803   3.561  1.00  0.00    -0.004 C 
HETATM    5  C4  UNL     1       0.886   2.220   2.083  1.00  0.00     0.010 C 
HETATM    6  C6  UNL     1       2.044   1.471   4.046  1.00  0.00     0.006 C 
HETATM    7  C3  UNL     1       0.906   0.973   1.299  1.00  0.00    -0.010 C 
HETATM    8  C8  UNL     1       1.147  -0.074   2.420  1.00  0.00    -0.000 C 
HETATM    9  C7  UNL     1       2.412   0.320   3.152  1.00  0.00     0.006 C 
BRANCH   7  10
HETATM   10  C2  UNL     1       1.613   0.807   0.068  1.00  0.00     0.000 C 
HETATM   11  C1  UNL     1       2.763   1.610  -0.350  1.00  0.00     0.005 C 
ENDBRANCH   7  10
ENDBRANCH   1   3
BRANCH   1  12
HETATM   12  N1  UNL     1      -0.110  -0.342   5.766  1.00  0.00    -0.330 N 
HETATM   13  C14 UNL     1      -0.519   0.561   6.755  1.00  0.00     0.231 C 
HETATM   14  O2  UNL     1      -1.294   1.500   6.372  1.00  0.00    -0.272 OA
ATOM     15  H1  UNL     1       0.520  -1.094   6.046  1.00  0.00     0.168 HD
BRANCH  13  16
HETATM   16  C15 UNL     1      -0.162   0.553   8.163  1.00  0.00     0.048 C 
HETATM   17  C16 UNL     1      -0.486   1.940   8.737  1.00  0.00     0.026 C 
HETATM   18  C17 UNL     1       1.271   0.308   8.508  1.00  0.00    -0.001 C 
HETATM   19  C18 UNL     1       2.245   1.301   7.932  1.00  0.00     0.011 C 
HETATM   20  C19 UNL     1       1.743  -1.076   8.149  1.00  0.00     0.005 C 
HETATM   21  C20 UNL     1       0.851  -2.156   8.667  1.00  0.00     0.001 C 
HETATM   22  C21 UNL     1      -0.604  -1.874   8.651  1.00  0.00     0.010 C 
HETATM   23  C22 UNL     1      -0.977  -0.442   8.970  1.00  0.00    -0.031 C 
HETATM   24  C23 UNL     1      -0.695  -0.254  10.439  1.00  0.00     0.016 C 
HETATM   25  C24 UNL     1      -2.444  -0.314   8.738  1.00  0.00     0.016 C 
ENDBRANCH  13  16
ENDBRANCH   1  12
BRANCH   2  26
HETATM   26  C12 UNL     1      -2.406  -1.223   3.000  1.00  0.00     0.055 C 
BRANCH  26  27
HETATM   27  C13 UNL     1      -1.848  -2.328   2.117  1.00  0.00     0.168 C 
BRANCH  27  28
HETATM   28  O1  UNL     1      -1.516  -1.814   0.886  1.00  0.00    -0.401 OA
ATOM     29  H1  UNL     1      -0.613  -1.521   0.895  1.00  0.00     0.209 HD
ENDBRANCH  27  28
ENDBRANCH  26  27
ENDBRANCH   2  26
TORSDOF 7
ENDMDL
MODEL 2
REMARK VINA RESULT: -8.358910543      1.716      3.924
REMARK  7 active torsions:
REMARK  status: ('A' for Active; 'I' for Inactive)
REMARK    1  A    between atoms: C2_2  and  C3_3 
REMARK    2  A    between atoms: C9_9  and  C10_10 
REMARK    3  A    between atoms: C10_10  and  N1_16 
REMARK    4  A    between atoms: C11_11  and  C12_12 
REMARK    5  A    between atoms: C12_12  and  C13_13 
REMARK    6  A    between atoms: C13_13  and  O1_14 
REMARK       I    between atoms: N1_16  and  C14_18 
REMARK    7  A    between atoms: C14_18  and  C15_20 
ROOT
HETATM    1  C10 UNL     1       0.341   0.238   4.337  1.00  0.00     0.013 C 
HETATM    2  C11 UNL     1       1.372   1.054   4.147  1.00  0.00     0.001 C 
ENDROOT
BRANCH   1   3
HETATM    3  C9  UNL     1      -0.190  -0.543   3.291  1.00  0.00     0.044 C 
HETATM    4  C5  UNL     1      -0.784  -1.907   3.578  1.00  0.00    -0.004 C 
HETATM    5  C4  UNL     1      -0.947  -2.388   2.113  1.00  0.00     0.010 C 
HETATM    6  C6  UNL     1      -2.173  -1.584   4.012  1.00  0.00     0.006 C 
HETATM    7  C3  UNL     1      -0.969  -1.175   1.278  1.00  0.00    -0.010 C 
HETATM    8  C8  UNL     1      -1.261  -0.088   2.348  1.00  0.00    -0.000 C 
HETATM    9  C7  UNL     1      -2.539  -0.478   3.061  1.00  0.00     0.006 C 
BRANCH   7  10
HETATM   10  C2  UNL     1      -1.644  -1.074   0.023  1.00  0.00     0.000 C 
HETATM   11  C1  UNL     1      -2.747  -1.936  -0.405  1.00  0.00     0.005 C 
ENDBRANCH   7  10
ENDBRANCH   1   3
BRANCH   1  12
HETATM   12  N1  UNL     1      -0.045   0.273   5.735  1.00  0.00    -0.330 N 
HETATM   13  C14 UNL     1       0.472  -0.567   6.730  1.00  0.00     0.231 C 
HETATM   14  O2  UNL     1       1.334  -1.426   6.346  1.00  0.00    -0.272 OA
ATOM     15  H1  UNL     1      -0.746   0.960   6.015  1.00  0.00     0.168 HD
BRANCH  13  16
HETATM   16  C15 UNL     1       0.138  -0.573   8.143  1.00  0.00     0.048 C 
HETATM   17  C16 UNL     1       0.481  -1.963   8.699  1.00  0.00     0.026 C 
HETATM   18  C17 UNL     1      -1.291  -0.340   8.514  1.00  0.00    -0.001 C 
HETATM   19  C18 UNL     1      -2.268  -1.334   7.947  1.00  0.00     0.011 C 
HETATM   20  C19 UNL     1      -1.778   1.043   8.175  1.00  0.00     0.005 C 
HETATM   21  C20 UNL     1      -0.884   2.125   8.687  1.00  0.00     0.001 C 
HETATM   22  C21 UNL     1       0.573   1.853   8.644  1.00  0.00     0.010 C 
HETATM   23  C22 UNL     1       0.960   0.421   8.946  1.00  0.00    -0.031 C 
HETATM   24  C23 UNL     1       0.703   0.218  10.417  1.00  0.00     0.016 C 
HETATM   25  C24 UNL     1       2.424   0.305   8.688  1.00  0.00     0.016 C 
ENDBRANCH  13  16
ENDBRANCH   1  12
BRANCH   2  26
HETATM   26  C12 UNL     1       2.128   1.311   2.924  1.00  0.00     0.055 C 
BRANCH  26  27
HETATM   27  C13 UNL     1       1.533   2.442   2.100  1.00  0.00     0.168 C 
BRANCH  27  28
HETATM   28  O1  UNL     1       1.148   1.964   0.870  1.00  0.00    -0.401 OA
ATOM     29  H1  UNL     1       1.177   2.666   0.231  1.00  0.00     0.209 HD
ENDBRANCH  27  28
ENDBRANCH  26  27
ENDBRANCH   2  26
TORSDOF 7
ENDMDL
MODEL 3
REMARK VINA RESULT: -8.011323611      1.885      4.209
REMARK  7 active torsions:
REMARK  status: ('A' for Active; 'I' for Inactive)
REMARK    1  A    between atoms: C2_2  and  C3_3 
REMARK    2  A    between atoms: C9_9  and  C10_10 
REMARK    3  A    between atoms: C10_10  and  N1_16 
REMARK    4  A    between atoms: C11_11  and  C12_12 
REMARK    5  A    between atoms: C12_12  and  C13_13 
REMARK    6  A    between atoms: C13_13  and  O1_14 
REMARK       I    between atoms: N1_16  and  C14_18 
REMARK    7  A    between atoms: C14_18  and  C15_20 
ROOT
HETATM    1  C10 UNL     1      -0.364   0.591   4.282  1.00  0.00     0.013 C 
HETATM    2  C11 UNL     1       0.666   1.382   4.001  1.00  0.00     0.001 C 
ENDROOT
BRANCH   1   3
HETATM    3  C9  UNL     1      -1.077  -0.085   3.272  1.00  0.00     0.044 C 
HETATM    4  C5  UNL     1      -0.423  -1.207   2.492  1.00  0.00    -0.004 C 
HETATM    5  C4  UNL     1      -1.512  -1.380   1.402  1.00  0.00     0.010 C 
HETATM    6  C6  UNL     1      -0.610  -2.388   3.383  1.00  0.00     0.006 C 
HETATM    7  C3  UNL     1      -2.752  -0.814   1.960  1.00  0.00    -0.010 C 
HETATM    8  C8  UNL     1      -2.397  -0.765   3.471  1.00  0.00    -0.000 C 
HETATM    9  C7  UNL     1      -2.005  -2.164   3.896  1.00  0.00     0.006 C 
BRANCH   7  10
HETATM   10  C2  UNL     1      -4.066  -1.241   1.597  1.00  0.00     0.000 C 
HETATM   11  C1  UNL     1      -4.366  -2.257   0.587  1.00  0.00     0.005 C 
ENDBRANCH   7  10
ENDBRANCH   1   3
BRANCH   1  12
HETATM   12  N1  UNL     1      -0.542   0.530   5.721  1.00  0.00    -0.330 N 
HETATM   13  C14 UNL     1       0.159  -0.326   6.579  1.00  0.00     0.231 C 
HETATM   14  O2  UNL     1       1.001  -1.110   6.025  1.00  0.00    -0.272 OA
ATOM     15  H1  UNL     1      -1.230   1.158   6.139  1.00  0.00     0.168 HD
BRANCH  13  16
HETATM   16  C15 UNL     1       0.038  -0.426   8.023  1.00  0.00     0.048 C 
HETATM   17  C16 UNL     1       0.438  -1.852   8.429  1.00  0.00     0.026 C 
HETATM   18  C17 UNL     1      -1.317  -0.212   8.615  1.00  0.00    -0.001 C 
HETATM   19  C18 UNL     1      -2.382  -1.160   8.135  1.00  0.00     0.011 C 
HETATM   20  C19 UNL     1      -1.828   1.194   8.444  1.00  0.00     0.005 C 
HETATM   21  C20 UNL     1      -0.852   2.235   8.889  1.00  0.00     0.001 C 
HETATM   22  C21 UNL     1       0.578   1.958   8.612  1.00  0.00     0.010 C 
HETATM   23  C22 UNL     1       0.984   0.508   8.758  1.00  0.00    -0.031 C 
HETATM   24  C23 UNL     1       0.944   0.208  10.234  1.00  0.00     0.016 C 
HETATM   25  C24 UNL     1       2.392   0.402   8.279  1.00  0.00     0.016 C 
ENDBRANCH  13  16
ENDBRANCH   1  12
BRANCH   2  26
HETATM   26  C12 UNL     1       1.249   1.707   2.703  1.00  0.00     0.055 C 
BRANCH  26  27
HETATM   27  C13 UNL     1       2.624   1.088   2.510  1.00  0.00     0.168 C 
BRANCH  27  28
HETATM   28  O1  UNL     1       3.521   2.060   2.135  1.00  0.00    -0.401 OA
ATOM     29  H1  UNL     1       3.494   2.173   1.193  1.00  0.00     0.209 HD
ENDBRANCH  27  28
ENDBRANCH  26  27
ENDBRANCH   2  26
TORSDOF 7
ENDMDL
MODEL 4
REMARK VINA RESULT: -7.955576167      1.177      1.776
REMARK  7 active torsions:
REMARK  status: ('A' for Active; 'I' for Inactive)
REMARK    1  A    between atoms: C2_2  and  C3_3 
REMARK    2  A    between atoms: C9_9  and  C10_10 
REMARK    3  A    between atoms: C10_10  and  N1_16 
REMARK    4  A    between atoms: C11_11  and  C12_12 
REMARK    5  A    between atoms: C12_12  and  C13_13 
REMARK    6  A    between atoms: C13_13  and  O1_14 
REMARK       I    between atoms: N1_16  and  C14_18 
REMARK    7  A    between atoms: C14_18  and  C15_20 
ROOT
HETATM    1  C10 UNL     1       0.682  -0.612   4.069  1.00  0.00     0.013 C 
HETATM    2  C11 UNL     1      -0.182  -1.613   3.930  1.00  0.00     0.001 C 
ENDROOT
BRANCH   1   3
HETATM    3  C9  UNL     1       1.077   0.184   2.975  1.00  0.00     0.044 C 
HETATM    4  C5  UNL     1       0.281   1.416   2.598  1.00  0.00    -0.004 C 
HETATM    5  C4  UNL     1       0.973   1.718   1.243  1.00  0.00     0.010 C 
HETATM    6  C6  UNL     1       0.817   2.458   3.521  1.00  0.00     0.006 C 
HETATM    7  C3  UNL     1       2.288   1.056   1.293  1.00  0.00    -0.010 C 
HETATM    8  C8  UNL     1       2.431   0.803   2.818  1.00  0.00    -0.000 C 
HETATM    9  C7  UNL     1       2.286   2.137   3.520  1.00  0.00     0.006 C 
BRANCH   7  10
HETATM   10  C2  UNL     1       3.441   1.503   0.579  1.00  0.00     0.000 C 
HETATM   11  C1  UNL     1       4.811   1.466   1.095  1.00  0.00     0.005 C 
ENDBRANCH   7  10
ENDBRANCH   1   3
BRANCH   1  12
HETATM   12  N1  UNL     1       1.049  -0.488   5.467  1.00  0.00    -0.330 N 
HETATM   13  C14 UNL     1       0.268   0.136   6.447  1.00  0.00     0.231 C 
HETATM   14  O2  UNL     1      -0.837   0.636   6.050  1.00  0.00    -0.272 OA
ATOM     15  H1  UNL     1       1.943  -0.885   5.757  1.00  0.00     0.168 HD
BRANCH  13  16
HETATM   16  C15 UNL     1       0.572   0.281   7.860  1.00  0.00     0.048 C 
HETATM   17  C16 UNL     1       1.707   1.307   7.993  1.00  0.00     0.026 C 
HETATM   18  C17 UNL     1       1.049  -0.933   8.590  1.00  0.00    -0.001 C 
HETATM   19  C18 UNL     1       2.311  -1.548   8.049  1.00  0.00     0.011 C 
HETATM   20  C19 UNL     1       0.006  -2.014   8.694  1.00  0.00     0.005 C 
HETATM   21  C20 UNL     1      -1.302  -1.523   9.222  1.00  0.00     0.001 C 
HETATM   22  C21 UNL     1      -1.722  -0.169   8.787  1.00  0.00     0.010 C 
HETATM   23  C22 UNL     1      -0.597   0.834   8.658  1.00  0.00    -0.031 C 
HETATM   24  C23 UNL     1      -0.148   1.142  10.064  1.00  0.00     0.016 C 
HETATM   25  C24 UNL     1      -1.181   2.065   8.054  1.00  0.00     0.016 C 
ENDBRANCH  13  16
ENDBRANCH   1  12
BRANCH   2  26
HETATM   26  C12 UNL     1      -0.862  -2.080   2.725  1.00  0.00     0.055 C 
BRANCH  26  27
HETATM   27  C13 UNL     1      -2.370  -1.895   2.799  1.00  0.00     0.168 C 
BRANCH  27  28
HETATM   28  O1  UNL     1      -2.664  -0.560   2.943  1.00  0.00    -0.401 OA
ATOM     29  H1  UNL     1      -3.522  -0.381   2.577  1.00  0.00     0.209 HD
ENDBRANCH  27  28
ENDBRANCH  26  27
ENDBRANCH   2  26
TORSDOF 7
ENDMDL
MODEL 5
REMARK VINA RESULT: -7.921955280      1.798      3.634
REMARK  7 active torsions:
REMARK  status: ('A' for Active; 'I' for Inactive)
REMARK    1  A    between atoms: C2_2  and  C3_3 
REMARK    2  A    between atoms: C9_9  and  C10_10 
REMARK    3  A    between atoms: C10_10  and  N1_16 
REMARK    4  A    between atoms: C11_11  and  C12_12 
REMARK    5  A    between atoms: C12_12  and  C13_13 
REMARK    6  A    between atoms: C13_13  and  O1_14 
REMARK       I    between atoms: N1_16  and  C14_18 
REMARK    7  A    between atoms: C14_18  and  C15_20 
ROOT
HETATM    1  C10 UNL     1       0.686  -0.550   4.176  1.00  0.00     0.013 C 
HETATM    2  C11 UNL     1       1.763   0.221   4.071  1.00  0.00     0.001 C 
ENDROOT
BRANCH   1   3
HETATM    3  C9  UNL     1      -0.008  -1.013   3.040  1.00  0.00     0.044 C 
HETATM    4  C5  UNL     1      -0.895  -2.237   3.131  1.00  0.00    -0.004 C 
HETATM    5  C4  UNL     1      -1.163  -2.427   1.616  1.00  0.00     0.010 C 
HETATM    6  C6  UNL     1      -2.176  -1.686   3.660  1.00  0.00     0.006 C 
HETATM    7  C3  UNL     1      -0.909  -1.121   0.983  1.00  0.00    -0.010 C 
HETATM    8  C8  UNL     1      -0.948  -0.184   2.220  1.00  0.00    -0.000 C 
HETATM    9  C7  UNL     1      -2.281  -0.388   2.909  1.00  0.00     0.006 C 
BRANCH   7  10
HETATM   10  C2  UNL     1      -1.543  -0.671  -0.216  1.00  0.00     0.000 C 
HETATM   11  C1  UNL     1      -1.163   0.528  -0.963  1.00  0.00     0.005 C 
ENDBRANCH   7  10
ENDBRANCH   1   3
BRANCH   1  12
HETATM   12  N1  UNL     1       0.436  -0.836   5.576  1.00  0.00    -0.330 N 
HETATM   13  C14 UNL     1      -0.292  -0.014   6.445  1.00  0.00     0.231 C 
HETATM   14  O2  UNL     1      -0.746   1.068   5.943  1.00  0.00    -0.272 OA
ATOM     15  H1  UNL     1       0.821  -1.702   5.957  1.00  0.00     0.168 HD
BRANCH  13  16
HETATM   16  C15 UNL     1      -0.588  -0.250   7.847  1.00  0.00     0.048 C 
HETATM   17  C16 UNL     1      -1.645  -1.361   7.923  1.00  0.00     0.026 C 
HETATM   18  C17 UNL     1      -1.154   0.889   8.632  1.00  0.00    -0.001 C 
HETATM   19  C18 UNL     1      -2.457   1.436   8.114  1.00  0.00     0.011 C 
HETATM   20  C19 UNL     1      -0.194   2.038   8.794  1.00  0.00     0.005 C 
HETATM   21  C20 UNL     1       1.146   1.619   9.305  1.00  0.00     0.001 C 
HETATM   22  C21 UNL     1       1.665   0.322   8.808  1.00  0.00     0.010 C 
HETATM   23  C22 UNL     1       0.616  -0.753   8.624  1.00  0.00    -0.031 C 
HETATM   24  C23 UNL     1       0.188  -1.162  10.010  1.00  0.00     0.016 C 
HETATM   25  C24 UNL     1       1.291  -1.908   7.965  1.00  0.00     0.016 C 
ENDBRANCH  13  16
ENDBRANCH   1  12
BRANCH   2  26
HETATM   26  C12 UNL     1       2.421   0.724   2.869  1.00  0.00     0.055 C 
BRANCH  26  27
HETATM   27  C13 UNL     1       2.438   2.243   2.807  1.00  0.00     0.168 C 
BRANCH  27  28
HETATM   28  O1  UNL     1       1.156   2.724   2.929  1.00  0.00    -0.401 OA
ATOM     29  H1  UNL     1       1.130   3.636   2.664  1.00  0.00     0.209 HD
ENDBRANCH  27  28
ENDBRANCH  26  27
ENDBRANCH   2  26
TORSDOF 7
ENDMDL
