MODEL 1
REMARK VINA RESULT: -7.851853639      0.000      0.000
REMARK  8 active torsions:
REMARK  status: ('A' for Active; 'I' for Inactive)
REMARK    1  A    between atoms: C9_12  and  O2_13 
REMARK    2  A    between atoms: C11_16  and  C12_17 
REMARK    3  A    between atoms: C12_17  and  C13_18 
REMARK    4  A    between atoms: C14_19  and  C15_20 
REMARK    5  A    between atoms: C15_20  and  C17_22 
REMARK    6  A    between atoms: C17_22  and  C18_23 
REMARK    7  A    between atoms: C18_23  and  C19_24 
REMARK    8  A    between atoms: C19_24  and  C20_25 
ROOT
HETATM    1  C1  UNL     1       1.547   1.975   2.499  1.00  0.00     0.027 C 
HETATM    2  C2  UNL     1       0.996   1.413   1.453  1.00  0.00     0.029 C 
HETATM    3  C3  UNL     1       1.413   1.852   0.129  1.00  0.00     0.249 C 
HETATM    4  O1  UNL     1       2.409   2.658   0.112  1.00  0.00    -0.268 OA
HETATM    5  N1  UNL     1       0.866   1.506  -1.143  1.00  0.00    -0.353 N 
ATOM      6  H1  UNL     1       1.490   1.579  -1.947  1.00  0.00     0.163 HD
HETATM    7  C4  UNL     1      -0.466   1.069  -1.401  1.00  0.00     0.081 C 
HETATM    8  C5  UNL     1      -0.487   0.418  -2.793  1.00  0.00     0.032 C 
HETATM    9  C6  UNL     1      -1.092   0.150  -0.427  1.00  0.00     0.032 C 
HETATM   10  C7  UNL     1      -0.194  -0.522   0.551  1.00  0.00     0.024 C 
HETATM   11  C8  UNL     1      -0.536  -1.920   0.883  1.00  0.00     0.039 C 
HETATM   12  C9  UNL     1      -1.724  -2.121   1.765  1.00  0.00     0.121 C 
HETATM   13  C10 UNL     1      -1.380  -1.991   3.242  1.00  0.00     0.064 C 
HETATM   14  C11 UNL     1      -1.026  -0.568   3.516  1.00  0.00     0.128 C 
HETATM   15  O3  UNL     1       0.202  -0.297   2.922  1.00  0.00    -0.375 OA
HETATM   16  C23 UNL     1      -0.012   0.373   1.757  1.00  0.00     0.163 C 
ENDROOT
BRANCH  14  17
HETATM   17  C12 UNL     1      -1.011  -0.245   5.000  1.00  0.00     0.059 C 
BRANCH  17  18
HETATM   18  C13 UNL     1       0.217   0.386   5.439  1.00  0.00    -0.028 C 
HETATM   19  C14 UNL     1       1.100  -0.177   6.226  1.00  0.00    -0.026 C 
BRANCH  19  20
HETATM   20  C15 UNL     1       1.017  -1.522   6.801  1.00  0.00     0.004 C 
HETATM   21  C16 UNL     1       1.851  -2.439   5.896  1.00  0.00     0.014 C 
BRANCH  20  22
HETATM   22  C17 UNL     1       1.720  -1.553   8.144  1.00  0.00     0.008 C 
BRANCH  22  23
HETATM   23  C18 UNL     1       1.305  -0.356   8.996  1.00  0.00     0.001 C 
BRANCH  23  24
HETATM   24  C19 UNL     1       0.109  -0.783   9.847  1.00  0.00     0.004 C 
BRANCH  24  25
HETATM   25  C20 UNL     1      -1.067   0.128   9.624  1.00  0.00    -0.023 C 
HETATM   26  C21 UNL     1      -2.010  -0.579   8.671  1.00  0.00     0.009 C 
HETATM   27  C22 UNL     1      -0.656   1.425   8.981  1.00  0.00     0.009 C 
ENDBRANCH  24  25
ENDBRANCH  23  24
ENDBRANCH  22  23
ENDBRANCH  20  22
ENDBRANCH  19  20
ENDBRANCH  17  18
ENDBRANCH  14  17
BRANCH  12  28
HETATM   28  O2  UNL     1      -2.807  -1.344   1.453  1.00  0.00    -0.395 OA
ATOM     29  H2  UNL     1      -3.589  -1.828   1.213  1.00  0.00     0.210 HD
ENDBRANCH  12  28
TORSDOF 8
ENDMDL
MODEL 2
REMARK VINA RESULT: -7.839431663      1.519      3.716
REMARK  8 active torsions:
REMARK  status: ('A' for Active; 'I' for Inactive)
REMARK    1  A    between atoms: C9_12  and  O2_13 
REMARK    2  A    between atoms: C11_16  and  C12_17 
REMARK    3  A    between atoms: C12_17  and  C13_18 
REMARK    4  A    between atoms: C14_19  and  C15_20 
REMARK    5  A    between atoms: C15_20  and  C17_22 
REMARK    6  A    between atoms: C17_22  and  C18_23 
REMARK    7  A    between atoms: C18_23  and  C19_24 
REMARK    8  A    between atoms: C19_24  and  C20_25 
ROOT
HETATM    1  C1  UNL     1      -1.492  -2.000   2.429  1.00  0.00     0.027 C 
HETATM    2  C2  UNL     1      -0.934  -1.413   1.401  1.00  0.00     0.029 C 
HETATM    3  C3  UNL     1      -1.334  -1.825   0.064  1.00  0.00     0.249 C 
HETATM    4  O1  UNL     1      -2.325  -2.637   0.019  1.00  0.00    -0.268 OA
HETATM    5  N1  UNL     1      -0.776  -1.449  -1.195  1.00  0.00    -0.353 N 
ATOM      6  H1  UNL     1      -1.391  -1.509  -2.006  1.00  0.00     0.163 HD
HETATM    7  C4  UNL     1       0.556  -0.998  -1.430  1.00  0.00     0.081 C 
HETATM    8  C5  UNL     1       0.587  -0.317  -2.807  1.00  0.00     0.032 C 
HETATM    9  C6  UNL     1       1.166  -0.097  -0.430  1.00  0.00     0.032 C 
HETATM   10  C7  UNL     1       0.252   0.549   0.553  1.00  0.00     0.024 C 
HETATM   11  C8  UNL     1       0.583   1.941   0.919  1.00  0.00     0.039 C 
HETATM   12  C9  UNL     1       1.760   2.131   1.817  1.00  0.00     0.121 C 
HETATM   13  C10 UNL     1       1.402   1.968   3.288  1.00  0.00     0.064 C 
HETATM   14  C11 UNL     1       1.054   0.537   3.527  1.00  0.00     0.128 C 
HETATM   15  O3  UNL     1      -0.166   0.271   2.915  1.00  0.00    -0.375 OA
HETATM   16  C23 UNL     1       0.064  -0.373   1.738  1.00  0.00     0.163 C 
ENDROOT
BRANCH  14  17
HETATM   17  C12 UNL     1       1.026   0.182   5.003  1.00  0.00     0.059 C 
BRANCH  17  18
HETATM   18  C13 UNL     1      -0.217  -0.433   5.424  1.00  0.00    -0.028 C 
HETATM   19  C14 UNL     1      -1.104   0.142   6.198  1.00  0.00    -0.026 C 
BRANCH  19  20
HETATM   20  C15 UNL     1      -1.012   1.485   6.775  1.00  0.00     0.004 C 
HETATM   21  C16 UNL     1      -1.816   2.415   5.855  1.00  0.00     0.014 C 
BRANCH  20  22
HETATM   22  C17 UNL     1      -1.737   1.527   8.105  1.00  0.00     0.008 C 
BRANCH  22  23
HETATM   23  C18 UNL     1      -1.301   0.362   8.992  1.00  0.00     0.001 C 
BRANCH  23  24
HETATM   24  C19 UNL     1      -0.105   0.830   9.819  1.00  0.00     0.004 C 
BRANCH  24  25
HETATM   25  C20 UNL     1       1.075  -0.084   9.630  1.00  0.00    -0.023 C 
HETATM   26  C21 UNL     1       2.031   0.607   8.678  1.00  0.00     0.009 C 
HETATM   27  C22 UNL     1       0.674  -1.392   9.004  1.00  0.00     0.009 C 
ENDBRANCH  24  25
ENDBRANCH  23  24
ENDBRANCH  22  23
ENDBRANCH  20  22
ENDBRANCH  19  20
ENDBRANCH  17  18
ENDBRANCH  14  17
BRANCH  12  28
HETATM   28  O2  UNL     1       2.851   1.367   1.500  1.00  0.00    -0.395 OA
ATOM     29  H2  UNL     1       3.126   1.424   0.592  1.00  0.00     0.210 HD
ENDBRANCH  12  28
TORSDOF 8
ENDMDL
MODEL 3
REMARK VINA RESULT: -7.751880070      1.553      3.696
REMARK  8 active torsions:
REMARK  status: ('A' for Active; 'I' for Inactive)
REMARK    1  A    between atoms: C9_12  and  O2_13 
REMARK    2  A    between atoms: C11_16  and  C12_17 
REMARK    3  A    between atoms: C12_17  and  C13_18 
REMARK    4  A    between atoms: C14_19  and  C15_20 
REMARK    5  A    between atoms: C15_20  and  C17_22 
REMARK    6  A    between atoms: C17_22  and  C18_23 
REMARK    7  A    between atoms: C18_23  and  C19_24 
REMARK    8  A    between atoms: C19_24  and  C20_25 
ROOT
HETATM    1  C1  UNL     1      -1.600  -2.013   2.365  1.00  0.00     0.027 C 
HETATM    2  C2  UNL     1      -1.025  -1.430   1.343  1.00  0.00     0.029 C 
HETATM    3  C3  UNL     1      -1.416  -1.837   0.001  1.00  0.00     0.249 C 
HETATM    4  O1  UNL     1      -2.416  -2.638  -0.054  1.00  0.00    -0.268 OA
HETATM    5  N1  UNL     1      -0.842  -1.466  -1.251  1.00  0.00    -0.353 N 
ATOM      6  H1  UNL     1      -1.449  -1.518  -2.069  1.00  0.00     0.163 HD
HETATM    7  C4  UNL     1       0.497  -1.029  -1.472  1.00  0.00     0.081 C 
HETATM    8  C5  UNL     1       0.549  -0.347  -2.848  1.00  0.00     0.032 C 
HETATM    9  C6  UNL     1       1.107  -0.135  -0.466  1.00  0.00     0.032 C 
HETATM   10  C7  UNL     1       0.191   0.519   0.509  1.00  0.00     0.024 C 
HETATM   11  C8  UNL     1       0.532   1.908   0.879  1.00  0.00     0.039 C 
HETATM   12  C9  UNL     1       1.703   2.084   1.789  1.00  0.00     0.121 C 
HETATM   13  C10 UNL     1       1.328   1.923   3.256  1.00  0.00     0.064 C 
HETATM   14  C11 UNL     1       0.962   0.496   3.490  1.00  0.00     0.128 C 
HETATM   15  O3  UNL     1      -0.254   0.244   2.866  1.00  0.00    -0.375 OA
HETATM   16  C23 UNL     1      -0.019  -0.401   1.691  1.00  0.00     0.163 C 
ENDROOT
BRANCH  14  17
HETATM   17  C12 UNL     1       0.916   0.139   4.966  1.00  0.00     0.059 C 
BRANCH  17  18
HETATM   18  C13 UNL     1      -0.332  -0.478   5.370  1.00  0.00    -0.028 C 
HETATM   19  C14 UNL     1      -1.162   0.030   6.247  1.00  0.00    -0.026 C 
BRANCH  19  20
HETATM   20  C15 UNL     1      -0.993   1.292   6.971  1.00  0.00     0.004 C 
HETATM   21  C16 UNL     1      -1.778   2.356   6.191  1.00  0.00     0.014 C 
BRANCH  20  22
HETATM   22  C17 UNL     1      -1.680   1.209   8.319  1.00  0.00     0.008 C 
BRANCH  22  23
HETATM   23  C18 UNL     1      -1.997  -0.243   8.672  1.00  0.00     0.001 C 
BRANCH  23  24
HETATM   24  C19 UNL     1      -0.962  -0.711   9.694  1.00  0.00     0.004 C 
BRANCH  24  25
HETATM   25  C20 UNL     1      -0.349  -2.021   9.283  1.00  0.00    -0.023 C 
HETATM   26  C21 UNL     1      -0.100  -2.819  10.548  1.00  0.00     0.009 C 
HETATM   27  C22 UNL     1       0.976  -1.828   8.597  1.00  0.00     0.009 C 
ENDBRANCH  24  25
ENDBRANCH  23  24
ENDBRANCH  22  23
ENDBRANCH  20  22
ENDBRANCH  19  20
ENDBRANCH  17  18
ENDBRANCH  14  17
BRANCH  12  28
HETATM   28  O2  UNL     1       2.789   1.309   1.483  1.00  0.00    -0.395 OA
ATOM     29  H2  UNL     1       3.557   1.793   1.202  1.00  0.00     0.210 HD
ENDBRANCH  12  28
TORSDOF 8
ENDMDL
MODEL 4
REMARK VINA RESULT: -7.748916455      0.750      1.050
REMARK  8 active torsions:
REMARK  status: ('A' for Active; 'I' for Inactive)
REMARK    1  A    between atoms: C9_12  and  O2_13 
REMARK    2  A    between atoms: C11_16  and  C12_17 
REMARK    3  A    between atoms: C12_17  and  C13_18 
REMARK    4  A    between atoms: C14_19  and  C15_20 
REMARK    5  A    between atoms: C15_20  and  C17_22 
REMARK    6  A    between atoms: C17_22  and  C18_23 
REMARK    7  A    between atoms: C18_23  and  C19_24 
REMARK    8  A    between atoms: C19_24  and  C20_25 
ROOT
HETATM    1  C1  UNL     1       1.650   1.989   2.368  1.00  0.00     0.027 C 
HETATM    2  C2  UNL     1       1.070   1.418   1.344  1.00  0.00     0.029 C 
HETATM    3  C3  UNL     1       1.463   1.830   0.004  1.00  0.00     0.249 C 
HETATM    4  O1  UNL     1       2.469   2.623  -0.048  1.00  0.00    -0.268 OA
HETATM    5  N1  UNL     1       0.885   1.471  -1.250  1.00  0.00    -0.353 N 
ATOM      6  H1  UNL     1       1.491   1.523  -2.068  1.00  0.00     0.163 HD
HETATM    7  C4  UNL     1      -0.458   1.047  -1.473  1.00  0.00     0.081 C 
HETATM    8  C5  UNL     1      -0.518   0.373  -2.852  1.00  0.00     0.032 C 
HETATM    9  C6  UNL     1      -1.075   0.152  -0.471  1.00  0.00     0.032 C 
HETATM   10  C7  UNL     1      -0.163  -0.516   0.499  1.00  0.00     0.024 C 
HETATM   11  C8  UNL     1      -0.516  -1.904   0.862  1.00  0.00     0.039 C 
HETATM   12  C9  UNL     1      -1.687  -2.076   1.772  1.00  0.00     0.121 C 
HETATM   13  C10 UNL     1      -1.310  -1.927   3.239  1.00  0.00     0.064 C 
HETATM   14  C11 UNL     1      -0.932  -0.504   3.481  1.00  0.00     0.128 C 
HETATM   15  O3  UNL     1       0.286  -0.258   2.857  1.00  0.00    -0.375 OA
HETATM   16  C23 UNL     1       0.056   0.396   1.687  1.00  0.00     0.163 C 
ENDROOT
BRANCH  14  17
HETATM   17  C12 UNL     1      -0.881  -0.157   4.959  1.00  0.00     0.059 C 
BRANCH  17  18
HETATM   18  C13 UNL     1       0.367   0.461   5.363  1.00  0.00    -0.028 C 
HETATM   19  C14 UNL     1       1.192  -0.043   6.246  1.00  0.00    -0.026 C 
BRANCH  19  20
HETATM   20  C15 UNL     1       1.018  -1.299   6.980  1.00  0.00     0.004 C 
HETATM   21  C16 UNL     1       1.776  -2.376   6.193  1.00  0.00     0.014 C 
BRANCH  20  22
HETATM   22  C17 UNL     1       1.727  -1.218   8.317  1.00  0.00     0.008 C 
BRANCH  22  23
HETATM   23  C18 UNL     1       2.017   0.236   8.684  1.00  0.00     0.001 C 
BRANCH  23  24
HETATM   24  C19 UNL     1       0.950   0.686   9.682  1.00  0.00     0.004 C 
BRANCH  24  25
HETATM   25  C20 UNL     1       0.329   1.989   9.258  1.00  0.00    -0.023 C 
HETATM   26  C21 UNL     1       0.108   2.811  10.512  1.00  0.00     0.009 C 
HETATM   27  C22 UNL     1      -1.011   1.783   8.606  1.00  0.00     0.009 C 
ENDBRANCH  24  25
ENDBRANCH  23  24
ENDBRANCH  22  23
ENDBRANCH  20  22
ENDBRANCH  19  20
ENDBRANCH  17  18
ENDBRANCH  14  17
BRANCH  12  28
HETATM   28  O2  UNL     1      -2.767  -1.290   1.471  1.00  0.00    -0.395 OA
ATOM     29  H2  UNL     1      -3.516  -1.408   2.043  1.00  0.00     0.210 HD
ENDBRANCH  12  28
TORSDOF 8
ENDMDL
MODEL 5
REMARK VINA RESULT: -7.714882277      1.564      2.898
REMARK  8 active torsions:
REMARK  status: ('A' for Active; 'I' for Inactive)
REMARK    1  A    between atoms: C9_12  and  O2_13 
REMARK    2  A    between atoms: C11_16  and  C12_17 
REMARK    3  A    between atoms: C12_17  and  C13_18 
REMARK    4  A    between atoms: C14_19  and  C15_20 
REMARK    5  A    between atoms: C15_20  and  C17_22 
REMARK    6  A    between atoms: C17_22  and  C18_23 
REMARK    7  A    between atoms: C18_23  and  C19_24 
REMARK    8  A    between atoms: C19_24  and  C20_25 
ROOT
HETATM    1  C1  UNL     1       2.433   2.447   3.607  1.00  0.00     0.027 C 
HETATM    2  C2  UNL     1       1.898   1.596   2.769  1.00  0.00     0.029 C 
HETATM    3  C3  UNL     1       2.527   1.412   1.469  1.00  0.00     0.249 C 
HETATM    4  O1  UNL     1       3.655   2.003   1.323  1.00  0.00    -0.268 OA
HETATM    5  N1  UNL     1       2.061   0.666   0.345  1.00  0.00    -0.353 N 
ATOM      6  H1  UNL     1       2.768   0.330  -0.309  1.00  0.00     0.163 HD
HETATM    7  C4  UNL     1       0.704   0.346   0.045  1.00  0.00     0.081 C 
HETATM    8  C5  UNL     1       0.706  -0.795  -0.984  1.00  0.00     0.032 C 
HETATM    9  C6  UNL     1      -0.184  -0.017   1.169  1.00  0.00     0.032 C 
HETATM   10  C7  UNL     1       0.463  -0.360   2.466  1.00  0.00     0.024 C 
HETATM   11  C8  UNL     1      -0.173  -1.450   3.233  1.00  0.00     0.039 C 
HETATM   12  C9  UNL     1      -1.463  -1.123   3.909  1.00  0.00     0.121 C 
HETATM   13  C10 UNL     1      -1.258  -0.465   5.266  1.00  0.00     0.064 C 
HETATM   14  C11 UNL     1      -0.669   0.888   5.044  1.00  0.00     0.128 C 
HETATM   15  O3  UNL     1       0.643   0.733   4.611  1.00  0.00    -0.375 OA
HETATM   16  C23 UNL     1       0.684   0.908   3.263  1.00  0.00     0.163 C 
ENDROOT
BRANCH  14  17
HETATM   17  C12 UNL     1      -0.749   1.769   6.279  1.00  0.00     0.059 C 
BRANCH  17  18
HETATM   18  C13 UNL     1      -1.385   1.121   7.408  1.00  0.00    -0.028 C 
HETATM   19  C14 UNL     1      -0.962   1.201   8.645  1.00  0.00    -0.026 C 
BRANCH  19  20
HETATM   20  C15 UNL     1       0.210   1.945   9.114  1.00  0.00     0.004 C 
HETATM   21  C16 UNL     1      -0.228   2.707  10.373  1.00  0.00     0.014 C 
BRANCH  20  22
HETATM   22  C17 UNL     1       1.276   0.979   9.592  1.00  0.00     0.008 C 
BRANCH  22  23
HETATM   23  C18 UNL     1       2.274   0.683   8.475  1.00  0.00     0.001 C 
BRANCH  23  24
HETATM   24  C19 UNL     1       2.437  -0.834   8.387  1.00  0.00     0.004 C 
BRANCH  24  25
HETATM   25  C20 UNL     1       1.280  -1.463   7.660  1.00  0.00    -0.023 C 
HETATM   26  C21 UNL     1       0.534  -2.323   8.661  1.00  0.00     0.009 C 
HETATM   27  C22 UNL     1       1.741  -2.358   6.543  1.00  0.00     0.009 C 
ENDBRANCH  24  25
ENDBRANCH  23  24
ENDBRANCH  22  23
ENDBRANCH  20  22
ENDBRANCH  19  20
ENDBRANCH  17  18
ENDBRANCH  14  17
BRANCH  12  28
HETATM   28  O2  UNL     1      -2.340  -0.396   3.149  1.00  0.00    -0.395 OA
ATOM     29  H2  UNL     1      -2.222  -0.485   2.211  1.00  0.00     0.210 HD
ENDBRANCH  12  28
TORSDOF 8
ENDMDL
