MODEL 1
REMARK VINA RESULT: -7.740349564      0.000      0.000
REMARK  10 active torsions:
REMARK  status: ('A' for Active; 'I' for Inactive)
REMARK    1  A    between atoms: C2_2  and  O1_3 
REMARK    2  A    between atoms: O1_3  and  C3_4 
REMARK       I    between atoms: C3_4  and  N1_6 
REMARK    3  A    between atoms: N1_6  and  C4_8 
REMARK    4  A    between atoms: C4_8  and  C5_9 
REMARK    5  A    between atoms: C5_9  and  C6_10 
REMARK    6  A    between atoms: C6_10  and  C7_11 
REMARK    7  A    between atoms: C7_11  and  C8_12 
REMARK    8  A    between atoms: C14_18  and  N2_19 
REMARK    9  A    between atoms: N2_19  and  C15_21 
REMARK   10  A    between atoms: C15_21  and  S2_23 
ROOT
HETATM    1  C8  UNL     1      -0.354  -0.296   9.901  1.00  0.00    -0.039 C 
HETATM    2  C9  UNL     1       0.175   1.059  10.207  1.00  0.00     0.014 C 
HETATM    3  C10 UNL     1       0.481   1.806   8.905  1.00  0.00    -0.013 C 
HETATM    4  C11 UNL     1      -0.895   1.967   8.247  1.00  0.00     0.011 C 
HETATM    5  C12 UNL     1      -1.407   0.594   7.856  1.00  0.00     0.010 C 
HETATM    6  C13 UNL     1      -1.627  -0.246   9.079  1.00  0.00     0.016 C 
HETATM    7  C14 UNL     1      -0.418  -0.108   6.978  1.00  0.00     0.091 C 
HETATM    8  C17 UNL     1       0.891  -0.265   7.696  1.00  0.00     0.010 C 
HETATM    9  C18 UNL     1       1.448   1.100   8.031  1.00  0.00     0.011 C 
HETATM   10  C19 UNL     1       0.672  -0.992   8.966  1.00  0.00     0.016 C 
ENDROOT
BRANCH   1  11
HETATM   11  C7  UNL     1      -0.453  -1.163  11.087  1.00  0.00     0.010 C 
BRANCH  11  12
HETATM   12  C6  UNL     1       0.246  -0.923  12.337  1.00  0.00     0.002 C 
BRANCH  12  13
HETATM   13  C5  UNL     1      -0.322  -0.066  13.395  1.00  0.00     0.020 C 
BRANCH  13  14
HETATM   14  C4  UNL     1      -1.490  -0.830  14.069  1.00  0.00     0.125 C 
BRANCH  14  15
HETATM   15  N1  UNL     1      -2.125   0.029  15.047  1.00  0.00    -0.337 N 
HETATM   16  C3  UNL     1      -3.303  -0.389  15.710  1.00  0.00     0.360 C 
HETATM   17  O2  UNL     1      -3.857  -1.498  15.498  1.00  0.00    -0.239 OA
ATOM     18  H1  UNL     1      -1.720   0.940  15.260  1.00  0.00     0.164 HD
BRANCH  16  19
HETATM   19  O1  UNL     1      -3.907   0.432  16.643  1.00  0.00    -0.304 OA
BRANCH  19  20
HETATM   20  C2  UNL     1      -5.146   1.058  16.363  1.00  0.00     0.176 C 
HETATM   21  C1  UNL     1      -4.882   2.251  15.493  1.00  0.00     0.034 C 
ENDBRANCH  19  20
ENDBRANCH  16  19
ENDBRANCH  14  15
ENDBRANCH  13  14
ENDBRANCH  12  13
ENDBRANCH  11  12
ENDBRANCH   1  11
BRANCH   7  22
HETATM   22  N2  UNL     1      -0.271   0.602   5.736  1.00  0.00    -0.370 N 
ATOM     23  H2  UNL     1      -0.289   1.622   5.730  1.00  0.00     0.161 HD
BRANCH  22  24
HETATM   24  C15 UNL     1      -0.103  -0.106   4.522  1.00  0.00     0.134 C 
HETATM   25  S1  UNL     1      -1.254  -1.075   3.929  1.00  0.00    -0.053 SA
BRANCH  24  26
HETATM   26  S2  UNL     1       1.423  -0.001   3.577  1.00  0.00    -0.105 SA
HETATM   27  C16 UNL     1       1.731   1.731   3.202  1.00  0.00     0.098 C 
ENDBRANCH  24  26
ENDBRANCH  22  24
ENDBRANCH   7  22
TORSDOF 10
ENDMDL
MODEL 2
REMARK VINA RESULT: -7.727000808      3.274      4.776
REMARK  10 active torsions:
REMARK  status: ('A' for Active; 'I' for Inactive)
REMARK    1  A    between atoms: C2_2  and  O1_3 
REMARK    2  A    between atoms: O1_3  and  C3_4 
REMARK       I    between atoms: C3_4  and  N1_6 
REMARK    3  A    between atoms: N1_6  and  C4_8 
REMARK    4  A    between atoms: C4_8  and  C5_9 
REMARK    5  A    between atoms: C5_9  and  C6_10 
REMARK    6  A    between atoms: C6_10  and  C7_11 
REMARK    7  A    between atoms: C7_11  and  C8_12 
REMARK    8  A    between atoms: C14_18  and  N2_19 
REMARK    9  A    between atoms: N2_19  and  C15_21 
REMARK   10  A    between atoms: C15_21  and  S2_23 
ROOT
HETATM    1  C8  UNL     1       0.431   0.215   9.898  1.00  0.00    -0.039 C 
HETATM    2  C9  UNL     1       0.035  -1.184  10.211  1.00  0.00     0.014 C 
HETATM    3  C10 UNL     1      -0.310  -1.930   8.919  1.00  0.00    -0.013 C 
HETATM    4  C11 UNL     1       1.020  -1.969   8.156  1.00  0.00     0.011 C 
HETATM    5  C12 UNL     1       1.392  -0.553   7.760  1.00  0.00     0.010 C 
HETATM    6  C13 UNL     1       1.638   0.281   8.983  1.00  0.00     0.016 C 
HETATM    7  C14 UNL     1       0.287   0.082   6.975  1.00  0.00     0.091 C 
HETATM    8  C17 UNL     1      -0.973   0.122   7.792  1.00  0.00     0.010 C 
HETATM    9  C18 UNL     1      -1.393  -1.289   8.136  1.00  0.00     0.011 C 
HETATM   10  C19 UNL     1      -0.715   0.842   9.058  1.00  0.00     0.016 C 
ENDROOT
BRANCH   1  11
HETATM   11  C7  UNL     1       0.551   1.066  11.093  1.00  0.00     0.010 C 
BRANCH  11  12
HETATM   12  C6  UNL     1      -0.195   0.862  12.322  1.00  0.00     0.002 C 
BRANCH  12  13
HETATM   13  C5  UNL     1       0.329   0.035  13.424  1.00  0.00     0.020 C 
BRANCH  13  14
HETATM   14  C4  UNL     1       1.475   0.813  14.119  1.00  0.00     0.125 C 
BRANCH  14  15
HETATM   15  N1  UNL     1       2.107  -0.038  15.106  1.00  0.00    -0.337 N 
HETATM   16  C3  UNL     1       3.323   0.351  15.715  1.00  0.00     0.360 C 
HETATM   17  O2  UNL     1       3.915   1.428  15.447  1.00  0.00    -0.239 OA
ATOM     18  H1  UNL     1       1.672  -0.924  15.363  1.00  0.00     0.164 HD
BRANCH  16  19
HETATM   19  O1  UNL     1       3.923  -0.463  16.655  1.00  0.00    -0.304 OA
BRANCH  19  20
HETATM   20  C2  UNL     1       5.164  -1.091  16.384  1.00  0.00     0.176 C 
HETATM   21  C1  UNL     1       4.910  -2.255  15.473  1.00  0.00     0.034 C 
ENDBRANCH  19  20
ENDBRANCH  16  19
ENDBRANCH  14  15
ENDBRANCH  13  14
ENDBRANCH  12  13
ENDBRANCH  11  12
ENDBRANCH   1  11
BRANCH   7  22
HETATM   22  N2  UNL     1       0.102  -0.615   5.732  1.00  0.00    -0.370 N 
ATOM     23  H2  UNL     1       0.020  -1.632   5.728  1.00  0.00     0.161 HD
BRANCH  22  24
HETATM   24  C15 UNL     1       0.034   0.100   4.512  1.00  0.00     0.134 C 
HETATM   25  S1  UNL     1       1.240   1.054   4.011  1.00  0.00    -0.053 SA
BRANCH  24  26
HETATM   26  S2  UNL     1      -1.419   0.021   3.456  1.00  0.00    -0.105 SA
HETATM   27  C16 UNL     1      -1.874  -1.707   3.259  1.00  0.00     0.098 C 
ENDBRANCH  24  26
ENDBRANCH  22  24
ENDBRANCH   7  22
TORSDOF 10
ENDMDL
MODEL 3
REMARK VINA RESULT: -7.720995064      3.242      4.609
REMARK  10 active torsions:
REMARK  status: ('A' for Active; 'I' for Inactive)
REMARK    1  A    between atoms: C2_2  and  O1_3 
REMARK    2  A    between atoms: O1_3  and  C3_4 
REMARK       I    between atoms: C3_4  and  N1_6 
REMARK    3  A    between atoms: N1_6  and  C4_8 
REMARK    4  A    between atoms: C4_8  and  C5_9 
REMARK    5  A    between atoms: C5_9  and  C6_10 
REMARK    6  A    between atoms: C6_10  and  C7_11 
REMARK    7  A    between atoms: C7_11  and  C8_12 
REMARK    8  A    between atoms: C14_18  and  N2_19 
REMARK    9  A    between atoms: N2_19  and  C15_21 
REMARK   10  A    between atoms: C15_21  and  S2_23 
ROOT
HETATM    1  C8  UNL     1       0.457   0.200   9.900  1.00  0.00    -0.039 C 
HETATM    2  C9  UNL     1       0.070  -1.204  10.201  1.00  0.00     0.014 C 
HETATM    3  C10 UNL     1      -0.311  -1.930   8.908  1.00  0.00    -0.013 C 
HETATM    4  C11 UNL     1       0.997  -1.956   8.107  1.00  0.00     0.011 C 
HETATM    5  C12 UNL     1       1.358  -0.534   7.723  1.00  0.00     0.010 C 
HETATM    6  C13 UNL     1       1.638   0.281   8.952  1.00  0.00     0.016 C 
HETATM    7  C14 UNL     1       0.231   0.114   6.980  1.00  0.00     0.091 C 
HETATM    8  C17 UNL     1      -1.005   0.140   7.833  1.00  0.00     0.010 C 
HETATM    9  C18 UNL     1      -1.416  -1.277   8.166  1.00  0.00     0.011 C 
HETATM   10  C19 UNL     1      -0.712   0.840   9.103  1.00  0.00     0.016 C 
ENDROOT
BRANCH   1  11
HETATM   11  C7  UNL     1       0.611   1.031  11.104  1.00  0.00     0.010 C 
BRANCH  11  12
HETATM   12  C6  UNL     1      -0.169   0.867  12.318  1.00  0.00     0.002 C 
BRANCH  12  13
HETATM   13  C5  UNL     1       0.319   0.067  13.456  1.00  0.00     0.020 C 
BRANCH  13  14
HETATM   14  C4  UNL     1       1.511   0.814  14.106  1.00  0.00     0.125 C 
BRANCH  14  15
HETATM   15  N1  UNL     1       2.125  -0.035  15.105  1.00  0.00    -0.337 N 
HETATM   16  C3  UNL     1       3.326   0.359  15.740  1.00  0.00     0.360 C 
HETATM   17  O2  UNL     1       3.920   1.438  15.484  1.00  0.00    -0.239 OA
ATOM     18  H1  UNL     1       1.688  -0.923  15.353  1.00  0.00     0.164 HD
BRANCH  16  19
HETATM   19  O1  UNL     1       3.910  -0.454  16.692  1.00  0.00    -0.304 OA
BRANCH  19  20
HETATM   20  C2  UNL     1       5.163  -1.069  16.451  1.00  0.00     0.176 C 
HETATM   21  C1  UNL     1       4.951  -2.205  15.496  1.00  0.00     0.034 C 
ENDBRANCH  19  20
ENDBRANCH  16  19
ENDBRANCH  14  15
ENDBRANCH  13  14
ENDBRANCH  12  13
ENDBRANCH  11  12
ENDBRANCH   1  11
BRANCH   7  22
HETATM   22  N2  UNL     1       0.011  -0.564   5.731  1.00  0.00    -0.370 N 
ATOM     23  H2  UNL     1      -0.129  -1.574   5.721  1.00  0.00     0.161 HD
BRANCH  22  24
HETATM   24  C15 UNL     1      -0.011   0.162   4.517  1.00  0.00     0.134 C 
HETATM   25  S1  UNL     1      -1.336   0.245   3.593  1.00  0.00    -0.053 SA
BRANCH  24  26
HETATM   26  S2  UNL     1       1.450   1.013   3.904  1.00  0.00    -0.105 SA
HETATM   27  C16 UNL     1       0.937   2.137   2.597  1.00  0.00     0.098 C 
ENDBRANCH  24  26
ENDBRANCH  22  24
ENDBRANCH   7  22
TORSDOF 10
ENDMDL
MODEL 4
REMARK VINA RESULT: -7.661872421      3.024      4.074
REMARK  10 active torsions:
REMARK  status: ('A' for Active; 'I' for Inactive)
REMARK    1  A    between atoms: C2_2  and  O1_3 
REMARK    2  A    between atoms: O1_3  and  C3_4 
REMARK       I    between atoms: C3_4  and  N1_6 
REMARK    3  A    between atoms: N1_6  and  C4_8 
REMARK    4  A    between atoms: C4_8  and  C5_9 
REMARK    5  A    between atoms: C5_9  and  C6_10 
REMARK    6  A    between atoms: C6_10  and  C7_11 
REMARK    7  A    between atoms: C7_11  and  C8_12 
REMARK    8  A    between atoms: C14_18  and  N2_19 
REMARK    9  A    between atoms: N2_19  and  C15_21 
REMARK   10  A    between atoms: C15_21  and  S2_23 
ROOT
HETATM    1  C8  UNL     1      -0.412  -0.140   9.975  1.00  0.00    -0.039 C 
HETATM    2  C9  UNL     1       0.004   1.261  10.248  1.00  0.00     0.014 C 
HETATM    3  C10 UNL     1       0.313   1.980   8.932  1.00  0.00    -0.013 C 
HETATM    4  C11 UNL     1      -1.040   2.015   8.210  1.00  0.00     0.011 C 
HETATM    5  C12 UNL     1      -1.434   0.595   7.854  1.00  0.00     0.010 C 
HETATM    6  C13 UNL     1      -1.647  -0.214   9.100  1.00  0.00     0.016 C 
HETATM    7  C14 UNL     1      -0.359  -0.065   7.046  1.00  0.00     0.091 C 
HETATM    8  C17 UNL     1       0.925  -0.098   7.825  1.00  0.00     0.010 C 
HETATM    9  C18 UNL     1       1.367   1.316   8.128  1.00  0.00     0.011 C 
HETATM   10  C19 UNL     1       0.703  -0.792   9.112  1.00  0.00     0.016 C 
ENDROOT
BRANCH   1  11
HETATM   11  C7  UNL     1      -0.500  -0.967  11.190  1.00  0.00     0.010 C 
BRANCH  11  12
HETATM   12  C6  UNL     1       0.379  -0.833  12.337  1.00  0.00     0.002 C 
BRANCH  12  13
HETATM   13  C5  UNL     1       0.019  -0.004  13.503  1.00  0.00     0.020 C 
BRANCH  13  14
HETATM   14  C4  UNL     1       1.296   0.718  14.004  1.00  0.00     0.125 C 
BRANCH  14  15
HETATM   15  N1  UNL     1       1.917  -0.071  15.047  1.00  0.00    -0.337 N 
HETATM   16  C3  UNL     1       3.133   0.349  15.635  1.00  0.00     0.360 C 
HETATM   17  O2  UNL     1       3.733   1.403  15.300  1.00  0.00    -0.239 OA
ATOM     18  H1  UNL     1       1.476  -0.936  15.359  1.00  0.00     0.164 HD
BRANCH  16  19
HETATM   19  O1  UNL     1       3.724  -0.406  16.629  1.00  0.00    -0.304 OA
BRANCH  19  20
HETATM   20  C2  UNL     1       4.996  -0.998  16.431  1.00  0.00     0.176 C 
HETATM   21  C1  UNL     1       4.834  -2.150  15.484  1.00  0.00     0.034 C 
ENDBRANCH  19  20
ENDBRANCH  16  19
ENDBRANCH  14  15
ENDBRANCH  13  14
ENDBRANCH  12  13
ENDBRANCH  11  12
ENDBRANCH   1  11
BRANCH   7  22
HETATM   22  N2  UNL     1      -0.209   0.608   5.785  1.00  0.00    -0.370 N 
ATOM     23  H2  UNL     1      -0.218   1.627   5.750  1.00  0.00     0.161 HD
BRANCH  22  24
HETATM   24  C15 UNL     1      -0.049  -0.137   4.592  1.00  0.00     0.134 C 
HETATM   25  S1  UNL     1      -1.228  -1.074   4.003  1.00  0.00    -0.053 SA
BRANCH  24  26
HETATM   26  S2  UNL     1       1.495  -0.113   3.670  1.00  0.00    -0.105 SA
HETATM   27  C16 UNL     1       1.916   1.600   3.325  1.00  0.00     0.098 C 
ENDBRANCH  24  26
ENDBRANCH  22  24
ENDBRANCH   7  22
TORSDOF 10
ENDMDL
MODEL 5
REMARK VINA RESULT: -7.599278079      1.040      2.333
REMARK  10 active torsions:
REMARK  status: ('A' for Active; 'I' for Inactive)
REMARK    1  A    between atoms: C2_2  and  O1_3 
REMARK    2  A    between atoms: O1_3  and  C3_4 
REMARK       I    between atoms: C3_4  and  N1_6 
REMARK    3  A    between atoms: N1_6  and  C4_8 
REMARK    4  A    between atoms: C4_8  and  C5_9 
REMARK    5  A    between atoms: C5_9  and  C6_10 
REMARK    6  A    between atoms: C6_10  and  C7_11 
REMARK    7  A    between atoms: C7_11  and  C8_12 
REMARK    8  A    between atoms: C14_18  and  N2_19 
REMARK    9  A    between atoms: N2_19  and  C15_21 
REMARK   10  A    between atoms: C15_21  and  S2_23 
ROOT
HETATM    1  C8  UNL     1       0.406   0.370   9.855  1.00  0.00    -0.039 C 
HETATM    2  C9  UNL     1      -0.223  -0.962  10.065  1.00  0.00     0.014 C 
HETATM    3  C10 UNL     1      -0.430  -1.659   8.717  1.00  0.00    -0.013 C 
HETATM    4  C11 UNL     1       0.998  -1.880   8.200  1.00  0.00     0.011 C 
HETATM    5  C12 UNL     1       1.619  -0.529   7.905  1.00  0.00     0.010 C 
HETATM    6  C13 UNL     1       1.753   0.269   9.169  1.00  0.00     0.016 C 
HETATM    7  C14 UNL     1       0.766   0.248   6.950  1.00  0.00     0.091 C 
HETATM    8  C17 UNL     1      -0.602   0.460   7.534  1.00  0.00     0.010 C 
HETATM    9  C18 UNL     1      -1.261  -0.881   7.769  1.00  0.00     0.011 C 
HETATM   10  C19 UNL     1      -0.479   1.143   8.840  1.00  0.00     0.016 C 
ENDROOT
BRANCH   1  11
HETATM   11  C7  UNL     1       0.424   1.201  11.070  1.00  0.00     0.010 C 
BRANCH  11  12
HETATM   12  C6  UNL     1      -0.362   0.929  12.260  1.00  0.00     0.002 C 
BRANCH  12  13
HETATM   13  C5  UNL     1       0.091  -0.021  13.293  1.00  0.00     0.020 C 
BRANCH  13  14
HETATM   14  C4  UNL     1      -1.153  -0.736  13.880  1.00  0.00     0.125 C 
BRANCH  14  15
HETATM   15  N1  UNL     1      -1.775   0.116  14.872  1.00  0.00    -0.337 N 
HETATM   16  C3  UNL     1      -2.959  -0.295  15.528  1.00  0.00     0.360 C 
HETATM   17  O2  UNL     1      -3.529  -1.393  15.299  1.00  0.00    -0.239 OA
ATOM     18  H1  UNL     1      -1.357   1.018  15.099  1.00  0.00     0.164 HD
BRANCH  16  19
HETATM   19  O1  UNL     1      -3.551   0.520  16.473  1.00  0.00    -0.304 OA
BRANCH  19  20
HETATM   20  C2  UNL     1      -4.872   0.998  16.294  1.00  0.00     0.176 C 
HETATM   21  C1  UNL     1      -4.804   2.292  15.538  1.00  0.00     0.034 C 
ENDBRANCH  19  20
ENDBRANCH  16  19
ENDBRANCH  14  15
ENDBRANCH  13  14
ENDBRANCH  12  13
ENDBRANCH  11  12
ENDBRANCH   1  11
BRANCH   7  22
HETATM   22  N2  UNL     1       0.713  -0.423   5.680  1.00  0.00    -0.370 N 
ATOM     23  H2  UNL     1       0.914  -1.422   5.626  1.00  0.00     0.161 HD
BRANCH  22  24
HETATM   24  C15 UNL     1       0.386   0.294   4.504  1.00  0.00     0.134 C 
HETATM   25  S1  UNL     1       1.475   1.197   3.721  1.00  0.00    -0.053 SA
BRANCH  24  26
HETATM   26  S2  UNL     1      -1.279   0.274   3.825  1.00  0.00    -0.105 SA
HETATM   27  C16 UNL     1      -1.736  -1.437   3.513  1.00  0.00     0.098 C 
ENDBRANCH  24  26
ENDBRANCH  22  24
ENDBRANCH   7  22
TORSDOF 10
ENDMDL
