MODEL 1
REMARK VINA RESULT: -7.081037934      0.000      0.000
REMARK  7 active torsions:
REMARK  status: ('A' for Active; 'I' for Inactive)
REMARK       I    between atoms: N1_1  and  C1_5 
REMARK       I    between atoms: C1_5  and  N2_6 
REMARK       I    between atoms: C1_5  and  N3_10 
REMARK       I    between atoms: N3_10  and  C2_12 
REMARK    1  A    between atoms: C2_12  and  C3_14 
REMARK    2  A    between atoms: C3_14  and  N4_15 
REMARK    3  A    between atoms: C3_14  and  N5_19 
REMARK    4  A    between atoms: C5_23  and  C6_24 
REMARK    5  A    between atoms: C8_33  and  C9_34 
REMARK    6  A    between atoms: C9_34  and  O4_35 
REMARK    7  A    between atoms: C9_34  and  O5_37 
ROOT
HETATM    1  N5  UNL     1     -21.815 -21.177 -17.401  1.00  0.00    -0.314 N 
HETATM    2  C4  UNL     1     -21.367 -21.744 -16.147  1.00  0.00     0.119 C 
HETATM    3  N6  UNL     1     -20.412 -21.486 -15.326  1.00  0.00    -0.323 N 
ATOM      4  H6  UNL     1     -19.782 -20.720 -15.567  1.00  0.00     0.169 HD
HETATM    5  C5  UNL     1     -20.163 -22.169 -14.130  1.00  0.00     0.199 C 
HETATM    6  N7  UNL     1     -20.920 -23.119 -13.771  1.00  0.00    -0.283 N 
ATOM      7  H7  UNL     1     -20.731 -23.618 -12.901  1.00  0.00     0.188 HD
HETATM    8  N8  UNL     1     -22.007 -23.486 -14.556  1.00  0.00    -0.313 N 
ATOM      9  H8  UNL     1     -22.697 -24.135 -14.178  1.00  0.00     0.182 HD
HETATM   10  C7  UNL     1     -22.177 -22.986 -15.849  1.00  0.00     0.230 C 
HETATM   11  S1  UNL     1     -23.787 -22.190 -16.047  1.00  0.00    -0.104 SA
HETATM   12  C8  UNL     1     -23.212 -21.334 -17.617  1.00  0.00     0.207 C 
ENDROOT
BRANCH   1  13
HETATM   13  C3  UNL     1     -20.848 -20.520 -18.231  1.00  0.00     0.379 C 
BRANCH  13  14
HETATM   14  C2  UNL     1     -21.084 -19.150 -18.600  1.00  0.00     0.271 C 
HETATM   15  N3  UNL     1     -21.268 -18.674 -19.921  1.00  0.00    -0.308 N 
HETATM   16  C1  UNL     1     -21.503 -17.288 -20.265  1.00  0.00     0.482 C 
ATOM     17  H3  UNL     1     -21.234 -19.353 -20.681  1.00  0.00     0.166 HD
HETATM   18  N1  UNL     1     -20.442 -16.755 -21.118  1.00  0.00    -0.033 N 
HETATM   19  N2  UNL     1     -22.807 -17.094 -20.885  1.00  0.00    -0.033 N 
ATOM     20  H13 UNL     1     -20.477 -17.151 -22.057  1.00  0.00     0.278 HD
ATOM     21  H12 UNL     1     -20.605 -15.777 -21.357  1.00  0.00     0.278 HD
ATOM     22  H11 UNL     1     -19.529 -16.891 -20.684  1.00  0.00     0.278 HD
ATOM     23  H23 UNL     1     -22.970 -16.116 -21.124  1.00  0.00     0.278 HD
ATOM     24  H22 UNL     1     -22.842 -17.490 -21.824  1.00  0.00     0.278 HD
ATOM     25  H21 UNL     1     -23.547 -17.466 -20.290  1.00  0.00     0.278 HD
HETATM   26  O1  UNL     1     -21.143 -18.246 -17.693  1.00  0.00    -0.269 OA
ENDBRANCH  13  14
BRANCH  13  27
HETATM   27  N4  UNL     1     -20.549 -21.306 -19.434  1.00  0.00    -0.049 N 
ATOM     28  H43 UNL     1     -21.267 -22.003 -19.628  1.00  0.00     0.277 HD
ATOM     29  H42 UNL     1     -20.645 -20.756 -20.288  1.00  0.00     0.277 HD
ATOM     30  H41 UNL     1     -19.622 -21.722 -19.346  1.00  0.00     0.277 HD
ENDBRANCH  13  27
ENDBRANCH   1  13
BRANCH  12  31
HETATM   31  C9  UNL     1     -23.704 -22.222 -18.688  1.00  0.00     0.286 C 
BRANCH  31  32
HETATM   32  O4  UNL     1     -23.446 -21.803 -19.993  1.00  0.00    -0.369 OA
ATOM     33  H4  UNL     1     -24.129 -21.980 -20.628  1.00  0.00     0.212 HD
ENDBRANCH  31  32
BRANCH  31  34
HETATM   34  O5  UNL     1     -25.009 -22.625 -18.662  1.00  0.00    -0.369 OA
ATOM     35  H5  UNL     1     -25.463 -22.759 -19.485  1.00  0.00     0.212 HD
ENDBRANCH  31  34
ENDBRANCH  12  31
BRANCH   5  36
HETATM   36  C6  UNL     1     -19.040 -21.837 -13.239  1.00  0.00     0.246 C 
HETATM   37  O2  UNL     1     -17.974 -21.472 -13.777  1.00  0.00    -0.642 OA
HETATM   38  O3  UNL     1     -19.139 -21.918 -11.862  1.00  0.00    -0.642 OA
ENDBRANCH   5  36
TORSDOF 7
ENDMDL
MODEL 2
REMARK VINA RESULT: -6.890498815      3.544      6.616
REMARK  7 active torsions:
REMARK  status: ('A' for Active; 'I' for Inactive)
REMARK       I    between atoms: N1_1  and  C1_5 
REMARK       I    between atoms: C1_5  and  N2_6 
REMARK       I    between atoms: C1_5  and  N3_10 
REMARK       I    between atoms: N3_10  and  C2_12 
REMARK    1  A    between atoms: C2_12  and  C3_14 
REMARK    2  A    between atoms: C3_14  and  N4_15 
REMARK    3  A    between atoms: C3_14  and  N5_19 
REMARK    4  A    between atoms: C5_23  and  C6_24 
REMARK    5  A    between atoms: C8_33  and  C9_34 
REMARK    6  A    between atoms: C9_34  and  O4_35 
REMARK    7  A    between atoms: C9_34  and  O5_37 
ROOT
HETATM    1  N5  UNL     1     -23.380 -21.805 -17.036  1.00  0.00    -0.314 N 
HETATM    2  C4  UNL     1     -22.663 -21.059 -18.048  1.00  0.00     0.119 C 
HETATM    3  N6  UNL     1     -23.003 -20.252 -18.989  1.00  0.00    -0.323 N 
ATOM      4  H6  UNL     1     -23.999 -20.063 -19.107  1.00  0.00     0.169 HD
HETATM    5  C5  UNL     1     -22.120 -19.611 -19.867  1.00  0.00     0.199 C 
HETATM    6  N7  UNL     1     -20.872 -19.795 -19.760  1.00  0.00    -0.283 N 
ATOM      7  H7  UNL     1     -20.233 -19.330 -20.406  1.00  0.00     0.188 HD
HETATM    8  N8  UNL     1     -20.367 -20.626 -18.766  1.00  0.00    -0.313 N 
ATOM      9  H8  UNL     1     -19.363 -20.635 -18.588  1.00  0.00     0.182 HD
HETATM   10  C7  UNL     1     -21.203 -21.448 -18.007  1.00  0.00     0.230 C 
HETATM   11  S1  UNL     1     -20.997 -21.150 -16.236  1.00  0.00    -0.104 SA
HETATM   12  C8  UNL     1     -22.611 -22.035 -15.863  1.00  0.00     0.207 C 
ENDROOT
BRANCH   1  13
HETATM   13  C3  UNL     1     -24.737 -22.182 -17.307  1.00  0.00     0.379 C 
BRANCH  13  14
HETATM   14  C2  UNL     1     -25.705 -22.049 -16.251  1.00  0.00     0.271 C 
HETATM   15  N3  UNL     1     -27.024 -21.554 -16.402  1.00  0.00    -0.308 N 
HETATM   16  C1  UNL     1     -27.979 -21.429 -15.322  1.00  0.00     0.482 C 
ATOM     17  H3  UNL     1     -27.321 -21.267 -17.335  1.00  0.00     0.166 HD
HETATM   18  N1  UNL     1     -28.380 -20.039 -15.112  1.00  0.00    -0.033 N 
HETATM   19  N2  UNL     1     -29.146 -22.276 -15.526  1.00  0.00    -0.033 N 
ATOM     20  H13 UNL     1     -28.967 -19.697 -15.872  1.00  0.00     0.278 HD
ATOM     21  H12 UNL     1     -29.049 -19.951 -14.348  1.00  0.00     0.278 HD
ATOM     22  H11 UNL     1     -27.562 -19.447 -14.969  1.00  0.00     0.278 HD
ATOM     23  H23 UNL     1     -29.816 -22.187 -14.762  1.00  0.00     0.278 HD
ATOM     24  H22 UNL     1     -29.733 -21.934 -16.286  1.00  0.00     0.278 HD
ATOM     25  H21 UNL     1     -28.866 -23.246 -15.673  1.00  0.00     0.278 HD
HETATM   26  O1  UNL     1     -25.398 -22.396 -15.056  1.00  0.00    -0.269 OA
ENDBRANCH  13  14
BRANCH  13  27
HETATM   27  N4  UNL     1     -24.817 -23.532 -17.877  1.00  0.00    -0.049 N 
ATOM     28  H43 UNL     1     -24.759 -23.525 -18.895  1.00  0.00     0.277 HD
ATOM     29  H42 UNL     1     -23.980 -24.082 -17.687  1.00  0.00     0.277 HD
ATOM     30  H41 UNL     1     -25.665 -23.991 -17.543  1.00  0.00     0.277 HD
ENDBRANCH  13  27
ENDBRANCH   1  13
BRANCH  12  31
HETATM   31  C9  UNL     1     -22.176 -23.402 -15.515  1.00  0.00     0.286 C 
BRANCH  31  32
HETATM   32  O4  UNL     1     -22.646 -23.900 -14.300  1.00  0.00    -0.369 OA
ATOM     33  H4  UNL     1     -23.135 -24.713 -14.347  1.00  0.00     0.212 HD
ENDBRANCH  31  32
BRANCH  31  34
HETATM   34  O5  UNL     1     -20.844 -23.703 -15.568  1.00  0.00    -0.369 OA
ATOM     35  H5  UNL     1     -20.249 -23.078 -15.966  1.00  0.00     0.212 HD
ENDBRANCH  31  34
ENDBRANCH  12  31
BRANCH   5  36
HETATM   36  C6  UNL     1     -22.573 -18.709 -20.938  1.00  0.00     0.246 C 
HETATM   37  O2  UNL     1     -23.171 -19.227 -21.905  1.00  0.00    -0.642 OA
HETATM   38  O3  UNL     1     -22.358 -17.345 -20.897  1.00  0.00    -0.642 OA
ENDBRANCH   5  36
TORSDOF 7
ENDMDL
MODEL 3
REMARK VINA RESULT: -6.847291636      3.679      5.321
REMARK  7 active torsions:
REMARK  status: ('A' for Active; 'I' for Inactive)
REMARK       I    between atoms: N1_1  and  C1_5 
REMARK       I    between atoms: C1_5  and  N2_6 
REMARK       I    between atoms: C1_5  and  N3_10 
REMARK       I    between atoms: N3_10  and  C2_12 
REMARK    1  A    between atoms: C2_12  and  C3_14 
REMARK    2  A    between atoms: C3_14  and  N4_15 
REMARK    3  A    between atoms: C3_14  and  N5_19 
REMARK    4  A    between atoms: C5_23  and  C6_24 
REMARK    5  A    between atoms: C8_33  and  C9_34 
REMARK    6  A    between atoms: C9_34  and  O4_35 
REMARK    7  A    between atoms: C9_34  and  O5_37 
ROOT
HETATM    1  N5  UNL     1     -21.572 -19.001 -18.627  1.00  0.00    -0.314 N 
HETATM    2  C4  UNL     1     -22.370 -20.202 -18.750  1.00  0.00     0.119 C 
HETATM    3  N6  UNL     1     -23.138 -20.864 -17.959  1.00  0.00    -0.323 N 
ATOM      4  H6  UNL     1     -23.240 -20.516 -17.005  1.00  0.00     0.169 HD
HETATM    5  C5  UNL     1     -23.846 -22.023 -18.299  1.00  0.00     0.199 C 
HETATM    6  N7  UNL     1     -23.771 -22.494 -19.472  1.00  0.00    -0.283 N 
ATOM      7  H7  UNL     1     -24.284 -23.342 -19.713  1.00  0.00     0.188 HD
HETATM    8  N8  UNL     1     -22.994 -21.859 -20.434  1.00  0.00    -0.313 N 
ATOM      9  H8  UNL     1     -23.072 -22.150 -21.409  1.00  0.00     0.182 HD
HETATM   10  C7  UNL     1     -22.107 -20.833 -20.098  1.00  0.00     0.230 C 
HETATM   11  S1  UNL     1     -22.435 -19.334 -21.053  1.00  0.00    -0.104 SA
HETATM   12  C8  UNL     1     -21.417 -18.305 -19.857  1.00  0.00     0.207 C 
ENDROOT
BRANCH   1  13
HETATM   13  C3  UNL     1     -21.079 -18.646 -17.328  1.00  0.00     0.379 C 
BRANCH  13  14
HETATM   14  C2  UNL     1     -20.386 -17.394 -17.180  1.00  0.00     0.271 C 
HETATM   15  N3  UNL     1     -18.982 -17.217 -17.244  1.00  0.00    -0.308 N 
HETATM   16  C1  UNL     1     -18.311 -15.945 -17.090  1.00  0.00     0.482 C 
ATOM     17  H3  UNL     1     -18.406 -18.042 -17.410  1.00  0.00     0.166 HD
HETATM   18  N1  UNL     1     -17.414 -15.942 -15.936  1.00  0.00    -0.033 N 
HETATM   19  N2  UNL     1     -17.595 -15.557 -18.298  1.00  0.00    -0.033 N 
ATOM     20  H13 UNL     1     -16.594 -16.526 -16.093  1.00  0.00     0.278 HD
ATOM     21  H12 UNL     1     -16.944 -15.044 -15.824  1.00  0.00     0.278 HD
ATOM     22  H11 UNL     1     -17.916 -16.213 -15.090  1.00  0.00     0.278 HD
ATOM     23  H23 UNL     1     -17.124 -14.659 -18.187  1.00  0.00     0.278 HD
ATOM     24  H22 UNL     1     -16.774 -16.142 -18.455  1.00  0.00     0.278 HD
ATOM     25  H21 UNL     1     -18.220 -15.560 -19.104  1.00  0.00     0.278 HD
HETATM   26  O1  UNL     1     -21.052 -16.317 -16.973  1.00  0.00    -0.269 OA
ENDBRANCH  13  14
BRANCH  13  27
HETATM   27  N4  UNL     1     -20.268 -19.724 -16.746  1.00  0.00    -0.049 N 
ATOM     28  H43 UNL     1     -19.657 -20.161 -17.435  1.00  0.00     0.277 HD
ATOM     29  H42 UNL     1     -19.549 -19.369 -16.117  1.00  0.00     0.277 HD
ATOM     30  H41 UNL     1     -20.880 -20.400 -16.291  1.00  0.00     0.277 HD
ENDBRANCH  13  27
ENDBRANCH   1  13
BRANCH  12  31
HETATM   31  C9  UNL     1     -20.096 -18.234 -20.509  1.00  0.00     0.286 C 
BRANCH  31  32
HETATM   32  O4  UNL     1     -19.386 -17.048 -20.319  1.00  0.00    -0.369 OA
ATOM     33  H4  UNL     1     -18.503 -17.143 -19.983  1.00  0.00     0.212 HD
ENDBRANCH  31  32
BRANCH  31  34
HETATM   34  O5  UNL     1     -20.000 -18.534 -21.839  1.00  0.00    -0.369 OA
ATOM     35  H5  UNL     1     -19.148 -18.494 -22.257  1.00  0.00     0.212 HD
ENDBRANCH  31  34
ENDBRANCH  12  31
BRANCH   5  36
HETATM   36  C6  UNL     1     -24.698 -22.748 -17.342  1.00  0.00     0.246 C 
HETATM   37  O2  UNL     1     -24.122 -23.427 -16.466  1.00  0.00    -0.642 OA
HETATM   38  O3  UNL     1     -26.078 -22.694 -17.392  1.00  0.00    -0.642 OA
ENDBRANCH   5  36
TORSDOF 7
ENDMDL
MODEL 4
REMARK VINA RESULT: -6.802813536      1.255      1.436
REMARK  7 active torsions:
REMARK  status: ('A' for Active; 'I' for Inactive)
REMARK       I    between atoms: N1_1  and  C1_5 
REMARK       I    between atoms: C1_5  and  N2_6 
REMARK       I    between atoms: C1_5  and  N3_10 
REMARK       I    between atoms: N3_10  and  C2_12 
REMARK    1  A    between atoms: C2_12  and  C3_14 
REMARK    2  A    between atoms: C3_14  and  N4_15 
REMARK    3  A    between atoms: C3_14  and  N5_19 
REMARK    4  A    between atoms: C5_23  and  C6_24 
REMARK    5  A    between atoms: C8_33  and  C9_34 
REMARK    6  A    between atoms: C9_34  and  O4_35 
REMARK    7  A    between atoms: C9_34  and  O5_37 
ROOT
HETATM    1  N5  UNL     1     -22.886 -21.721 -17.410  1.00  0.00    -0.314 N 
HETATM    2  C4  UNL     1     -22.086 -22.042 -16.249  1.00  0.00     0.119 C 
HETATM    3  N6  UNL     1     -20.921 -21.696 -15.827  1.00  0.00    -0.323 N 
ATOM      4  H6  UNL     1     -20.383 -21.055 -16.411  1.00  0.00     0.169 HD
HETATM    5  C5  UNL     1     -20.329 -22.126 -14.633  1.00  0.00     0.199 C 
HETATM    6  N7  UNL     1     -20.955 -22.910 -13.860  1.00  0.00    -0.283 N 
ATOM      7  H7  UNL     1     -20.518 -23.226 -12.994  1.00  0.00     0.188 HD
HETATM    8  N8  UNL     1     -22.236 -23.342 -14.184  1.00  0.00    -0.313 N 
ATOM      9  H8  UNL     1     -22.788 -23.835 -13.482  1.00  0.00     0.182 HD
HETATM   10  C7  UNL     1     -22.785 -23.118 -15.450  1.00  0.00     0.230 C 
HETATM   11  S1  UNL     1     -24.366 -22.249 -15.342  1.00  0.00    -0.104 SA
HETATM   12  C8  UNL     1     -24.285 -21.801 -17.164  1.00  0.00     0.207 C 
ENDROOT
BRANCH   1  13
HETATM   13  C3  UNL     1     -22.209 -21.341 -18.615  1.00  0.00     0.379 C 
BRANCH  13  14
HETATM   14  C2  UNL     1     -21.908 -19.949 -18.819  1.00  0.00     0.271 C 
HETATM   15  N3  UNL     1     -21.925 -19.278 -20.067  1.00  0.00    -0.308 N 
HETATM   16  C1  UNL     1     -21.616 -17.875 -20.245  1.00  0.00     0.482 C 
ATOM     17  H3  UNL     1     -22.171 -19.819 -20.896  1.00  0.00     0.166 HD
HETATM   18  N1  UNL     1     -20.451 -17.682 -21.106  1.00  0.00    -0.033 N 
HETATM   19  N2  UNL     1     -22.759 -17.126 -20.749  1.00  0.00    -0.033 N 
ATOM     20  H13 UNL     1     -20.657 -17.915 -22.078  1.00  0.00     0.278 HD
ATOM     21  H12 UNL     1     -20.231 -16.694 -21.229  1.00  0.00     0.278 HD
ATOM     22  H11 UNL     1     -19.651 -18.207 -20.753  1.00  0.00     0.278 HD
ATOM     23  H23 UNL     1     -22.539 -16.138 -20.872  1.00  0.00     0.278 HD
ATOM     24  H22 UNL     1     -22.964 -17.359 -21.721  1.00  0.00     0.278 HD
ATOM     25  H21 UNL     1     -23.572 -17.261 -20.149  1.00  0.00     0.278 HD
HETATM   26  O1  UNL     1     -21.595 -19.210 -17.819  1.00  0.00    -0.269 OA
ENDBRANCH  13  14
BRANCH  13  27
HETATM   27  N4  UNL     1     -22.885 -21.874 -19.805  1.00  0.00    -0.049 N 
ATOM     28  H43 UNL     1     -23.291 -22.794 -19.637  1.00  0.00     0.277 HD
ATOM     29  H42 UNL     1     -23.746 -21.371 -20.017  1.00  0.00     0.277 HD
ATOM     30  H41 UNL     1     -22.236 -21.877 -20.591  1.00  0.00     0.277 HD
ENDBRANCH  13  27
ENDBRANCH   1  13
BRANCH  12  31
HETATM   31  C9  UNL     1     -25.094 -22.852 -17.809  1.00  0.00     0.286 C 
BRANCH  31  32
HETATM   32  O4  UNL     1     -26.223 -23.270 -17.106  1.00  0.00    -0.369 OA
ATOM     33  H4  UNL     1     -26.701 -22.590 -16.647  1.00  0.00     0.212 HD
ENDBRANCH  31  32
BRANCH  31  34
HETATM   34  O5  UNL     1     -24.471 -23.986 -18.250  1.00  0.00    -0.369 OA
ATOM     35  H5  UNL     1     -24.718 -24.821 -17.871  1.00  0.00     0.212 HD
ENDBRANCH  31  34
ENDBRANCH  12  31
BRANCH   5  36
HETATM   36  C6  UNL     1     -18.983 -21.708 -14.213  1.00  0.00     0.246 C 
HETATM   37  O2  UNL     1     -18.307 -21.054 -15.035  1.00  0.00    -0.642 OA
HETATM   38  O3  UNL     1     -18.468 -22.013 -12.967  1.00  0.00    -0.642 OA
ENDBRANCH   5  36
TORSDOF 7
ENDMDL
MODEL 5
REMARK VINA RESULT: -6.745345539      2.676      5.021
REMARK  7 active torsions:
REMARK  status: ('A' for Active; 'I' for Inactive)
REMARK       I    between atoms: N1_1  and  C1_5 
REMARK       I    between atoms: C1_5  and  N2_6 
REMARK       I    between atoms: C1_5  and  N3_10 
REMARK       I    between atoms: N3_10  and  C2_12 
REMARK    1  A    between atoms: C2_12  and  C3_14 
REMARK    2  A    between atoms: C3_14  and  N4_15 
REMARK    3  A    between atoms: C3_14  and  N5_19 
REMARK    4  A    between atoms: C5_23  and  C6_24 
REMARK    5  A    between atoms: C8_33  and  C9_34 
REMARK    6  A    between atoms: C9_34  and  O4_35 
REMARK    7  A    between atoms: C9_34  and  O5_37 
ROOT
HETATM    1  N5  UNL     1     -21.568 -20.302 -18.627  1.00  0.00    -0.314 N 
HETATM    2  C4  UNL     1     -22.593 -20.936 -17.826  1.00  0.00     0.119 C 
HETATM    3  N6  UNL     1     -23.843 -21.190 -17.990  1.00  0.00    -0.323 N 
ATOM      4  H6  UNL     1     -24.271 -20.889 -18.866  1.00  0.00     0.169 HD
HETATM    5  C5  UNL     1     -24.665 -21.847 -17.067  1.00  0.00     0.199 C 
HETATM    6  N7  UNL     1     -24.187 -22.258 -15.968  1.00  0.00    -0.283 N 
ATOM      7  H7  UNL     1     -24.791 -22.730 -15.296  1.00  0.00     0.188 HD
HETATM    8  N8  UNL     1     -22.841 -22.069 -15.675  1.00  0.00    -0.313 N 
ATOM      9  H8  UNL     1     -22.436 -22.546 -14.869  1.00  0.00     0.182 HD
HETATM   10  C7  UNL     1     -22.031 -21.242 -16.457  1.00  0.00     0.230 C 
HETATM   11  S1  UNL     1     -20.574 -22.123 -17.065  1.00  0.00    -0.104 SA
HETATM   12  C8  UNL     1     -20.262 -20.793 -18.353  1.00  0.00     0.207 C 
ENDROOT
BRANCH   1  13
HETATM   13  C3  UNL     1     -21.972 -19.318 -19.588  1.00  0.00     0.379 C 
BRANCH  13  14
HETATM   14  C2  UNL     1     -21.704 -19.572 -20.979  1.00  0.00     0.271 C 
HETATM   15  N3  UNL     1     -22.211 -20.662 -21.728  1.00  0.00    -0.308 N 
HETATM   16  C1  UNL     1     -21.924 -20.896 -23.127  1.00  0.00     0.482 C 
ATOM     17  H3  UNL     1     -22.820 -21.327 -21.250  1.00  0.00     0.166 HD
HETATM   18  N1  UNL     1     -21.229 -22.165 -23.332  1.00  0.00    -0.033 N 
HETATM   19  N2  UNL     1     -23.125 -20.829 -23.948  1.00  0.00    -0.033 N 
ATOM     20  H13 UNL     1     -21.843 -22.963 -23.170  1.00  0.00     0.278 HD
ATOM     21  H12 UNL     1     -21.022 -22.329 -24.318  1.00  0.00     0.278 HD
ATOM     22  H11 UNL     1     -20.388 -22.212 -22.757  1.00  0.00     0.278 HD
ATOM     23  H23 UNL     1     -22.919 -20.992 -24.934  1.00  0.00     0.278 HD
ATOM     24  H22 UNL     1     -23.739 -21.626 -23.786  1.00  0.00     0.278 HD
ATOM     25  H21 UNL     1     -23.610 -19.944 -23.805  1.00  0.00     0.278 HD
HETATM   26  O1  UNL     1     -20.950 -18.773 -21.640  1.00  0.00    -0.269 OA
ENDBRANCH  13  14
BRANCH  13  27
HETATM   27  N4  UNL     1     -21.479 -17.982 -19.232  1.00  0.00    -0.049 N 
ATOM     28  H43 UNL     1     -21.585 -17.315 -19.996  1.00  0.00     0.277 HD
ATOM     29  H42 UNL     1     -22.079 -17.518 -18.551  1.00  0.00     0.277 HD
ATOM     30  H41 UNL     1     -20.514 -18.051 -18.912  1.00  0.00     0.277 HD
ENDBRANCH  13  27
ENDBRANCH   1  13
BRANCH  12  31
HETATM   31  C9  UNL     1     -19.262 -19.922 -17.706  1.00  0.00     0.286 C 
BRANCH  31  32
HETATM   32  O4  UNL     1     -18.370 -20.556 -16.841  1.00  0.00    -0.369 OA
ATOM     33  H4  UNL     1     -18.761 -21.083 -16.155  1.00  0.00     0.212 HD
ENDBRANCH  31  32
BRANCH  31  34
HETATM   34  O5  UNL     1     -19.687 -18.794 -17.064  1.00  0.00    -0.369 OA
ATOM     35  H5  UNL     1     -19.039 -18.180 -16.739  1.00  0.00     0.212 HD
ENDBRANCH  31  34
ENDBRANCH  12  31
BRANCH   5  36
HETATM   36  C6  UNL     1     -26.096 -22.094 -17.305  1.00  0.00     0.246 C 
HETATM   37  O2  UNL     1     -26.732 -21.213 -17.922  1.00  0.00    -0.642 OA
HETATM   38  O3  UNL     1     -26.730 -23.244 -16.876  1.00  0.00    -0.642 OA
ENDBRANCH   5  36
TORSDOF 7
ENDMDL
