MODEL 1
REMARK VINA RESULT: -6.857080149      0.000      0.000
REMARK  10 active torsions:
REMARK  status: ('A' for Active; 'I' for Inactive)
REMARK    1  A    between atoms: C3_4  and  C4_5 
REMARK    2  A    between atoms: C4_5  and  O1_6 
REMARK    3  A    between atoms: C4_5  and  N2_8 
REMARK    4  A    between atoms: N2_8  and  O2_9 
REMARK    5  A    between atoms: C5_11  and  N3_12 
REMARK    6  A    between atoms: N5_19  and  C7_20 
REMARK    7  A    between atoms: C9_23  and  O4_24 
REMARK    8  A    between atoms: O4_24  and  N7_25 
REMARK    9  A    between atoms: C10_28  and  C11_29 
REMARK   10  A    between atoms: C11_29  and  O5_30 
ROOT
HETATM    1  N1  UNL     1     -19.033 -21.201 -18.263  1.00  0.00    -0.190 NA
HETATM    2  C1  UNL     1     -20.115 -21.403 -17.845  1.00  0.00     0.119 C 
HETATM    3  C2  UNL     1     -21.453 -21.627 -17.346  1.00  0.00     0.140 A 
HETATM    4  C3  UNL     1     -21.595 -22.406 -16.219  1.00  0.00     0.070 A 
HETATM    5  C5  UNL     1     -22.889 -22.598 -15.759  1.00  0.00     0.116 A 
HETATM    6  N4  UNL     1     -23.953 -22.048 -16.385  1.00  0.00    -0.294 N 
ATOM      7  H4  UNL     1     -24.898 -22.199 -16.033  1.00  0.00     0.172 HD
HETATM    8  C6  UNL     1     -23.741 -21.302 -17.475  1.00  0.00     0.335 A 
HETATM    9  O3  UNL     1     -24.768 -20.799 -18.039  1.00  0.00    -0.246 OA
HETATM   10  N5  UNL     1     -22.523 -21.066 -17.987  1.00  0.00    -0.231 N 
ENDROOT
BRANCH   4  11
HETATM   11  C4  UNL     1     -20.449 -23.019 -15.510  1.00  0.00     0.278 C 
BRANCH  11  12
HETATM   12  O1  UNL     1     -20.808 -24.381 -15.327  1.00  0.00    -0.373 OA
ATOM     13  H1  UNL     1     -20.291 -24.863 -15.962  1.00  0.00     0.212 HD
ENDBRANCH  11  12
BRANCH  11  14
HETATM   14  N2  UNL     1     -20.370 -22.496 -14.146  1.00  0.00    -0.066 NA
BRANCH  14  15
HETATM   15  O2  UNL     1     -19.694 -21.317 -14.130  1.00  0.00    -0.293 OA
ATOM     16  H2  UNL     1     -18.896 -21.386 -14.641  1.00  0.00     0.238 HD
ENDBRANCH  14  15
ENDBRANCH  11  14
ENDBRANCH   4  11
BRANCH  10  17
HETATM   17  C7  UNL     1     -22.315 -20.272 -19.143  1.00  0.00     0.178 C 
HETATM   18  C8  UNL     1     -22.514 -20.616 -20.400  1.00  0.00     0.109 C 
HETATM   19  N6  UNL     1     -22.996 -21.901 -20.854  1.00  0.00    -0.100 NA
HETATM   20  C9  UNL     1     -22.158 -19.447 -21.233  1.00  0.00     0.234 C 
HETATM   21  C10 UNL     1     -21.276 -18.636 -20.349  1.00  0.00     0.191 C 
HETATM   22  O6  UNL     1     -21.840 -18.947 -19.061  1.00  0.00    -0.323 OA
BRANCH  20  23
HETATM   23  O4  UNL     1     -21.556 -19.815 -22.430  1.00  0.00    -0.273 OA
BRANCH  23  24
HETATM   24  N7  UNL     1     -20.453 -20.557 -22.261  1.00  0.00    -0.310 N 
ATOM     25  H72 UNL     1     -19.520 -20.147 -22.216  1.00  0.00     0.184 HD
ATOM     26  H71 UNL     1     -20.645 -21.555 -22.186  1.00  0.00     0.184 HD
ENDBRANCH  23  24
ENDBRANCH  20  23
BRANCH  21  27
HETATM   27  C11 UNL     1     -21.446 -17.147 -20.534  1.00  0.00     0.199 C 
BRANCH  27  28
HETATM   28  O5  UNL     1     -22.817 -16.894 -20.583  1.00  0.00    -0.398 OA
ATOM     29  H5  UNL     1     -23.206 -17.567 -21.129  1.00  0.00     0.209 HD
ENDBRANCH  27  28
ENDBRANCH  21  27
ENDBRANCH  10  17
BRANCH   5  30
HETATM   30  N3  UNL     1     -23.092 -23.297 -14.720  1.00  0.00    -0.385 N 
ATOM     31  H32 UNL     1     -23.177 -24.308 -14.823  1.00  0.00     0.157 HD
ATOM     32  H31 UNL     1     -23.173 -22.843 -13.811  1.00  0.00     0.157 HD
ENDBRANCH   5  30
TORSDOF 10
ENDMDL
MODEL 2
REMARK VINA RESULT: -6.660426212      2.197      5.996
REMARK  10 active torsions:
REMARK  status: ('A' for Active; 'I' for Inactive)
REMARK    1  A    between atoms: C3_4  and  C4_5 
REMARK    2  A    between atoms: C4_5  and  O1_6 
REMARK    3  A    between atoms: C4_5  and  N2_8 
REMARK    4  A    between atoms: N2_8  and  O2_9 
REMARK    5  A    between atoms: C5_11  and  N3_12 
REMARK    6  A    between atoms: N5_19  and  C7_20 
REMARK    7  A    between atoms: C9_23  and  O4_24 
REMARK    8  A    between atoms: O4_24  and  N7_25 
REMARK    9  A    between atoms: C10_28  and  C11_29 
REMARK   10  A    between atoms: C11_29  and  O5_30 
ROOT
HETATM    1  N1  UNL     1     -21.311 -18.254 -16.964  1.00  0.00    -0.190 NA
HETATM    2  C1  UNL     1     -21.259 -18.799 -18.006  1.00  0.00     0.119 C 
HETATM    3  C2  UNL     1     -21.205 -19.494 -19.272  1.00  0.00     0.140 A 
HETATM    4  C3  UNL     1     -20.398 -18.970 -20.257  1.00  0.00     0.070 A 
HETATM    5  C5  UNL     1     -20.360 -19.661 -21.459  1.00  0.00     0.116 A 
HETATM    6  N4  UNL     1     -21.078 -20.789 -21.650  1.00  0.00    -0.294 N 
ATOM      7  H4  UNL     1     -21.038 -21.286 -22.541  1.00  0.00     0.172 HD
HETATM    8  C6  UNL     1     -21.841 -21.241 -20.649  1.00  0.00     0.335 A 
HETATM    9  O3  UNL     1     -22.505 -22.309 -20.866  1.00  0.00    -0.246 OA
HETATM   10  N5  UNL     1     -21.936 -20.635 -19.456  1.00  0.00    -0.231 N 
ENDROOT
BRANCH   4  11
HETATM   11  C4  UNL     1     -19.597 -17.737 -20.076  1.00  0.00     0.278 C 
BRANCH  11  12
HETATM   12  O1  UNL     1     -19.984 -16.881 -21.141  1.00  0.00    -0.373 OA
ATOM     13  H1  UNL     1     -19.363 -17.054 -21.839  1.00  0.00     0.212 HD
ENDBRANCH  11  12
BRANCH  11  14
HETATM   14  N2  UNL     1     -18.188 -18.015 -20.351  1.00  0.00    -0.066 NA
BRANCH  14  15
HETATM   15  O2  UNL     1     -17.731 -17.204 -21.342  1.00  0.00    -0.293 OA
ATOM     16  H2  UNL     1     -18.444 -16.950 -21.916  1.00  0.00     0.238 HD
ENDBRANCH  14  15
ENDBRANCH  11  14
ENDBRANCH   4  11
BRANCH  10  17
HETATM   17  C7  UNL     1     -22.749 -21.128 -18.404  1.00  0.00     0.178 C 
HETATM   18  C8  UNL     1     -22.361 -21.785 -17.330  1.00  0.00     0.109 C 
HETATM   19  N6  UNL     1     -20.997 -22.139 -17.007  1.00  0.00    -0.100 NA
HETATM   20  C9  UNL     1     -23.573 -22.076 -16.535  1.00  0.00     0.234 C 
HETATM   21  C10 UNL     1     -24.682 -21.966 -17.525  1.00  0.00     0.191 C 
HETATM   22  O6  UNL     1     -24.148 -20.955 -18.400  1.00  0.00    -0.323 OA
BRANCH  20  23
HETATM   23  O4  UNL     1     -23.510 -23.316 -15.910  1.00  0.00    -0.273 OA
BRANCH  23  24
HETATM   24  N7  UNL     1     -22.681 -23.337 -14.858  1.00  0.00    -0.310 N 
ATOM     25  H72 UNL     1     -21.805 -22.816 -14.841  1.00  0.00     0.184 HD
ATOM     26  H71 UNL     1     -23.016 -23.921 -14.092  1.00  0.00     0.184 HD
ENDBRANCH  23  24
ENDBRANCH  20  23
BRANCH  21  27
HETATM   27  C11 UNL     1     -25.950 -21.391 -16.942  1.00  0.00     0.199 C 
BRANCH  27  28
HETATM   28  O5  UNL     1     -26.817 -21.147 -18.008  1.00  0.00    -0.398 OA
ATOM     29  H5  UNL     1     -27.092 -20.240 -17.943  1.00  0.00     0.209 HD
ENDBRANCH  27  28
ENDBRANCH  21  27
ENDBRANCH  10  17
BRANCH   5  30
HETATM   30  N3  UNL     1     -19.630 -19.239 -22.406  1.00  0.00    -0.385 N 
ATOM     31  H32 UNL     1     -18.838 -18.636 -22.180  1.00  0.00     0.157 HD
ATOM     32  H31 UNL     1     -19.847 -19.499 -23.368  1.00  0.00     0.157 HD
ENDBRANCH   5  30
TORSDOF 10
ENDMDL
MODEL 3
REMARK VINA RESULT: -6.465574447      1.440      2.106
REMARK  10 active torsions:
REMARK  status: ('A' for Active; 'I' for Inactive)
REMARK    1  A    between atoms: C3_4  and  C4_5 
REMARK    2  A    between atoms: C4_5  and  O1_6 
REMARK    3  A    between atoms: C4_5  and  N2_8 
REMARK    4  A    between atoms: N2_8  and  O2_9 
REMARK    5  A    between atoms: C5_11  and  N3_12 
REMARK    6  A    between atoms: N5_19  and  C7_20 
REMARK    7  A    between atoms: C9_23  and  O4_24 
REMARK    8  A    between atoms: O4_24  and  N7_25 
REMARK    9  A    between atoms: C10_28  and  C11_29 
REMARK   10  A    between atoms: C11_29  and  O5_30 
ROOT
HETATM    1  N1  UNL     1     -18.950 -21.584 -18.224  1.00  0.00    -0.190 NA
HETATM    2  C1  UNL     1     -20.047 -21.695 -17.811  1.00  0.00     0.119 C 
HETATM    3  C2  UNL     1     -21.402 -21.810 -17.323  1.00  0.00     0.140 A 
HETATM    4  C3  UNL     1     -21.588 -22.343 -16.067  1.00  0.00     0.070 A 
HETATM    5  C5  UNL     1     -22.899 -22.435 -15.623  1.00  0.00     0.116 A 
HETATM    6  N4  UNL     1     -23.936 -22.022 -16.384  1.00  0.00    -0.294 N 
ATOM      7  H4  UNL     1     -24.895 -22.097 -16.041  1.00  0.00     0.172 HD
HETATM    8  C6  UNL     1     -23.681 -21.515 -17.595  1.00  0.00     0.335 A 
HETATM    9  O3  UNL     1     -24.685 -21.136 -18.285  1.00  0.00    -0.246 OA
HETATM   10  N5  UNL     1     -22.445 -21.391 -18.102  1.00  0.00    -0.231 N 
ENDROOT
BRANCH   4  11
HETATM   11  C4  UNL     1     -20.472 -22.800 -15.208  1.00  0.00     0.278 C 
BRANCH  11  12
HETATM   12  O1  UNL     1     -20.848 -24.096 -14.766  1.00  0.00    -0.373 OA
ATOM     13  H1  UNL     1     -20.132 -24.665 -15.022  1.00  0.00     0.212 HD
ENDBRANCH  11  12
BRANCH  11  14
HETATM   14  N2  UNL     1     -20.436 -22.012 -13.977  1.00  0.00    -0.066 NA
BRANCH  14  15
HETATM   15  O2  UNL     1     -19.402 -21.129 -14.011  1.00  0.00    -0.293 OA
ATOM     16  H2  UNL     1     -18.712 -21.407 -13.420  1.00  0.00     0.238 HD
ENDBRANCH  14  15
ENDBRANCH  11  14
ENDBRANCH   4  11
BRANCH  10  17
HETATM   17  C7  UNL     1     -22.191 -20.849 -19.388  1.00  0.00     0.178 C 
HETATM   18  C8  UNL     1     -21.732 -19.648 -19.677  1.00  0.00     0.109 C 
HETATM   19  N6  UNL     1     -21.389 -18.625 -18.715  1.00  0.00    -0.100 NA
HETATM   20  C9  UNL     1     -21.635 -19.562 -21.150  1.00  0.00     0.234 C 
HETATM   21  C10 UNL     1     -22.557 -20.629 -21.630  1.00  0.00     0.191 C 
HETATM   22  O6  UNL     1     -22.420 -21.589 -20.566  1.00  0.00    -0.323 OA
BRANCH  20  23
HETATM   23  O4  UNL     1     -21.955 -18.297 -21.627  1.00  0.00    -0.273 OA
BRANCH  23  24
HETATM   24  N7  UNL     1     -22.976 -17.726 -20.972  1.00  0.00    -0.310 N 
ATOM     25  H72 UNL     1     -23.150 -16.721 -20.999  1.00  0.00     0.184 HD
ATOM     26  H71 UNL     1     -23.546 -18.393 -20.454  1.00  0.00     0.184 HD
ENDBRANCH  23  24
ENDBRANCH  20  23
BRANCH  21  27
HETATM   27  C11 UNL     1     -22.075 -21.318 -22.883  1.00  0.00     0.199 C 
BRANCH  27  28
HETATM   28  O5  UNL     1     -22.438 -20.511 -23.961  1.00  0.00    -0.398 OA
ATOM     29  H5  UNL     1     -22.770 -21.085 -24.642  1.00  0.00     0.209 HD
ENDBRANCH  27  28
ENDBRANCH  21  27
ENDBRANCH  10  17
BRANCH   5  30
HETATM   30  N3  UNL     1     -23.143 -22.907 -14.471  1.00  0.00    -0.385 N 
ATOM     31  H32 UNL     1     -22.691 -23.779 -14.196  1.00  0.00     0.157 HD
ATOM     32  H31 UNL     1     -23.784 -22.418 -13.848  1.00  0.00     0.157 HD
ENDBRANCH   5  30
TORSDOF 10
ENDMDL
MODEL 4
REMARK VINA RESULT: -6.451458255      1.758      2.978
REMARK  10 active torsions:
REMARK  status: ('A' for Active; 'I' for Inactive)
REMARK    1  A    between atoms: C3_4  and  C4_5 
REMARK    2  A    between atoms: C4_5  and  O1_6 
REMARK    3  A    between atoms: C4_5  and  N2_8 
REMARK    4  A    between atoms: N2_8  and  O2_9 
REMARK    5  A    between atoms: C5_11  and  N3_12 
REMARK    6  A    between atoms: N5_19  and  C7_20 
REMARK    7  A    between atoms: C9_23  and  O4_24 
REMARK    8  A    between atoms: O4_24  and  N7_25 
REMARK    9  A    between atoms: C10_28  and  C11_29 
REMARK   10  A    between atoms: C11_29  and  O5_30 
ROOT
HETATM    1  N1  UNL     1     -23.548 -21.788 -18.178  1.00  0.00    -0.190 NA
HETATM    2  C1  UNL     1     -22.519 -21.531 -17.665  1.00  0.00     0.119 C 
HETATM    3  C2  UNL     1     -21.246 -21.208 -17.063  1.00  0.00     0.140 A 
HETATM    4  C3  UNL     1     -20.964 -21.752 -15.829  1.00  0.00     0.070 A 
HETATM    5  C5  UNL     1     -19.732 -21.431 -15.279  1.00  0.00     0.116 A 
HETATM    6  N4  UNL     1     -18.856 -20.627 -15.921  1.00  0.00    -0.294 N 
ATOM      7  H4  UNL     1     -17.954 -20.401 -15.502  1.00  0.00     0.172 HD
HETATM    8  C6  UNL     1     -19.196 -20.134 -17.117  1.00  0.00     0.335 A 
HETATM    9  O3  UNL     1     -18.345 -19.380 -17.694  1.00  0.00    -0.246 OA
HETATM   10  N5  UNL     1     -20.366 -20.394 -17.720  1.00  0.00    -0.231 N 
ENDROOT
BRANCH   4  11
HETATM   11  C4  UNL     1     -21.902 -22.638 -15.102  1.00  0.00     0.278 C 
BRANCH  11  12
HETATM   12  O1  UNL     1     -21.971 -22.108 -13.786  1.00  0.00    -0.373 OA
ATOM     13  H1  UNL     1     -22.470 -22.744 -13.287  1.00  0.00     0.212 HD
ENDBRANCH  11  12
BRANCH  11  14
HETATM   14  N2  UNL     1     -21.296 -23.955 -14.913  1.00  0.00    -0.066 NA
BRANCH  14  15
HETATM   15  O2  UNL     1     -21.284 -24.285 -13.593  1.00  0.00    -0.293 OA
ATOM     16  H2  UNL     1     -20.474 -23.996 -13.188  1.00  0.00     0.238 HD
ENDBRANCH  14  15
ENDBRANCH  11  14
ENDBRANCH   4  11
BRANCH  10  17
HETATM   17  C7  UNL     1     -20.712 -19.864 -18.990  1.00  0.00     0.178 C 
HETATM   18  C8  UNL     1     -20.402 -20.352 -20.175  1.00  0.00     0.109 C 
HETATM   19  N6  UNL     1     -19.632 -21.551 -20.416  1.00  0.00    -0.100 NA
HETATM   20  C9  UNL     1     -20.992 -19.448 -21.185  1.00  0.00     0.234 C 
HETATM   21  C10 UNL     1     -21.204 -18.174 -20.443  1.00  0.00     0.191 C 
HETATM   22  O6  UNL     1     -21.470 -18.683 -19.123  1.00  0.00    -0.323 OA
BRANCH  20  23
HETATM   23  O4  UNL     1     -20.183 -19.308 -22.306  1.00  0.00    -0.273 OA
BRANCH  23  24
HETATM   24  N7  UNL     1     -18.928 -18.942 -22.012  1.00  0.00    -0.310 N 
ATOM     25  H72 UNL     1     -18.675 -18.528 -21.115  1.00  0.00     0.184 HD
ATOM     26  H71 UNL     1     -18.268 -19.120 -22.768  1.00  0.00     0.184 HD
ENDBRANCH  23  24
ENDBRANCH  20  23
BRANCH  21  27
HETATM   27  C11 UNL     1     -22.449 -17.432 -20.867  1.00  0.00     0.199 C 
BRANCH  27  28
HETATM   28  O5  UNL     1     -23.403 -18.392 -21.205  1.00  0.00    -0.398 OA
ATOM     29  H5  UNL     1     -23.544 -18.328 -22.142  1.00  0.00     0.209 HD
ENDBRANCH  27  28
ENDBRANCH  21  27
ENDBRANCH  10  17
BRANCH   5  30
HETATM   30  N3  UNL     1     -19.404 -21.904 -14.149  1.00  0.00    -0.385 N 
ATOM     31  H32 UNL     1     -19.964 -21.653 -13.334  1.00  0.00     0.157 HD
ATOM     32  H31 UNL     1     -18.591 -22.515 -14.072  1.00  0.00     0.157 HD
ENDBRANCH   5  30
TORSDOF 10
ENDMDL
MODEL 5
REMARK VINA RESULT: -6.424654503      1.048      1.051
REMARK  10 active torsions:
REMARK  status: ('A' for Active; 'I' for Inactive)
REMARK    1  A    between atoms: C3_4  and  C4_5 
REMARK    2  A    between atoms: C4_5  and  O1_6 
REMARK    3  A    between atoms: C4_5  and  N2_8 
REMARK    4  A    between atoms: N2_8  and  O2_9 
REMARK    5  A    between atoms: C5_11  and  N3_12 
REMARK    6  A    between atoms: N5_19  and  C7_20 
REMARK    7  A    between atoms: C9_23  and  O4_24 
REMARK    8  A    between atoms: O4_24  and  N7_25 
REMARK    9  A    between atoms: C10_28  and  C11_29 
REMARK   10  A    between atoms: C11_29  and  O5_30 
ROOT
HETATM    1  N1  UNL     1     -18.658 -20.401 -17.576  1.00  0.00    -0.190 NA
HETATM    2  C1  UNL     1     -19.769 -20.740 -17.378  1.00  0.00     0.119 C 
HETATM    3  C2  UNL     1     -21.141 -21.132 -17.153  1.00  0.00     0.140 A 
HETATM    4  C3  UNL     1     -21.409 -21.927 -16.061  1.00  0.00     0.070 A 
HETATM    5  C5  UNL     1     -22.736 -22.282 -15.866  1.00  0.00     0.116 A 
HETATM    6  N4  UNL     1     -23.711 -21.868 -16.704  1.00  0.00    -0.294 N 
ATOM      7  H4  UNL     1     -24.682 -22.138 -16.545  1.00  0.00     0.172 HD
HETATM    8  C6  UNL     1     -23.378 -21.097 -17.745  1.00  0.00     0.335 A 
HETATM    9  O3  UNL     1     -24.325 -20.725 -18.515  1.00  0.00    -0.246 OA
HETATM   10  N5  UNL     1     -22.121 -20.708 -18.007  1.00  0.00    -0.231 N 
ENDROOT
BRANCH   4  11
HETATM   11  C4  UNL     1     -20.363 -22.393 -15.123  1.00  0.00     0.278 C 
BRANCH  11  12
HETATM   12  O1  UNL     1     -20.588 -23.788 -14.978  1.00  0.00    -0.373 OA
ATOM     13  H1  UNL     1     -21.289 -23.863 -14.341  1.00  0.00     0.212 HD
ENDBRANCH  11  12
BRANCH  11  14
HETATM   14  N2  UNL     1     -20.620 -21.861 -13.786  1.00  0.00    -0.066 NA
BRANCH  14  15
HETATM   15  O2  UNL     1     -19.646 -22.257 -12.924  1.00  0.00    -0.293 OA
ATOM     16  H2  UNL     1     -18.821 -21.837 -13.142  1.00  0.00     0.238 HD
ENDBRANCH  14  15
ENDBRANCH  11  14
ENDBRANCH   4  11
BRANCH  10  17
HETATM   17  C7  UNL     1     -21.784 -19.890 -19.115  1.00  0.00     0.178 C 
HETATM   18  C8  UNL     1     -21.621 -20.263 -20.369  1.00  0.00     0.109 C 
HETATM   19  N6  UNL     1     -21.757 -21.612 -20.870  1.00  0.00    -0.100 NA
HETATM   20  C9  UNL     1     -21.282 -19.050 -21.144  1.00  0.00     0.234 C 
HETATM   21  C10 UNL     1     -20.783 -18.097 -20.113  1.00  0.00     0.191 C 
HETATM   22  O6  UNL     1     -21.574 -18.502 -18.981  1.00  0.00    -0.323 OA
BRANCH  20  23
HETATM   23  O4  UNL     1     -20.361 -19.307 -22.153  1.00  0.00    -0.273 OA
BRANCH  23  24
HETATM   24  N7  UNL     1     -19.099 -19.022 -21.803  1.00  0.00    -0.310 N 
ATOM     25  H72 UNL     1     -18.332 -19.682 -21.936  1.00  0.00     0.184 HD
ATOM     26  H71 UNL     1     -18.993 -18.093 -21.397  1.00  0.00     0.184 HD
ENDBRANCH  23  24
ENDBRANCH  20  23
BRANCH  21  27
HETATM   27  C11 UNL     1     -21.155 -16.661 -20.394  1.00  0.00     0.199 C 
BRANCH  27  28
HETATM   28  O5  UNL     1     -20.387 -16.243 -21.481  1.00  0.00    -0.398 OA
ATOM     29  H5  UNL     1     -19.516 -16.603 -21.363  1.00  0.00     0.209 HD
ENDBRANCH  27  28
ENDBRANCH  21  27
ENDBRANCH  10  17
BRANCH   5  30
HETATM   30  N3  UNL     1     -23.056 -23.005 -14.874  1.00  0.00    -0.385 N 
ATOM     31  H32 UNL     1     -22.536 -23.868 -14.712  1.00  0.00     0.157 HD
ATOM     32  H31 UNL     1     -23.823 -22.720 -14.265  1.00  0.00     0.157 HD
ENDBRANCH   5  30
TORSDOF 10
ENDMDL
