MODEL 1
REMARK VINA RESULT: -7.859106852      0.000      0.000
REMARK  9 active torsions:
REMARK  status: ('A' for Active; 'I' for Inactive)
REMARK    1  A    between atoms: C1_2  and  C2_4 
REMARK    2  A    between atoms: N2_6  and  C4_7 
REMARK    3  A    between atoms: C6_9  and  C7_10 
REMARK    4  A    between atoms: C7_10  and  O2_11 
REMARK    5  A    between atoms: C7_10  and  O3_13 
REMARK    6  A    between atoms: C8_15  and  O4_16 
REMARK    7  A    between atoms: C9_18  and  O5_19 
REMARK    8  A    between atoms: C9_18  and  C10_21 
REMARK    9  A    between atoms: C10_21  and  O6_22 
ROOT
HETATM    1  C4  UNL     1     -21.348 -19.407 -17.777  1.00  0.00     0.236 C 
HETATM    2  C5  UNL     1     -22.093 -19.196 -19.030  1.00  0.00     0.066 C 
HETATM    3  C6  UNL     1     -21.377 -18.045 -19.767  1.00  0.00     0.079 C 
HETATM    4  C8  UNL     1     -21.483 -16.852 -18.864  1.00  0.00     0.191 C 
HETATM    5  C9  UNL     1     -20.885 -17.144 -17.527  1.00  0.00     0.212 C 
HETATM    6  O7  UNL     1     -21.335 -18.299 -16.929  1.00  0.00    -0.326 OA
ENDROOT
BRANCH   1   7
HETATM    7  N2  UNL     1     -21.652 -20.542 -16.985  1.00  0.00    -0.281 N 
HETATM    8  C3  UNL     1     -22.935 -21.010 -17.045  1.00  0.00     0.120 A 
HETATM    9  C2  UNL     1     -23.311 -22.111 -16.304  1.00  0.00     0.113 A 
HETATM   10  C12 UNL     1     -22.391 -22.748 -15.495  1.00  0.00     0.266 A 
HETATM   11  N3  UNL     1     -21.123 -22.268 -15.450  1.00  0.00    -0.274 N 
HETATM   12  O9  UNL     1     -22.729 -23.748 -14.820  1.00  0.00    -0.267 OA
HETATM   13  C11 UNL     1     -20.806 -21.193 -16.190  1.00  0.00     0.331 A 
ATOM     14  H3  UNL     1     -20.420 -22.717 -14.862  1.00  0.00     0.173 HD
HETATM   15  O8  UNL     1     -19.633 -20.766 -16.135  1.00  0.00    -0.246 OA
BRANCH   9  16
HETATM   16  C1  UNL     1     -24.690 -22.603 -16.377  1.00  0.00     0.271 C 
HETATM   17  N1  UNL     1     -25.040 -23.564 -17.365  1.00  0.00    -0.057 NA
HETATM   18  O1  UNL     1     -25.585 -22.215 -15.605  1.00  0.00    -0.271 OA
ENDBRANCH   9  16
ENDBRANCH   1   7
BRANCH   3  19
HETATM   19  C7  UNL     1     -22.197 -17.784 -21.037  1.00  0.00     0.260 C 
BRANCH  19  20
HETATM   20  O2  UNL     1     -22.809 -16.535 -20.966  1.00  0.00    -0.371 OA
ATOM     21  H2  UNL     1     -22.425 -15.945 -21.604  1.00  0.00     0.212 HD
ENDBRANCH  19  20
BRANCH  19  22
HETATM   22  O3  UNL     1     -23.184 -18.737 -21.121  1.00  0.00    -0.371 OA
ATOM     23  H3  UNL     1     -23.928 -18.359 -21.576  1.00  0.00     0.212 HD
ENDBRANCH  19  22
ENDBRANCH   3  19
BRANCH   5  24
HETATM   24  O5  UNL     1     -21.275 -16.089 -16.667  1.00  0.00    -0.362 OA
ATOM     25  H5  UNL     1     -21.935 -16.443 -16.083  1.00  0.00     0.213 HD
ENDBRANCH   5  24
BRANCH   5  26
HETATM   26  C10 UNL     1     -19.357 -17.077 -17.545  1.00  0.00     0.235 C 
BRANCH  26  27
HETATM   27  O6  UNL     1     -18.942 -15.881 -16.993  1.00  0.00    -0.395 OA
ATOM     28  H6  UNL     1     -18.137 -15.600 -17.413  1.00  0.00     0.209 HD
ENDBRANCH  26  27
ENDBRANCH   5  26
BRANCH   4  29
HETATM   29  O4  UNL     1     -20.857 -15.790 -19.460  1.00  0.00    -0.389 OA
ATOM     30  H4  UNL     1     -20.634 -15.152 -18.793  1.00  0.00     0.210 HD
ENDBRANCH   4  29
TORSDOF 9
ENDMDL
MODEL 2
REMARK VINA RESULT: -7.736374720      1.939      6.953
REMARK  9 active torsions:
REMARK  status: ('A' for Active; 'I' for Inactive)
REMARK    1  A    between atoms: C1_2  and  C2_4 
REMARK    2  A    between atoms: N2_6  and  C4_7 
REMARK    3  A    between atoms: C6_9  and  C7_10 
REMARK    4  A    between atoms: C7_10  and  O2_11 
REMARK    5  A    between atoms: C7_10  and  O3_13 
REMARK    6  A    between atoms: C8_15  and  O4_16 
REMARK    7  A    between atoms: C9_18  and  O5_19 
REMARK    8  A    between atoms: C9_18  and  C10_21 
REMARK    9  A    between atoms: C10_21  and  O6_22 
ROOT
HETATM    1  C4  UNL     1     -22.191 -20.730 -17.666  1.00  0.00     0.236 C 
HETATM    2  C5  UNL     1     -21.289 -21.119 -16.568  1.00  0.00     0.066 C 
HETATM    3  C6  UNL     1     -21.654 -22.573 -16.207  1.00  0.00     0.079 C 
HETATM    4  C8  UNL     1     -23.083 -22.535 -15.750  1.00  0.00     0.191 C 
HETATM    5  C9  UNL     1     -23.964 -21.964 -16.812  1.00  0.00     0.212 C 
HETATM    6  O7  UNL     1     -23.544 -20.760 -17.329  1.00  0.00    -0.326 OA
ENDROOT
BRANCH   1   7
HETATM    7  N2  UNL     1     -21.950 -19.510 -18.347  1.00  0.00    -0.281 N 
HETATM    8  C3  UNL     1     -21.316 -18.525 -17.643  1.00  0.00     0.120 A 
HETATM    9  C2  UNL     1     -21.046 -17.309 -18.234  1.00  0.00     0.113 A 
HETATM   10  C12 UNL     1     -21.416 -17.079 -19.543  1.00  0.00     0.266 A 
HETATM   11  N3  UNL     1     -22.045 -18.069 -20.226  1.00  0.00    -0.274 N 
HETATM   12  O9  UNL     1     -21.173 -15.974 -20.084  1.00  0.00    -0.267 OA
HETATM   13  C11 UNL     1     -22.285 -19.236 -19.605  1.00  0.00     0.331 A 
ATOM     14  H3  UNL     1     -22.331 -17.930 -21.195  1.00  0.00     0.173 HD
HETATM   15  O8  UNL     1     -22.865 -20.136 -20.250  1.00  0.00    -0.246 OA
BRANCH   9  16
HETATM   16  C1  UNL     1     -20.365 -16.261 -17.468  1.00  0.00     0.271 C 
HETATM   17  N1  UNL     1     -18.948 -16.153 -17.533  1.00  0.00    -0.057 NA
HETATM   18  O1  UNL     1     -20.974 -15.448 -16.751  1.00  0.00    -0.271 OA
ENDBRANCH   9  16
ENDBRANCH   1   7
BRANCH   3  19
HETATM   19  C7  UNL     1     -20.760 -22.949 -15.018  1.00  0.00     0.260 C 
BRANCH  19  20
HETATM   20  O2  UNL     1     -20.850 -24.315 -14.762  1.00  0.00    -0.371 OA
ATOM     21  H2  UNL     1     -19.983 -24.703 -14.740  1.00  0.00     0.212 HD
ENDBRANCH  19  20
BRANCH  19  22
HETATM   22  O3  UNL     1     -21.210 -22.278 -13.907  1.00  0.00    -0.371 OA
ATOM     23  H3  UNL     1     -21.022 -22.807 -13.140  1.00  0.00     0.212 HD
ENDBRANCH  19  22
ENDBRANCH   3  19
BRANCH   5  24
HETATM   24  O5  UNL     1     -25.217 -21.705 -16.205  1.00  0.00    -0.362 OA
ATOM     25  H5  UNL     1     -25.846 -21.604 -16.910  1.00  0.00     0.213 HD
ENDBRANCH   5  24
BRANCH   5  26
HETATM   26  C10 UNL     1     -24.276 -22.974 -17.916  1.00  0.00     0.235 C 
BRANCH  26  27
HETATM   27  O6  UNL     1     -25.233 -23.864 -17.471  1.00  0.00    -0.395 OA
ATOM     28  H6  UNL     1     -25.870 -24.017 -18.160  1.00  0.00     0.209 HD
ENDBRANCH  26  27
ENDBRANCH   5  26
BRANCH   4  29
HETATM   29  O4  UNL     1     -23.475 -23.804 -15.418  1.00  0.00    -0.389 OA
ATOM     30  H4  UNL     1     -24.142 -24.089 -16.031  1.00  0.00     0.210 HD
ENDBRANCH   4  29
TORSDOF 9
ENDMDL
MODEL 3
REMARK VINA RESULT: -7.537881493      2.232      6.698
REMARK  9 active torsions:
REMARK  status: ('A' for Active; 'I' for Inactive)
REMARK    1  A    between atoms: C1_2  and  C2_4 
REMARK    2  A    between atoms: N2_6  and  C4_7 
REMARK    3  A    between atoms: C6_9  and  C7_10 
REMARK    4  A    between atoms: C7_10  and  O2_11 
REMARK    5  A    between atoms: C7_10  and  O3_13 
REMARK    6  A    between atoms: C8_15  and  O4_16 
REMARK    7  A    between atoms: C9_18  and  O5_19 
REMARK    8  A    between atoms: C9_18  and  C10_21 
REMARK    9  A    between atoms: C10_21  and  O6_22 
ROOT
HETATM    1  C4  UNL     1     -22.030 -20.707 -17.877  1.00  0.00     0.236 C 
HETATM    2  C5  UNL     1     -21.827 -21.055 -16.459  1.00  0.00     0.066 C 
HETATM    3  C6  UNL     1     -22.510 -22.422 -16.251  1.00  0.00     0.079 C 
HETATM    4  C8  UNL     1     -23.964 -22.204 -16.555  1.00  0.00     0.191 C 
HETATM    5  C9  UNL     1     -24.142 -21.674 -17.939  1.00  0.00     0.212 C 
HETATM    6  O7  UNL     1     -23.369 -20.576 -18.245  1.00  0.00    -0.326 OA
ENDROOT
BRANCH   1   7
HETATM    7  N2  UNL     1     -21.333 -19.596 -18.413  1.00  0.00    -0.281 N 
HETATM    8  C3  UNL     1     -21.094 -18.550 -17.566  1.00  0.00     0.120 A 
HETATM    9  C2  UNL     1     -20.421 -17.431 -18.011  1.00  0.00     0.113 A 
HETATM   10  C12 UNL     1     -19.986 -17.361 -19.319  1.00  0.00     0.266 A 
HETATM   11  N3  UNL     1     -20.233 -18.409 -20.144  1.00  0.00    -0.274 N 
HETATM   12  O9  UNL     1     -19.375 -16.345 -19.728  1.00  0.00    -0.267 OA
HETATM   13  C11 UNL     1     -20.891 -19.476 -19.663  1.00  0.00     0.331 A 
ATOM     14  H3  UNL     1     -19.924 -18.388 -21.116  1.00  0.00     0.173 HD
HETATM   15  O8  UNL     1     -21.110 -20.432 -20.438  1.00  0.00    -0.246 OA
BRANCH   9  16
HETATM   16  C1  UNL     1     -20.171 -16.317 -17.092  1.00  0.00     0.271 C 
HETATM   17  N1  UNL     1     -18.860 -16.111 -16.580  1.00  0.00    -0.057 NA
HETATM   18  O1  UNL     1     -21.062 -15.528 -16.732  1.00  0.00    -0.271 OA
ENDBRANCH   9  16
ENDBRANCH   1   7
BRANCH   3  19
HETATM   19  C7  UNL     1     -22.356 -22.746 -14.760  1.00  0.00     0.260 C 
BRANCH  19  20
HETATM   20  O2  UNL     1     -21.312 -22.003 -14.212  1.00  0.00    -0.371 OA
ATOM     21  H2  UNL     1     -21.227 -22.193 -13.284  1.00  0.00     0.212 HD
ENDBRANCH  19  20
BRANCH  19  22
HETATM   22  O3  UNL     1     -22.040 -24.078 -14.634  1.00  0.00    -0.371 OA
ATOM     23  H3  UNL     1     -22.088 -24.313 -13.714  1.00  0.00     0.212 HD
ENDBRANCH  19  22
ENDBRANCH   3  19
BRANCH   5  24
HETATM   24  O5  UNL     1     -25.485 -21.237 -18.038  1.00  0.00    -0.362 OA
ATOM     25  H5  UNL     1     -25.756 -21.389 -18.935  1.00  0.00     0.213 HD
ENDBRANCH   5  24
BRANCH   5  26
HETATM   26  C10 UNL     1     -24.016 -22.765 -19.002  1.00  0.00     0.235 C 
BRANCH  26  27
HETATM   27  O6  UNL     1     -23.543 -22.213 -20.176  1.00  0.00    -0.395 OA
ATOM     28  H6  UNL     1     -24.147 -21.546 -20.480  1.00  0.00     0.209 HD
ENDBRANCH  26  27
ENDBRANCH   5  26
BRANCH   4  29
HETATM   29  O4  UNL     1     -24.631 -23.389 -16.394  1.00  0.00    -0.389 OA
ATOM     30  H4  UNL     1     -25.301 -23.275 -15.730  1.00  0.00     0.210 HD
ENDBRANCH   4  29
TORSDOF 9
ENDMDL
MODEL 4
REMARK VINA RESULT: -7.494672427      1.996      2.379
REMARK  9 active torsions:
REMARK  status: ('A' for Active; 'I' for Inactive)
REMARK    1  A    between atoms: C1_2  and  C2_4 
REMARK    2  A    between atoms: N2_6  and  C4_7 
REMARK    3  A    between atoms: C6_9  and  C7_10 
REMARK    4  A    between atoms: C7_10  and  O2_11 
REMARK    5  A    between atoms: C7_10  and  O3_13 
REMARK    6  A    between atoms: C8_15  and  O4_16 
REMARK    7  A    between atoms: C9_18  and  O5_19 
REMARK    8  A    between atoms: C9_18  and  C10_21 
REMARK    9  A    between atoms: C10_21  and  O6_22 
ROOT
HETATM    1  C4  UNL     1     -21.131 -19.739 -18.697  1.00  0.00     0.236 C 
HETATM    2  C5  UNL     1     -20.518 -20.326 -19.902  1.00  0.00     0.066 C 
HETATM    3  C6  UNL     1     -19.772 -19.175 -20.608  1.00  0.00     0.079 C 
HETATM    4  C8  UNL     1     -20.822 -18.165 -20.968  1.00  0.00     0.191 C 
HETATM    5  C9  UNL     1     -21.563 -17.715 -19.752  1.00  0.00     0.212 C 
HETATM    6  O7  UNL     1     -22.056 -18.730 -18.963  1.00  0.00    -0.326 OA
ENDROOT
BRANCH   1   7
HETATM    7  N2  UNL     1     -21.713 -20.605 -17.738  1.00  0.00    -0.281 N 
HETATM    8  C3  UNL     1     -22.928 -21.146 -18.052  1.00  0.00     0.120 A 
HETATM    9  C2  UNL     1     -23.561 -21.998 -17.171  1.00  0.00     0.113 A 
HETATM   10  C12 UNL     1     -22.969 -22.309 -15.964  1.00  0.00     0.266 A 
HETATM   11  N3  UNL     1     -21.762 -21.762 -15.671  1.00  0.00    -0.274 N 
HETATM   12  O9  UNL     1     -23.541 -23.083 -15.160  1.00  0.00    -0.267 OA
HETATM   13  C11 UNL     1     -21.187 -20.939 -16.562  1.00  0.00     0.331 A 
ATOM     14  H3  UNL     1     -21.299 -21.973 -14.787  1.00  0.00     0.173 HD
HETATM   15  O8  UNL     1     -20.076 -20.445 -16.274  1.00  0.00    -0.246 OA
BRANCH   9  16
HETATM   16  C1  UNL     1     -24.864 -22.571 -17.520  1.00  0.00     0.271 C 
HETATM   17  N1  UNL     1     -25.955 -21.706 -17.811  1.00  0.00    -0.057 NA
HETATM   18  O1  UNL     1     -25.068 -23.797 -17.576  1.00  0.00    -0.271 OA
ENDBRANCH   9  16
ENDBRANCH   1   7
BRANCH   3  19
HETATM   19  C7  UNL     1     -19.194 -19.775 -21.896  1.00  0.00     0.260 C 
BRANCH  19  20
HETATM   20  O2  UNL     1     -18.174 -18.964 -22.389  1.00  0.00    -0.371 OA
ATOM     21  H2  UNL     1     -18.120 -18.162 -21.883  1.00  0.00     0.212 HD
ENDBRANCH  19  20
BRANCH  19  22
HETATM   22  O3  UNL     1     -20.192 -19.823 -22.839  1.00  0.00    -0.371 OA
ATOM     23  H3  UNL     1     -19.911 -20.394 -23.545  1.00  0.00     0.212 HD
ENDBRANCH  19  22
ENDBRANCH   3  19
BRANCH   5  24
HETATM   24  O5  UNL     1     -22.696 -16.999 -20.209  1.00  0.00    -0.362 OA
ATOM     25  H5  UNL     1     -23.269 -17.631 -20.627  1.00  0.00     0.213 HD
ENDBRANCH   5  24
BRANCH   5  26
HETATM   26  C10 UNL     1     -20.772 -16.696 -18.932  1.00  0.00     0.235 C 
BRANCH  26  27
HETATM   27  O6  UNL     1     -21.575 -16.189 -17.929  1.00  0.00    -0.395 OA
ATOM     28  H6  UNL     1     -22.243 -15.631 -18.309  1.00  0.00     0.209 HD
ENDBRANCH  26  27
ENDBRANCH   5  26
BRANCH   4  29
HETATM   29  O4  UNL     1     -20.221 -17.108 -21.596  1.00  0.00    -0.389 OA
ATOM     30  H4  UNL     1     -19.370 -16.961 -21.202  1.00  0.00     0.210 HD
ENDBRANCH   4  29
TORSDOF 9
ENDMDL
MODEL 5
REMARK VINA RESULT: -7.297234077      1.613      1.832
REMARK  9 active torsions:
REMARK  status: ('A' for Active; 'I' for Inactive)
REMARK    1  A    between atoms: C1_2  and  C2_4 
REMARK    2  A    between atoms: N2_6  and  C4_7 
REMARK    3  A    between atoms: C6_9  and  C7_10 
REMARK    4  A    between atoms: C7_10  and  O2_11 
REMARK    5  A    between atoms: C7_10  and  O3_13 
REMARK    6  A    between atoms: C8_15  and  O4_16 
REMARK    7  A    between atoms: C9_18  and  O5_19 
REMARK    8  A    between atoms: C9_18  and  C10_21 
REMARK    9  A    between atoms: C10_21  and  O6_22 
ROOT
HETATM    1  C4  UNL     1     -20.600 -19.335 -17.601  1.00  0.00     0.236 C 
HETATM    2  C5  UNL     1     -20.541 -19.240 -19.070  1.00  0.00     0.066 C 
HETATM    3  C6  UNL     1     -19.441 -18.207 -19.390  1.00  0.00     0.079 C 
HETATM    4  C8  UNL     1     -19.902 -16.916 -18.780  1.00  0.00     0.191 C 
HETATM    5  C9  UNL     1     -20.136 -17.077 -17.314  1.00  0.00     0.212 C 
HETATM    6  O7  UNL     1     -20.938 -18.140 -16.967  1.00  0.00    -0.326 OA
ENDROOT
BRANCH   1   7
HETATM    7  N2  UNL     1     -21.380 -20.362 -17.014  1.00  0.00    -0.281 N 
HETATM    8  C3  UNL     1     -22.641 -20.539 -17.511  1.00  0.00     0.120 A 
HETATM    9  C2  UNL     1     -23.464 -21.518 -16.994  1.00  0.00     0.113 A 
HETATM   10  C12 UNL     1     -23.018 -22.325 -15.968  1.00  0.00     0.266 A 
HETATM   11  N3  UNL     1     -21.763 -22.134 -15.488  1.00  0.00    -0.274 N 
HETATM   12  O9  UNL     1     -23.763 -23.216 -15.494  1.00  0.00    -0.267 OA
HETATM   13  C11 UNL     1     -21.001 -21.168 -16.026  1.00  0.00     0.331 A 
ATOM     14  H3  UNL     1     -21.404 -22.715 -14.730  1.00  0.00     0.173 HD
HETATM   15  O8  UNL     1     -19.848 -21.007 -15.570  1.00  0.00    -0.246 OA
BRANCH   9  16
HETATM   16  C1  UNL     1     -24.814 -21.697 -17.536  1.00  0.00     0.271 C 
HETATM   17  N1  UNL     1     -25.926 -21.136 -16.848  1.00  0.00    -0.057 NA
HETATM   18  O1  UNL     1     -25.040 -22.325 -18.585  1.00  0.00    -0.271 OA
ENDBRANCH   9  16
ENDBRANCH   1   7
BRANCH   3  19
HETATM   19  C7  UNL     1     -19.432 -18.062 -20.917  1.00  0.00     0.260 C 
BRANCH  19  20
HETATM   20  O2  UNL     1     -18.188 -17.606 -21.349  1.00  0.00    -0.371 OA
ATOM     21  H2  UNL     1     -17.528 -17.777 -20.687  1.00  0.00     0.212 HD
ENDBRANCH  19  20
BRANCH  19  22
HETATM   22  O3  UNL     1     -20.374 -17.126 -21.271  1.00  0.00    -0.371 OA
ATOM     23  H3  UNL     1     -20.091 -16.703 -22.073  1.00  0.00     0.212 HD
ENDBRANCH  19  22
ENDBRANCH   3  19
BRANCH   5  24
HETATM   24  O5  UNL     1     -20.826 -15.918 -16.882  1.00  0.00    -0.362 OA
ATOM     25  H5  UNL     1     -21.173 -16.112 -16.020  1.00  0.00     0.213 HD
ENDBRANCH   5  24
BRANCH   5  26
HETATM   26  C10 UNL     1     -18.835 -17.067 -16.511  1.00  0.00     0.235 C 
BRANCH  26  27
HETATM   27  O6  UNL     1     -18.374 -15.771 -16.396  1.00  0.00    -0.395 OA
ATOM     28  H6  UNL     1     -17.427 -15.776 -16.313  1.00  0.00     0.209 HD
ENDBRANCH  26  27
ENDBRANCH   5  26
BRANCH   4  29
HETATM   29  O4  UNL     1     -18.962 -15.952 -19.024  1.00  0.00    -0.389 OA
ATOM     30  H4  UNL     1     -19.216 -15.465 -19.799  1.00  0.00     0.210 HD
ENDBRANCH   4  29
TORSDOF 9
ENDMDL
