MODEL 1
REMARK VINA RESULT: -8.054976087      0.000      0.000
REMARK  17 active torsions:
REMARK  status: ('A' for Active; 'I' for Inactive)
REMARK    1  A    between atoms: C2_3  and  C3_4 
REMARK    2  A    between atoms: C3_4  and  C4_5 
REMARK    3  A    between atoms: C4_5  and  C5_6 
REMARK    4  A    between atoms: C5_6  and  C6_7 
REMARK    5  A    between atoms: C6_7  and  C7_8 
REMARK    6  A    between atoms: C7_8  and  C8_9 
REMARK    7  A    between atoms: C8_9  and  C9_10 
REMARK    8  A    between atoms: C9_10  and  C10_11 
REMARK    9  A    between atoms: C10_11  and  C11_12 
REMARK   10  A    between atoms: C11_12  and  C12_13 
REMARK   11  A    between atoms: C12_13  and  C13_14 
REMARK   12  A    between atoms: C13_14  and  C14_15 
REMARK   13  A    between atoms: C14_15  and  C15_16 
REMARK   14  A    between atoms: C15_16  and  C16_17 
REMARK   15  A    between atoms: C16_17  and  C17_18 
REMARK   16  A    between atoms: C17_18  and  N2_19 
REMARK   17  A    between atoms: N2_19  and  C18_21 
ROOT
HETATM    1  N1  UNL     1     -11.924  -1.606  13.363  1.00  0.00    -0.197 NA
HETATM    2  C1  UNL     1     -10.820  -1.464  13.010  1.00  0.00     0.059 C 
HETATM    3  C2  UNL     1      -9.436  -1.303  12.582  1.00  0.00     0.124 C 
ENDROOT
BRANCH   3   4
HETATM    4  C3  UNL     1      -9.452  -0.137  11.533  1.00  0.00     0.014 C 
BRANCH   4   5
HETATM    5  C4  UNL     1     -10.328   0.904  12.093  1.00  0.00     0.001 C 
BRANCH   5   6
HETATM    6  C5  UNL     1     -10.020   2.323  12.030  1.00  0.00     0.000 C 
BRANCH   6   7
HETATM    7  C6  UNL     1     -10.369   3.175  13.176  1.00  0.00     0.000 C 
BRANCH   7   8
HETATM    8  C7  UNL     1      -9.374   3.454  14.218  1.00  0.00     0.000 C 
BRANCH   8   9
HETATM    9  C8  UNL     1      -9.900   2.982  15.581  1.00  0.00     0.000 C 
BRANCH   9  10
HETATM   10  C9  UNL     1      -9.907   1.504  15.625  1.00  0.00     0.000 C 
BRANCH  10  11
HETATM   11  C10 UNL     1      -8.494   0.954  15.510  1.00  0.00     0.000 C 
BRANCH  11  12
HETATM   12  C11 UNL     1      -7.604   1.319  16.624  1.00  0.00     0.000 C 
BRANCH  12  13
HETATM   13  C12 UNL     1      -8.061   1.203  18.006  1.00  0.00     0.000 C 
BRANCH  13  14
HETATM   14  C13 UNL     1      -7.135   1.304  19.133  1.00  0.00     0.000 C 
BRANCH  14  15
HETATM   15  C14 UNL     1      -5.955   0.415  19.198  1.00  0.00     0.000 C 
BRANCH  15  16
HETATM   16  C15 UNL     1      -5.307   0.309  20.553  1.00  0.00     0.002 C 
BRANCH  16  17
HETATM   17  C16 UNL     1      -4.444  -0.911  20.616  1.00  0.00     0.020 C 
BRANCH  17  18
HETATM   18  C17 UNL     1      -5.094  -1.869  21.625  1.00  0.00     0.138 C 
BRANCH  18  19
HETATM   19  N2  UNL     1      -4.873  -3.214  21.195  1.00  0.00    -0.226 N 
ATOM     20  H2  UNL     1      -5.572  -3.639  20.586  1.00  0.00     0.177 HD
BRANCH  19  21
HETATM   21  C18 UNL     1      -3.857  -3.922  21.524  1.00  0.00     0.677 A 
HETATM   22  N3  UNL     1      -3.116  -3.749  22.625  1.00  0.00    -0.201 N 
HETATM   23  C19 UNL     1      -2.130  -4.693  22.624  1.00  0.00     0.123 A 
ATOM     24  H3  UNL     1      -3.262  -3.037  23.341  1.00  0.00     0.183 HD
HETATM   25  C20 UNL     1      -2.317  -5.435  21.476  1.00  0.00     0.123 A 
HETATM   26  N4  UNL     1      -3.381  -4.948  20.813  1.00  0.00    -0.201 N 
ATOM     27  H4  UNL     1      -3.755  -5.298  19.931  1.00  0.00     0.183 HD
ENDBRANCH  19  21
ENDBRANCH  18  19
ENDBRANCH  17  18
ENDBRANCH  16  17
ENDBRANCH  15  16
ENDBRANCH  14  15
ENDBRANCH  13  14
ENDBRANCH  12  13
ENDBRANCH  11  12
ENDBRANCH  10  11
ENDBRANCH   9  10
ENDBRANCH   8   9
ENDBRANCH   7   8
ENDBRANCH   6   7
ENDBRANCH   5   6
ENDBRANCH   4   5
ENDBRANCH   3   4
TORSDOF 17
ENDMDL
MODEL 2
REMARK VINA RESULT: -7.711771896      1.422      2.190
REMARK  17 active torsions:
REMARK  status: ('A' for Active; 'I' for Inactive)
REMARK    1  A    between atoms: C2_3  and  C3_4 
REMARK    2  A    between atoms: C3_4  and  C4_5 
REMARK    3  A    between atoms: C4_5  and  C5_6 
REMARK    4  A    between atoms: C5_6  and  C6_7 
REMARK    5  A    between atoms: C6_7  and  C7_8 
REMARK    6  A    between atoms: C7_8  and  C8_9 
REMARK    7  A    between atoms: C8_9  and  C9_10 
REMARK    8  A    between atoms: C9_10  and  C10_11 
REMARK    9  A    between atoms: C10_11  and  C11_12 
REMARK   10  A    between atoms: C11_12  and  C12_13 
REMARK   11  A    between atoms: C12_13  and  C13_14 
REMARK   12  A    between atoms: C13_14  and  C14_15 
REMARK   13  A    between atoms: C14_15  and  C15_16 
REMARK   14  A    between atoms: C15_16  and  C16_17 
REMARK   15  A    between atoms: C16_17  and  C17_18 
REMARK   16  A    between atoms: C17_18  and  N2_19 
REMARK   17  A    between atoms: N2_19  and  C18_21 
ROOT
HETATM    1  N1  UNL     1     -11.780  -1.442  13.366  1.00  0.00    -0.197 NA
HETATM    2  C1  UNL     1     -10.718  -1.326  12.895  1.00  0.00     0.059 C 
HETATM    3  C2  UNL     1      -9.385  -1.197  12.318  1.00  0.00     0.124 C 
ENDROOT
BRANCH   3   4
HETATM    4  C3  UNL     1      -9.462   0.033  11.348  1.00  0.00     0.014 C 
BRANCH   4   5
HETATM    5  C4  UNL     1     -10.285   1.042  12.033  1.00  0.00     0.001 C 
BRANCH   5   6
HETATM    6  C5  UNL     1      -9.811   2.381  12.343  1.00  0.00     0.000 C 
BRANCH   6   7
HETATM    7  C6  UNL     1      -9.810   2.825  13.743  1.00  0.00     0.000 C 
BRANCH   7   8
HETATM    8  C7  UNL     1     -10.032   1.858  14.825  1.00  0.00     0.000 C 
BRANCH   8   9
HETATM    9  C8  UNL     1      -8.931   2.001  15.886  1.00  0.00     0.000 C 
BRANCH   9  10
HETATM   10  C9  UNL     1      -9.546   2.119  17.225  1.00  0.00     0.000 C 
BRANCH  10  11
HETATM   11  C10 UNL     1      -8.629   1.541  18.293  1.00  0.00     0.000 C 
BRANCH  11  12
HETATM   12  C11 UNL     1      -7.310   1.115  17.799  1.00  0.00     0.000 C 
BRANCH  12  13
HETATM   13  C12 UNL     1      -6.257   0.729  18.734  1.00  0.00     0.000 C 
BRANCH  13  14
HETATM   14  C13 UNL     1      -6.463   0.764  20.181  1.00  0.00     0.000 C 
BRANCH  14  15
HETATM   15  C14 UNL     1      -5.671  -0.124  21.060  1.00  0.00     0.000 C 
BRANCH  15  16
HETATM   16  C15 UNL     1      -4.589  -0.910  20.367  1.00  0.00     0.002 C 
BRANCH  16  17
HETATM   17  C16 UNL     1      -5.025  -2.327  20.176  1.00  0.00     0.020 C 
BRANCH  17  18
HETATM   18  C17 UNL     1      -3.879  -3.221  20.671  1.00  0.00     0.138 C 
BRANCH  18  19
HETATM   19  N2  UNL     1      -4.366  -4.062  21.718  1.00  0.00    -0.226 N 
ATOM     20  H2  UNL     1      -4.257  -5.070  21.608  1.00  0.00     0.177 HD
BRANCH  19  21
HETATM   21  C18 UNL     1      -4.930  -3.635  22.787  1.00  0.00     0.677 A 
HETATM   22  N3  UNL     1      -6.123  -4.031  23.245  1.00  0.00    -0.201 N 
HETATM   23  C19 UNL     1      -6.379  -3.354  24.402  1.00  0.00     0.123 A 
ATOM     24  H3  UNL     1      -6.736  -4.720  22.807  1.00  0.00     0.183 HD
HETATM   25  C20 UNL     1      -5.287  -2.538  24.613  1.00  0.00     0.123 A 
HETATM   26  N4  UNL     1      -4.407  -2.724  23.612  1.00  0.00    -0.201 N 
ATOM     27  H4  UNL     1      -3.507  -2.255  23.504  1.00  0.00     0.183 HD
ENDBRANCH  19  21
ENDBRANCH  18  19
ENDBRANCH  17  18
ENDBRANCH  16  17
ENDBRANCH  15  16
ENDBRANCH  14  15
ENDBRANCH  13  14
ENDBRANCH  12  13
ENDBRANCH  11  12
ENDBRANCH  10  11
ENDBRANCH   9  10
ENDBRANCH   8   9
ENDBRANCH   7   8
ENDBRANCH   6   7
ENDBRANCH   5   6
ENDBRANCH   4   5
ENDBRANCH   3   4
TORSDOF 17
ENDMDL
MODEL 3
REMARK VINA RESULT: -7.688316303      2.150      2.984
REMARK  17 active torsions:
REMARK  status: ('A' for Active; 'I' for Inactive)
REMARK    1  A    between atoms: C2_3  and  C3_4 
REMARK    2  A    between atoms: C3_4  and  C4_5 
REMARK    3  A    between atoms: C4_5  and  C5_6 
REMARK    4  A    between atoms: C5_6  and  C6_7 
REMARK    5  A    between atoms: C6_7  and  C7_8 
REMARK    6  A    between atoms: C7_8  and  C8_9 
REMARK    7  A    between atoms: C8_9  and  C9_10 
REMARK    8  A    between atoms: C9_10  and  C10_11 
REMARK    9  A    between atoms: C10_11  and  C11_12 
REMARK   10  A    between atoms: C11_12  and  C12_13 
REMARK   11  A    between atoms: C12_13  and  C13_14 
REMARK   12  A    between atoms: C13_14  and  C14_15 
REMARK   13  A    between atoms: C14_15  and  C15_16 
REMARK   14  A    between atoms: C15_16  and  C16_17 
REMARK   15  A    between atoms: C16_17  and  C17_18 
REMARK   16  A    between atoms: C17_18  and  N2_19 
REMARK   17  A    between atoms: N2_19  and  C18_21 
ROOT
HETATM    1  N1  UNL     1      -9.079  -3.365  12.616  1.00  0.00    -0.197 NA
HETATM    2  C1  UNL     1      -9.548  -2.295  12.618  1.00  0.00     0.059 C 
HETATM    3  C2  UNL     1     -10.144  -0.965  12.636  1.00  0.00     0.124 C 
ENDROOT
BRANCH   3   4
HETATM    4  C3  UNL     1      -9.511  -0.202  11.421  1.00  0.00     0.014 C 
BRANCH   4   5
HETATM    5  C4  UNL     1      -9.565   1.228  11.765  1.00  0.00     0.001 C 
BRANCH   5   6
HETATM    6  C5  UNL     1     -10.581   1.802  12.631  1.00  0.00     0.000 C 
BRANCH   6   7
HETATM    7  C6  UNL     1     -10.282   3.054  13.339  1.00  0.00     0.000 C 
BRANCH   7   8
HETATM    8  C7  UNL     1      -9.512   3.029  14.589  1.00  0.00     0.000 C 
BRANCH   8   9
HETATM    9  C8  UNL     1      -9.875   1.777  15.400  1.00  0.00     0.000 C 
BRANCH   9  10
HETATM   10  C9  UNL     1     -10.251   2.170  16.776  1.00  0.00     0.000 C 
BRANCH  10  11
HETATM   11  C10 UNL     1      -9.123   1.866  17.750  1.00  0.00     0.000 C 
BRANCH  11  12
HETATM   12  C11 UNL     1      -7.973   1.168  17.155  1.00  0.00     0.000 C 
BRANCH  12  13
HETATM   13  C12 UNL     1      -6.813   0.820  17.972  1.00  0.00     0.000 C 
BRANCH  13  14
HETATM   14  C13 UNL     1      -6.766   1.108  19.404  1.00  0.00     0.000 C 
BRANCH  14  15
HETATM   15  C14 UNL     1      -5.735   0.469  20.250  1.00  0.00     0.000 C 
BRANCH  15  16
HETATM   16  C15 UNL     1      -5.318  -0.912  19.818  1.00  0.00     0.002 C 
BRANCH  16  17
HETATM   17  C16 UNL     1      -4.946  -1.733  21.011  1.00  0.00     0.020 C 
BRANCH  17  18
HETATM   18  C17 UNL     1      -3.441  -2.021  20.907  1.00  0.00     0.138 C 
BRANCH  18  19
HETATM   19  N2  UNL     1      -2.768  -1.361  21.979  1.00  0.00    -0.226 N 
ATOM     20  H2  UNL     1      -2.412  -1.937  22.743  1.00  0.00     0.177 HD
BRANCH  19  21
HETATM   21  C18 UNL     1      -2.579  -0.096  22.047  1.00  0.00     0.677 A 
HETATM   22  N3  UNL     1      -3.056   0.709  23.004  1.00  0.00    -0.201 N 
HETATM   23  C19 UNL     1      -2.644   1.981  22.731  1.00  0.00     0.123 A 
ATOM     24  H3  UNL     1      -3.629   0.423  23.798  1.00  0.00     0.183 HD
HETATM   25  C20 UNL     1      -1.900   1.899  21.572  1.00  0.00     0.123 A 
HETATM   26  N4  UNL     1      -1.871   0.617  21.166  1.00  0.00    -0.201 N 
ATOM     27  H4  UNL     1      -1.395   0.256  20.339  1.00  0.00     0.183 HD
ENDBRANCH  19  21
ENDBRANCH  18  19
ENDBRANCH  17  18
ENDBRANCH  16  17
ENDBRANCH  15  16
ENDBRANCH  14  15
ENDBRANCH  13  14
ENDBRANCH  12  13
ENDBRANCH  11  12
ENDBRANCH  10  11
ENDBRANCH   9  10
ENDBRANCH   8   9
ENDBRANCH   7   8
ENDBRANCH   6   7
ENDBRANCH   5   6
ENDBRANCH   4   5
ENDBRANCH   3   4
TORSDOF 17
ENDMDL
MODEL 4
REMARK VINA RESULT: -7.471902890      2.476      2.899
REMARK  17 active torsions:
REMARK  status: ('A' for Active; 'I' for Inactive)
REMARK    1  A    between atoms: C2_3  and  C3_4 
REMARK    2  A    between atoms: C3_4  and  C4_5 
REMARK    3  A    between atoms: C4_5  and  C5_6 
REMARK    4  A    between atoms: C5_6  and  C6_7 
REMARK    5  A    between atoms: C6_7  and  C7_8 
REMARK    6  A    between atoms: C7_8  and  C8_9 
REMARK    7  A    between atoms: C8_9  and  C9_10 
REMARK    8  A    between atoms: C9_10  and  C10_11 
REMARK    9  A    between atoms: C10_11  and  C11_12 
REMARK   10  A    between atoms: C11_12  and  C12_13 
REMARK   11  A    between atoms: C12_13  and  C13_14 
REMARK   12  A    between atoms: C13_14  and  C14_15 
REMARK   13  A    between atoms: C14_15  and  C15_16 
REMARK   14  A    between atoms: C15_16  and  C16_17 
REMARK   15  A    between atoms: C16_17  and  C17_18 
REMARK   16  A    between atoms: C17_18  and  N2_19 
REMARK   17  A    between atoms: N2_19  and  C18_21 
ROOT
HETATM    1  N1  UNL     1     -12.088  -1.697  13.325  1.00  0.00    -0.197 NA
HETATM    2  C1  UNL     1     -11.007  -1.574  12.901  1.00  0.00     0.059 C 
HETATM    3  C2  UNL     1      -9.650  -1.435  12.387  1.00  0.00     0.124 C 
ENDROOT
BRANCH   3   4
HETATM    4  C3  UNL     1      -9.749  -0.406  11.208  1.00  0.00     0.014 C 
BRANCH   4   5
HETATM    5  C4  UNL     1      -9.308   0.887  11.755  1.00  0.00     0.001 C 
BRANCH   5   6
HETATM    6  C5  UNL     1     -10.176   2.048  11.855  1.00  0.00     0.000 C 
BRANCH   6   7
HETATM    7  C6  UNL     1     -10.459   2.608  13.184  1.00  0.00     0.000 C 
BRANCH   7   8
HETATM    8  C7  UNL     1     -11.331   1.887  14.119  1.00  0.00     0.000 C 
BRANCH   8   9
HETATM    9  C8  UNL     1     -10.485   1.235  15.222  1.00  0.00     0.000 C 
BRANCH   9  10
HETATM   10  C9  UNL     1     -10.870   1.792  16.537  1.00  0.00     0.000 C 
BRANCH  10  11
HETATM   11  C10 UNL     1      -9.684   1.797  17.490  1.00  0.00     0.000 C 
BRANCH  11  12
HETATM   12  C11 UNL     1      -8.378   1.606  16.840  1.00  0.00     0.000 C 
BRANCH  12  13
HETATM   13  C12 UNL     1      -7.315   0.867  17.515  1.00  0.00     0.000 C 
BRANCH  13  14
HETATM   14  C13 UNL     1      -7.000   1.089  18.925  1.00  0.00     0.000 C 
BRANCH  14  15
HETATM   15  C14 UNL     1      -5.601   0.978  19.394  1.00  0.00     0.000 C 
BRANCH  15  16
HETATM   16  C15 UNL     1      -5.293  -0.254  20.203  1.00  0.00     0.002 C 
BRANCH  16  17
HETATM   17  C16 UNL     1      -4.369   0.089  21.328  1.00  0.00     0.020 C 
BRANCH  17  18
HETATM   18  C17 UNL     1      -3.227  -0.938  21.300  1.00  0.00     0.138 C 
BRANCH  18  19
HETATM   19  N2  UNL     1      -2.465  -0.816  22.502  1.00  0.00    -0.226 N 
ATOM     20  H2  UNL     1      -2.864  -1.197  23.360  1.00  0.00     0.177 HD
BRANCH  19  21
HETATM   21  C18 UNL     1      -1.313  -0.260  22.575  1.00  0.00     0.677 A 
HETATM   22  N3  UNL     1      -0.428  -0.437  23.564  1.00  0.00    -0.201 N 
HETATM   23  C19 UNL     1       0.674   0.319  23.286  1.00  0.00     0.123 A 
ATOM     24  H3  UNL     1      -0.554  -1.033  24.382  1.00  0.00     0.183 HD
HETATM   25  C20 UNL     1       0.408   0.953  22.091  1.00  0.00     0.123 A 
HETATM   26  N4  UNL     1      -0.816   0.587  21.669  1.00  0.00    -0.201 N 
ATOM     27  H4  UNL     1      -1.278   0.897  20.814  1.00  0.00     0.183 HD
ENDBRANCH  19  21
ENDBRANCH  18  19
ENDBRANCH  17  18
ENDBRANCH  16  17
ENDBRANCH  15  16
ENDBRANCH  14  15
ENDBRANCH  13  14
ENDBRANCH  12  13
ENDBRANCH  11  12
ENDBRANCH  10  11
ENDBRANCH   9  10
ENDBRANCH   8   9
ENDBRANCH   7   8
ENDBRANCH   6   7
ENDBRANCH   5   6
ENDBRANCH   4   5
ENDBRANCH   3   4
TORSDOF 17
ENDMDL
MODEL 5
REMARK VINA RESULT: -7.451678331      1.090      1.702
REMARK  17 active torsions:
REMARK  status: ('A' for Active; 'I' for Inactive)
REMARK    1  A    between atoms: C2_3  and  C3_4 
REMARK    2  A    between atoms: C3_4  and  C4_5 
REMARK    3  A    between atoms: C4_5  and  C5_6 
REMARK    4  A    between atoms: C5_6  and  C6_7 
REMARK    5  A    between atoms: C6_7  and  C7_8 
REMARK    6  A    between atoms: C7_8  and  C8_9 
REMARK    7  A    between atoms: C8_9  and  C9_10 
REMARK    8  A    between atoms: C9_10  and  C10_11 
REMARK    9  A    between atoms: C10_11  and  C11_12 
REMARK   10  A    between atoms: C11_12  and  C12_13 
REMARK   11  A    between atoms: C12_13  and  C13_14 
REMARK   12  A    between atoms: C13_14  and  C14_15 
REMARK   13  A    between atoms: C14_15  and  C15_16 
REMARK   14  A    between atoms: C15_16  and  C16_17 
REMARK   15  A    between atoms: C16_17  and  C17_18 
REMARK   16  A    between atoms: C17_18  and  N2_19 
REMARK   17  A    between atoms: N2_19  and  C18_21 
ROOT
HETATM    1  N1  UNL     1     -11.953  -1.655  13.363  1.00  0.00    -0.197 NA
HETATM    2  C1  UNL     1     -10.909  -1.314  12.966  1.00  0.00     0.059 C 
HETATM    3  C2  UNL     1      -9.598  -0.908  12.475  1.00  0.00     0.124 C 
ENDROOT
BRANCH   3   4
HETATM    4  C3  UNL     1      -9.790   0.542  11.908  1.00  0.00     0.014 C 
BRANCH   4   5
HETATM    5  C4  UNL     1     -10.410   1.324  12.988  1.00  0.00     0.001 C 
BRANCH   5   6
HETATM    6  C5  UNL     1     -10.170   2.745  13.182  1.00  0.00     0.000 C 
BRANCH   6   7
HETATM    7  C6  UNL     1      -9.481   3.186  14.402  1.00  0.00     0.000 C 
BRANCH   7   8
HETATM    8  C7  UNL     1      -9.129   2.214  15.444  1.00  0.00     0.000 C 
BRANCH   8   9
HETATM    9  C8  UNL     1     -10.243   2.155  16.499  1.00  0.00     0.000 C 
BRANCH   9  10
HETATM   10  C9  UNL     1      -9.652   1.906  17.832  1.00  0.00     0.000 C 
BRANCH  10  11
HETATM   11  C10 UNL     1      -8.285   1.250  17.702  1.00  0.00     0.000 C 
BRANCH  11  12
HETATM   12  C11 UNL     1      -7.352   1.562  18.796  1.00  0.00     0.000 C 
BRANCH  12  13
HETATM   13  C12 UNL     1      -6.189   0.715  19.042  1.00  0.00     0.000 C 
BRANCH  13  14
HETATM   14  C13 UNL     1      -5.728   0.415  20.396  1.00  0.00     0.000 C 
BRANCH  14  15
HETATM   15  C14 UNL     1      -4.615  -0.538  20.601  1.00  0.00     0.000 C 
BRANCH  15  16
HETATM   16  C15 UNL     1      -3.346   0.067  21.140  1.00  0.00     0.002 C 
BRANCH  16  17
HETATM   17  C16 UNL     1      -3.266  -0.139  22.620  1.00  0.00     0.020 C 
BRANCH  17  18
HETATM   18  C17 UNL     1      -3.892  -1.509  22.916  1.00  0.00     0.138 C 
BRANCH  18  19
HETATM   19  N2  UNL     1      -2.848  -2.450  23.174  1.00  0.00    -0.226 N 
ATOM     20  H2  UNL     1      -2.162  -2.215  23.891  1.00  0.00     0.177 HD
BRANCH  19  21
HETATM   21  C18 UNL     1      -2.716  -3.570  22.565  1.00  0.00     0.677 A 
HETATM   22  N3  UNL     1      -1.784  -4.493  22.832  1.00  0.00    -0.201 N 
HETATM   23  C19 UNL     1      -1.968  -5.540  21.977  1.00  0.00     0.123 A 
ATOM     24  H3  UNL     1      -1.063  -4.426  23.550  1.00  0.00     0.183 HD
HETATM   25  C20 UNL     1      -3.049  -5.202  21.189  1.00  0.00     0.123 A 
HETATM   26  N4  UNL     1      -3.496  -3.989  21.564  1.00  0.00    -0.201 N 
ATOM     27  H4  UNL     1      -4.284  -3.485  21.159  1.00  0.00     0.183 HD
ENDBRANCH  19  21
ENDBRANCH  18  19
ENDBRANCH  17  18
ENDBRANCH  16  17
ENDBRANCH  15  16
ENDBRANCH  14  15
ENDBRANCH  13  14
ENDBRANCH  12  13
ENDBRANCH  11  12
ENDBRANCH  10  11
ENDBRANCH   9  10
ENDBRANCH   8   9
ENDBRANCH   7   8
ENDBRANCH   6   7
ENDBRANCH   5   6
ENDBRANCH   4   5
ENDBRANCH   3   4
TORSDOF 17
ENDMDL
