MODEL 1
REMARK VINA RESULT: -7.824039227      0.000      0.000
REMARK  17 active torsions:
REMARK  status: ('A' for Active; 'I' for Inactive)
REMARK    1  A    between atoms: C3_3  and  C4_4 
REMARK    2  A    between atoms: C4_4  and  C5_5 
REMARK    3  A    between atoms: C5_5  and  C6_6 
REMARK    4  A    between atoms: C6_6  and  C7_7 
REMARK    5  A    between atoms: C7_7  and  C8_8 
REMARK    6  A    between atoms: C8_8  and  C9_9 
REMARK    7  A    between atoms: C9_9  and  C10_10 
REMARK    8  A    between atoms: C10_10  and  C11_11 
REMARK    9  A    between atoms: C11_11  and  C12_12 
REMARK   10  A    between atoms: C12_12  and  C13_13 
REMARK   11  A    between atoms: C13_13  and  C14_14 
REMARK   12  A    between atoms: C14_14  and  C15_15 
REMARK   13  A    between atoms: C15_15  and  C16_16 
REMARK   14  A    between atoms: C16_16  and  C17_17 
REMARK   15  A    between atoms: C17_17  and  C18_18 
REMARK   16  A    between atoms: C18_18  and  N1_19 
REMARK   17  A    between atoms: N1_19  and  C19_21 
ROOT
HETATM    1  C1  UNL     1      -9.829  -2.348  12.239  1.00  0.00     0.012 C 
HETATM    2  C2  UNL     1      -9.511  -1.243  11.876  1.00  0.00    -0.117 C 
HETATM    3  C3  UNL     1      -9.139   0.126  11.442  1.00  0.00     0.093 C 
ENDROOT
BRANCH   3   4
HETATM    4  C4  UNL     1     -10.289   1.033  11.819  1.00  0.00     0.012 C 
BRANCH   4   5
HETATM    5  C5  UNL     1      -9.856   2.445  12.093  1.00  0.00     0.001 C 
BRANCH   5   6
HETATM    6  C6  UNL     1     -10.051   2.836  13.540  1.00  0.00     0.000 C 
BRANCH   6   7
HETATM    7  C7  UNL     1     -10.840   1.769  14.266  1.00  0.00     0.000 C 
BRANCH   7   8
HETATM    8  C8  UNL     1     -10.372   1.611  15.699  1.00  0.00     0.000 C 
BRANCH   8   9
HETATM    9  C9  UNL     1      -8.971   2.119  15.757  1.00  0.00     0.000 C 
BRANCH   9  10
HETATM   10  C10 UNL     1      -7.982   1.224  16.389  1.00  0.00     0.000 C 
BRANCH  10  11
HETATM   11  C11 UNL     1      -7.891   1.252  17.867  1.00  0.00     0.000 C 
BRANCH  11  12
HETATM   12  C12 UNL     1      -6.538   0.862  18.398  1.00  0.00     0.000 C 
BRANCH  12  13
HETATM   13  C13 UNL     1      -6.459   0.896  19.895  1.00  0.00     0.000 C 
BRANCH  13  14
HETATM   14  C14 UNL     1      -5.183   0.297  20.428  1.00  0.00     0.000 C 
BRANCH  14  15
HETATM   15  C15 UNL     1      -5.037  -1.162  20.100  1.00  0.00     0.000 C 
BRANCH  15  16
HETATM   16  C16 UNL     1      -4.840  -1.985  21.369  1.00  0.00     0.002 C 
BRANCH  16  17
HETATM   17  C17 UNL     1      -5.116  -1.186  22.599  1.00  0.00     0.020 C 
BRANCH  17  18
HETATM   18  C18 UNL     1      -4.081  -1.222  23.654  1.00  0.00     0.121 C 
BRANCH  18  19
HETATM   19  N1  UNL     1      -3.317  -0.059  23.904  1.00  0.00    -0.380 N 
ATOM     20  H1  UNL     1      -3.379   0.369  24.828  1.00  0.00     0.160 HD
BRANCH  19  21
HETATM   21  C19 UNL     1      -2.463   0.548  22.934  1.00  0.00     0.072 C 
HETATM   22  N2  UNL     1      -1.557  -0.087  22.285  1.00  0.00    -0.380 N 
HETATM   23  C20 UNL     1      -0.834   0.769  21.359  1.00  0.00     0.121 C 
ATOM     24  H2  UNL     1      -1.365  -1.082  22.404  1.00  0.00     0.160 HD
HETATM   25  C21 UNL     1      -1.874   1.881  21.087  1.00  0.00     0.027 C 
HETATM   26  C22 UNL     1      -2.472   1.951  22.493  1.00  0.00     0.077 C 
ENDBRANCH  19  21
ENDBRANCH  18  19
ENDBRANCH  17  18
ENDBRANCH  16  17
ENDBRANCH  15  16
ENDBRANCH  14  15
ENDBRANCH  13  14
ENDBRANCH  12  13
ENDBRANCH  11  12
ENDBRANCH  10  11
ENDBRANCH   9  10
ENDBRANCH   8   9
ENDBRANCH   7   8
ENDBRANCH   6   7
ENDBRANCH   5   6
ENDBRANCH   4   5
ENDBRANCH   3   4
TORSDOF 17
ENDMDL
MODEL 2
REMARK VINA RESULT: -7.547429881      0.979      2.005
REMARK  17 active torsions:
REMARK  status: ('A' for Active; 'I' for Inactive)
REMARK    1  A    between atoms: C3_3  and  C4_4 
REMARK    2  A    between atoms: C4_4  and  C5_5 
REMARK    3  A    between atoms: C5_5  and  C6_6 
REMARK    4  A    between atoms: C6_6  and  C7_7 
REMARK    5  A    between atoms: C7_7  and  C8_8 
REMARK    6  A    between atoms: C8_8  and  C9_9 
REMARK    7  A    between atoms: C9_9  and  C10_10 
REMARK    8  A    between atoms: C10_10  and  C11_11 
REMARK    9  A    between atoms: C11_11  and  C12_12 
REMARK   10  A    between atoms: C12_12  and  C13_13 
REMARK   11  A    between atoms: C13_13  and  C14_14 
REMARK   12  A    between atoms: C14_14  and  C15_15 
REMARK   13  A    between atoms: C15_15  and  C16_16 
REMARK   14  A    between atoms: C16_16  and  C17_17 
REMARK   15  A    between atoms: C17_17  and  C18_18 
REMARK   16  A    between atoms: C18_18  and  N1_19 
REMARK   17  A    between atoms: N1_19  and  C19_21 
ROOT
HETATM    1  C1  UNL     1      -9.075  -3.316  12.558  1.00  0.00     0.012 C 
HETATM    2  C2  UNL     1      -9.628  -2.245  12.604  1.00  0.00    -0.117 C 
HETATM    3  C3  UNL     1     -10.301  -0.923  12.637  1.00  0.00     0.093 C 
ENDROOT
BRANCH   3   4
HETATM    4  C4  UNL     1      -9.755  -0.124  11.474  1.00  0.00     0.012 C 
BRANCH   4   5
HETATM    5  C5  UNL     1      -9.503   1.315  11.820  1.00  0.00     0.001 C 
BRANCH   5   6
HETATM    6  C6  UNL     1     -10.771   2.137  11.826  1.00  0.00     0.000 C 
BRANCH   6   7
HETATM    7  C7  UNL     1     -10.864   2.942  13.104  1.00  0.00     0.000 C 
BRANCH   7   8
HETATM    8  C8  UNL     1      -9.492   3.344  13.607  1.00  0.00     0.000 C 
BRANCH   8   9
HETATM    9  C9  UNL     1      -9.524   3.228  15.094  1.00  0.00     0.000 C 
BRANCH   9  10
HETATM   10  C10 UNL     1     -10.147   2.006  15.637  1.00  0.00     0.000 C 
BRANCH  10  11
HETATM   11  C11 UNL     1     -10.376   1.955  17.099  1.00  0.00     0.000 C 
BRANCH  11  12
HETATM   12  C12 UNL     1      -9.127   1.706  17.900  1.00  0.00     0.000 C 
BRANCH  12  13
HETATM   13  C13 UNL     1      -8.021   1.090  17.097  1.00  0.00     0.000 C 
BRANCH  13  14
HETATM   14  C14 UNL     1      -6.690   1.133  17.801  1.00  0.00     0.000 C 
BRANCH  14  15
HETATM   15  C15 UNL     1      -6.804   0.911  19.284  1.00  0.00     0.000 C 
BRANCH  15  16
HETATM   16  C16 UNL     1      -5.426   0.712  19.907  1.00  0.00     0.002 C 
BRANCH  16  17
HETATM   17  C17 UNL     1      -5.396  -0.462  20.828  1.00  0.00     0.020 C 
BRANCH  17  18
HETATM   18  C18 UNL     1      -5.280  -0.165  22.271  1.00  0.00     0.121 C 
BRANCH  18  19
HETATM   19  N1  UNL     1      -4.013  -0.269  22.892  1.00  0.00    -0.380 N 
ATOM     20  H1  UNL     1      -3.931  -0.851  23.726  1.00  0.00     0.160 HD
BRANCH  19  21
HETATM   21  C19 UNL     1      -2.844   0.396  22.415  1.00  0.00     0.072 C 
HETATM   22  N2  UNL     1      -1.746  -0.206  22.133  1.00  0.00    -0.380 N 
HETATM   23  C20 UNL     1      -0.716   0.706  21.667  1.00  0.00     0.121 C 
ATOM     24  H2  UNL     1      -1.611  -1.213  22.226  1.00  0.00     0.160 HD
HETATM   25  C21 UNL     1      -1.563   1.870  21.102  1.00  0.00     0.027 C 
HETATM   26  C22 UNL     1      -2.683   1.833  22.144  1.00  0.00     0.077 C 
ENDBRANCH  19  21
ENDBRANCH  18  19
ENDBRANCH  17  18
ENDBRANCH  16  17
ENDBRANCH  15  16
ENDBRANCH  14  15
ENDBRANCH  13  14
ENDBRANCH  12  13
ENDBRANCH  11  12
ENDBRANCH  10  11
ENDBRANCH   9  10
ENDBRANCH   8   9
ENDBRANCH   7   8
ENDBRANCH   6   7
ENDBRANCH   5   6
ENDBRANCH   4   5
ENDBRANCH   3   4
TORSDOF 17
ENDMDL
MODEL 3
REMARK VINA RESULT: -7.545905230      1.023      1.623
REMARK  17 active torsions:
REMARK  status: ('A' for Active; 'I' for Inactive)
REMARK    1  A    between atoms: C3_3  and  C4_4 
REMARK    2  A    between atoms: C4_4  and  C5_5 
REMARK    3  A    between atoms: C5_5  and  C6_6 
REMARK    4  A    between atoms: C6_6  and  C7_7 
REMARK    5  A    between atoms: C7_7  and  C8_8 
REMARK    6  A    between atoms: C8_8  and  C9_9 
REMARK    7  A    between atoms: C9_9  and  C10_10 
REMARK    8  A    between atoms: C10_10  and  C11_11 
REMARK    9  A    between atoms: C11_11  and  C12_12 
REMARK   10  A    between atoms: C12_12  and  C13_13 
REMARK   11  A    between atoms: C13_13  and  C14_14 
REMARK   12  A    between atoms: C14_14  and  C15_15 
REMARK   13  A    between atoms: C15_15  and  C16_16 
REMARK   14  A    between atoms: C16_16  and  C17_17 
REMARK   15  A    between atoms: C17_17  and  C18_18 
REMARK   16  A    between atoms: C18_18  and  N1_19 
REMARK   17  A    between atoms: N1_19  and  C19_21 
ROOT
HETATM    1  C1  UNL     1      -9.797  -2.214  12.235  1.00  0.00     0.012 C 
HETATM    2  C2  UNL     1      -9.738  -1.059  11.891  1.00  0.00    -0.117 C 
HETATM    3  C3  UNL     1      -9.674   0.368  11.490  1.00  0.00     0.093 C 
ENDROOT
BRANCH   3   4
HETATM    4  C4  UNL     1     -10.545   1.135  12.460  1.00  0.00     0.012 C 
BRANCH   4   5
HETATM    5  C5  UNL     1     -10.168   2.584  12.566  1.00  0.00     0.001 C 
BRANCH   5   6
HETATM    6  C6  UNL     1      -9.738   2.967  13.964  1.00  0.00     0.000 C 
BRANCH   6   7
HETATM    7  C7  UNL     1      -9.484   1.724  14.789  1.00  0.00     0.000 C 
BRANCH   7   8
HETATM    8  C8  UNL     1      -9.226   2.066  16.242  1.00  0.00     0.000 C 
BRANCH   8   9
HETATM    9  C9  UNL     1      -8.074   1.230  16.688  1.00  0.00     0.000 C 
BRANCH   9  10
HETATM   10  C10 UNL     1      -7.812   1.207  18.141  1.00  0.00     0.000 C 
BRANCH  10  11
HETATM   11  C11 UNL     1      -6.446   0.838  18.577  1.00  0.00     0.000 C 
BRANCH  11  12
HETATM   12  C12 UNL     1      -6.275   0.801  20.071  1.00  0.00     0.000 C 
BRANCH  12  13
HETATM   13  C13 UNL     1      -5.103  -0.023  20.513  1.00  0.00     0.000 C 
BRANCH  13  14
HETATM   14  C14 UNL     1      -5.147  -1.433  19.983  1.00  0.00     0.000 C 
BRANCH  14  15
HETATM   15  C15 UNL     1      -4.906  -2.468  21.047  1.00  0.00     0.000 C 
BRANCH  15  16
HETATM   16  C16 UNL     1      -3.647  -3.273  20.743  1.00  0.00     0.002 C 
BRANCH  16  17
HETATM   17  C17 UNL     1      -2.870  -3.580  21.980  1.00  0.00     0.020 C 
BRANCH  17  18
HETATM   18  C18 UNL     1      -2.967  -2.597  23.079  1.00  0.00     0.121 C 
BRANCH  18  19
HETATM   19  N1  UNL     1      -1.983  -1.587  23.184  1.00  0.00    -0.380 N 
ATOM     20  H1  UNL     1      -1.115  -1.808  23.671  1.00  0.00     0.160 HD
BRANCH  19  21
HETATM   21  C19 UNL     1      -2.139  -0.275  22.643  1.00  0.00     0.072 C 
HETATM   22  N2  UNL     1      -2.564   0.729  23.320  1.00  0.00    -0.380 N 
HETATM   23  C20 UNL     1      -2.625   1.947  22.528  1.00  0.00     0.121 C 
ATOM     24  H2  UNL     1      -2.830   0.679  24.303  1.00  0.00     0.160 HD
HETATM   25  C21 UNL     1      -1.563   1.664  21.440  1.00  0.00     0.027 C 
HETATM   26  C22 UNL     1      -1.834   0.167  21.274  1.00  0.00     0.077 C 
ENDBRANCH  19  21
ENDBRANCH  18  19
ENDBRANCH  17  18
ENDBRANCH  16  17
ENDBRANCH  15  16
ENDBRANCH  14  15
ENDBRANCH  13  14
ENDBRANCH  12  13
ENDBRANCH  11  12
ENDBRANCH  10  11
ENDBRANCH   9  10
ENDBRANCH   8   9
ENDBRANCH   7   8
ENDBRANCH   6   7
ENDBRANCH   5   6
ENDBRANCH   4   5
ENDBRANCH   3   4
TORSDOF 17
ENDMDL
MODEL 4
REMARK VINA RESULT: -7.383218184      1.177      2.732
REMARK  17 active torsions:
REMARK  status: ('A' for Active; 'I' for Inactive)
REMARK    1  A    between atoms: C3_3  and  C4_4 
REMARK    2  A    between atoms: C4_4  and  C5_5 
REMARK    3  A    between atoms: C5_5  and  C6_6 
REMARK    4  A    between atoms: C6_6  and  C7_7 
REMARK    5  A    between atoms: C7_7  and  C8_8 
REMARK    6  A    between atoms: C8_8  and  C9_9 
REMARK    7  A    between atoms: C9_9  and  C10_10 
REMARK    8  A    between atoms: C10_10  and  C11_11 
REMARK    9  A    between atoms: C11_11  and  C12_12 
REMARK   10  A    between atoms: C12_12  and  C13_13 
REMARK   11  A    between atoms: C13_13  and  C14_14 
REMARK   12  A    between atoms: C14_14  and  C15_15 
REMARK   13  A    between atoms: C15_15  and  C16_16 
REMARK   14  A    between atoms: C16_16  and  C17_17 
REMARK   15  A    between atoms: C17_17  and  C18_18 
REMARK   16  A    between atoms: C18_18  and  N1_19 
REMARK   17  A    between atoms: N1_19  and  C19_21 
ROOT
HETATM    1  C1  UNL     1      -9.765  -1.956  12.546  1.00  0.00     0.012 C 
HETATM    2  C2  UNL     1      -9.575  -0.816  12.202  1.00  0.00    -0.117 C 
HETATM    3  C3  UNL     1      -9.361   0.594  11.793  1.00  0.00     0.093 C 
ENDROOT
BRANCH   3   4
HETATM    4  C4  UNL     1     -10.617   1.353  12.160  1.00  0.00     0.012 C 
BRANCH   4   5
HETATM    5  C5  UNL     1     -10.663   1.744  13.608  1.00  0.00     0.001 C 
BRANCH   5   6
HETATM    6  C6  UNL     1      -9.723   2.884  13.927  1.00  0.00     0.000 C 
BRANCH   6   7
HETATM    7  C7  UNL     1      -9.067   2.658  15.272  1.00  0.00     0.000 C 
BRANCH   7   8
HETATM    8  C8  UNL     1      -8.729   1.196  15.485  1.00  0.00     0.000 C 
BRANCH   8   9
HETATM    9  C9  UNL     1      -7.845   1.124  16.685  1.00  0.00     0.000 C 
BRANCH   9  10
HETATM   10  C10 UNL     1      -8.468   1.487  17.972  1.00  0.00     0.000 C 
BRANCH  10  11
HETATM   11  C11 UNL     1      -7.611   1.435  19.178  1.00  0.00     0.000 C 
BRANCH  11  12
HETATM   12  C12 UNL     1      -6.345   0.643  18.988  1.00  0.00     0.000 C 
BRANCH  12  13
HETATM   13  C13 UNL     1      -5.544   0.496  20.247  1.00  0.00     0.000 C 
BRANCH  13  14
HETATM   14  C14 UNL     1      -4.837  -0.831  20.341  1.00  0.00     0.000 C 
BRANCH  14  15
HETATM   15  C15 UNL     1      -3.419  -0.708  20.823  1.00  0.00     0.000 C 
BRANCH  15  16
HETATM   16  C16 UNL     1      -2.982   0.753  20.849  1.00  0.00     0.002 C 
BRANCH  16  17
HETATM   17  C17 UNL     1      -2.359   1.125  22.154  1.00  0.00     0.020 C 
BRANCH  17  18
HETATM   18  C18 UNL     1      -3.266   1.670  23.186  1.00  0.00     0.121 C 
BRANCH  18  19
HETATM   19  N1  UNL     1      -3.620   0.855  24.286  1.00  0.00    -0.380 N 
ATOM     20  H1  UNL     1      -3.274   1.114  25.209  1.00  0.00     0.160 HD
BRANCH  19  21
HETATM   21  C19 UNL     1      -4.437  -0.311  24.173  1.00  0.00     0.072 C 
HETATM   22  N2  UNL     1      -3.985  -1.509  24.256  1.00  0.00    -0.380 N 
HETATM   23  C20 UNL     1      -5.030  -2.509  24.109  1.00  0.00     0.121 C 
ATOM     24  H2  UNL     1      -3.002  -1.735  24.409  1.00  0.00     0.160 HD
HETATM   25  C21 UNL     1      -6.280  -1.721  24.563  1.00  0.00     0.027 C 
HETATM   26  C22 UNL     1      -5.893  -0.363  23.973  1.00  0.00     0.077 C 
ENDBRANCH  19  21
ENDBRANCH  18  19
ENDBRANCH  17  18
ENDBRANCH  16  17
ENDBRANCH  15  16
ENDBRANCH  14  15
ENDBRANCH  13  14
ENDBRANCH  12  13
ENDBRANCH  11  12
ENDBRANCH  10  11
ENDBRANCH   9  10
ENDBRANCH   8   9
ENDBRANCH   7   8
ENDBRANCH   6   7
ENDBRANCH   5   6
ENDBRANCH   4   5
ENDBRANCH   3   4
TORSDOF 17
ENDMDL
MODEL 5
REMARK VINA RESULT: -7.310117084      2.227      3.319
REMARK  17 active torsions:
REMARK  status: ('A' for Active; 'I' for Inactive)
REMARK    1  A    between atoms: C3_3  and  C4_4 
REMARK    2  A    between atoms: C4_4  and  C5_5 
REMARK    3  A    between atoms: C5_5  and  C6_6 
REMARK    4  A    between atoms: C6_6  and  C7_7 
REMARK    5  A    between atoms: C7_7  and  C8_8 
REMARK    6  A    between atoms: C8_8  and  C9_9 
REMARK    7  A    between atoms: C9_9  and  C10_10 
REMARK    8  A    between atoms: C10_10  and  C11_11 
REMARK    9  A    between atoms: C11_11  and  C12_12 
REMARK   10  A    between atoms: C12_12  and  C13_13 
REMARK   11  A    between atoms: C13_13  and  C14_14 
REMARK   12  A    between atoms: C14_14  and  C15_15 
REMARK   13  A    between atoms: C15_15  and  C16_16 
REMARK   14  A    between atoms: C16_16  and  C17_17 
REMARK   15  A    between atoms: C17_17  and  C18_18 
REMARK   16  A    between atoms: C18_18  and  N1_19 
REMARK   17  A    between atoms: N1_19  and  C19_21 
ROOT
HETATM    1  C1  UNL     1      -9.726  -0.351  11.264  1.00  0.00     0.012 C 
HETATM    2  C2  UNL     1      -9.819   0.716  11.817  1.00  0.00    -0.117 C 
HETATM    3  C3  UNL     1      -9.948   2.020  12.513  1.00  0.00     0.093 C 
ENDROOT
BRANCH   3   4
HETATM    4  C4  UNL     1     -11.097   1.884  13.487  1.00  0.00     0.012 C 
BRANCH   4   5
HETATM    5  C5  UNL     1     -10.767   1.013  14.665  1.00  0.00     0.001 C 
BRANCH   5   6
HETATM    6  C6  UNL     1     -10.899   1.747  15.980  1.00  0.00     0.000 C 
BRANCH   6   7
HETATM    7  C7  UNL     1      -9.594   2.430  16.328  1.00  0.00     0.000 C 
BRANCH   7   8
HETATM    8  C8  UNL     1      -8.404   1.651  15.806  1.00  0.00     0.000 C 
BRANCH   8   9
HETATM    9  C9  UNL     1      -7.696   1.091  16.994  1.00  0.00     0.000 C 
BRANCH   9  10
HETATM   10  C10 UNL     1      -8.159   1.572  18.311  1.00  0.00     0.000 C 
BRANCH  10  11
HETATM   11  C11 UNL     1      -7.338   1.210  19.489  1.00  0.00     0.000 C 
BRANCH  11  12
HETATM   12  C12 UNL     1      -5.943   0.764  19.144  1.00  0.00     0.000 C 
BRANCH  12  13
HETATM   13  C13 UNL     1      -5.263   0.030  20.261  1.00  0.00     0.000 C 
BRANCH  13  14
HETATM   14  C14 UNL     1      -6.017   0.115  21.562  1.00  0.00     0.000 C 
BRANCH  14  15
HETATM   15  C15 UNL     1      -5.117   0.080  22.766  1.00  0.00     0.000 C 
BRANCH  15  16
HETATM   16  C16 UNL     1      -5.845  -0.512  23.968  1.00  0.00     0.002 C 
BRANCH  16  17
HETATM   17  C17 UNL     1      -5.189  -1.760  24.457  1.00  0.00     0.020 C 
BRANCH  17  18
HETATM   18  C18 UNL     1      -5.697  -3.033  23.902  1.00  0.00     0.121 C 
BRANCH  18  19
HETATM   19  N1  UNL     1      -5.553  -3.282  22.518  1.00  0.00    -0.380 N 
ATOM     20  H1  UNL     1      -6.362  -3.133  21.914  1.00  0.00     0.160 HD
BRANCH  19  21
HETATM   21  C19 UNL     1      -4.337  -3.731  21.919  1.00  0.00     0.072 C 
HETATM   22  N2  UNL     1      -3.617  -4.681  22.394  1.00  0.00    -0.380 N 
HETATM   23  C20 UNL     1      -2.434  -4.936  21.589  1.00  0.00     0.121 C 
ATOM     24  H2  UNL     1      -3.848  -5.199  23.242  1.00  0.00     0.160 HD
HETATM   25  C21 UNL     1      -2.885  -4.422  20.202  1.00  0.00     0.027 C 
HETATM   26  C22 UNL     1      -3.714  -3.230  20.685  1.00  0.00     0.077 C 
ENDBRANCH  19  21
ENDBRANCH  18  19
ENDBRANCH  17  18
ENDBRANCH  16  17
ENDBRANCH  15  16
ENDBRANCH  14  15
ENDBRANCH  13  14
ENDBRANCH  12  13
ENDBRANCH  11  12
ENDBRANCH  10  11
ENDBRANCH   9  10
ENDBRANCH   8   9
ENDBRANCH   7   8
ENDBRANCH   6   7
ENDBRANCH   5   6
ENDBRANCH   4   5
ENDBRANCH   3   4
TORSDOF 17
ENDMDL
