MODEL 1
REMARK VINA RESULT: -7.688293174      0.000      0.000
REMARK  16 active torsions:
REMARK  status: ('A' for Active; 'I' for Inactive)
REMARK    1  A    between atoms: C1_2  and  C2_3 
REMARK    2  A    between atoms: C2_3  and  C3_4 
REMARK    3  A    between atoms: C3_4  and  C4_5 
REMARK    4  A    between atoms: C4_5  and  C5_6 
REMARK    5  A    between atoms: C5_6  and  C6_7 
REMARK    6  A    between atoms: C6_7  and  C7_8 
REMARK    7  A    between atoms: C7_8  and  C8_9 
REMARK    8  A    between atoms: C8_9  and  C9_10 
REMARK    9  A    between atoms: C9_10  and  C10_11 
REMARK   10  A    between atoms: C10_11  and  C11_12 
REMARK   11  A    between atoms: C11_12  and  C12_13 
REMARK   12  A    between atoms: C12_13  and  N1_14 
REMARK   13  A    between atoms: N1_14  and  C13_17 
REMARK   14  A    between atoms: C13_17  and  C14_18 
REMARK   15  A    between atoms: C14_18  and  C15_19 
REMARK   16  A    between atoms: C15_19  and  C16_20 
ROOT
HETATM    1  C12 UNL     1      -8.092   1.556  18.609  1.00  0.00     0.232 C 
ENDROOT
BRANCH   1   2
HETATM    2  C11 UNL     1      -7.375   1.080  17.390  1.00  0.00     0.027 C 
BRANCH   2   3
HETATM    3  C10 UNL     1      -8.261   1.128  16.151  1.00  0.00     0.002 C 
BRANCH   3   4
HETATM    4  C9  UNL     1      -9.665   1.500  16.476  1.00  0.00     0.000 C 
BRANCH   4   5
HETATM    5  C8  UNL     1     -10.318   2.058  15.205  1.00  0.00     0.000 C 
BRANCH   5   6
HETATM    6  C7  UNL     1      -9.430   3.053  14.545  1.00  0.00     0.000 C 
BRANCH   6   7
HETATM    7  C6  UNL     1     -10.055   3.480  13.197  1.00  0.00     0.000 C 
BRANCH   7   8
HETATM    8  C5  UNL     1     -10.551   2.332  12.399  1.00  0.00     0.000 C 
BRANCH   8   9
HETATM    9  C4  UNL     1      -9.605   1.569  11.584  1.00  0.00     0.000 C 
BRANCH   9  10
HETATM   10  C3  UNL     1      -9.481   0.117  11.607  1.00  0.00     0.001 C 
BRANCH  10  11
HETATM   11  C2  UNL     1      -9.608  -0.642  12.863  1.00  0.00     0.011 C 
BRANCH  11  12
HETATM   12  C1  UNL     1     -10.278  -1.989  12.500  1.00  0.00     0.086 C 
HETATM   13  S1  UNL     1      -9.077  -3.333  12.533  1.00  0.00    -0.098 SA
ENDBRANCH  11  12
ENDBRANCH  10  11
ENDBRANCH   9  10
ENDBRANCH   8   9
ENDBRANCH   7   8
ENDBRANCH   6   7
ENDBRANCH   5   6
ENDBRANCH   4   5
ENDBRANCH   3   4
ENDBRANCH   2   3
ENDBRANCH   1   2
BRANCH   1  14
HETATM   14  N1  UNL     1      -7.238   1.491  19.767  1.00  0.00    -0.075 N 
ATOM     15  H12 UNL     1      -7.154   2.395  20.232  1.00  0.00     0.277 HD
ATOM     16  H11 UNL     1      -7.668   0.970  20.531  1.00  0.00     0.277 HD
BRANCH  14  17
HETATM   17  C13 UNL     1      -5.968   0.957  19.402  1.00  0.00     0.232 C 
BRANCH  17  18
HETATM   18  C14 UNL     1      -5.421   0.007  20.475  1.00  0.00     0.032 C 
BRANCH  18  19
HETATM   19  C15 UNL     1      -5.217  -1.317  19.778  1.00  0.00     0.041 C 
BRANCH  19  20
HETATM   20  C16 UNL     1      -4.818  -2.406  20.667  1.00  0.00    -0.043 A 
HETATM   21  C17 UNL     1      -3.756  -3.233  20.386  1.00  0.00     0.010 A 
HETATM   22  C18 UNL     1      -3.390  -4.267  21.248  1.00  0.00     0.018 A 
HETATM   23  C19 UNL     1      -4.125  -4.453  22.413  1.00  0.00     0.087 A 
HETATM   24  N2  UNL     1      -5.162  -3.641  22.683  1.00  0.00    -0.375 N 
HETATM   25  C20 UNL     1      -5.509  -2.634  21.833  1.00  0.00     0.094 A 
ATOM     26  H2  UNL     1      -5.698  -3.781  23.539  1.00  0.00     0.164 HD
ENDBRANCH  19  20
ENDBRANCH  18  19
ENDBRANCH  17  18
ENDBRANCH  14  17
ENDBRANCH   1  14
TORSDOF 16
ENDMDL
MODEL 2
REMARK VINA RESULT: -7.649917435      4.219      9.589
REMARK  16 active torsions:
REMARK  status: ('A' for Active; 'I' for Inactive)
REMARK    1  A    between atoms: C1_2  and  C2_3 
REMARK    2  A    between atoms: C2_3  and  C3_4 
REMARK    3  A    between atoms: C3_4  and  C4_5 
REMARK    4  A    between atoms: C4_5  and  C5_6 
REMARK    5  A    between atoms: C5_6  and  C6_7 
REMARK    6  A    between atoms: C6_7  and  C7_8 
REMARK    7  A    between atoms: C7_8  and  C8_9 
REMARK    8  A    between atoms: C8_9  and  C9_10 
REMARK    9  A    between atoms: C9_10  and  C10_11 
REMARK   10  A    between atoms: C10_11  and  C11_12 
REMARK   11  A    between atoms: C11_12  and  C12_13 
REMARK   12  A    between atoms: C12_13  and  N1_14 
REMARK   13  A    between atoms: N1_14  and  C13_17 
REMARK   14  A    between atoms: C13_17  and  C14_18 
REMARK   15  A    between atoms: C14_18  and  C15_19 
REMARK   16  A    between atoms: C15_19  and  C16_20 
ROOT
HETATM    1  C12 UNL     1      -9.691   1.568  16.596  1.00  0.00     0.232 C 
ENDROOT
BRANCH   1   2
HETATM    2  C11 UNL     1      -8.314   1.207  16.149  1.00  0.00     0.027 C 
BRANCH   2   3
HETATM    3  C10 UNL     1      -7.344   1.096  17.319  1.00  0.00     0.002 C 
BRANCH   3   4
HETATM    4  C9  UNL     1      -7.968   1.497  18.608  1.00  0.00     0.000 C 
BRANCH   4   5
HETATM    5  C8  UNL     1      -7.002   1.129  19.742  1.00  0.00     0.000 C 
BRANCH   5   6
HETATM    6  C7  UNL     1      -5.766   0.501  19.203  1.00  0.00     0.000 C 
BRANCH   6   7
HETATM    7  C6  UNL     1      -5.318  -0.637  20.149  1.00  0.00     0.000 C 
BRANCH   7   8
HETATM    8  C5  UNL     1      -4.006  -0.376  20.788  1.00  0.00     0.000 C 
BRANCH   8   9
HETATM    9  C4  UNL     1      -3.871   0.760  21.700  1.00  0.00     0.000 C 
BRANCH   9  10
HETATM   10  C3  UNL     1      -2.600   1.356  22.094  1.00  0.00     0.001 C 
BRANCH  10  11
HETATM   11  C2  UNL     1      -1.655   1.876  21.090  1.00  0.00     0.011 C 
BRANCH  11  12
HETATM   12  C1  UNL     1      -0.493   0.858  21.008  1.00  0.00     0.086 C 
HETATM   13  S1  UNL     1       0.356   0.723  22.592  1.00  0.00    -0.098 SA
ENDBRANCH  11  12
ENDBRANCH  10  11
ENDBRANCH   9  10
ENDBRANCH   8   9
ENDBRANCH   7   8
ENDBRANCH   6   7
ENDBRANCH   5   6
ENDBRANCH   4   5
ENDBRANCH   3   4
ENDBRANCH   2   3
ENDBRANCH   1   2
BRANCH   1  14
HETATM   14  N1  UNL     1     -10.271   2.559  15.726  1.00  0.00    -0.075 N 
ATOM     15  H12 UNL     1     -11.173   2.261  15.353  1.00  0.00     0.277 HD
ATOM     16  H11 UNL     1     -10.588   3.381  16.240  1.00  0.00     0.277 HD
BRANCH  14  17
HETATM   17  C13 UNL     1      -9.349   2.895  14.693  1.00  0.00     0.232 C 
BRANCH  17  18
HETATM   18  C14 UNL     1     -10.041   3.011  13.329  1.00  0.00     0.032 C 
BRANCH  18  19
HETATM   19  C15 UNL     1     -11.115   1.949  13.328  1.00  0.00     0.041 C 
BRANCH  19  20
HETATM   20  C16 UNL     1     -10.675   0.654  12.815  1.00  0.00    -0.043 A 
HETATM   21  C17 UNL     1      -9.723   0.539  11.828  1.00  0.00     0.010 A 
HETATM   22  C18 UNL     1      -9.315  -0.707  11.351  1.00  0.00     0.018 A 
HETATM   23  C19 UNL     1      -9.893  -1.848  11.894  1.00  0.00     0.087 A 
HETATM   24  N2  UNL     1     -10.822  -1.730  12.859  1.00  0.00    -0.375 N 
HETATM   25  C20 UNL     1     -11.211  -0.507  13.317  1.00  0.00     0.094 A 
ATOM     26  H2  UNL     1     -11.242  -2.570  13.255  1.00  0.00     0.164 HD
ENDBRANCH  19  20
ENDBRANCH  18  19
ENDBRANCH  17  18
ENDBRANCH  14  17
ENDBRANCH   1  14
TORSDOF 16
ENDMDL
MODEL 3
REMARK VINA RESULT: -7.506043015      1.992      2.421
REMARK  16 active torsions:
REMARK  status: ('A' for Active; 'I' for Inactive)
REMARK    1  A    between atoms: C1_2  and  C2_3 
REMARK    2  A    between atoms: C2_3  and  C3_4 
REMARK    3  A    between atoms: C3_4  and  C4_5 
REMARK    4  A    between atoms: C4_5  and  C5_6 
REMARK    5  A    between atoms: C5_6  and  C6_7 
REMARK    6  A    between atoms: C6_7  and  C7_8 
REMARK    7  A    between atoms: C7_8  and  C8_9 
REMARK    8  A    between atoms: C8_9  and  C9_10 
REMARK    9  A    between atoms: C9_10  and  C10_11 
REMARK   10  A    between atoms: C10_11  and  C11_12 
REMARK   11  A    between atoms: C11_12  and  C12_13 
REMARK   12  A    between atoms: C12_13  and  N1_14 
REMARK   13  A    between atoms: N1_14  and  C13_17 
REMARK   14  A    between atoms: C13_17  and  C14_18 
REMARK   15  A    between atoms: C14_18  and  C15_19 
REMARK   16  A    between atoms: C15_19  and  C16_20 
ROOT
HETATM    1  C12 UNL     1      -8.185   1.483  18.490  1.00  0.00     0.232 C 
ENDROOT
BRANCH   1   2
HETATM    2  C11 UNL     1      -7.520   1.102  17.210  1.00  0.00     0.027 C 
BRANCH   2   3
HETATM    3  C10 UNL     1      -8.408   1.371  16.002  1.00  0.00     0.002 C 
BRANCH   3   4
HETATM    4  C9  UNL     1      -9.849   1.441  16.366  1.00  0.00     0.000 C 
BRANCH   4   5
HETATM    5  C8  UNL     1     -10.624   1.972  15.153  1.00  0.00     0.000 C 
BRANCH   5   6
HETATM    6  C7  UNL     1      -9.729   2.739  14.246  1.00  0.00     0.000 C 
BRANCH   6   7
HETATM    7  C6  UNL     1     -10.539   3.225  13.021  1.00  0.00     0.000 C 
BRANCH   7   8
HETATM    8  C5  UNL     1     -10.646   2.201  11.954  1.00  0.00     0.000 C 
BRANCH   8   9
HETATM    9  C4  UNL     1      -9.438   1.503  11.512  1.00  0.00     0.000 C 
BRANCH   9  10
HETATM   10  C3  UNL     1      -9.238   0.062  11.602  1.00  0.00     0.001 C 
BRANCH  10  11
HETATM   11  C2  UNL     1      -9.552  -0.678  12.837  1.00  0.00     0.011 C 
BRANCH  11  12
HETATM   12  C1  UNL     1     -10.224  -2.002  12.400  1.00  0.00     0.086 C 
HETATM   13  S1  UNL     1      -9.084  -3.388  12.571  1.00  0.00    -0.098 SA
ENDBRANCH  11  12
ENDBRANCH  10  11
ENDBRANCH   9  10
ENDBRANCH   8   9
ENDBRANCH   7   8
ENDBRANCH   6   7
ENDBRANCH   5   6
ENDBRANCH   4   5
ENDBRANCH   3   4
ENDBRANCH   2   3
ENDBRANCH   1   2
BRANCH   1  14
HETATM   14  N1  UNL     1      -7.213   1.688  19.533  1.00  0.00    -0.075 N 
ATOM     15  H12 UNL     1      -6.864   2.647  19.549  1.00  0.00     0.277 HD
ATOM     16  H11 UNL     1      -7.638   1.669  20.460  1.00  0.00     0.277 HD
BRANCH  14  17
HETATM   17  C13 UNL     1      -6.160   0.737  19.407  1.00  0.00     0.232 C 
BRANCH  17  18
HETATM   18  C14 UNL     1      -5.669   0.247  20.775  1.00  0.00     0.032 C 
BRANCH  18  19
HETATM   19  C15 UNL     1      -4.430  -0.571  20.491  1.00  0.00     0.041 C 
BRANCH  19  20
HETATM   20  C16 UNL     1      -3.257  -0.166  21.261  1.00  0.00    -0.043 A 
HETATM   21  C17 UNL     1      -2.701   1.088  21.150  1.00  0.00     0.010 A 
HETATM   22  C18 UNL     1      -1.580   1.457  21.894  1.00  0.00     0.018 A 
HETATM   23  C19 UNL     1      -1.024   0.526  22.764  1.00  0.00     0.087 A 
HETATM   24  N2  UNL     1      -1.572  -0.697  22.869  1.00  0.00    -0.375 N 
HETATM   25  C20 UNL     1      -2.667  -1.045  22.137  1.00  0.00     0.094 A 
ATOM     26  H2  UNL     1      -1.161  -1.376  23.509  1.00  0.00     0.164 HD
ENDBRANCH  19  20
ENDBRANCH  18  19
ENDBRANCH  17  18
ENDBRANCH  14  17
ENDBRANCH   1  14
TORSDOF 16
ENDMDL
MODEL 4
REMARK VINA RESULT: -7.419952672      4.465     10.144
REMARK  16 active torsions:
REMARK  status: ('A' for Active; 'I' for Inactive)
REMARK    1  A    between atoms: C1_2  and  C2_3 
REMARK    2  A    between atoms: C2_3  and  C3_4 
REMARK    3  A    between atoms: C3_4  and  C4_5 
REMARK    4  A    between atoms: C4_5  and  C5_6 
REMARK    5  A    between atoms: C5_6  and  C6_7 
REMARK    6  A    between atoms: C6_7  and  C7_8 
REMARK    7  A    between atoms: C7_8  and  C8_9 
REMARK    8  A    between atoms: C8_9  and  C9_10 
REMARK    9  A    between atoms: C9_10  and  C10_11 
REMARK   10  A    between atoms: C10_11  and  C11_12 
REMARK   11  A    between atoms: C11_12  and  C12_13 
REMARK   12  A    between atoms: C12_13  and  N1_14 
REMARK   13  A    between atoms: N1_14  and  C13_17 
REMARK   14  A    between atoms: C13_17  and  C14_18 
REMARK   15  A    between atoms: C14_18  and  C15_19 
REMARK   16  A    between atoms: C15_19  and  C16_20 
ROOT
HETATM    1  C12 UNL     1      -9.466   1.773  17.837  1.00  0.00     0.232 C 
ENDROOT
BRANCH   1   2
HETATM    2  C11 UNL     1      -8.031   1.391  17.693  1.00  0.00     0.027 C 
BRANCH   2   3
HETATM    3  C10 UNL     1      -7.330   1.283  19.041  1.00  0.00     0.002 C 
BRANCH   3   4
HETATM    4  C9  UNL     1      -6.050   0.529  18.952  1.00  0.00     0.000 C 
BRANCH   4   5
HETATM    5  C8  UNL     1      -5.434   0.464  20.356  1.00  0.00     0.000 C 
BRANCH   5   6
HETATM    6  C7  UNL     1      -4.696  -0.812  20.553  1.00  0.00     0.000 C 
BRANCH   6   7
HETATM    7  C6  UNL     1      -3.236  -0.500  20.952  1.00  0.00     0.000 C 
BRANCH   7   8
HETATM    8  C5  UNL     1      -3.036   0.910  21.363  1.00  0.00     0.000 C 
BRANCH   8   9
HETATM    9  C4  UNL     1      -1.694   1.490  21.291  1.00  0.00     0.000 C 
BRANCH   9  10
HETATM   10  C3  UNL     1      -0.458   0.719  21.350  1.00  0.00     0.001 C 
BRANCH  10  11
HETATM   11  C2  UNL     1       0.638   1.099  22.259  1.00  0.00     0.011 C 
BRANCH  11  12
HETATM   12  C1  UNL     1       1.025  -0.178  23.043  1.00  0.00     0.086 C 
HETATM   13  S1  UNL     1      -0.339  -0.731  24.084  1.00  0.00    -0.098 SA
ENDBRANCH  11  12
ENDBRANCH  10  11
ENDBRANCH   9  10
ENDBRANCH   8   9
ENDBRANCH   7   8
ENDBRANCH   6   7
ENDBRANCH   5   6
ENDBRANCH   4   5
ENDBRANCH   3   4
ENDBRANCH   2   3
ENDBRANCH   1   2
BRANCH   1  14
HETATM   14  N1  UNL     1     -10.084   1.947  16.548  1.00  0.00    -0.075 N 
ATOM     15  H12 UNL     1     -10.677   1.155  16.297  1.00  0.00     0.277 HD
ATOM     16  H11 UNL     1     -10.802   2.671  16.562  1.00  0.00     0.277 HD
BRANCH  14  17
HETATM   17  C13 UNL     1      -9.086   2.201  15.563  1.00  0.00     0.232 C 
BRANCH  17  18
HETATM   18  C14 UNL     1      -9.683   2.832  14.298  1.00  0.00     0.032 C 
BRANCH  18  19
HETATM   19  C15 UNL     1     -10.865   1.965  13.932  1.00  0.00     0.041 C 
BRANCH  19  20
HETATM   20  C16 UNL     1     -10.522   0.797  13.123  1.00  0.00    -0.043 A 
HETATM   21  C17 UNL     1      -9.683   0.876  12.037  1.00  0.00     0.010 A 
HETATM   22  C18 UNL     1      -9.367  -0.250  11.277  1.00  0.00     0.018 A 
HETATM   23  C19 UNL     1      -9.921  -1.473  11.639  1.00  0.00     0.087 A 
HETATM   24  N2  UNL     1     -10.740  -1.544  12.702  1.00  0.00    -0.375 N 
HETATM   25  C20 UNL     1     -11.040  -0.436  13.436  1.00  0.00     0.094 A 
ATOM     26  H2  UNL     1     -11.144  -2.443  12.964  1.00  0.00     0.164 HD
ENDBRANCH  19  20
ENDBRANCH  18  19
ENDBRANCH  17  18
ENDBRANCH  14  17
ENDBRANCH   1  14
TORSDOF 16
ENDMDL
MODEL 5
REMARK VINA RESULT: -7.374391149      4.109      9.898
REMARK  16 active torsions:
REMARK  status: ('A' for Active; 'I' for Inactive)
REMARK    1  A    between atoms: C1_2  and  C2_3 
REMARK    2  A    between atoms: C2_3  and  C3_4 
REMARK    3  A    between atoms: C3_4  and  C4_5 
REMARK    4  A    between atoms: C4_5  and  C5_6 
REMARK    5  A    between atoms: C5_6  and  C6_7 
REMARK    6  A    between atoms: C6_7  and  C7_8 
REMARK    7  A    between atoms: C7_8  and  C8_9 
REMARK    8  A    between atoms: C8_9  and  C9_10 
REMARK    9  A    between atoms: C9_10  and  C10_11 
REMARK   10  A    between atoms: C10_11  and  C11_12 
REMARK   11  A    between atoms: C11_12  and  C12_13 
REMARK   12  A    between atoms: C12_13  and  N1_14 
REMARK   13  A    between atoms: N1_14  and  C13_17 
REMARK   14  A    between atoms: C13_17  and  C14_18 
REMARK   15  A    between atoms: C14_18  and  C15_19 
REMARK   16  A    between atoms: C15_19  and  C16_20 
ROOT
HETATM    1  C12 UNL     1      -9.738   1.945  17.544  1.00  0.00     0.232 C 
ENDROOT
BRANCH   1   2
HETATM    2  C11 UNL     1      -8.350   1.410  17.434  1.00  0.00     0.027 C 
BRANCH   2   3
HETATM    3  C10 UNL     1      -7.667   1.310  18.792  1.00  0.00     0.002 C 
BRANCH   3   4
HETATM    4  C9  UNL     1      -6.260   0.840  18.682  1.00  0.00     0.000 C 
BRANCH   4   5
HETATM    5  C8  UNL     1      -5.747   0.529  20.095  1.00  0.00     0.000 C 
BRANCH   5   6
HETATM    6  C7  UNL     1      -5.171  -0.841  20.160  1.00  0.00     0.000 C 
BRANCH   6   7
HETATM    7  C6  UNL     1      -4.198  -0.928  21.358  1.00  0.00     0.000 C 
BRANCH   7   8
HETATM    8  C5  UNL     1      -2.773  -0.857  20.953  1.00  0.00     0.000 C 
BRANCH   8   9
HETATM    9  C4  UNL     1      -1.935   0.220  21.482  1.00  0.00     0.000 C 
BRANCH   9  10
HETATM   10  C3  UNL     1      -2.372   1.601  21.648  1.00  0.00     0.001 C 
BRANCH  10  11
HETATM   11  C2  UNL     1      -2.747   2.130  22.971  1.00  0.00     0.011 C 
BRANCH  11  12
HETATM   12  C1  UNL     1      -2.179   1.145  24.019  1.00  0.00     0.086 C 
HETATM   13  S1  UNL     1      -3.504   0.406  24.992  1.00  0.00    -0.098 SA
ENDBRANCH  11  12
ENDBRANCH  10  11
ENDBRANCH   9  10
ENDBRANCH   8   9
ENDBRANCH   7   8
ENDBRANCH   6   7
ENDBRANCH   5   6
ENDBRANCH   4   5
ENDBRANCH   3   4
ENDBRANCH   2   3
ENDBRANCH   1   2
BRANCH   1  14
HETATM   14  N1  UNL     1     -10.332   2.107  16.242  1.00  0.00    -0.075 N 
ATOM     15  H12 UNL     1     -10.920   1.313  15.987  1.00  0.00     0.277 HD
ATOM     16  H11 UNL     1     -11.050   2.831  16.236  1.00  0.00     0.277 HD
BRANCH  14  17
HETATM   17  C13 UNL     1      -9.316   2.353  15.274  1.00  0.00     0.232 C 
BRANCH  17  18
HETATM   18  C14 UNL     1      -9.907   2.786  13.926  1.00  0.00     0.032 C 
BRANCH  18  19
HETATM   19  C15 UNL     1     -11.047   1.832  13.659  1.00  0.00     0.041 C 
BRANCH  19  20
HETATM   20  C16 UNL     1     -10.647   0.595  12.991  1.00  0.00    -0.043 A 
HETATM   21  C17 UNL     1      -9.740   0.577  11.957  1.00  0.00     0.010 A 
HETATM   22  C18 UNL     1      -9.371  -0.615  11.333  1.00  0.00     0.018 A 
HETATM   23  C19 UNL     1      -9.940  -1.802  11.777  1.00  0.00     0.087 A 
HETATM   24  N2  UNL     1     -10.826  -1.779  12.788  1.00  0.00    -0.375 N 
HETATM   25  C20 UNL     1     -11.178  -0.608  13.390  1.00  0.00     0.094 A 
ATOM     26  H2  UNL     1     -11.241  -2.653  13.111  1.00  0.00     0.164 HD
ENDBRANCH  19  20
ENDBRANCH  18  19
ENDBRANCH  17  18
ENDBRANCH  14  17
ENDBRANCH   1  14
TORSDOF 16
ENDMDL
