MODEL 1
REMARK VINA RESULT: -7.972988087      0.000      0.000
REMARK  18 active torsions:
REMARK  status: ('A' for Active; 'I' for Inactive)
REMARK    1  A    between atoms: N1_1  and  C1_5 
REMARK    2  A    between atoms: C1_5  and  C2_6 
REMARK    3  A    between atoms: C2_6  and  C3_7 
REMARK    4  A    between atoms: C3_7  and  N2_8 
REMARK    5  A    between atoms: N2_8  and  C4_11 
REMARK    6  A    between atoms: C4_11  and  C5_12 
REMARK    7  A    between atoms: C5_12  and  C6_13 
REMARK    8  A    between atoms: C6_13  and  C7_14 
REMARK    9  A    between atoms: C7_14  and  C8_15 
REMARK   10  A    between atoms: C8_15  and  C9_16 
REMARK   11  A    between atoms: C9_16  and  C10_17 
REMARK   12  A    between atoms: C10_17  and  C11_18 
REMARK   13  A    between atoms: C11_18  and  C12_19 
REMARK   14  A    between atoms: C12_19  and  C13_20 
REMARK   15  A    between atoms: C13_20  and  C14_21 
REMARK   16  A    between atoms: C14_21  and  C15_22 
REMARK   17  A    between atoms: C15_22  and  C16_23 
REMARK   18  A    between atoms: C16_23  and  C17_24 
ROOT
HETATM    1  C8  UNL     1      -6.163   0.771  18.975  1.00  0.00     0.000 C 
ENDROOT
BRANCH   1   2
HETATM    2  C7  UNL     1      -5.594   0.117  20.189  1.00  0.00     0.000 C 
BRANCH   2   3
HETATM    3  C6  UNL     1      -6.419   0.385  21.414  1.00  0.00     0.002 C 
BRANCH   3   4
HETATM    4  C5  UNL     1      -5.697  -0.015  22.655  1.00  0.00     0.027 C 
BRANCH   4   5
HETATM    5  C4  UNL     1      -4.232   0.239  22.550  1.00  0.00     0.232 C 
BRANCH   5   6
HETATM    6  N2  UNL     1      -3.891   1.529  23.078  1.00  0.00    -0.075 N 
ATOM      7  H22 UNL     1      -3.984   1.553  24.093  1.00  0.00     0.277 HD
ATOM      8  H21 UNL     1      -4.593   2.228  22.838  1.00  0.00     0.277 HD
BRANCH   6   9
HETATM    9  C3  UNL     1      -2.592   1.934  22.666  1.00  0.00     0.233 C 
BRANCH   9  10
HETATM   10  C2  UNL     1      -2.270   1.512  21.242  1.00  0.00     0.055 C 
BRANCH  10  11
HETATM   11  C1  UNL     1      -0.806   1.128  21.210  1.00  0.00     0.231 C 
BRANCH  11  12
HETATM   12  N1  UNL     1      -0.343   0.636  22.477  1.00  0.00    -0.079 N 
ATOM     13  H13 UNL     1      -0.730   1.181  23.247  1.00  0.00     0.274 HD
ATOM     14  H12 UNL     1      -0.759  -0.270  22.693  1.00  0.00     0.274 HD
ATOM     15  H11 UNL     1       0.674   0.595  22.529  1.00  0.00     0.274 HD
ENDBRANCH  11  12
ENDBRANCH  10  11
ENDBRANCH   9  10
ENDBRANCH   6   9
ENDBRANCH   5   6
ENDBRANCH   4   5
ENDBRANCH   3   4
ENDBRANCH   2   3
ENDBRANCH   1   2
BRANCH   1  16
HETATM   16  C9  UNL     1      -7.479   1.427  19.300  1.00  0.00     0.000 C 
BRANCH  16  17
HETATM   17  C10 UNL     1      -8.360   1.494  18.109  1.00  0.00     0.000 C 
BRANCH  17  18
HETATM   18  C11 UNL     1      -7.641   1.121  16.814  1.00  0.00     0.000 C 
BRANCH  18  19
HETATM   19  C12 UNL     1      -8.599   1.216  15.675  1.00  0.00     0.000 C 
BRANCH  19  20
HETATM   20  C13 UNL     1      -9.503   2.433  15.782  1.00  0.00     0.000 C 
BRANCH  20  21
HETATM   21  C14 UNL     1      -9.301   3.258  14.514  1.00  0.00     0.000 C 
BRANCH  21  22
HETATM   22  C15 UNL     1     -10.447   3.056  13.553  1.00  0.00     0.005 C 
BRANCH  22  23
HETATM   23  C16 UNL     1     -10.024   2.411  12.274  1.00  0.00     0.038 C 
BRANCH  23  24
HETATM   24  C17 UNL     1     -10.103   0.928  12.309  1.00  0.00    -0.058 A 
HETATM   25  C18 UNL     1      -9.306   0.140  11.512  1.00  0.00     0.007 A 
HETATM   26  C19 UNL     1      -9.411  -1.220  11.579  1.00  0.00     0.001 A 
HETATM   27  C20 UNL     1     -10.310  -1.824  12.440  1.00  0.00     0.000 A 
HETATM   28  C21 UNL     1     -11.107  -1.030  13.239  1.00  0.00     0.001 A 
HETATM   29  C22 UNL     1     -10.995   0.343  13.164  1.00  0.00     0.007 A 
ENDBRANCH  23  24
ENDBRANCH  22  23
ENDBRANCH  21  22
ENDBRANCH  20  21
ENDBRANCH  19  20
ENDBRANCH  18  19
ENDBRANCH  17  18
ENDBRANCH  16  17
ENDBRANCH   1  16
TORSDOF 18
ENDMDL
MODEL 2
REMARK VINA RESULT: -7.961348010      2.272      2.885
REMARK  18 active torsions:
REMARK  status: ('A' for Active; 'I' for Inactive)
REMARK    1  A    between atoms: N1_1  and  C1_5 
REMARK    2  A    between atoms: C1_5  and  C2_6 
REMARK    3  A    between atoms: C2_6  and  C3_7 
REMARK    4  A    between atoms: C3_7  and  N2_8 
REMARK    5  A    between atoms: N2_8  and  C4_11 
REMARK    6  A    between atoms: C4_11  and  C5_12 
REMARK    7  A    between atoms: C5_12  and  C6_13 
REMARK    8  A    between atoms: C6_13  and  C7_14 
REMARK    9  A    between atoms: C7_14  and  C8_15 
REMARK   10  A    between atoms: C8_15  and  C9_16 
REMARK   11  A    between atoms: C9_16  and  C10_17 
REMARK   12  A    between atoms: C10_17  and  C11_18 
REMARK   13  A    between atoms: C11_18  and  C12_19 
REMARK   14  A    between atoms: C12_19  and  C13_20 
REMARK   15  A    between atoms: C13_20  and  C14_21 
REMARK   16  A    between atoms: C14_21  and  C15_22 
REMARK   17  A    between atoms: C15_22  and  C16_23 
REMARK   18  A    between atoms: C16_23  and  C17_24 
ROOT
HETATM    1  C8  UNL     1      -6.434   0.759  18.709  1.00  0.00     0.000 C 
ENDROOT
BRANCH   1   2
HETATM    2  C7  UNL     1      -5.615   0.630  19.949  1.00  0.00     0.000 C 
BRANCH   2   3
HETATM    3  C6  UNL     1      -5.066  -0.757  20.122  1.00  0.00     0.002 C 
BRANCH   3   4
HETATM    4  C5  UNL     1      -3.765  -0.742  20.848  1.00  0.00     0.027 C 
BRANCH   4   5
HETATM    5  C4  UNL     1      -3.957  -0.708  22.327  1.00  0.00     0.232 C 
BRANCH   5   6
HETATM    6  N2  UNL     1      -4.708  -1.843  22.778  1.00  0.00    -0.075 N 
ATOM      7  H22 UNL     1      -5.460  -2.075  22.129  1.00  0.00     0.277 HD
ATOM      8  H21 UNL     1      -5.271  -1.617  23.597  1.00  0.00     0.277 HD
BRANCH   6   9
HETATM    9  C3  UNL     1      -3.866  -2.963  23.019  1.00  0.00     0.233 C 
BRANCH   9  10
HETATM   10  C2  UNL     1      -4.307  -4.203  22.260  1.00  0.00     0.055 C 
BRANCH  10  11
HETATM   11  C1  UNL     1      -3.380  -4.353  21.072  1.00  0.00     0.231 C 
BRANCH  11  12
HETATM   12  N1  UNL     1      -2.970  -5.713  20.868  1.00  0.00    -0.079 N 
ATOM     13  H13 UNL     1      -3.732  -6.273  20.486  1.00  0.00     0.274 HD
ATOM     14  H12 UNL     1      -2.310  -5.786  20.095  1.00  0.00     0.274 HD
ATOM     15  H11 UNL     1      -2.591  -6.135  21.716  1.00  0.00     0.274 HD
ENDBRANCH  11  12
ENDBRANCH  10  11
ENDBRANCH   9  10
ENDBRANCH   6   9
ENDBRANCH   5   6
ENDBRANCH   4   5
ENDBRANCH   3   4
ENDBRANCH   2   3
ENDBRANCH   1   2
BRANCH   1  16
HETATM   16  C9  UNL     1      -7.747   1.429  19.016  1.00  0.00     0.000 C 
BRANCH  16  17
HETATM   17  C10 UNL     1      -8.608   1.510  17.810  1.00  0.00     0.000 C 
BRANCH  17  18
HETATM   18  C11 UNL     1      -7.878   1.112  16.529  1.00  0.00     0.000 C 
BRANCH  18  19
HETATM   19  C12 UNL     1      -8.776   1.344  15.360  1.00  0.00     0.000 C 
BRANCH  19  20
HETATM   20  C13 UNL     1      -9.577   2.628  15.495  1.00  0.00     0.000 C 
BRANCH  20  21
HETATM   21  C14 UNL     1      -9.440   3.386  14.179  1.00  0.00     0.000 C 
BRANCH  21  22
HETATM   22  C15 UNL     1     -10.569   3.042  13.238  1.00  0.00     0.005 C 
BRANCH  22  23
HETATM   23  C16 UNL     1     -10.111   2.282  12.036  1.00  0.00     0.038 C 
BRANCH  23  24
HETATM   24  C17 UNL     1     -10.186   0.809  12.208  1.00  0.00    -0.058 A 
HETATM   25  C18 UNL     1     -11.081   0.225  13.074  1.00  0.00     0.007 A 
HETATM   26  C19 UNL     1     -11.117  -1.135  13.199  1.00  0.00     0.001 A 
HETATM   27  C20 UNL     1     -10.266  -1.941  12.464  1.00  0.00     0.000 A 
HETATM   28  C21 UNL     1      -9.370  -1.352  11.596  1.00  0.00     0.001 A 
HETATM   29  C22 UNL     1      -9.340   0.022  11.477  1.00  0.00     0.007 A 
ENDBRANCH  23  24
ENDBRANCH  22  23
ENDBRANCH  21  22
ENDBRANCH  20  21
ENDBRANCH  19  20
ENDBRANCH  18  19
ENDBRANCH  17  18
ENDBRANCH  16  17
ENDBRANCH   1  16
TORSDOF 18
ENDMDL
MODEL 3
REMARK VINA RESULT: -7.869657859      1.007      1.857
REMARK  18 active torsions:
REMARK  status: ('A' for Active; 'I' for Inactive)
REMARK    1  A    between atoms: N1_1  and  C1_5 
REMARK    2  A    between atoms: C1_5  and  C2_6 
REMARK    3  A    between atoms: C2_6  and  C3_7 
REMARK    4  A    between atoms: C3_7  and  N2_8 
REMARK    5  A    between atoms: N2_8  and  C4_11 
REMARK    6  A    between atoms: C4_11  and  C5_12 
REMARK    7  A    between atoms: C5_12  and  C6_13 
REMARK    8  A    between atoms: C6_13  and  C7_14 
REMARK    9  A    between atoms: C7_14  and  C8_15 
REMARK   10  A    between atoms: C8_15  and  C9_16 
REMARK   11  A    between atoms: C9_16  and  C10_17 
REMARK   12  A    between atoms: C10_17  and  C11_18 
REMARK   13  A    between atoms: C11_18  and  C12_19 
REMARK   14  A    between atoms: C12_19  and  C13_20 
REMARK   15  A    between atoms: C13_20  and  C14_21 
REMARK   16  A    between atoms: C14_21  and  C15_22 
REMARK   17  A    between atoms: C15_22  and  C16_23 
REMARK   18  A    between atoms: C16_23  and  C17_24 
ROOT
HETATM    1  C8  UNL     1      -6.224   0.762  18.873  1.00  0.00     0.000 C 
ENDROOT
BRANCH   1   2
HETATM    2  C7  UNL     1      -5.528   0.302  20.109  1.00  0.00     0.000 C 
BRANCH   2   3
HETATM    3  C6  UNL     1      -5.174  -1.155  20.050  1.00  0.00     0.002 C 
BRANCH   3   4
HETATM    4  C5  UNL     1      -3.884  -1.431  20.744  1.00  0.00     0.027 C 
BRANCH   4   5
HETATM    5  C4  UNL     1      -3.466  -0.292  21.610  1.00  0.00     0.232 C 
BRANCH   5   6
HETATM    6  N2  UNL     1      -2.137   0.141  21.289  1.00  0.00    -0.075 N 
ATOM      7  H22 UNL     1      -1.972   0.126  20.283  1.00  0.00     0.277 HD
ATOM      8  H21 UNL     1      -1.441  -0.548  21.574  1.00  0.00     0.277 HD
BRANCH   6   9
HETATM    9  C3  UNL     1      -1.858   1.421  21.842  1.00  0.00     0.233 C 
BRANCH   9  10
HETATM   10  C2  UNL     1      -2.934   1.891  22.806  1.00  0.00     0.055 C 
BRANCH  10  11
HETATM   11  C1  UNL     1      -2.262   2.136  24.140  1.00  0.00     0.231 C 
BRANCH  11  12
HETATM   12  N1  UNL     1      -3.008   3.041  24.969  1.00  0.00    -0.079 N 
ATOM     13  H13 UNL     1      -2.478   3.299  25.801  1.00  0.00     0.274 HD
ATOM     14  H12 UNL     1      -3.085   3.960  24.533  1.00  0.00     0.274 HD
ATOM     15  H11 UNL     1      -3.926   2.673  25.216  1.00  0.00     0.274 HD
ENDBRANCH  11  12
ENDBRANCH  10  11
ENDBRANCH   9  10
ENDBRANCH   6   9
ENDBRANCH   5   6
ENDBRANCH   4   5
ENDBRANCH   3   4
ENDBRANCH   2   3
ENDBRANCH   1   2
BRANCH   1  16
HETATM   16  C9  UNL     1      -7.526   1.433  19.221  1.00  0.00     0.000 C 
BRANCH  16  17
HETATM   17  C10 UNL     1      -8.437   1.487  18.052  1.00  0.00     0.000 C 
BRANCH  17  18
HETATM   18  C11 UNL     1      -7.738   1.153  16.736  1.00  0.00     0.000 C 
BRANCH  18  19
HETATM   19  C12 UNL     1      -8.721   1.257  15.617  1.00  0.00     0.000 C 
BRANCH  19  20
HETATM   20  C13 UNL     1      -9.567   2.515  15.710  1.00  0.00     0.000 C 
BRANCH  20  21
HETATM   21  C14 UNL     1      -9.337   3.309  14.428  1.00  0.00     0.000 C 
BRANCH  21  22
HETATM   22  C15 UNL     1     -10.456   3.076  13.441  1.00  0.00     0.005 C 
BRANCH  22  23
HETATM   23  C16 UNL     1     -10.003   2.356  12.213  1.00  0.00     0.038 C 
BRANCH  23  24
HETATM   24  C17 UNL     1     -10.129   0.880  12.316  1.00  0.00    -0.058 A 
HETATM   25  C18 UNL     1     -11.027   0.287  13.173  1.00  0.00     0.007 A 
HETATM   26  C19 UNL     1     -11.110  -1.075  13.234  1.00  0.00     0.001 A 
HETATM   27  C20 UNL     1     -10.304  -1.874  12.443  1.00  0.00     0.000 A 
HETATM   28  C21 UNL     1      -9.405  -1.276  11.585  1.00  0.00     0.001 A 
HETATM   29  C22 UNL     1      -9.327   0.100  11.530  1.00  0.00     0.007 A 
ENDBRANCH  23  24
ENDBRANCH  22  23
ENDBRANCH  21  22
ENDBRANCH  20  21
ENDBRANCH  19  20
ENDBRANCH  18  19
ENDBRANCH  17  18
ENDBRANCH  16  17
ENDBRANCH   1  16
TORSDOF 18
ENDMDL
MODEL 4
REMARK VINA RESULT: -7.829513743      2.124      3.022
REMARK  18 active torsions:
REMARK  status: ('A' for Active; 'I' for Inactive)
REMARK    1  A    between atoms: N1_1  and  C1_5 
REMARK    2  A    between atoms: C1_5  and  C2_6 
REMARK    3  A    between atoms: C2_6  and  C3_7 
REMARK    4  A    between atoms: C3_7  and  N2_8 
REMARK    5  A    between atoms: N2_8  and  C4_11 
REMARK    6  A    between atoms: C4_11  and  C5_12 
REMARK    7  A    between atoms: C5_12  and  C6_13 
REMARK    8  A    between atoms: C6_13  and  C7_14 
REMARK    9  A    between atoms: C7_14  and  C8_15 
REMARK   10  A    between atoms: C8_15  and  C9_16 
REMARK   11  A    between atoms: C9_16  and  C10_17 
REMARK   12  A    between atoms: C10_17  and  C11_18 
REMARK   13  A    between atoms: C11_18  and  C12_19 
REMARK   14  A    between atoms: C12_19  and  C13_20 
REMARK   15  A    between atoms: C13_20  and  C14_21 
REMARK   16  A    between atoms: C14_21  and  C15_22 
REMARK   17  A    between atoms: C15_22  and  C16_23 
REMARK   18  A    between atoms: C16_23  and  C17_24 
ROOT
HETATM    1  C8  UNL     1      -6.182   0.789  18.906  1.00  0.00     0.000 C 
ENDROOT
BRANCH   1   2
HETATM    2  C7  UNL     1      -5.417   0.429  20.136  1.00  0.00     0.000 C 
BRANCH   2   3
HETATM    3  C6  UNL     1      -5.109  -1.038  20.200  1.00  0.00     0.002 C 
BRANCH   3   4
HETATM    4  C5  UNL     1      -3.736  -1.285  20.724  1.00  0.00     0.027 C 
BRANCH   4   5
HETATM    5  C4  UNL     1      -3.586  -2.671  21.253  1.00  0.00     0.232 C 
BRANCH   5   6
HETATM    6  N2  UNL     1      -4.864  -3.286  21.463  1.00  0.00    -0.075 N 
ATOM      7  H22 UNL     1      -5.073  -3.970  20.735  1.00  0.00     0.277 HD
ATOM      8  H21 UNL     1      -5.626  -2.632  21.288  1.00  0.00     0.277 HD
BRANCH   6   9
HETATM    9  C3  UNL     1      -4.960  -3.861  22.759  1.00  0.00     0.233 C 
BRANCH   9  10
HETATM   10  C2  UNL     1      -5.087  -2.817  23.856  1.00  0.00     0.055 C 
BRANCH  10  11
HETATM   11  C1  UNL     1      -6.397  -2.092  23.631  1.00  0.00     0.231 C 
BRANCH  11  12
HETATM   12  N1  UNL     1      -6.630  -1.070  24.612  1.00  0.00    -0.079 N 
ATOM     13  H13 UNL     1      -6.513  -0.140  24.210  1.00  0.00     0.274 HD
ATOM     14  H12 UNL     1      -7.617  -1.018  24.861  1.00  0.00     0.274 HD
ATOM     15  H11 UNL     1      -6.048  -1.189  25.442  1.00  0.00     0.274 HD
ENDBRANCH  11  12
ENDBRANCH  10  11
ENDBRANCH   9  10
ENDBRANCH   6   9
ENDBRANCH   5   6
ENDBRANCH   4   5
ENDBRANCH   3   4
ENDBRANCH   2   3
ENDBRANCH   1   2
BRANCH   1  16
HETATM   16  C9  UNL     1      -7.544   1.318  19.271  1.00  0.00     0.000 C 
BRANCH  16  17
HETATM   17  C10 UNL     1      -8.381   1.534  18.066  1.00  0.00     0.000 C 
BRANCH  17  18
HETATM   18  C11 UNL     1      -7.673   1.142  16.771  1.00  0.00     0.000 C 
BRANCH  18  19
HETATM   19  C12 UNL     1      -8.644   1.216  15.639  1.00  0.00     0.000 C 
BRANCH  19  20
HETATM   20  C13 UNL     1      -9.547   2.434  15.735  1.00  0.00     0.000 C 
BRANCH  20  21
HETATM   21  C14 UNL     1      -9.344   3.248  14.460  1.00  0.00     0.000 C 
BRANCH  21  22
HETATM   22  C15 UNL     1     -10.458   2.994  13.475  1.00  0.00     0.005 C 
BRANCH  22  23
HETATM   23  C16 UNL     1      -9.986   2.320  12.228  1.00  0.00     0.038 C 
BRANCH  23  24
HETATM   24  C17 UNL     1     -10.096   0.840  12.282  1.00  0.00    -0.058 A 
HETATM   25  C18 UNL     1      -9.326   0.026  11.485  1.00  0.00     0.007 A 
HETATM   26  C19 UNL     1      -9.459  -1.331  11.570  1.00  0.00     0.001 A 
HETATM   27  C20 UNL     1     -10.360  -1.905  12.449  1.00  0.00     0.000 A 
HETATM   28  C21 UNL     1     -11.131  -1.085  13.248  1.00  0.00     0.001 A 
HETATM   29  C22 UNL     1     -10.990   0.284  13.155  1.00  0.00     0.007 A 
ENDBRANCH  23  24
ENDBRANCH  22  23
ENDBRANCH  21  22
ENDBRANCH  20  21
ENDBRANCH  19  20
ENDBRANCH  18  19
ENDBRANCH  17  18
ENDBRANCH  16  17
ENDBRANCH   1  16
TORSDOF 18
ENDMDL
MODEL 5
REMARK VINA RESULT: -7.804606141      0.962      1.532
REMARK  18 active torsions:
REMARK  status: ('A' for Active; 'I' for Inactive)
REMARK    1  A    between atoms: N1_1  and  C1_5 
REMARK    2  A    between atoms: C1_5  and  C2_6 
REMARK    3  A    between atoms: C2_6  and  C3_7 
REMARK    4  A    between atoms: C3_7  and  N2_8 
REMARK    5  A    between atoms: N2_8  and  C4_11 
REMARK    6  A    between atoms: C4_11  and  C5_12 
REMARK    7  A    between atoms: C5_12  and  C6_13 
REMARK    8  A    between atoms: C6_13  and  C7_14 
REMARK    9  A    between atoms: C7_14  and  C8_15 
REMARK   10  A    between atoms: C8_15  and  C9_16 
REMARK   11  A    between atoms: C9_16  and  C10_17 
REMARK   12  A    between atoms: C10_17  and  C11_18 
REMARK   13  A    between atoms: C11_18  and  C12_19 
REMARK   14  A    between atoms: C12_19  and  C13_20 
REMARK   15  A    between atoms: C13_20  and  C14_21 
REMARK   16  A    between atoms: C14_21  and  C15_22 
REMARK   17  A    between atoms: C15_22  and  C16_23 
REMARK   18  A    between atoms: C16_23  and  C17_24 
ROOT
HETATM    1  C8  UNL     1      -6.411   0.800  18.906  1.00  0.00     0.000 C 
ENDROOT
BRANCH   1   2
HETATM    2  C7  UNL     1      -5.772   0.440  20.205  1.00  0.00     0.000 C 
BRANCH   2   3
HETATM    3  C6  UNL     1      -5.014  -0.853  20.122  1.00  0.00     0.002 C 
BRANCH   3   4
HETATM    4  C5  UNL     1      -4.143  -1.051  21.315  1.00  0.00     0.027 C 
BRANCH   4   5
HETATM    5  C4  UNL     1      -2.788  -0.461  21.115  1.00  0.00     0.232 C 
BRANCH   5   6
HETATM    6  N2  UNL     1      -2.666   0.797  21.793  1.00  0.00    -0.075 N 
ATOM      7  H22 UNL     1      -2.547   0.669  22.798  1.00  0.00     0.277 HD
ATOM      8  H21 UNL     1      -3.551   1.303  21.801  1.00  0.00     0.277 HD
BRANCH   6   9
HETATM    9  C3  UNL     1      -1.620   1.586  21.242  1.00  0.00     0.233 C 
BRANCH   9  10
HETATM   10  C2  UNL     1      -0.288   0.857  21.214  1.00  0.00     0.055 C 
BRANCH  10  11
HETATM   11  C1  UNL     1       0.267   0.887  22.623  1.00  0.00     0.231 C 
BRANCH  11  12
HETATM   12  N1  UNL     1       1.412   0.036  22.777  1.00  0.00    -0.079 N 
ATOM     13  H13 UNL     1       1.196  -0.924  22.506  1.00  0.00     0.274 HD
ATOM     14  H12 UNL     1       2.124   0.246  22.078  1.00  0.00     0.274 HD
ATOM     15  H11 UNL     1       1.800   0.074  23.719  1.00  0.00     0.274 HD
ENDBRANCH  11  12
ENDBRANCH  10  11
ENDBRANCH   9  10
ENDBRANCH   6   9
ENDBRANCH   5   6
ENDBRANCH   4   5
ENDBRANCH   3   4
ENDBRANCH   2   3
ENDBRANCH   1   2
BRANCH   1  16
HETATM   16  C9  UNL     1      -7.704   1.536  19.143  1.00  0.00     0.000 C 
BRANCH  16  17
HETATM   17  C10 UNL     1      -8.564   1.522  17.935  1.00  0.00     0.000 C 
BRANCH  17  18
HETATM   18  C11 UNL     1      -7.803   1.142  16.666  1.00  0.00     0.000 C 
BRANCH  18  19
HETATM   19  C12 UNL     1      -8.693   1.334  15.484  1.00  0.00     0.000 C 
BRANCH  19  20
HETATM   20  C13 UNL     1      -9.558   2.577  15.609  1.00  0.00     0.000 C 
BRANCH  20  21
HETATM   21  C14 UNL     1      -9.407   3.364  14.311  1.00  0.00     0.000 C 
BRANCH  21  22
HETATM   22  C15 UNL     1     -10.525   3.038  13.350  1.00  0.00     0.005 C 
BRANCH  22  23
HETATM   23  C16 UNL     1     -10.052   2.298  12.142  1.00  0.00     0.038 C 
BRANCH  23  24
HETATM   24  C17 UNL     1     -10.158   0.822  12.277  1.00  0.00    -0.058 A 
HETATM   25  C18 UNL     1     -11.032   0.236  13.163  1.00  0.00     0.007 A 
HETATM   26  C19 UNL     1     -11.097  -1.125  13.253  1.00  0.00     0.001 A 
HETATM   27  C20 UNL     1     -10.296  -1.930  12.464  1.00  0.00     0.000 A 
HETATM   28  C21 UNL     1      -9.420  -1.340  11.576  1.00  0.00     0.001 A 
HETATM   29  C22 UNL     1      -9.360   0.036  11.492  1.00  0.00     0.007 A 
ENDBRANCH  23  24
ENDBRANCH  22  23
ENDBRANCH  21  22
ENDBRANCH  20  21
ENDBRANCH  19  20
ENDBRANCH  18  19
ENDBRANCH  17  18
ENDBRANCH  16  17
ENDBRANCH   1  16
TORSDOF 18
ENDMDL
