MODEL 1
REMARK VINA RESULT: -8.851001396      0.000      0.000
REMARK  12 active torsions:
REMARK  status: ('A' for Active; 'I' for Inactive)
REMARK    1  A    between atoms: C6_6  and  C7_7 
REMARK    2  A    between atoms: C7_7  and  C8_8 
REMARK    3  A    between atoms: C8_8  and  C9_9 
REMARK    4  A    between atoms: C9_9  and  N1_10 
REMARK    5  A    between atoms: N1_10  and  C10_12 
REMARK    6  A    between atoms: C10_12  and  C11_13 
REMARK    7  A    between atoms: C11_13  and  C12_14 
REMARK    8  A    between atoms: C12_14  and  N2_15 
REMARK    9  A    between atoms: N2_15  and  C13_16 
REMARK   10  A    between atoms: N2_15  and  C17_20 
REMARK   11  A    between atoms: C13_16  and  C14_17 
REMARK   12  A    between atoms: C17_20  and  C18_21 
ROOT
HETATM    1  N1  UNL     1      -7.991   1.578  18.835  1.00  0.00    -0.421 N 
ATOM      2  H1  UNL     1      -7.949   2.318  19.536  1.00  0.00     0.153 HD
ENDROOT
BRANCH   1   3
HETATM    3  C9  UNL     1      -9.128   1.381  18.011  1.00  0.00     0.114 C 
BRANCH   3   4
HETATM    4  C8  UNL     1      -8.837   1.351  16.528  1.00  0.00     0.024 C 
BRANCH   4   5
HETATM    5  C7  UNL     1      -9.607   2.432  15.798  1.00  0.00     0.040 C 
BRANCH   5   6
HETATM    6  C6  UNL     1      -9.756   2.016  14.388  1.00  0.00    -0.058 A 
HETATM    7  C5  UNL     1      -9.937   2.874  13.339  1.00  0.00     0.007 A 
HETATM    8  C4  UNL     1     -10.059   2.452  12.032  1.00  0.00     0.001 A 
HETATM    9  C3  UNL     1      -9.997   1.103  11.761  1.00  0.00     0.007 A 
HETATM   10  C2  UNL     1      -9.815   0.207  12.797  1.00  0.00    -0.061 A 
HETATM   11  C1  UNL     1      -9.748  -1.247  12.514  1.00  0.00     0.048 C 
HETATM   12  C21 UNL     1      -9.695   0.648  14.100  1.00  0.00     0.013 A 
ENDBRANCH   5   6
ENDBRANCH   4   5
ENDBRANCH   3   4
ENDBRANCH   1   3
BRANCH   1  13
HETATM   13  C10 UNL     1      -6.910   0.672  18.620  1.00  0.00     0.115 C 
BRANCH  13  14
HETATM   14  C11 UNL     1      -5.704   1.006  19.502  1.00  0.00     0.049 C 
BRANCH  14  15
HETATM   15  C12 UNL     1      -5.973   0.633  20.913  1.00  0.00     0.274 C 
BRANCH  15  16
HETATM   16  N2  UNL     1      -4.898  -0.146  21.558  1.00  0.00     0.089 N 
BRANCH  16  17
HETATM   17  C13 UNL     1      -3.968   0.702  22.181  1.00  0.00     0.276 C 
BRANCH  17  18
HETATM   18  C14 UNL     1      -2.650   0.803  21.409  1.00  0.00     0.006 C 
HETATM   19  C15 UNL     1      -2.334   2.180  20.943  1.00  0.00     0.011 C 
HETATM   20  C16 UNL     1      -1.562   0.323  22.381  1.00  0.00     0.011 C 
ENDBRANCH  17  18
ENDBRANCH  16  17
BRANCH  16  21
HETATM   21  C17 UNL     1      -4.420  -1.063  20.623  1.00  0.00     0.276 C 
BRANCH  21  22
HETATM   22  C18 UNL     1      -4.837  -2.486  20.620  1.00  0.00     0.006 C 
HETATM   23  C19 UNL     1      -3.480  -3.276  20.602  1.00  0.00     0.011 C 
HETATM   24  C20 UNL     1      -5.520  -3.008  21.845  1.00  0.00     0.011 C 
ENDBRANCH  21  22
ENDBRANCH  16  21
ENDBRANCH  15  16
ENDBRANCH  14  15
ENDBRANCH  13  14
ENDBRANCH   1  13
TORSDOF 12
ENDMDL
MODEL 2
REMARK VINA RESULT: -8.816202806      0.709      2.770
REMARK  12 active torsions:
REMARK  status: ('A' for Active; 'I' for Inactive)
REMARK    1  A    between atoms: C6_6  and  C7_7 
REMARK    2  A    between atoms: C7_7  and  C8_8 
REMARK    3  A    between atoms: C8_8  and  C9_9 
REMARK    4  A    between atoms: C9_9  and  N1_10 
REMARK    5  A    between atoms: N1_10  and  C10_12 
REMARK    6  A    between atoms: C10_12  and  C11_13 
REMARK    7  A    between atoms: C11_13  and  C12_14 
REMARK    8  A    between atoms: C12_14  and  N2_15 
REMARK    9  A    between atoms: N2_15  and  C13_16 
REMARK   10  A    between atoms: N2_15  and  C17_20 
REMARK   11  A    between atoms: C13_16  and  C14_17 
REMARK   12  A    between atoms: C17_20  and  C18_21 
ROOT
HETATM    1  N1  UNL     1      -8.154   1.528  18.852  1.00  0.00    -0.421 N 
ATOM      2  H1  UNL     1      -8.158   2.066  19.719  1.00  0.00     0.153 HD
ENDROOT
BRANCH   1   3
HETATM    3  C9  UNL     1      -9.271   1.493  17.980  1.00  0.00     0.114 C 
BRANCH   3   4
HETATM    4  C8  UNL     1      -8.925   1.424  16.510  1.00  0.00     0.024 C 
BRANCH   4   5
HETATM    5  C7  UNL     1      -9.625   2.517  15.732  1.00  0.00     0.040 C 
BRANCH   5   6
HETATM    6  C6  UNL     1      -9.784   2.057  14.336  1.00  0.00    -0.058 A 
HETATM    7  C5  UNL     1      -9.991   2.880  13.264  1.00  0.00     0.007 A 
HETATM    8  C4  UNL     1     -10.120   2.418  11.972  1.00  0.00     0.001 A 
HETATM    9  C3  UNL     1     -10.039   1.062  11.740  1.00  0.00     0.007 A 
HETATM   10  C2  UNL     1      -9.830   0.201  12.800  1.00  0.00    -0.061 A 
HETATM   11  C1  UNL     1      -9.740  -1.260  12.558  1.00  0.00     0.048 C 
HETATM   12  C21 UNL     1      -9.702   0.682  14.088  1.00  0.00     0.013 A 
ENDBRANCH   5   6
ENDBRANCH   4   5
ENDBRANCH   3   4
ENDBRANCH   1   3
BRANCH   1  13
HETATM   13  C10 UNL     1      -7.024   0.762  18.439  1.00  0.00     0.115 C 
BRANCH  13  14
HETATM   14  C11 UNL     1      -5.884   0.833  19.457  1.00  0.00     0.049 C 
BRANCH  14  15
HETATM   15  C12 UNL     1      -5.487  -0.530  19.890  1.00  0.00     0.274 C 
BRANCH  15  16
HETATM   16  N2  UNL     1      -4.299  -0.575  20.765  1.00  0.00     0.089 N 
BRANCH  16  17
HETATM   17  C13 UNL     1      -4.444  -1.557  21.757  1.00  0.00     0.276 C 
BRANCH  17  18
HETATM   18  C14 UNL     1      -4.633  -2.961  21.177  1.00  0.00     0.006 C 
HETATM   19  C15 UNL     1      -3.432  -3.486  20.474  1.00  0.00     0.011 C 
HETATM   20  C16 UNL     1      -4.969  -3.864  22.373  1.00  0.00     0.011 C 
ENDBRANCH  17  18
ENDBRANCH  16  17
BRANCH  16  21
HETATM   21  C17 UNL     1      -4.025   0.730  21.173  1.00  0.00     0.276 C 
BRANCH  21  22
HETATM   22  C18 UNL     1      -2.760   1.100  21.852  1.00  0.00     0.006 C 
HETATM   23  C19 UNL     1      -2.166   2.238  20.948  1.00  0.00     0.011 C 
HETATM   24  C20 UNL     1      -2.862   1.750  23.196  1.00  0.00     0.011 C 
ENDBRANCH  21  22
ENDBRANCH  16  21
ENDBRANCH  15  16
ENDBRANCH  14  15
ENDBRANCH  13  14
ENDBRANCH   1  13
TORSDOF 12
ENDMDL
MODEL 3
REMARK VINA RESULT: -8.774834939      0.747      2.669
REMARK  12 active torsions:
REMARK  status: ('A' for Active; 'I' for Inactive)
REMARK    1  A    between atoms: C6_6  and  C7_7 
REMARK    2  A    between atoms: C7_7  and  C8_8 
REMARK    3  A    between atoms: C8_8  and  C9_9 
REMARK    4  A    between atoms: C9_9  and  N1_10 
REMARK    5  A    between atoms: N1_10  and  C10_12 
REMARK    6  A    between atoms: C10_12  and  C11_13 
REMARK    7  A    between atoms: C11_13  and  C12_14 
REMARK    8  A    between atoms: C12_14  and  N2_15 
REMARK    9  A    between atoms: N2_15  and  C13_16 
REMARK   10  A    between atoms: N2_15  and  C17_20 
REMARK   11  A    between atoms: C13_16  and  C14_17 
REMARK   12  A    between atoms: C17_20  and  C18_21 
ROOT
HETATM    1  N1  UNL     1      -7.887   1.416  18.865  1.00  0.00    -0.421 N 
ATOM      2  H1  UNL     1      -7.815   1.916  19.752  1.00  0.00     0.153 HD
ENDROOT
BRANCH   1   3
HETATM    3  C9  UNL     1      -9.078   1.409  18.096  1.00  0.00     0.114 C 
BRANCH   3   4
HETATM    4  C8  UNL     1      -8.866   1.322  16.602  1.00  0.00     0.024 C 
BRANCH   4   5
HETATM    5  C7  UNL     1      -9.600   2.432  15.880  1.00  0.00     0.040 C 
BRANCH   5   6
HETATM    6  C6  UNL     1      -9.753   2.037  14.464  1.00  0.00    -0.058 A 
HETATM    7  C5  UNL     1      -9.938   2.910  13.428  1.00  0.00     0.007 A 
HETATM    8  C4  UNL     1     -10.063   2.507  12.116  1.00  0.00     0.001 A 
HETATM    9  C3  UNL     1     -10.000   1.162  11.825  1.00  0.00     0.007 A 
HETATM   10  C2  UNL     1      -9.813   0.252  12.847  1.00  0.00    -0.061 A 
HETATM   11  C1  UNL     1      -9.744  -1.199  12.542  1.00  0.00     0.048 C 
HETATM   12  C21 UNL     1      -9.690   0.673  14.156  1.00  0.00     0.013 A 
ENDBRANCH   5   6
ENDBRANCH   4   5
ENDBRANCH   3   4
ENDBRANCH   1   3
BRANCH   1  13
HETATM   13  C10 UNL     1      -6.795   0.679  18.318  1.00  0.00     0.115 C 
BRANCH  13  14
HETATM   14  C11 UNL     1      -6.037  -0.100  19.395  1.00  0.00     0.049 C 
BRANCH  14  15
HETATM   15  C12 UNL     1      -5.304   0.829  20.291  1.00  0.00     0.274 C 
BRANCH  15  16
HETATM   16  N2  UNL     1      -4.270   0.189  21.127  1.00  0.00     0.089 N 
BRANCH  16  17
HETATM   17  C13 UNL     1      -4.630  -1.130  21.447  1.00  0.00     0.276 C 
BRANCH  17  18
HETATM   18  C14 UNL     1      -3.475  -2.119  21.269  1.00  0.00     0.006 C 
HETATM   19  C15 UNL     1      -2.927  -2.636  22.551  1.00  0.00     0.011 C 
HETATM   20  C16 UNL     1      -4.046  -3.281  20.443  1.00  0.00     0.011 C 
ENDBRANCH  17  18
ENDBRANCH  16  17
BRANCH  16  21
HETATM   21  C17 UNL     1      -3.976   1.058  22.176  1.00  0.00     0.276 C 
BRANCH  21  22
HETATM   22  C18 UNL     1      -2.717   1.840  22.231  1.00  0.00     0.006 C 
HETATM   23  C19 UNL     1      -1.671   0.829  22.820  1.00  0.00     0.011 C 
HETATM   24  C20 UNL     1      -2.102   2.250  20.930  1.00  0.00     0.011 C 
ENDBRANCH  21  22
ENDBRANCH  16  21
ENDBRANCH  15  16
ENDBRANCH  14  15
ENDBRANCH  13  14
ENDBRANCH   1  13
TORSDOF 12
ENDMDL
MODEL 4
REMARK VINA RESULT: -8.705233194      0.997      2.787
REMARK  12 active torsions:
REMARK  status: ('A' for Active; 'I' for Inactive)
REMARK    1  A    between atoms: C6_6  and  C7_7 
REMARK    2  A    between atoms: C7_7  and  C8_8 
REMARK    3  A    between atoms: C8_8  and  C9_9 
REMARK    4  A    between atoms: C9_9  and  N1_10 
REMARK    5  A    between atoms: N1_10  and  C10_12 
REMARK    6  A    between atoms: C10_12  and  C11_13 
REMARK    7  A    between atoms: C11_13  and  C12_14 
REMARK    8  A    between atoms: C12_14  and  N2_15 
REMARK    9  A    between atoms: N2_15  and  C13_16 
REMARK   10  A    between atoms: N2_15  and  C17_20 
REMARK   11  A    between atoms: C13_16  and  C14_17 
REMARK   12  A    between atoms: C17_20  and  C18_21 
ROOT
HETATM    1  N1  UNL     1      -8.131   1.605  18.835  1.00  0.00    -0.421 N 
ATOM      2  H1  UNL     1      -8.105   2.271  19.607  1.00  0.00     0.153 HD
ENDROOT
BRANCH   1   3
HETATM    3  C9  UNL     1      -9.262   1.472  17.989  1.00  0.00     0.114 C 
BRANCH   3   4
HETATM    4  C8  UNL     1      -8.941   1.351  16.518  1.00  0.00     0.024 C 
BRANCH   4   5
HETATM    5  C7  UNL     1      -9.537   2.499  15.731  1.00  0.00     0.040 C 
BRANCH   5   6
HETATM    6  C6  UNL     1      -9.734   2.049  14.338  1.00  0.00    -0.058 A 
HETATM    7  C5  UNL     1      -9.968   2.879  13.277  1.00  0.00     0.007 A 
HETATM    8  C4  UNL     1     -10.135   2.425  11.986  1.00  0.00     0.001 A 
HETATM    9  C3  UNL     1     -10.063   1.070  11.744  1.00  0.00     0.007 A 
HETATM   10  C2  UNL     1      -9.827   0.202  12.792  1.00  0.00    -0.061 A 
HETATM   11  C1  UNL     1      -9.748  -1.257  12.540  1.00  0.00     0.048 C 
HETATM   12  C21 UNL     1      -9.663   0.675  14.079  1.00  0.00     0.013 A 
ENDBRANCH   5   6
ENDBRANCH   4   5
ENDBRANCH   3   4
ENDBRANCH   1   3
BRANCH   1  13
HETATM   13  C10 UNL     1      -7.032   0.747  18.534  1.00  0.00     0.115 C 
BRANCH  13  14
HETATM   14  C11 UNL     1      -5.919   0.860  19.579  1.00  0.00     0.049 C 
BRANCH  14  15
HETATM   15  C12 UNL     1      -5.479  -0.488  20.018  1.00  0.00     0.274 C 
BRANCH  15  16
HETATM   16  N2  UNL     1      -4.259  -0.496  20.847  1.00  0.00     0.089 N 
BRANCH  16  17
HETATM   17  C13 UNL     1      -4.427  -1.308  21.980  1.00  0.00     0.276 C 
BRANCH  17  18
HETATM   18  C14 UNL     1      -5.872  -1.327  22.485  1.00  0.00     0.006 C 
HETATM   19  C15 UNL     1      -6.390  -2.694  22.765  1.00  0.00     0.011 C 
HETATM   20  C16 UNL     1      -5.873  -0.499  23.778  1.00  0.00     0.011 C 
ENDBRANCH  17  18
ENDBRANCH  16  17
BRANCH  16  21
HETATM   21  C17 UNL     1      -3.873   0.829  21.046  1.00  0.00     0.276 C 
BRANCH  21  22
HETATM   22  C18 UNL     1      -2.655   1.197  21.806  1.00  0.00     0.006 C 
HETATM   23  C19 UNL     1      -2.019   2.357  20.961  1.00  0.00     0.011 C 
HETATM   24  C20 UNL     1      -2.843   1.820  23.154  1.00  0.00     0.011 C 
ENDBRANCH  21  22
ENDBRANCH  16  21
ENDBRANCH  15  16
ENDBRANCH  14  15
ENDBRANCH  13  14
ENDBRANCH   1  13
TORSDOF 12
ENDMDL
MODEL 5
REMARK VINA RESULT: -8.682089856      0.683      1.108
REMARK  12 active torsions:
REMARK  status: ('A' for Active; 'I' for Inactive)
REMARK    1  A    between atoms: C6_6  and  C7_7 
REMARK    2  A    between atoms: C7_7  and  C8_8 
REMARK    3  A    between atoms: C8_8  and  C9_9 
REMARK    4  A    between atoms: C9_9  and  N1_10 
REMARK    5  A    between atoms: N1_10  and  C10_12 
REMARK    6  A    between atoms: C10_12  and  C11_13 
REMARK    7  A    between atoms: C11_13  and  C12_14 
REMARK    8  A    between atoms: C12_14  and  N2_15 
REMARK    9  A    between atoms: N2_15  and  C13_16 
REMARK   10  A    between atoms: N2_15  and  C17_20 
REMARK   11  A    between atoms: C13_16  and  C14_17 
REMARK   12  A    between atoms: C17_20  and  C18_21 
ROOT
HETATM    1  N1  UNL     1      -8.223   1.441  18.846  1.00  0.00    -0.421 N 
ATOM      2  H1  UNL     1      -8.288   1.944  19.732  1.00  0.00     0.153 HD
ENDROOT
BRANCH   1   3
HETATM    3  C9  UNL     1      -9.283   1.429  17.905  1.00  0.00     0.114 C 
BRANCH   3   4
HETATM    4  C8  UNL     1      -8.845   1.441  16.458  1.00  0.00     0.024 C 
BRANCH   4   5
HETATM    5  C7  UNL     1      -9.531   2.550  15.689  1.00  0.00     0.040 C 
BRANCH   5   6
HETATM    6  C6  UNL     1      -9.743   2.084  14.302  1.00  0.00    -0.058 A 
HETATM    7  C5  UNL     1     -10.005   2.901  13.238  1.00  0.00     0.007 A 
HETATM    8  C4  UNL     1     -10.184   2.433  11.954  1.00  0.00     0.001 A 
HETATM    9  C3  UNL     1     -10.098   1.077  11.723  1.00  0.00     0.007 A 
HETATM   10  C2  UNL     1      -9.834   0.223  12.775  1.00  0.00    -0.061 A 
HETATM   11  C1  UNL     1      -9.739  -1.238  12.535  1.00  0.00     0.048 C 
HETATM   12  C21 UNL     1      -9.657   0.709  14.055  1.00  0.00     0.013 A 
ENDBRANCH   5   6
ENDBRANCH   4   5
ENDBRANCH   3   4
ENDBRANCH   1   3
BRANCH   1  13
HETATM   13  C10 UNL     1      -7.061   0.703  18.475  1.00  0.00     0.115 C 
BRANCH  13  14
HETATM   14  C11 UNL     1      -5.893   0.963  19.429  1.00  0.00     0.049 C 
BRANCH  14  15
HETATM   15  C12 UNL     1      -6.293   0.682  20.831  1.00  0.00     0.274 C 
BRANCH  15  16
HETATM   16  N2  UNL     1      -5.191   0.245  21.709  1.00  0.00     0.089 N 
BRANCH  16  17
HETATM   17  C13 UNL     1      -3.945   0.533  21.130  1.00  0.00     0.276 C 
BRANCH  17  18
HETATM   18  C14 UNL     1      -3.126   1.531  21.954  1.00  0.00     0.006 C 
HETATM   19  C15 UNL     1      -2.301   0.895  23.016  1.00  0.00     0.011 C 
HETATM   20  C16 UNL     1      -2.213   2.249  20.950  1.00  0.00     0.011 C 
ENDBRANCH  17  18
ENDBRANCH  16  17
BRANCH  16  21
HETATM   21  C17 UNL     1      -5.446  -1.073  22.086  1.00  0.00     0.276 C 
BRANCH  21  22
HETATM   22  C18 UNL     1      -4.727  -2.224  21.488  1.00  0.00     0.006 C 
HETATM   23  C19 UNL     1      -5.139  -3.437  22.394  1.00  0.00     0.011 C 
HETATM   24  C20 UNL     1      -5.142  -2.662  20.119  1.00  0.00     0.011 C 
ENDBRANCH  21  22
ENDBRANCH  16  21
ENDBRANCH  15  16
ENDBRANCH  14  15
ENDBRANCH  13  14
ENDBRANCH   1  13
TORSDOF 12
ENDMDL
