MODEL 1
REMARK VINA RESULT: -7.365584595      0.000      0.000
REMARK  12 active torsions:
REMARK  status: ('A' for Active; 'I' for Inactive)
REMARK    1  A    between atoms: C2_2  and  C3_3 
REMARK    2  A    between atoms: C3_3  and  C4_4 
REMARK    3  A    between atoms: C4_4  and  C5_5 
REMARK    4  A    between atoms: C4_4  and  N1_10 
REMARK    5  A    between atoms: C5_5  and  C6_6 
REMARK    6  A    between atoms: C6_6  and  C7_7 
REMARK    7  A    between atoms: C7_7  and  S1_8 
REMARK    8  A    between atoms: N1_10  and  C9_12 
REMARK    9  A    between atoms: C9_12  and  C10_13 
REMARK   10  A    between atoms: C10_13  and  C11_14 
REMARK   11  A    between atoms: C10_13  and  C15_18 
REMARK   12  A    between atoms: C11_14  and  C12_15 
ROOT
HETATM    1  C9  UNL     1      -6.558   0.636  18.711  1.00  0.00     0.123 C 
ENDROOT
BRANCH   1   2
HETATM    2  N1  UNL     1      -7.747   1.342  18.899  1.00  0.00    -0.416 N 
ATOM      3  H1  UNL     1      -8.070   1.544  19.845  1.00  0.00     0.153 HD
BRANCH   2   4
HETATM    4  C4  UNL     1      -8.520   1.786  17.773  1.00  0.00     0.080 C 
BRANCH   4   5
HETATM    5  C3  UNL     1      -9.948   1.439  18.108  1.00  0.00     0.051 C 
BRANCH   5   6
HETATM    6  C2  UNL     1     -10.902   2.532  17.765  1.00  0.00    -0.035 C 
HETATM    7  C1  UNL     1     -10.853   3.722  18.337  1.00  0.00     0.007 C 
ENDBRANCH   5   6
ENDBRANCH   4   5
BRANCH   4   8
HETATM    8  C5  UNL     1      -7.931   0.964  16.635  1.00  0.00     0.026 C 
BRANCH   8   9
HETATM    9  C6  UNL     1      -8.747   0.781  15.439  1.00  0.00     0.012 C 
BRANCH   9  10
HETATM   10  C7  UNL     1      -9.266   1.981  14.737  1.00  0.00     0.073 C 
BRANCH  10  11
HETATM   11  S1  UNL     1     -10.730   1.689  13.713  1.00  0.00    -0.173 SA
HETATM   12  C8  UNL     1     -10.608   2.828  12.286  1.00  0.00     0.089 C 
ENDBRANCH  10  11
ENDBRANCH   9  10
ENDBRANCH   8   9
ENDBRANCH   4   8
ENDBRANCH   2   4
ENDBRANCH   1   2
BRANCH   1  13
HETATM   13  C10 UNL     1      -5.810   0.821  20.084  1.00  0.00     0.036 C 
BRANCH  13  14
HETATM   14  C11 UNL     1      -4.488   1.456  19.843  1.00  0.00     0.015 C 
BRANCH  14  15
HETATM   15  C12 UNL     1      -3.661   1.437  21.094  1.00  0.00    -0.014 A 
HETATM   16  C13 UNL     1      -2.340   2.178  21.055  1.00  0.00     0.005 A 
HETATM   17  C14 UNL     1      -2.405   0.687  21.181  1.00  0.00     0.005 A 
ENDBRANCH  14  15
ENDBRANCH  13  14
BRANCH  13  18
HETATM   18  C15 UNL     1      -5.852  -0.437  20.797  1.00  0.00    -0.052 A 
HETATM   19  C16 UNL     1      -6.420  -0.543  22.052  1.00  0.00     0.007 A 
HETATM   20  C17 UNL     1      -6.416  -1.757  22.751  1.00  0.00     0.001 A 
HETATM   21  C18 UNL     1      -5.836  -2.894  22.196  1.00  0.00     0.000 A 
HETATM   22  C19 UNL     1      -5.276  -2.774  20.949  1.00  0.00     0.001 A 
HETATM   23  C20 UNL     1      -5.282  -1.598  20.272  1.00  0.00     0.007 A 
ENDBRANCH  13  18
ENDBRANCH   1  13
TORSDOF 12
ENDMDL
MODEL 2
REMARK VINA RESULT: -7.097981963      1.196      3.050
REMARK  12 active torsions:
REMARK  status: ('A' for Active; 'I' for Inactive)
REMARK    1  A    between atoms: C2_2  and  C3_3 
REMARK    2  A    between atoms: C3_3  and  C4_4 
REMARK    3  A    between atoms: C4_4  and  C5_5 
REMARK    4  A    between atoms: C4_4  and  N1_10 
REMARK    5  A    between atoms: C5_5  and  C6_6 
REMARK    6  A    between atoms: C6_6  and  C7_7 
REMARK    7  A    between atoms: C7_7  and  S1_8 
REMARK    8  A    between atoms: N1_10  and  C9_12 
REMARK    9  A    between atoms: C9_12  and  C10_13 
REMARK   10  A    between atoms: C10_13  and  C11_14 
REMARK   11  A    between atoms: C10_13  and  C15_18 
REMARK   12  A    between atoms: C11_14  and  C12_15 
ROOT
HETATM    1  C9  UNL     1      -6.593   1.029  19.686  1.00  0.00     0.123 C 
ENDROOT
BRANCH   1   2
HETATM    2  N1  UNL     1      -7.072   0.650  18.432  1.00  0.00    -0.416 N 
ATOM      3  H1  UNL     1      -6.840  -0.271  18.059  1.00  0.00     0.153 HD
BRANCH   2   4
HETATM    4  C4  UNL     1      -7.890   1.544  17.659  1.00  0.00     0.080 C 
BRANCH   4   5
HETATM    5  C3  UNL     1      -9.242   1.521  18.323  1.00  0.00     0.051 C 
BRANCH   5   6
HETATM    6  C2  UNL     1      -9.894   2.862  18.348  1.00  0.00    -0.035 C 
HETATM    7  C1  UNL     1     -11.158   3.042  18.006  1.00  0.00     0.007 C 
ENDBRANCH   5   6
ENDBRANCH   4   5
BRANCH   4   8
HETATM    8  C5  UNL     1      -7.862   0.895  16.282  1.00  0.00     0.026 C 
BRANCH   8   9
HETATM    9  C6  UNL     1      -9.074   0.972  15.473  1.00  0.00     0.012 C 
BRANCH   9  10
HETATM   10  C7  UNL     1      -9.362   2.226  14.735  1.00  0.00     0.073 C 
BRANCH  10  11
HETATM   11  S1  UNL     1     -10.242   2.001  13.168  1.00  0.00    -0.173 SA
HETATM   12  C8  UNL     1     -10.161   0.216  12.772  1.00  0.00     0.089 C 
ENDBRANCH  10  11
ENDBRANCH   9  10
ENDBRANCH   8   9
ENDBRANCH   4   8
ENDBRANCH   2   4
ENDBRANCH   1   2
BRANCH   1  13
HETATM   13  C10 UNL     1      -5.249   0.220  19.816  1.00  0.00     0.036 C 
BRANCH  13  14
HETATM   14  C11 UNL     1      -5.555  -1.233  19.896  1.00  0.00     0.015 C 
BRANCH  14  15
HETATM   15  C12 UNL     1      -4.514  -1.944  20.708  1.00  0.00    -0.014 A 
HETATM   16  C13 UNL     1      -4.203  -3.376  20.322  1.00  0.00     0.005 A 
HETATM   17  C14 UNL     1      -4.858  -3.034  21.625  1.00  0.00     0.005 A 
ENDBRANCH  14  15
ENDBRANCH  13  14
BRANCH  13  18
HETATM   18  C15 UNL     1      -4.460   0.817  20.871  1.00  0.00    -0.052 A 
HETATM   19  C16 UNL     1      -3.266   1.462  20.609  1.00  0.00     0.007 A 
HETATM   20  C17 UNL     1      -2.489   1.999  21.644  1.00  0.00     0.001 A 
HETATM   21  C18 UNL     1      -2.902   1.896  22.970  1.00  0.00     0.000 A 
HETATM   22  C19 UNL     1      -4.089   1.253  23.215  1.00  0.00     0.001 A 
HETATM   23  C20 UNL     1      -4.843   0.734  22.211  1.00  0.00     0.007 A 
ENDBRANCH  13  18
ENDBRANCH   1  13
TORSDOF 12
ENDMDL
MODEL 3
REMARK VINA RESULT: -6.874227587      3.914      6.824
REMARK  12 active torsions:
REMARK  status: ('A' for Active; 'I' for Inactive)
REMARK    1  A    between atoms: C2_2  and  C3_3 
REMARK    2  A    between atoms: C3_3  and  C4_4 
REMARK    3  A    between atoms: C4_4  and  C5_5 
REMARK    4  A    between atoms: C4_4  and  N1_10 
REMARK    5  A    between atoms: C5_5  and  C6_6 
REMARK    6  A    between atoms: C6_6  and  C7_7 
REMARK    7  A    between atoms: C7_7  and  S1_8 
REMARK    8  A    between atoms: N1_10  and  C9_12 
REMARK    9  A    between atoms: C9_12  and  C10_13 
REMARK   10  A    between atoms: C10_13  and  C11_14 
REMARK   11  A    between atoms: C10_13  and  C15_18 
REMARK   12  A    between atoms: C11_14  and  C12_15 
ROOT
HETATM    1  C9  UNL     1      -2.811   0.376  21.211  1.00  0.00     0.123 C 
ENDROOT
BRANCH   1   2
HETATM    2  N1  UNL     1      -4.184   0.626  21.176  1.00  0.00    -0.416 N 
ATOM      3  H1  UNL     1      -4.589   1.305  21.821  1.00  0.00     0.153 HD
BRANCH   2   4
HETATM    4  C4  UNL     1      -5.030  -0.061  20.241  1.00  0.00     0.080 C 
BRANCH   4   5
HETATM    5  C3  UNL     1      -6.184   0.873  19.987  1.00  0.00     0.051 C 
BRANCH   5   6
HETATM    6  C2  UNL     1      -6.752   0.727  18.615  1.00  0.00    -0.035 C 
HETATM    7  C1  UNL     1      -7.982   1.102  18.313  1.00  0.00     0.007 C 
ENDBRANCH   5   6
ENDBRANCH   4   5
BRANCH   4   8
HETATM    8  C5  UNL     1      -5.406  -1.318  21.014  1.00  0.00     0.026 C 
BRANCH   8   9
HETATM    9  C6  UNL     1      -5.129  -2.607  20.386  1.00  0.00     0.012 C 
BRANCH   9  10
HETATM   10  C7  UNL     1      -3.814  -3.250  20.624  1.00  0.00     0.073 C 
BRANCH  10  11
HETATM   11  S1  UNL     1      -3.832  -4.590  21.842  1.00  0.00    -0.173 SA
HETATM   12  C8  UNL     1      -2.421  -5.684  21.440  1.00  0.00     0.089 C 
ENDBRANCH  10  11
ENDBRANCH   9  10
ENDBRANCH   8   9
ENDBRANCH   4   8
ENDBRANCH   2   4
ENDBRANCH   1   2
BRANCH   1  13
HETATM   13  C10 UNL     1      -2.458   0.524  22.738  1.00  0.00     0.036 C 
BRANCH  13  14
HETATM   14  C11 UNL     1      -2.886   1.866  23.214  1.00  0.00     0.015 C 
BRANCH  14  15
HETATM   15  C12 UNL     1      -2.852   1.927  24.712  1.00  0.00    -0.014 A 
HETATM   16  C13 UNL     1      -2.796   3.304  25.342  1.00  0.00     0.005 A 
HETATM   17  C14 UNL     1      -1.652   2.341  25.443  1.00  0.00     0.005 A 
ENDBRANCH  14  15
ENDBRANCH  13  14
BRANCH  13  18
HETATM   18  C15 UNL     1      -1.078   0.133  22.924  1.00  0.00    -0.052 A 
HETATM   19  C16 UNL     1      -0.058   0.692  22.178  1.00  0.00     0.007 A 
HETATM   20  C17 UNL     1       1.270   0.274  22.337  1.00  0.00     0.001 A 
HETATM   21  C18 UNL     1       1.598  -0.719  23.255  1.00  0.00     0.000 A 
HETATM   22  C19 UNL     1       0.574  -1.265  23.989  1.00  0.00     0.001 A 
HETATM   23  C20 UNL     1      -0.712  -0.859  23.836  1.00  0.00     0.007 A 
ENDBRANCH  13  18
ENDBRANCH   1  13
TORSDOF 12
ENDMDL
MODEL 4
REMARK VINA RESULT: -6.870228262      4.139      7.040
REMARK  12 active torsions:
REMARK  status: ('A' for Active; 'I' for Inactive)
REMARK    1  A    between atoms: C2_2  and  C3_3 
REMARK    2  A    between atoms: C3_3  and  C4_4 
REMARK    3  A    between atoms: C4_4  and  C5_5 
REMARK    4  A    between atoms: C4_4  and  N1_10 
REMARK    5  A    between atoms: C5_5  and  C6_6 
REMARK    6  A    between atoms: C6_6  and  C7_7 
REMARK    7  A    between atoms: C7_7  and  S1_8 
REMARK    8  A    between atoms: N1_10  and  C9_12 
REMARK    9  A    between atoms: C9_12  and  C10_13 
REMARK   10  A    between atoms: C10_13  and  C11_14 
REMARK   11  A    between atoms: C10_13  and  C15_18 
REMARK   12  A    between atoms: C11_14  and  C12_15 
ROOT
HETATM    1  C9  UNL     1      -2.913   0.409  21.237  1.00  0.00     0.123 C 
ENDROOT
BRANCH   1   2
HETATM    2  N1  UNL     1      -3.590  -0.809  21.164  1.00  0.00    -0.416 N 
ATOM      3  H1  UNL     1      -3.254  -1.606  21.703  1.00  0.00     0.153 HD
BRANCH   2   4
HETATM    4  C4  UNL     1      -4.756  -0.950  20.336  1.00  0.00     0.080 C 
BRANCH   4   5
HETATM    5  C3  UNL     1      -5.794  -0.048  20.951  1.00  0.00     0.051 C 
BRANCH   5   6
HETATM    6  C2  UNL     1      -6.352   0.935  19.978  1.00  0.00    -0.035 C 
HETATM    7  C1  UNL     1      -6.662   0.606  18.737  1.00  0.00     0.007 C 
ENDBRANCH   5   6
ENDBRANCH   4   5
BRANCH   4   8
HETATM    8  C5  UNL     1      -5.065  -2.435  20.468  1.00  0.00     0.026 C 
BRANCH   8   9
HETATM    9  C6  UNL     1      -3.937  -3.358  20.538  1.00  0.00     0.012 C 
BRANCH   9  10
HETATM   10  C7  UNL     1      -3.918  -4.383  21.611  1.00  0.00     0.073 C 
BRANCH  10  11
HETATM   11  S1  UNL     1      -5.079  -4.085  22.968  1.00  0.00    -0.173 SA
HETATM   12  C8  UNL     1      -4.249  -2.936  24.126  1.00  0.00     0.089 C 
ENDBRANCH  10  11
ENDBRANCH   9  10
ENDBRANCH   8   9
ENDBRANCH   4   8
ENDBRANCH   2   4
ENDBRANCH   1   2
BRANCH   1  13
HETATM   13  C10 UNL     1      -2.526   0.513  22.759  1.00  0.00     0.036 C 
BRANCH  13  14
HETATM   14  C11 UNL     1      -2.907   1.854  23.274  1.00  0.00     0.015 C 
BRANCH  14  15
HETATM   15  C12 UNL     1      -2.832   1.882  24.771  1.00  0.00    -0.014 A 
HETATM   16  C13 UNL     1      -2.805   3.246  25.432  1.00  0.00     0.005 A 
HETATM   17  C14 UNL     1      -1.626   2.323  25.478  1.00  0.00     0.005 A 
ENDBRANCH  14  15
ENDBRANCH  13  14
BRANCH  13  18
HETATM   18  C15 UNL     1      -1.153   0.082  22.907  1.00  0.00    -0.052 A 
HETATM   19  C16 UNL     1      -0.797  -0.918  23.794  1.00  0.00     0.007 A 
HETATM   20  C17 UNL     1       0.542  -1.297  23.961  1.00  0.00     0.001 A 
HETATM   21  C18 UNL     1       1.553  -0.674  23.234  1.00  0.00     0.000 A 
HETATM   22  C19 UNL     1       1.185   0.316  22.358  1.00  0.00     0.001 A 
HETATM   23  C20 UNL     1      -0.113   0.682  22.196  1.00  0.00     0.007 A 
ENDBRANCH  13  18
ENDBRANCH   1  13
TORSDOF 12
ENDMDL
MODEL 5
REMARK VINA RESULT: -6.865507332      2.313      4.407
REMARK  12 active torsions:
REMARK  status: ('A' for Active; 'I' for Inactive)
REMARK    1  A    between atoms: C2_2  and  C3_3 
REMARK    2  A    between atoms: C3_3  and  C4_4 
REMARK    3  A    between atoms: C4_4  and  C5_5 
REMARK    4  A    between atoms: C4_4  and  N1_10 
REMARK    5  A    between atoms: C5_5  and  C6_6 
REMARK    6  A    between atoms: C6_6  and  C7_7 
REMARK    7  A    between atoms: C7_7  and  S1_8 
REMARK    8  A    between atoms: N1_10  and  C9_12 
REMARK    9  A    between atoms: C9_12  and  C10_13 
REMARK   10  A    between atoms: C10_13  and  C11_14 
REMARK   11  A    between atoms: C10_13  and  C15_18 
REMARK   12  A    between atoms: C11_14  and  C12_15 
ROOT
HETATM    1  C9  UNL     1      -3.649   0.678  20.614  1.00  0.00     0.123 C 
ENDROOT
BRANCH   1   2
HETATM    2  N1  UNL     1      -4.749   1.020  21.401  1.00  0.00    -0.416 N 
ATOM      3  H1  UNL     1      -4.611   1.560  22.255  1.00  0.00     0.153 HD
BRANCH   2   4
HETATM    4  C4  UNL     1      -6.075   0.617  21.021  1.00  0.00     0.080 C 
BRANCH   4   5
HETATM    5  C3  UNL     1      -6.473  -0.438  22.020  1.00  0.00     0.051 C 
BRANCH   5   6
HETATM    6  C2  UNL     1      -6.007  -0.128  23.402  1.00  0.00    -0.035 C 
HETATM    7  C1  UNL     1      -6.113  -0.991  24.397  1.00  0.00     0.007 C 
ENDBRANCH   5   6
ENDBRANCH   4   5
BRANCH   4   8
HETATM    8  C5  UNL     1      -5.857   0.088  19.610  1.00  0.00     0.026 C 
BRANCH   8   9
HETATM    9  C6  UNL     1      -6.715   0.611  18.551  1.00  0.00     0.012 C 
BRANCH   9  10
HETATM   10  C7  UNL     1      -8.001   1.250  18.924  1.00  0.00     0.073 C 
BRANCH  10  11
HETATM   11  S1  UNL     1      -9.149   1.506  17.547  1.00  0.00    -0.173 SA
HETATM   12  C8  UNL     1      -8.292   0.934  16.035  1.00  0.00     0.089 C 
ENDBRANCH  10  11
ENDBRANCH   9  10
ENDBRANCH   8   9
ENDBRANCH   4   8
ENDBRANCH   2   4
ENDBRANCH   1   2
BRANCH   1  13
HETATM   13  C10 UNL     1      -2.658   0.025  21.648  1.00  0.00     0.036 C 
BRANCH  13  14
HETATM   14  C11 UNL     1      -1.260   0.369  21.276  1.00  0.00     0.015 C 
BRANCH  14  15
HETATM   15  C12 UNL     1      -0.456   0.692  22.499  1.00  0.00    -0.014 A 
HETATM   16  C13 UNL     1       1.052   0.635  22.365  1.00  0.00     0.005 A 
HETATM   17  C14 UNL     1       0.299  -0.334  23.224  1.00  0.00     0.005 A 
ENDBRANCH  14  15
ENDBRANCH  13  14
BRANCH  13  18
HETATM   18  C15 UNL     1      -3.009  -1.371  21.792  1.00  0.00    -0.052 A 
HETATM   19  C16 UNL     1      -2.927  -2.019  23.011  1.00  0.00     0.007 A 
HETATM   20  C17 UNL     1      -3.228  -3.382  23.130  1.00  0.00     0.001 A 
HETATM   21  C18 UNL     1      -3.618  -4.123  22.018  1.00  0.00     0.000 A 
HETATM   22  C19 UNL     1      -3.694  -3.468  20.815  1.00  0.00     0.001 A 
HETATM   23  C20 UNL     1      -3.405  -2.146  20.701  1.00  0.00     0.007 A 
ENDBRANCH  13  18
ENDBRANCH   1  13
TORSDOF 12
ENDMDL
