MODEL 1
REMARK VINA RESULT: -8.258444396      0.000      0.000
REMARK  12 active torsions:
REMARK  status: ('A' for Active; 'I' for Inactive)
REMARK    1  A    between atoms: C2_2  and  C3_3 
REMARK    2  A    between atoms: C3_3  and  C4_4 
REMARK    3  A    between atoms: C4_4  and  C5_5 
REMARK    4  A    between atoms: C4_4  and  C15_18 
REMARK    5  A    between atoms: C5_5  and  C6_6 
REMARK    6  A    between atoms: C6_6  and  C7_7 
REMARK    7  A    between atoms: C7_7  and  C9_9 
REMARK    8  A    between atoms: C9_9  and  C10_10 
REMARK    9  A    between atoms: C10_10  and  N1_11 
REMARK       I    between atoms: N1_11  and  C11_13 
REMARK   10  A    between atoms: C11_13  and  C12_15 
REMARK   11  A    between atoms: C15_18  and  C17_20 
REMARK   12  A    between atoms: C17_20  and  C18_22 
ROOT
HETATM    1  C5  UNL     1      -6.076   0.884  19.820  1.00  0.00    -0.021 C 
ENDROOT
BRANCH   1   2
HETATM    2  C4  UNL     1      -4.811   0.287  20.398  1.00  0.00     0.019 C 
BRANCH   2   3
HETATM    3  C3  UNL     1      -4.448   1.012  21.595  1.00  0.00     0.009 C 
BRANCH   3   4
HETATM    4  C2  UNL     1      -3.164   1.524  22.024  1.00  0.00    -0.004 C 
HETATM    5  C1  UNL     1      -2.274   2.160  20.978  1.00  0.00     0.005 C 
ENDBRANCH   3   4
ENDBRANCH   2   3
BRANCH   2   6
HETATM    6  C15 UNL     1      -5.035  -1.218  20.516  1.00  0.00     0.059 C 
HETATM    7  C16 UNL     1      -3.622  -1.888  20.590  1.00  0.00     0.018 C 
BRANCH   6   8
HETATM    8  C17 UNL     1      -5.655  -1.664  21.778  1.00  0.00     0.134 C 
HETATM    9  O2  UNL     1      -6.783  -1.416  22.092  1.00  0.00    -0.297 OA
BRANCH   8  10
HETATM   10  C18 UNL     1      -4.848  -2.478  22.766  1.00  0.00     0.048 C 
HETATM   11  C19 UNL     1      -4.802  -1.763  24.075  1.00  0.00     0.017 C 
HETATM   12  C20 UNL     1      -5.524  -3.823  22.996  1.00  0.00     0.017 C 
ENDBRANCH   8  10
ENDBRANCH   6   8
ENDBRANCH   2   6
ENDBRANCH   1   2
BRANCH   1  13
HETATM   13  C6  UNL     1      -6.635   0.438  18.550  1.00  0.00     0.003 C 
BRANCH  13  14
HETATM   14  C7  UNL     1      -7.775   0.926  17.833  1.00  0.00    -0.065 C 
HETATM   15  C8  UNL     1      -8.960   1.600  18.479  1.00  0.00     0.048 C 
BRANCH  14  16
HETATM   16  C9  UNL     1      -7.778   0.938  16.478  1.00  0.00    -0.001 C 
BRANCH  16  17
HETATM   17  C10 UNL     1      -8.989   1.275  15.693  1.00  0.00     0.150 C 
BRANCH  17  18
HETATM   18  N1  UNL     1      -9.178   0.452  14.542  1.00  0.00    -0.357 N 
HETATM   19  C11 UNL     1     -10.380   0.468  13.799  1.00  0.00     0.222 C 
HETATM   20  O1  UNL     1     -11.310   1.224  14.157  1.00  0.00    -0.273 OA
ATOM     21  H1  UNL     1      -8.421  -0.166  14.246  1.00  0.00     0.162 HD
BRANCH  19  22
HETATM   22  C12 UNL     1     -10.603  -0.377  12.602  1.00  0.00     0.078 A 
HETATM   23  C13 UNL     1      -9.809  -1.582  12.339  1.00  0.00     0.015 A 
HETATM   24  C14 UNL     1      -9.557  -0.349  11.499  1.00  0.00     0.015 A 
ENDBRANCH  19  22
ENDBRANCH  17  18
ENDBRANCH  16  17
ENDBRANCH  14  16
ENDBRANCH  13  14
ENDBRANCH   1  13
TORSDOF 12
ENDMDL
MODEL 2
REMARK VINA RESULT: -8.243608721      1.493      2.969
REMARK  12 active torsions:
REMARK  status: ('A' for Active; 'I' for Inactive)
REMARK    1  A    between atoms: C2_2  and  C3_3 
REMARK    2  A    between atoms: C3_3  and  C4_4 
REMARK    3  A    between atoms: C4_4  and  C5_5 
REMARK    4  A    between atoms: C4_4  and  C15_18 
REMARK    5  A    between atoms: C5_5  and  C6_6 
REMARK    6  A    between atoms: C6_6  and  C7_7 
REMARK    7  A    between atoms: C7_7  and  C9_9 
REMARK    8  A    between atoms: C9_9  and  C10_10 
REMARK    9  A    between atoms: C10_10  and  N1_11 
REMARK       I    between atoms: N1_11  and  C11_13 
REMARK   10  A    between atoms: C11_13  and  C12_15 
REMARK   11  A    between atoms: C15_18  and  C17_20 
REMARK   12  A    between atoms: C17_20  and  C18_22 
ROOT
HETATM    1  C5  UNL     1      -6.258   0.945  19.836  1.00  0.00    -0.021 C 
ENDROOT
BRANCH   1   2
HETATM    2  C4  UNL     1      -5.748  -0.117  20.786  1.00  0.00     0.019 C 
BRANCH   2   3
HETATM    3  C3  UNL     1      -5.138  -1.183  20.022  1.00  0.00     0.009 C 
BRANCH   3   4
HETATM    4  C2  UNL     1      -5.236  -2.618  20.179  1.00  0.00    -0.004 C 
HETATM    5  C1  UNL     1      -3.978  -3.376  20.545  1.00  0.00     0.005 C 
ENDBRANCH   3   4
ENDBRANCH   2   3
BRANCH   2   6
HETATM    6  C15 UNL     1      -4.893   0.588  21.834  1.00  0.00     0.059 C 
HETATM    7  C16 UNL     1      -5.536   0.284  23.230  1.00  0.00     0.018 C 
BRANCH   6   8
HETATM    8  C17 UNL     1      -3.530   0.051  21.999  1.00  0.00     0.134 C 
HETATM    9  O2  UNL     1      -3.245  -0.825  22.763  1.00  0.00    -0.297 OA
BRANCH   8  10
HETATM   10  C18 UNL     1      -2.392   0.619  21.178  1.00  0.00     0.048 C 
HETATM   11  C19 UNL     1      -2.571   2.094  21.041  1.00  0.00     0.017 C 
HETATM   12  C20 UNL     1      -1.070   0.377  21.895  1.00  0.00     0.017 C 
ENDBRANCH   8  10
ENDBRANCH   6   8
ENDBRANCH   2   6
ENDBRANCH   1   2
BRANCH   1  13
HETATM   13  C6  UNL     1      -6.676   0.634  18.475  1.00  0.00     0.003 C 
BRANCH  13  14
HETATM   14  C7  UNL     1      -7.871   1.006  17.779  1.00  0.00    -0.065 C 
HETATM   15  C8  UNL     1      -9.106   1.560  18.448  1.00  0.00     0.048 C 
BRANCH  14  16
HETATM   16  C9  UNL     1      -7.901   1.017  16.425  1.00  0.00    -0.001 C 
BRANCH  16  17
HETATM   17  C10 UNL     1      -9.077   1.498  15.663  1.00  0.00     0.150 C 
BRANCH  17  18
HETATM   18  N1  UNL     1      -9.403   0.690  14.533  1.00  0.00    -0.357 N 
HETATM   19  C11 UNL     1      -9.819   1.252  13.305  1.00  0.00     0.222 C 
HETATM   20  O1  UNL     1      -9.905   2.496  13.200  1.00  0.00    -0.273 OA
ATOM     21  H1  UNL     1      -9.334  -0.325  14.614  1.00  0.00     0.162 HD
BRANCH  19  22
HETATM   22  C12 UNL     1     -10.165   0.436  12.117  1.00  0.00     0.078 A 
HETATM   23  C13 UNL     1      -9.779  -0.974  12.000  1.00  0.00     0.015 A 
HETATM   24  C14 UNL     1      -9.049   0.051  11.160  1.00  0.00     0.015 A 
ENDBRANCH  19  22
ENDBRANCH  17  18
ENDBRANCH  16  17
ENDBRANCH  14  16
ENDBRANCH  13  14
ENDBRANCH   1  13
TORSDOF 12
ENDMDL
MODEL 3
REMARK VINA RESULT: -8.085612346      1.602      3.261
REMARK  12 active torsions:
REMARK  status: ('A' for Active; 'I' for Inactive)
REMARK    1  A    between atoms: C2_2  and  C3_3 
REMARK    2  A    between atoms: C3_3  and  C4_4 
REMARK    3  A    between atoms: C4_4  and  C5_5 
REMARK    4  A    between atoms: C4_4  and  C15_18 
REMARK    5  A    between atoms: C5_5  and  C6_6 
REMARK    6  A    between atoms: C6_6  and  C7_7 
REMARK    7  A    between atoms: C7_7  and  C9_9 
REMARK    8  A    between atoms: C9_9  and  C10_10 
REMARK    9  A    between atoms: C10_10  and  N1_11 
REMARK       I    between atoms: N1_11  and  C11_13 
REMARK   10  A    between atoms: C11_13  and  C12_15 
REMARK   11  A    between atoms: C15_18  and  C17_20 
REMARK   12  A    between atoms: C17_20  and  C18_22 
ROOT
HETATM    1  C5  UNL     1      -5.874   0.959  19.693  1.00  0.00    -0.021 C 
ENDROOT
BRANCH   1   2
HETATM    2  C4  UNL     1      -5.573  -0.066  20.766  1.00  0.00     0.019 C 
BRANCH   2   3
HETATM    3  C3  UNL     1      -4.965  -1.227  20.155  1.00  0.00     0.009 C 
BRANCH   3   4
HETATM    4  C2  UNL     1      -5.231  -2.636  20.358  1.00  0.00    -0.004 C 
HETATM    5  C1  UNL     1      -5.318  -3.140  21.783  1.00  0.00     0.005 C 
ENDBRANCH   3   4
ENDBRANCH   2   3
BRANCH   2   6
HETATM    6  C15 UNL     1      -4.797   0.649  21.867  1.00  0.00     0.059 C 
HETATM    7  C16 UNL     1      -5.464   0.255  23.228  1.00  0.00     0.018 C 
BRANCH   6   8
HETATM    8  C17 UNL     1      -3.409   0.188  22.059  1.00  0.00     0.134 C 
HETATM    9  O2  UNL     1      -3.077  -0.596  22.900  1.00  0.00    -0.297 OA
BRANCH   8  10
HETATM   10  C18 UNL     1      -2.309   0.721  21.167  1.00  0.00     0.048 C 
HETATM   11  C19 UNL     1      -2.466   2.197  21.016  1.00  0.00     0.017 C 
HETATM   12  C20 UNL     1      -0.954   0.463  21.814  1.00  0.00     0.017 C 
ENDBRANCH   8  10
ENDBRANCH   6   8
ENDBRANCH   2   6
ENDBRANCH   1   2
BRANCH   1  13
HETATM   13  C6  UNL     1      -6.503   0.598  18.429  1.00  0.00     0.003 C 
BRANCH  13  14
HETATM   14  C7  UNL     1      -7.784   0.970  17.908  1.00  0.00    -0.065 C 
HETATM   15  C8  UNL     1      -8.882   1.604  18.726  1.00  0.00     0.048 C 
BRANCH  14  16
HETATM   16  C9  UNL     1      -8.029   0.902  16.578  1.00  0.00    -0.001 C 
BRANCH  16  17
HETATM   17  C10 UNL     1      -9.398   1.005  16.019  1.00  0.00     0.150 C 
BRANCH  17  18
HETATM   18  N1  UNL     1      -9.441   1.521  14.688  1.00  0.00    -0.357 N 
HETATM   19  C11 UNL     1     -10.406   1.092  13.749  1.00  0.00     0.222 C 
HETATM   20  O1  UNL     1     -11.251   0.235  14.090  1.00  0.00    -0.273 OA
ATOM     21  H1  UNL     1      -8.753   2.221  14.407  1.00  0.00     0.162 HD
BRANCH  19  22
HETATM   22  C12 UNL     1     -10.472   1.609  12.363  1.00  0.00     0.078 A 
HETATM   23  C13 UNL     1      -9.628   2.718  11.903  1.00  0.00     0.015 A 
HETATM   24  C14 UNL     1     -11.101   2.974  12.134  1.00  0.00     0.015 A 
ENDBRANCH  19  22
ENDBRANCH  17  18
ENDBRANCH  16  17
ENDBRANCH  14  16
ENDBRANCH  13  14
ENDBRANCH   1  13
TORSDOF 12
ENDMDL
MODEL 4
REMARK VINA RESULT: -8.073664760      1.073      1.330
REMARK  12 active torsions:
REMARK  status: ('A' for Active; 'I' for Inactive)
REMARK    1  A    between atoms: C2_2  and  C3_3 
REMARK    2  A    between atoms: C3_3  and  C4_4 
REMARK    3  A    between atoms: C4_4  and  C5_5 
REMARK    4  A    between atoms: C4_4  and  C15_18 
REMARK    5  A    between atoms: C5_5  and  C6_6 
REMARK    6  A    between atoms: C6_6  and  C7_7 
REMARK    7  A    between atoms: C7_7  and  C9_9 
REMARK    8  A    between atoms: C9_9  and  C10_10 
REMARK    9  A    between atoms: C10_10  and  N1_11 
REMARK       I    between atoms: N1_11  and  C11_13 
REMARK   10  A    between atoms: C11_13  and  C12_15 
REMARK   11  A    between atoms: C15_18  and  C17_20 
REMARK   12  A    between atoms: C17_20  and  C18_22 
ROOT
HETATM    1  C5  UNL     1      -6.114   0.942  19.788  1.00  0.00    -0.021 C 
ENDROOT
BRANCH   1   2
HETATM    2  C4  UNL     1      -4.871   0.267  20.328  1.00  0.00     0.019 C 
BRANCH   2   3
HETATM    3  C3  UNL     1      -4.418   0.977  21.502  1.00  0.00     0.009 C 
BRANCH   3   4
HETATM    4  C2  UNL     1      -3.080   1.346  21.913  1.00  0.00    -0.004 C 
HETATM    5  C1  UNL     1      -2.253   2.178  20.956  1.00  0.00     0.005 C 
ENDBRANCH   3   4
ENDBRANCH   2   3
BRANCH   2   6
HETATM    6  C15 UNL     1      -5.190  -1.218  20.470  1.00  0.00     0.059 C 
HETATM    7  C16 UNL     1      -3.825  -1.985  20.449  1.00  0.00     0.018 C 
BRANCH   6   8
HETATM    8  C17 UNL     1      -5.749  -1.618  21.775  1.00  0.00     0.134 C 
HETATM    9  O2  UNL     1      -6.845  -1.321  22.151  1.00  0.00    -0.297 OA
BRANCH   8  10
HETATM   10  C18 UNL     1      -4.915  -2.447  22.729  1.00  0.00     0.048 C 
HETATM   11  C19 UNL     1      -4.789  -1.727  24.029  1.00  0.00     0.017 C 
HETATM   12  C20 UNL     1      -5.613  -3.774  23.000  1.00  0.00     0.017 C 
ENDBRANCH   8  10
ENDBRANCH   6   8
ENDBRANCH   2   6
ENDBRANCH   1   2
BRANCH   1  13
HETATM   13  C6  UNL     1      -6.703   0.574  18.507  1.00  0.00     0.003 C 
BRANCH  13  14
HETATM   14  C7  UNL     1      -7.935   0.999  17.913  1.00  0.00    -0.065 C 
HETATM   15  C8  UNL     1      -9.039   1.706  18.660  1.00  0.00     0.048 C 
BRANCH  14  16
HETATM   16  C9  UNL     1      -8.115   0.916  16.573  1.00  0.00    -0.001 C 
BRANCH  16  17
HETATM   17  C10 UNL     1      -9.460   0.919  15.953  1.00  0.00     0.150 C 
BRANCH  17  18
HETATM   18  N1  UNL     1      -9.492   1.491  14.645  1.00  0.00    -0.357 N 
HETATM   19  C11 UNL     1     -10.387   1.036  13.650  1.00  0.00     0.222 C 
HETATM   20  O1  UNL     1     -11.178   0.105  13.919  1.00  0.00    -0.273 OA
ATOM     21  H1  UNL     1      -8.850   2.252  14.422  1.00  0.00     0.162 HD
BRANCH  19  22
HETATM   22  C12 UNL     1     -10.440   1.611  12.286  1.00  0.00     0.078 A 
HETATM   23  C13 UNL     1      -9.623   2.764  11.893  1.00  0.00     0.015 A 
HETATM   24  C14 UNL     1     -11.108   2.964  12.101  1.00  0.00     0.015 A 
ENDBRANCH  19  22
ENDBRANCH  17  18
ENDBRANCH  16  17
ENDBRANCH  14  16
ENDBRANCH  13  14
ENDBRANCH   1  13
TORSDOF 12
ENDMDL
MODEL 5
REMARK VINA RESULT: -8.060750570      1.584      2.820
REMARK  12 active torsions:
REMARK  status: ('A' for Active; 'I' for Inactive)
REMARK    1  A    between atoms: C2_2  and  C3_3 
REMARK    2  A    between atoms: C3_3  and  C4_4 
REMARK    3  A    between atoms: C4_4  and  C5_5 
REMARK    4  A    between atoms: C4_4  and  C15_18 
REMARK    5  A    between atoms: C5_5  and  C6_6 
REMARK    6  A    between atoms: C6_6  and  C7_7 
REMARK    7  A    between atoms: C7_7  and  C9_9 
REMARK    8  A    between atoms: C9_9  and  C10_10 
REMARK    9  A    between atoms: C10_10  and  N1_11 
REMARK       I    between atoms: N1_11  and  C11_13 
REMARK   10  A    between atoms: C11_13  and  C12_15 
REMARK   11  A    between atoms: C15_18  and  C17_20 
REMARK   12  A    between atoms: C17_20  and  C18_22 
ROOT
HETATM    1  C5  UNL     1      -6.365   0.272  19.053  1.00  0.00    -0.021 C 
ENDROOT
BRANCH   1   2
HETATM    2  C4  UNL     1      -5.985  -0.440  20.334  1.00  0.00     0.019 C 
BRANCH   2   3
HETATM    3  C3  UNL     1      -5.003  -1.458  20.037  1.00  0.00     0.009 C 
BRANCH   3   4
HETATM    4  C2  UNL     1      -4.877  -2.810  20.540  1.00  0.00    -0.004 C 
HETATM    5  C1  UNL     1      -3.498  -3.435  20.544  1.00  0.00     0.005 C 
ENDBRANCH   3   4
ENDBRANCH   2   3
BRANCH   2   6
HETATM    6  C15 UNL     1      -5.615   0.633  21.353  1.00  0.00     0.059 C 
HETATM    7  C16 UNL     1      -5.900   0.034  22.772  1.00  0.00     0.018 C 
BRANCH   6   8
HETATM    8  C17 UNL     1      -4.178   0.952  21.436  1.00  0.00     0.134 C 
HETATM    9  O2  UNL     1      -3.574   1.534  20.582  1.00  0.00    -0.297 OA
BRANCH   8  10
HETATM   10  C18 UNL     1      -3.381   0.529  22.651  1.00  0.00     0.048 C 
HETATM   11  C19 UNL     1      -2.232  -0.318  22.218  1.00  0.00     0.017 C 
HETATM   12  C20 UNL     1      -2.814   1.760  23.347  1.00  0.00     0.017 C 
ENDBRANCH   8  10
ENDBRANCH   6   8
ENDBRANCH   2   6
ENDBRANCH   1   2
BRANCH   1  13
HETATM   13  C6  UNL     1      -7.504   1.179  18.977  1.00  0.00     0.003 C 
BRANCH  13  14
HETATM   14  C7  UNL     1      -8.484   1.329  17.944  1.00  0.00    -0.065 C 
HETATM   15  C8  UNL     1      -9.802   2.043  18.122  1.00  0.00     0.048 C 
BRANCH  14  16
HETATM   16  C9  UNL     1      -8.205   0.953  16.674  1.00  0.00    -0.001 C 
BRANCH  16  17
HETATM   17  C10 UNL     1      -8.966   1.467  15.511  1.00  0.00     0.150 C 
BRANCH  17  18
HETATM   18  N1  UNL     1      -9.152   0.506  14.472  1.00  0.00    -0.357 N 
HETATM   19  C11 UNL     1     -10.364   0.406  13.752  1.00  0.00     0.222 C 
HETATM   20  O1  UNL     1     -11.306   1.181  14.030  1.00  0.00    -0.273 OA
ATOM     21  H1  UNL     1      -8.386  -0.128  14.241  1.00  0.00     0.162 HD
BRANCH  19  22
HETATM   22  C12 UNL     1     -10.584  -0.583  12.671  1.00  0.00     0.078 A 
HETATM   23  C13 UNL     1      -9.660  -1.697  12.434  1.00  0.00     0.015 A 
HETATM   24  C14 UNL     1      -9.666  -0.539  11.460  1.00  0.00     0.015 A 
ENDBRANCH  19  22
ENDBRANCH  17  18
ENDBRANCH  16  17
ENDBRANCH  14  16
ENDBRANCH  13  14
ENDBRANCH   1  13
TORSDOF 12
ENDMDL
