MODEL 1
REMARK VINA RESULT: -6.920113445      0.000      0.000
REMARK  17 active torsions:
REMARK  status: ('A' for Active; 'I' for Inactive)
REMARK    1  A    between atoms: C2_2  and  O2_4 
REMARK    2  A    between atoms: O2_4  and  C3_5 
REMARK    3  A    between atoms: C3_5  and  C4_6 
REMARK    4  A    between atoms: C5_8  and  O4_9 
REMARK    5  A    between atoms: O4_9  and  C6_10 
REMARK    6  A    between atoms: C6_10  and  C7_11 
REMARK    7  A    between atoms: C7_11  and  O5_12 
REMARK    8  A    between atoms: C7_11  and  C8_14 
REMARK    9  A    between atoms: C8_14  and  O6_15 
REMARK   10  A    between atoms: C8_14  and  C9_17 
REMARK   11  A    between atoms: C9_17  and  C10_18 
REMARK   12  A    between atoms: C13_21  and  O7_22 
REMARK   13  A    between atoms: O7_22  and  C14_23 
REMARK   14  A    between atoms: C16_26  and  O9_27 
REMARK   15  A    between atoms: O9_27  and  C17_28 
REMARK   16  A    between atoms: C19_31  and  O11_32 
REMARK   17  A    between atoms: O11_32  and  C20_33 
ROOT
HETATM    1  C4  UNL     1      -4.305   0.812  12.403  1.00  0.00     0.181 C 
HETATM    2  O3  UNL     1      -3.710   1.317  11.287  1.00  0.00    -0.348 OA
HETATM    3  C5  UNL     1      -2.899   2.416  11.454  1.00  0.00     0.292 C 
HETATM    4  C13 UNL     1      -3.533   3.541  12.216  1.00  0.00     0.219 C 
HETATM    5  C16 UNL     1      -4.537   3.058  13.238  1.00  0.00     0.198 C 
HETATM    6  C19 UNL     1      -4.140   1.656  13.652  1.00  0.00     0.195 C 
ENDROOT
BRANCH   3   7
HETATM    7  O4  UNL     1      -2.570   2.885  10.184  1.00  0.00    -0.356 OA
BRANCH   7   8
HETATM    8  C6  UNL     1      -1.218   2.701   9.903  1.00  0.00     0.205 C 
BRANCH   8   9
HETATM    9  C7  UNL     1      -0.538   4.033   9.607  1.00  0.00     0.170 C 
BRANCH   9  10
HETATM   10  O5  UNL     1      -1.423   5.011   9.267  1.00  0.00    -0.391 OA
ATOM     11  H5  UNL     1      -1.098   5.882   9.460  1.00  0.00     0.210 HD
ENDBRANCH   9  10
BRANCH   9  12
HETATM   12  C8  UNL     1       0.342   4.409  10.765  1.00  0.00     0.149 C 
BRANCH  12  13
HETATM   13  O6  UNL     1       0.193   3.424  11.794  1.00  0.00    -0.393 OA
ATOM     14  H6  UNL     1       0.084   3.868  12.628  1.00  0.00     0.210 HD
ENDBRANCH  12  13
BRANCH  12  15
HETATM   15  C9  UNL     1       1.802   4.484  10.474  1.00  0.00     0.038 C 
BRANCH  15  16
HETATM   16  C10 UNL     1       2.516   5.714  10.919  1.00  0.00    -0.020 C 
HETATM   17  C11 UNL     1       3.647   5.283  11.883  1.00  0.00     0.009 C 
HETATM   18  C12 UNL     1       1.638   6.670  11.695  1.00  0.00     0.009 C 
ENDBRANCH  15  16
ENDBRANCH  12  15
ENDBRANCH   9  12
ENDBRANCH   8   9
ENDBRANCH   7   8
ENDBRANCH   3   7
BRANCH   4  19
HETATM   19  O7  UNL     1      -2.493   4.267  12.845  1.00  0.00    -0.308 OA
BRANCH  19  20
HETATM   20  C14 UNL     1      -2.277   5.616  12.683  1.00  0.00     0.255 C 
HETATM   21  C15 UNL     1      -1.532   6.325  13.757  1.00  0.00     0.126 C 
HETATM   22  O8  UNL     1      -2.713   6.166  11.651  1.00  0.00    -0.266 OA
ENDBRANCH  19  20
ENDBRANCH   4  19
BRANCH   1  23
HETATM   23  C3  UNL     1      -3.958  -0.636  12.666  1.00  0.00     0.213 C 
BRANCH  23  24
HETATM   24  O2  UNL     1      -4.035  -1.432  11.524  1.00  0.00    -0.319 OA
BRANCH  24  25
HETATM   25  C2  UNL     1      -3.086  -2.421  11.321  1.00  0.00     0.254 C 
HETATM   26  C1  UNL     1      -3.471  -3.854  11.106  1.00  0.00     0.126 C 
HETATM   27  O1  UNL     1      -1.877  -2.072  11.324  1.00  0.00    -0.266 OA
ENDBRANCH  24  25
ENDBRANCH  23  24
ENDBRANCH   1  23
BRANCH   5  28
HETATM   28  O9  UNL     1      -4.747   3.928  14.292  1.00  0.00    -0.311 OA
BRANCH  28  29
HETATM   29  C17 UNL     1      -5.639   4.991  14.234  1.00  0.00     0.255 C 
HETATM   30  C18 UNL     1      -5.208   6.288  14.785  1.00  0.00     0.126 C 
HETATM   31  O10 UNL     1      -6.745   4.758  13.714  1.00  0.00    -0.266 OA
ENDBRANCH  28  29
ENDBRANCH   5  28
BRANCH   6  32
HETATM   32  O11 UNL     1      -5.093   1.233  14.614  1.00  0.00    -0.311 OA
BRANCH  32  33
HETATM   33  C20 UNL     1      -4.795   0.993  15.931  1.00  0.00     0.255 C 
HETATM   34  C21 UNL     1      -5.819   0.735  16.978  1.00  0.00     0.126 C 
HETATM   35  O12 UNL     1      -3.586   0.994  16.273  1.00  0.00    -0.266 OA
ENDBRANCH  32  33
ENDBRANCH   6  32
TORSDOF 17
ENDMDL
MODEL 2
REMARK VINA RESULT: -6.895165718      2.843      4.262
REMARK  17 active torsions:
REMARK  status: ('A' for Active; 'I' for Inactive)
REMARK    1  A    between atoms: C2_2  and  O2_4 
REMARK    2  A    between atoms: O2_4  and  C3_5 
REMARK    3  A    between atoms: C3_5  and  C4_6 
REMARK    4  A    between atoms: C5_8  and  O4_9 
REMARK    5  A    between atoms: O4_9  and  C6_10 
REMARK    6  A    between atoms: C6_10  and  C7_11 
REMARK    7  A    between atoms: C7_11  and  O5_12 
REMARK    8  A    between atoms: C7_11  and  C8_14 
REMARK    9  A    between atoms: C8_14  and  O6_15 
REMARK   10  A    between atoms: C8_14  and  C9_17 
REMARK   11  A    between atoms: C9_17  and  C10_18 
REMARK   12  A    between atoms: C13_21  and  O7_22 
REMARK   13  A    between atoms: O7_22  and  C14_23 
REMARK   14  A    between atoms: C16_26  and  O9_27 
REMARK   15  A    between atoms: O9_27  and  C17_28 
REMARK   16  A    between atoms: C19_31  and  O11_32 
REMARK   17  A    between atoms: O11_32  and  C20_33 
ROOT
HETATM    1  C4  UNL     1      -4.609   2.008  12.317  1.00  0.00     0.181 C 
HETATM    2  O3  UNL     1      -4.108   2.596  11.195  1.00  0.00    -0.348 OA
HETATM    3  C5  UNL     1      -3.220   3.633  11.375  1.00  0.00     0.292 C 
HETATM    4  C13 UNL     1      -3.703   4.702  12.309  1.00  0.00     0.219 C 
HETATM    5  C16 UNL     1      -4.618   4.165  13.385  1.00  0.00     0.198 C 
HETATM    6  C19 UNL     1      -4.261   2.711  13.614  1.00  0.00     0.195 C 
ENDROOT
BRANCH   3   7
HETATM    7  O4  UNL     1      -3.002   4.213  10.127  1.00  0.00    -0.356 OA
BRANCH   7   8
HETATM    8  C6  UNL     1      -4.055   5.048   9.759  1.00  0.00     0.205 C 
BRANCH   8   9
HETATM    9  C7  UNL     1      -3.865   5.567   8.338  1.00  0.00     0.170 C 
BRANCH   9  10
HETATM   10  O5  UNL     1      -3.570   4.576   7.452  1.00  0.00    -0.391 OA
ATOM     11  H5  UNL     1      -4.203   4.515   6.746  1.00  0.00     0.210 HD
ENDBRANCH   9  10
BRANCH   9  12
HETATM   12  C8  UNL     1      -5.066   6.377   7.940  1.00  0.00     0.149 C 
BRANCH  12  13
HETATM   13  O6  UNL     1      -5.677   5.762   6.800  1.00  0.00    -0.393 OA
ATOM     14  H6  UNL     1      -5.510   6.302   6.036  1.00  0.00     0.210 HD
ENDBRANCH  12  13
BRANCH  12  15
HETATM   15  C9  UNL     1      -6.138   6.497   8.968  1.00  0.00     0.038 C 
BRANCH  15  16
HETATM   16  C10 UNL     1      -6.816   7.819   9.084  1.00  0.00    -0.020 C 
HETATM   17  C11 UNL     1      -7.027   8.113  10.589  1.00  0.00     0.009 C 
HETATM   18  C12 UNL     1      -8.189   7.846   8.450  1.00  0.00     0.009 C 
ENDBRANCH  15  16
ENDBRANCH  12  15
ENDBRANCH   9  12
ENDBRANCH   8   9
ENDBRANCH   7   8
ENDBRANCH   3   7
BRANCH   4  19
HETATM   19  O7  UNL     1      -2.561   5.309  12.884  1.00  0.00    -0.308 OA
BRANCH  19  20
HETATM   20  C14 UNL     1      -2.173   6.610  12.657  1.00  0.00     0.255 C 
HETATM   21  C15 UNL     1      -3.227   7.581  12.261  1.00  0.00     0.126 C 
HETATM   22  O8  UNL     1      -0.967   6.902  12.796  1.00  0.00    -0.266 OA
ENDBRANCH  19  20
ENDBRANCH   4  19
BRANCH   1  23
HETATM   23  C3  UNL     1      -4.320   0.526  12.397  1.00  0.00     0.213 C 
BRANCH  23  24
HETATM   24  O2  UNL     1      -3.112   0.171  11.797  1.00  0.00    -0.319 OA
BRANCH  24  25
HETATM   25  C2  UNL     1      -3.102  -0.822  10.831  1.00  0.00     0.254 C 
HETATM   26  C1  UNL     1      -2.878  -2.262  11.180  1.00  0.00     0.126 C 
HETATM   27  O1  UNL     1      -3.288  -0.469   9.637  1.00  0.00    -0.266 OA
ENDBRANCH  24  25
ENDBRANCH  23  24
ENDBRANCH   1  23
BRANCH   5  28
HETATM   28  O9  UNL     1      -4.663   4.931  14.535  1.00  0.00    -0.311 OA
BRANCH  28  29
HETATM   29  C17 UNL     1      -5.480   6.046  14.674  1.00  0.00     0.255 C 
HETATM   30  C18 UNL     1      -6.627   6.183  13.758  1.00  0.00     0.126 C 
HETATM   31  O10 UNL     1      -5.174   6.848  15.573  1.00  0.00    -0.266 OA
ENDBRANCH  28  29
ENDBRANCH   5  28
BRANCH   6  32
HETATM   32  O11 UNL     1      -5.130   2.238  14.632  1.00  0.00    -0.311 OA
BRANCH  32  33
HETATM   33  C20 UNL     1      -4.697   1.651  15.794  1.00  0.00     0.255 C 
HETATM   34  C21 UNL     1      -5.607   1.164  16.864  1.00  0.00     0.126 C 
HETATM   35  O12 UNL     1      -3.459   1.520  15.964  1.00  0.00    -0.266 OA
ENDBRANCH  32  33
ENDBRANCH   6  32
TORSDOF 17
ENDMDL
MODEL 3
REMARK VINA RESULT: -6.866377668      0.826      1.096
REMARK  17 active torsions:
REMARK  status: ('A' for Active; 'I' for Inactive)
REMARK    1  A    between atoms: C2_2  and  O2_4 
REMARK    2  A    between atoms: O2_4  and  C3_5 
REMARK    3  A    between atoms: C3_5  and  C4_6 
REMARK    4  A    between atoms: C5_8  and  O4_9 
REMARK    5  A    between atoms: O4_9  and  C6_10 
REMARK    6  A    between atoms: C6_10  and  C7_11 
REMARK    7  A    between atoms: C7_11  and  O5_12 
REMARK    8  A    between atoms: C7_11  and  C8_14 
REMARK    9  A    between atoms: C8_14  and  O6_15 
REMARK   10  A    between atoms: C8_14  and  C9_17 
REMARK   11  A    between atoms: C9_17  and  C10_18 
REMARK   12  A    between atoms: C13_21  and  O7_22 
REMARK   13  A    between atoms: O7_22  and  C14_23 
REMARK   14  A    between atoms: C16_26  and  O9_27 
REMARK   15  A    between atoms: O9_27  and  C17_28 
REMARK   16  A    between atoms: C19_31  and  O11_32 
REMARK   17  A    between atoms: O11_32  and  C20_33 
ROOT
HETATM    1  C4  UNL     1      -4.309   0.767  12.394  1.00  0.00     0.181 C 
HETATM    2  O3  UNL     1      -3.719   1.257  11.268  1.00  0.00    -0.348 OA
HETATM    3  C5  UNL     1      -2.893   2.349  11.420  1.00  0.00     0.292 C 
HETATM    4  C13 UNL     1      -3.507   3.486  12.181  1.00  0.00     0.219 C 
HETATM    5  C16 UNL     1      -4.506   3.021  13.215  1.00  0.00     0.198 C 
HETATM    6  C19 UNL     1      -4.120   1.617  13.635  1.00  0.00     0.195 C 
ENDROOT
BRANCH   3   7
HETATM    7  O4  UNL     1      -2.572   2.806  10.143  1.00  0.00    -0.356 OA
BRANCH   7   8
HETATM    8  C6  UNL     1      -1.222   2.617   9.856  1.00  0.00     0.205 C 
BRANCH   8   9
HETATM    9  C7  UNL     1      -0.595   3.901   9.324  1.00  0.00     0.170 C 
BRANCH   9  10
HETATM   10  O5  UNL     1      -1.521   4.856   9.031  1.00  0.00    -0.391 OA
ATOM     11  H5  UNL     1      -1.931   4.720   8.185  1.00  0.00     0.210 HD
ENDBRANCH   9  10
BRANCH   9  12
HETATM   12  C8  UNL     1       0.459   4.375  10.285  1.00  0.00     0.149 C 
BRANCH  12  13
HETATM   13  O6  UNL     1       0.271   3.706  11.538  1.00  0.00    -0.393 OA
ATOM     14  H6  UNL     1       0.718   2.868  11.506  1.00  0.00     0.210 HD
ENDBRANCH  12  13
BRANCH  12  15
HETATM   15  C9  UNL     1       1.869   4.111   9.884  1.00  0.00     0.038 C 
BRANCH  15  16
HETATM   16  C10 UNL     1       2.219   4.342   8.454  1.00  0.00    -0.020 C 
HETATM   17  C11 UNL     1       3.599   3.693   8.193  1.00  0.00     0.009 C 
HETATM   18  C12 UNL     1       2.364   5.806   8.101  1.00  0.00     0.009 C 
ENDBRANCH  15  16
ENDBRANCH  12  15
ENDBRANCH   9  12
ENDBRANCH   8   9
ENDBRANCH   7   8
ENDBRANCH   3   7
BRANCH   4  19
HETATM   19  O7  UNL     1      -2.453   4.203  12.794  1.00  0.00    -0.308 OA
BRANCH  19  20
HETATM   20  C14 UNL     1      -2.208   5.544  12.601  1.00  0.00     0.255 C 
HETATM   21  C15 UNL     1      -1.611   6.302  13.733  1.00  0.00     0.126 C 
HETATM   22  O8  UNL     1      -2.496   6.046  11.495  1.00  0.00    -0.266 OA
ENDBRANCH  19  20
ENDBRANCH   4  19
BRANCH   1  23
HETATM   23  C3  UNL     1      -3.975  -0.683  12.662  1.00  0.00     0.213 C 
BRANCH  23  24
HETATM   24  O2  UNL     1      -4.044  -1.480  11.520  1.00  0.00    -0.319 OA
BRANCH  24  25
HETATM   25  C2  UNL     1      -3.089  -2.465  11.322  1.00  0.00     0.254 C 
HETATM   26  C1  UNL     1      -3.467  -3.896  11.086  1.00  0.00     0.126 C 
HETATM   27  O1  UNL     1      -1.882  -2.112  11.346  1.00  0.00    -0.266 OA
ENDBRANCH  24  25
ENDBRANCH  23  24
ENDBRANCH   1  23
BRANCH   5  28
HETATM   28  O9  UNL     1      -4.696   3.900  14.266  1.00  0.00    -0.311 OA
BRANCH  28  29
HETATM   29  C17 UNL     1      -5.618   4.938  14.231  1.00  0.00     0.255 C 
HETATM   30  C18 UNL     1      -5.200   6.253  14.749  1.00  0.00     0.126 C 
HETATM   31  O10 UNL     1      -6.736   4.670  13.759  1.00  0.00    -0.266 OA
ENDBRANCH  28  29
ENDBRANCH   5  28
BRANCH   6  32
HETATM   32  O11 UNL     1      -5.069   1.212  14.610  1.00  0.00    -0.311 OA
BRANCH  32  33
HETATM   33  C20 UNL     1      -4.768   1.010  15.932  1.00  0.00     0.255 C 
HETATM   34  C21 UNL     1      -5.788   0.781  16.988  1.00  0.00     0.126 C 
HETATM   35  O12 UNL     1      -3.557   1.021  16.270  1.00  0.00    -0.266 OA
ENDBRANCH  32  33
ENDBRANCH   6  32
TORSDOF 17
ENDMDL
MODEL 4
REMARK VINA RESULT: -6.800090109      3.452      6.432
REMARK  17 active torsions:
REMARK  status: ('A' for Active; 'I' for Inactive)
REMARK    1  A    between atoms: C2_2  and  O2_4 
REMARK    2  A    between atoms: O2_4  and  C3_5 
REMARK    3  A    between atoms: C3_5  and  C4_6 
REMARK    4  A    between atoms: C5_8  and  O4_9 
REMARK    5  A    between atoms: O4_9  and  C6_10 
REMARK    6  A    between atoms: C6_10  and  C7_11 
REMARK    7  A    between atoms: C7_11  and  O5_12 
REMARK    8  A    between atoms: C7_11  and  C8_14 
REMARK    9  A    between atoms: C8_14  and  O6_15 
REMARK   10  A    between atoms: C8_14  and  C9_17 
REMARK   11  A    between atoms: C9_17  and  C10_18 
REMARK   12  A    between atoms: C13_21  and  O7_22 
REMARK   13  A    between atoms: O7_22  and  C14_23 
REMARK   14  A    between atoms: C16_26  and  O9_27 
REMARK   15  A    between atoms: O9_27  and  C17_28 
REMARK   16  A    between atoms: C19_31  and  O11_32 
REMARK   17  A    between atoms: O11_32  and  C20_33 
ROOT
HETATM    1  C4  UNL     1      -3.692   3.135  13.007  1.00  0.00     0.181 C 
HETATM    2  O3  UNL     1      -3.963   4.469  13.023  1.00  0.00    -0.348 OA
HETATM    3  C5  UNL     1      -4.213   5.070  11.809  1.00  0.00     0.292 C 
HETATM    4  C13 UNL     1      -3.177   4.797  10.761  1.00  0.00     0.219 C 
HETATM    5  C16 UNL     1      -2.526   3.443  10.925  1.00  0.00     0.198 C 
HETATM    6  C19 UNL     1      -3.514   2.535  11.626  1.00  0.00     0.195 C 
ENDROOT
BRANCH   3   7
HETATM    7  O4  UNL     1      -4.256   6.445  12.029  1.00  0.00    -0.356 OA
BRANCH   7   8
HETATM    8  C6  UNL     1      -5.541   6.953  11.852  1.00  0.00     0.205 C 
BRANCH   8   9
HETATM    9  C7  UNL     1      -5.540   8.094  10.841  1.00  0.00     0.170 C 
BRANCH   9  10
HETATM   10  O5  UNL     1      -4.291   8.581  10.599  1.00  0.00    -0.391 OA
ATOM     11  H5  UNL     1      -4.230   9.035   9.768  1.00  0.00     0.210 HD
ENDBRANCH   9  10
BRANCH   9  12
HETATM   12  C8  UNL     1      -6.253   7.653   9.594  1.00  0.00     0.149 C 
BRANCH  12  13
HETATM   13  O6  UNL     1      -6.514   6.248   9.687  1.00  0.00    -0.393 OA
ATOM     14  H6  UNL     1      -7.454   6.115   9.733  1.00  0.00     0.210 HD
ENDBRANCH  12  13
BRANCH  12  15
HETATM   15  C9  UNL     1      -7.571   8.301   9.336  1.00  0.00     0.038 C 
BRANCH  15  16
HETATM   16  C10 UNL     1      -8.082   8.257   7.938  1.00  0.00    -0.020 C 
HETATM   17  C11 UNL     1      -6.882   8.489   6.987  1.00  0.00     0.009 C 
HETATM   18  C12 UNL     1      -9.084   9.347   7.631  1.00  0.00     0.009 C 
ENDBRANCH  15  16
ENDBRANCH  12  15
ENDBRANCH   9  12
ENDBRANCH   8   9
ENDBRANCH   7   8
ENDBRANCH   3   7
BRANCH   4  19
HETATM   19  O7  UNL     1      -3.813   4.894   9.500  1.00  0.00    -0.308 OA
BRANCH  19  20
HETATM   20  C14 UNL     1      -3.407   5.730   8.485  1.00  0.00     0.255 C 
HETATM   21  C15 UNL     1      -3.643   5.279   7.088  1.00  0.00     0.126 C 
HETATM   22  O8  UNL     1      -2.868   6.814   8.790  1.00  0.00    -0.266 OA
ENDBRANCH  19  20
ENDBRANCH   4  19
BRANCH   1  23
HETATM   23  C3  UNL     1      -4.651   2.318  13.844  1.00  0.00     0.213 C 
BRANCH  23  24
HETATM   24  O2  UNL     1      -4.024   1.645  14.893  1.00  0.00    -0.319 OA
BRANCH  24  25
HETATM   25  C2  UNL     1      -4.759   0.758  15.664  1.00  0.00     0.254 C 
HETATM   26  C1  UNL     1      -5.529   1.209  16.869  1.00  0.00     0.126 C 
HETATM   27  O1  UNL     1      -4.757  -0.451  15.315  1.00  0.00    -0.266 OA
ENDBRANCH  24  25
ENDBRANCH  23  24
ENDBRANCH   1  23
BRANCH   5  28
HETATM   28  O9  UNL     1      -1.992   2.918   9.762  1.00  0.00    -0.311 OA
BRANCH  28  29
HETATM   29  C17 UNL     1      -0.793   3.352   9.212  1.00  0.00     0.255 C 
HETATM   30  C18 UNL     1       0.304   3.702  10.133  1.00  0.00     0.126 C 
HETATM   31  O10 UNL     1      -0.741   3.412   7.971  1.00  0.00    -0.266 OA
ENDBRANCH  28  29
ENDBRANCH   5  28
BRANCH   6  32
HETATM   32  O11 UNL     1      -2.880   1.272  11.759  1.00  0.00    -0.311 OA
BRANCH  32  33
HETATM   33  C20 UNL     1      -3.339   0.121  11.172  1.00  0.00     0.255 C 
HETATM   34  C21 UNL     1      -4.156  -0.900  11.879  1.00  0.00     0.126 C 
HETATM   35  O12 UNL     1      -3.048  -0.084   9.966  1.00  0.00    -0.266 OA
ENDBRANCH  32  33
ENDBRANCH   6  32
TORSDOF 17
ENDMDL
MODEL 5
REMARK VINA RESULT: -6.736901273      2.442      3.800
REMARK  17 active torsions:
REMARK  status: ('A' for Active; 'I' for Inactive)
REMARK    1  A    between atoms: C2_2  and  O2_4 
REMARK    2  A    between atoms: O2_4  and  C3_5 
REMARK    3  A    between atoms: C3_5  and  C4_6 
REMARK    4  A    between atoms: C5_8  and  O4_9 
REMARK    5  A    between atoms: O4_9  and  C6_10 
REMARK    6  A    between atoms: C6_10  and  C7_11 
REMARK    7  A    between atoms: C7_11  and  O5_12 
REMARK    8  A    between atoms: C7_11  and  C8_14 
REMARK    9  A    between atoms: C8_14  and  O6_15 
REMARK   10  A    between atoms: C8_14  and  C9_17 
REMARK   11  A    between atoms: C9_17  and  C10_18 
REMARK   12  A    between atoms: C13_21  and  O7_22 
REMARK   13  A    between atoms: O7_22  and  C14_23 
REMARK   14  A    between atoms: C16_26  and  O9_27 
REMARK   15  A    between atoms: O9_27  and  C17_28 
REMARK   16  A    between atoms: C19_31  and  O11_32 
REMARK   17  A    between atoms: O11_32  and  C20_33 
ROOT
HETATM    1  C4  UNL     1      -4.559   2.571  11.452  1.00  0.00     0.181 C 
HETATM    2  O3  UNL     1      -3.830   3.077  10.419  1.00  0.00    -0.348 OA
HETATM    3  C5  UNL     1      -2.654   3.718  10.738  1.00  0.00     0.292 C 
HETATM    4  C13 UNL     1      -2.793   4.771  11.796  1.00  0.00     0.219 C 
HETATM    5  C16 UNL     1      -3.892   4.460  12.786  1.00  0.00     0.198 C 
HETATM    6  C19 UNL     1      -4.063   2.956  12.832  1.00  0.00     0.195 C 
ENDROOT
BRANCH   3   7
HETATM    7  O4  UNL     1      -2.186   4.329   9.577  1.00  0.00    -0.356 OA
BRANCH   7   8
HETATM    8  C6  UNL     1      -2.715   5.608   9.421  1.00  0.00     0.205 C 
BRANCH   8   9
HETATM    9  C7  UNL     1      -3.631   5.674   8.205  1.00  0.00     0.170 C 
BRANCH   9  10
HETATM   10  O5  UNL     1      -3.711   4.486   7.542  1.00  0.00    -0.391 OA
ATOM     11  H5  UNL     1      -2.857   4.116   7.351  1.00  0.00     0.210 HD
ENDBRANCH   9  10
BRANCH   9  12
HETATM   12  C8  UNL     1      -4.972   6.209   8.621  1.00  0.00     0.149 C 
BRANCH  12  13
HETATM   13  O6  UNL     1      -5.537   5.324   9.595  1.00  0.00    -0.393 OA
ATOM     14  H6  UNL     1      -5.891   4.564   9.147  1.00  0.00     0.210 HD
ENDBRANCH  12  13
BRANCH  12  15
HETATM   15  C9  UNL     1      -4.966   7.561   9.247  1.00  0.00     0.038 C 
BRANCH  15  16
HETATM   16  C10 UNL     1      -5.276   7.632  10.702  1.00  0.00    -0.020 C 
HETATM   17  C11 UNL     1      -6.539   8.510  10.875  1.00  0.00     0.009 C 
HETATM   18  C12 UNL     1      -4.186   8.292  11.517  1.00  0.00     0.009 C 
ENDBRANCH  15  16
ENDBRANCH  12  15
ENDBRANCH   9  12
ENDBRANCH   8   9
ENDBRANCH   7   8
ENDBRANCH   3   7
BRANCH   4  19
HETATM   19  O7  UNL     1      -1.545   4.878  12.454  1.00  0.00    -0.308 OA
BRANCH  19  20
HETATM   20  C14 UNL     1      -0.731   5.987  12.405  1.00  0.00     0.255 C 
HETATM   21  C15 UNL     1       0.475   5.915  11.539  1.00  0.00     0.126 C 
HETATM   22  O8  UNL     1      -1.048   6.986  13.084  1.00  0.00    -0.266 OA
ENDBRANCH  19  20
ENDBRANCH   4  19
BRANCH   1  23
HETATM   23  C3  UNL     1      -4.796   1.081  11.347  1.00  0.00     0.213 C 
BRANCH  23  24
HETATM   24  O2  UNL     1      -3.726   0.323  11.821  1.00  0.00    -0.319 OA
BRANCH  24  25
HETATM   25  C2  UNL     1      -3.025  -0.486  10.941  1.00  0.00     0.254 C 
HETATM   26  C1  UNL     1      -2.904  -1.965  11.154  1.00  0.00     0.126 C 
HETATM   27  O1  UNL     1      -2.490   0.069   9.946  1.00  0.00    -0.266 OA
ENDBRANCH  24  25
ENDBRANCH  23  24
ENDBRANCH   1  23
BRANCH   5  28
HETATM   28  O9  UNL     1      -3.734   5.057  14.024  1.00  0.00    -0.311 OA
BRANCH  28  29
HETATM   29  C17 UNL     1      -4.487   6.146  14.443  1.00  0.00     0.255 C 
HETATM   30  C18 UNL     1      -5.956   6.019  14.433  1.00  0.00     0.126 C 
HETATM   31  O10 UNL     1      -3.852   7.154  14.799  1.00  0.00    -0.266 OA
ENDBRANCH  28  29
ENDBRANCH   5  28
BRANCH   6  32
HETATM   32  O11 UNL     1      -5.092   2.695  13.773  1.00  0.00    -0.311 OA
BRANCH  32  33
HETATM   33  C20 UNL     1      -4.868   2.214  15.038  1.00  0.00     0.255 C 
HETATM   34  C21 UNL     1      -5.942   1.990  16.041  1.00  0.00     0.126 C 
HETATM   35  O12 UNL     1      -3.685   1.950  15.368  1.00  0.00    -0.266 OA
ENDBRANCH  32  33
ENDBRANCH   6  32
TORSDOF 17
ENDMDL
