MODEL 1
REMARK VINA RESULT: -6.623480170      0.000      0.000
REMARK  15 active torsions:
REMARK  status: ('A' for Active; 'I' for Inactive)
REMARK    1  A    between atoms: O1_2  and  C2_3 
REMARK    2  A    between atoms: C2_3  and  O2_4 
REMARK    3  A    between atoms: O2_4  and  C3_5 
REMARK    4  A    between atoms: C3_5  and  C4_6 
REMARK    5  A    between atoms: C3_5  and  O4_13 
REMARK    6  A    between atoms: C4_6  and  C5_7 
REMARK    7  A    between atoms: C5_7  and  C6_9 
REMARK    8  A    between atoms: O4_13  and  C10_14 
REMARK    9  A    between atoms: C11_15  and  O5_16 
REMARK   10  A    between atoms: C15_23  and  O8_24 
REMARK   11  A    between atoms: O8_24  and  C16_25 
REMARK   12  A    between atoms: C18_28  and  O10_29 
REMARK   13  A    between atoms: O10_29  and  C19_30 
REMARK   14  A    between atoms: C19_30  and  C20_31 
REMARK   15  A    between atoms: C20_31  and  S1_32 
ROOT
HETATM    1  C10 UNL     1      -2.845   4.800  11.682  1.00  0.00     0.187 C 
HETATM    2  C11 UNL     1      -1.468   4.499  12.179  1.00  0.00     0.181 C 
HETATM    3  C12 UNL     1      -0.655   3.514  11.429  1.00  0.00     0.187 C 
HETATM    4  O6  UNL     1       0.038   4.182  10.422  1.00  0.00    -0.356 OA
HETATM    5  C13 UNL     1       0.048   3.312   9.334  1.00  0.00     0.339 C 
HETATM    6  O7  UNL     1      -1.081   2.553   9.408  1.00  0.00    -0.356 OA
HETATM    7  C14 UNL     1      -1.338   2.409  10.752  1.00  0.00     0.188 C 
HETATM    8  C15 UNL     1      -2.832   2.356  11.032  1.00  0.00     0.195 C 
HETATM    9  C18 UNL     1      -3.444   3.728  10.821  1.00  0.00     0.185 C 
ENDROOT
BRANCH   1  10
HETATM   10  O4  UNL     1      -3.621   4.992  12.830  1.00  0.00    -0.350 OA
BRANCH  10  11
HETATM   11  C3  UNL     1      -4.340   6.258  12.760  1.00  0.00     0.270 C 
BRANCH  11  12
HETATM   12  O2  UNL     1      -5.629   5.904  12.954  1.00  0.00    -0.337 OA
BRANCH  12  13
HETATM   13  C2  UNL     1      -6.028   5.342  14.115  1.00  0.00     0.340 C 
BRANCH  13  14
HETATM   14  O1  UNL     1      -6.510   4.069  14.004  1.00  0.00    -0.372 OA
HETATM   15  C1  UNL     1      -5.985   3.188  14.923  1.00  0.00     0.204 C 
ENDBRANCH  13  14
ENDBRANCH  12  13
ENDBRANCH  11  12
BRANCH  11  16
HETATM   16  C4  UNL     1      -3.799   7.144  13.802  1.00  0.00     0.140 C 
BRANCH  16  17
HETATM   17  C5  UNL     1      -2.923   8.242  13.364  1.00  0.00     0.139 C 
HETATM   18  O3  UNL     1      -2.828   8.604  12.233  1.00  0.00    -0.297 OA
BRANCH  17  19
HETATM   19  C6  UNL     1      -2.076   8.982  14.373  1.00  0.00     0.010 C 
HETATM   20  C7  UNL     1      -0.772   8.244  14.514  1.00  0.00     0.022 C 
HETATM   21  C8  UNL     1      -2.753   8.909  15.749  1.00  0.00     0.022 C 
HETATM   22  C9  UNL     1      -1.918  10.428  14.034  1.00  0.00     0.022 C 
ENDBRANCH  17  19
ENDBRANCH  16  17
ENDBRANCH  11  16
ENDBRANCH  10  11
ENDBRANCH   1  10
BRANCH   2  23
HETATM   23  O5  UNL     1      -1.458   4.218  13.576  1.00  0.00    -0.390 OA
ATOM     24  H5  UNL     1      -1.087   4.935  14.078  1.00  0.00     0.210 HD
ENDBRANCH   2  23
BRANCH   9  25
HETATM   25  O10 UNL     1      -3.181   4.103   9.474  1.00  0.00    -0.380 OA
BRANCH  25  26
HETATM   26  C19 UNL     1      -3.193   5.465   9.293  1.00  0.00     0.178 C 
BRANCH  26  27
HETATM   27  C20 UNL     1      -4.306   5.900   8.372  1.00  0.00     0.099 C 
BRANCH  27  28
HETATM   28  S1  UNL     1      -5.732   6.584   9.239  1.00  0.00    -0.171 SA
HETATM   29  C21 UNL     1      -7.190   6.363   8.177  1.00  0.00     0.089 C 
ENDBRANCH  27  28
ENDBRANCH  26  27
ENDBRANCH  25  26
ENDBRANCH   9  25
BRANCH   8  30
HETATM   30  O8  UNL     1      -3.204   1.687  12.175  1.00  0.00    -0.311 OA
BRANCH  30  31
HETATM   31  C16 UNL     1      -4.055   0.603  12.219  1.00  0.00     0.255 C 
HETATM   32  C17 UNL     1      -4.513  -0.185  11.074  1.00  0.00     0.126 C 
HETATM   33  O9  UNL     1      -4.454   0.296  13.373  1.00  0.00    -0.266 OA
ENDBRANCH  30  31
ENDBRANCH   8  30
TORSDOF 15
ENDMDL
MODEL 2
REMARK VINA RESULT: -6.589030729      2.168      3.005
REMARK  15 active torsions:
REMARK  status: ('A' for Active; 'I' for Inactive)
REMARK    1  A    between atoms: O1_2  and  C2_3 
REMARK    2  A    between atoms: C2_3  and  O2_4 
REMARK    3  A    between atoms: O2_4  and  C3_5 
REMARK    4  A    between atoms: C3_5  and  C4_6 
REMARK    5  A    between atoms: C3_5  and  O4_13 
REMARK    6  A    between atoms: C4_6  and  C5_7 
REMARK    7  A    between atoms: C5_7  and  C6_9 
REMARK    8  A    between atoms: O4_13  and  C10_14 
REMARK    9  A    between atoms: C11_15  and  O5_16 
REMARK   10  A    between atoms: C15_23  and  O8_24 
REMARK   11  A    between atoms: O8_24  and  C16_25 
REMARK   12  A    between atoms: C18_28  and  O10_29 
REMARK   13  A    between atoms: O10_29  and  C19_30 
REMARK   14  A    between atoms: C19_30  and  C20_31 
REMARK   15  A    between atoms: C20_31  and  S1_32 
ROOT
HETATM    1  C10 UNL     1      -2.343   5.145  11.640  1.00  0.00     0.187 C 
HETATM    2  C11 UNL     1      -1.095   4.493  12.143  1.00  0.00     0.181 C 
HETATM    3  C12 UNL     1      -0.426   3.501  11.271  1.00  0.00     0.187 C 
HETATM    4  O6  UNL     1       0.464   4.171  10.435  1.00  0.00    -0.356 OA
HETATM    5  C13 UNL     1       0.399   3.509   9.212  1.00  0.00     0.339 C 
HETATM    6  O7  UNL     1      -0.857   2.993   9.093  1.00  0.00    -0.356 OA
HETATM    7  C14 UNL     1      -1.248   2.685  10.375  1.00  0.00     0.188 C 
HETATM    8  C15 UNL     1      -2.743   2.890  10.567  1.00  0.00     0.195 C 
HETATM    9  C18 UNL     1      -3.061   4.374  10.574  1.00  0.00     0.185 C 
ENDROOT
BRANCH   1  10
HETATM   10  O4  UNL     1      -3.162   5.299  12.764  1.00  0.00    -0.350 OA
BRANCH  10  11
HETATM   11  C3  UNL     1      -4.566   5.337  12.378  1.00  0.00     0.270 C 
BRANCH  11  12
HETATM   12  O2  UNL     1      -5.137   4.394  13.159  1.00  0.00    -0.337 OA
BRANCH  12  13
HETATM   13  C2  UNL     1      -4.671   4.146  14.402  1.00  0.00     0.340 C 
BRANCH  13  14
HETATM   14  O1  UNL     1      -3.943   2.996  14.526  1.00  0.00    -0.372 OA
HETATM   15  C1  UNL     1      -4.653   1.937  15.045  1.00  0.00     0.204 C 
ENDBRANCH  13  14
ENDBRANCH  12  13
ENDBRANCH  11  12
BRANCH  11  16
HETATM   16  C4  UNL     1      -5.066   6.698  12.621  1.00  0.00     0.140 C 
BRANCH  16  17
HETATM   17  C5  UNL     1      -5.019   7.644  11.494  1.00  0.00     0.139 C 
HETATM   18  O3  UNL     1      -4.009   8.050  11.011  1.00  0.00    -0.297 OA
BRANCH  17  19
HETATM   19  C6  UNL     1      -6.302   8.156  10.883  1.00  0.00     0.010 C 
HETATM   20  C7  UNL     1      -7.429   7.826  11.825  1.00  0.00     0.022 C 
HETATM   21  C8  UNL     1      -6.591   7.379   9.592  1.00  0.00     0.022 C 
HETATM   22  C9  UNL     1      -6.223   9.604  10.521  1.00  0.00     0.022 C 
ENDBRANCH  17  19
ENDBRANCH  16  17
ENDBRANCH  11  16
ENDBRANCH  10  11
ENDBRANCH   1  10
BRANCH   2  23
HETATM   23  O5  UNL     1      -1.256   3.990  13.467  1.00  0.00    -0.390 OA
ATOM     24  H5  UNL     1      -0.782   3.177  13.597  1.00  0.00     0.210 HD
ENDBRANCH   2  23
BRANCH   9  25
HETATM   25  O10 UNL     1      -2.619   4.904   9.330  1.00  0.00    -0.380 OA
BRANCH  25  26
HETATM   26  C19 UNL     1      -3.654   5.381   8.562  1.00  0.00     0.178 C 
BRANCH  26  27
HETATM   27  C20 UNL     1      -3.373   5.234   7.086  1.00  0.00     0.099 C 
BRANCH  27  28
HETATM   28  S1  UNL     1      -1.652   5.546   6.647  1.00  0.00    -0.171 SA
HETATM   29  C21 UNL     1      -1.516   5.467   4.836  1.00  0.00     0.089 C 
ENDBRANCH  27  28
ENDBRANCH  26  27
ENDBRANCH  25  26
ENDBRANCH   9  25
BRANCH   8  30
HETATM   30  O8  UNL     1      -3.331   2.132  11.553  1.00  0.00    -0.311 OA
BRANCH  30  31
HETATM   31  C16 UNL     1      -4.384   1.263  11.363  1.00  0.00     0.255 C 
HETATM   32  C17 UNL     1      -4.325  -0.198  11.435  1.00  0.00     0.126 C 
HETATM   33  O9  UNL     1      -5.484   1.819  11.105  1.00  0.00    -0.266 OA
ENDBRANCH  30  31
ENDBRANCH   8  30
TORSDOF 15
ENDMDL
MODEL 3
REMARK VINA RESULT: -6.563066450      1.980      2.612
REMARK  15 active torsions:
REMARK  status: ('A' for Active; 'I' for Inactive)
REMARK    1  A    between atoms: O1_2  and  C2_3 
REMARK    2  A    between atoms: C2_3  and  O2_4 
REMARK    3  A    between atoms: O2_4  and  C3_5 
REMARK    4  A    between atoms: C3_5  and  C4_6 
REMARK    5  A    between atoms: C3_5  and  O4_13 
REMARK    6  A    between atoms: C4_6  and  C5_7 
REMARK    7  A    between atoms: C5_7  and  C6_9 
REMARK    8  A    between atoms: O4_13  and  C10_14 
REMARK    9  A    between atoms: C11_15  and  O5_16 
REMARK   10  A    between atoms: C15_23  and  O8_24 
REMARK   11  A    between atoms: O8_24  and  C16_25 
REMARK   12  A    between atoms: C18_28  and  O10_29 
REMARK   13  A    between atoms: O10_29  and  C19_30 
REMARK   14  A    between atoms: C19_30  and  C20_31 
REMARK   15  A    between atoms: C20_31  and  S1_32 
ROOT
HETATM    1  C10 UNL     1      -2.937   4.640  11.795  1.00  0.00     0.187 C 
HETATM    2  C11 UNL     1      -1.548   4.373  12.280  1.00  0.00     0.181 C 
HETATM    3  C12 UNL     1      -0.706   3.434  11.502  1.00  0.00     0.187 C 
HETATM    4  O6  UNL     1      -0.041   4.150  10.510  1.00  0.00    -0.356 OA
HETATM    5  C13 UNL     1      -0.007   3.309   9.400  1.00  0.00     0.339 C 
HETATM    6  O7  UNL     1      -1.110   2.511   9.459  1.00  0.00    -0.356 OA
HETATM    7  C14 UNL     1      -1.355   2.325  10.799  1.00  0.00     0.188 C 
HETATM    8  C15 UNL     1      -2.846   2.215  11.083  1.00  0.00     0.195 C 
HETATM    9  C18 UNL     1      -3.504   3.571  10.910  1.00  0.00     0.185 C 
ENDROOT
BRANCH   1  10
HETATM   10  O4  UNL     1      -3.713   4.778  12.951  1.00  0.00    -0.350 OA
BRANCH  10  11
HETATM   11  C3  UNL     1      -5.089   5.116  12.610  1.00  0.00     0.270 C 
BRANCH  11  12
HETATM   12  O2  UNL     1      -5.822   4.270  13.366  1.00  0.00    -0.337 OA
BRANCH  12  13
HETATM   13  C2  UNL     1      -5.250   3.542  14.347  1.00  0.00     0.340 C 
BRANCH  13  14
HETATM   14  O1  UNL     1      -6.123   3.001  15.249  1.00  0.00    -0.372 OA
HETATM   15  C1  UNL     1      -5.590   1.981  16.004  1.00  0.00     0.204 C 
ENDBRANCH  13  14
ENDBRANCH  12  13
ENDBRANCH  11  12
BRANCH  11  16
HETATM   16  C4  UNL     1      -5.298   6.537  12.929  1.00  0.00     0.140 C 
BRANCH  16  17
HETATM   17  C5  UNL     1      -5.107   7.507  11.838  1.00  0.00     0.139 C 
HETATM   18  O3  UNL     1      -4.056   7.990  11.556  1.00  0.00    -0.297 OA
BRANCH  17  19
HETATM   19  C6  UNL     1      -6.287   7.944  11.001  1.00  0.00     0.010 C 
HETATM   20  C7  UNL     1      -6.125   9.410  10.700  1.00  0.00     0.022 C 
HETATM   21  C8  UNL     1      -7.569   7.824  11.836  1.00  0.00     0.022 C 
HETATM   22  C9  UNL     1      -6.469   7.095   9.785  1.00  0.00     0.022 C 
ENDBRANCH  17  19
ENDBRANCH  16  17
ENDBRANCH  11  16
ENDBRANCH  10  11
ENDBRANCH   1  10
BRANCH   2  23
HETATM   23  O5  UNL     1      -1.522   4.057  13.669  1.00  0.00    -0.390 OA
ATOM     24  H5  UNL     1      -1.453   3.122  13.818  1.00  0.00     0.210 HD
ENDBRANCH   2  23
BRANCH   9  25
HETATM   25  O10 UNL     1      -3.259   3.988   9.572  1.00  0.00    -0.380 OA
BRANCH  25  26
HETATM   26  C19 UNL     1      -3.300   5.354   9.430  1.00  0.00     0.178 C 
BRANCH  26  27
HETATM   27  C20 UNL     1      -2.480   5.822   8.252  1.00  0.00     0.099 C 
BRANCH  27  28
HETATM   28  S1  UNL     1      -3.198   5.385   6.657  1.00  0.00    -0.171 SA
HETATM   29  C21 UNL     1      -4.884   6.062   6.599  1.00  0.00     0.089 C 
ENDBRANCH  27  28
ENDBRANCH  26  27
ENDBRANCH  25  26
ENDBRANCH   9  25
BRANCH   8  30
HETATM   30  O8  UNL     1      -3.190   1.506  12.211  1.00  0.00    -0.311 OA
BRANCH  30  31
HETATM   31  C16 UNL     1      -4.039   0.419  12.236  1.00  0.00     0.255 C 
HETATM   32  C17 UNL     1      -4.467  -0.372  11.082  1.00  0.00     0.126 C 
HETATM   33  O9  UNL     1      -4.465   0.113  13.381  1.00  0.00    -0.266 OA
ENDBRANCH  30  31
ENDBRANCH   8  30
TORSDOF 15
ENDMDL
MODEL 4
REMARK VINA RESULT: -6.490454079      2.109      3.209
REMARK  15 active torsions:
REMARK  status: ('A' for Active; 'I' for Inactive)
REMARK    1  A    between atoms: O1_2  and  C2_3 
REMARK    2  A    between atoms: C2_3  and  O2_4 
REMARK    3  A    between atoms: O2_4  and  C3_5 
REMARK    4  A    between atoms: C3_5  and  C4_6 
REMARK    5  A    between atoms: C3_5  and  O4_13 
REMARK    6  A    between atoms: C4_6  and  C5_7 
REMARK    7  A    between atoms: C5_7  and  C6_9 
REMARK    8  A    between atoms: O4_13  and  C10_14 
REMARK    9  A    between atoms: C11_15  and  O5_16 
REMARK   10  A    between atoms: C15_23  and  O8_24 
REMARK   11  A    between atoms: O8_24  and  C16_25 
REMARK   12  A    between atoms: C18_28  and  O10_29 
REMARK   13  A    between atoms: O10_29  and  C19_30 
REMARK   14  A    between atoms: C19_30  and  C20_31 
REMARK   15  A    between atoms: C20_31  and  S1_32 
ROOT
HETATM    1  C10 UNL     1      -2.606   3.826  11.958  1.00  0.00     0.187 C 
HETATM    2  C11 UNL     1      -1.134   3.944  11.719  1.00  0.00     0.181 C 
HETATM    3  C12 UNL     1      -0.651   3.926  10.319  1.00  0.00     0.187 C 
HETATM    4  O6  UNL     1      -0.665   5.229   9.826  1.00  0.00    -0.356 OA
HETATM    5  C13 UNL     1      -1.053   5.120   8.493  1.00  0.00     0.339 C 
HETATM    6  O7  UNL     1      -1.859   4.026   8.391  1.00  0.00    -0.356 OA
HETATM    7  C14 UNL     1      -1.391   3.138   9.331  1.00  0.00     0.188 C 
HETATM    8  C15 UNL     1      -2.521   2.315   9.932  1.00  0.00     0.195 C 
HETATM    9  C18 UNL     1      -3.369   3.190  10.835  1.00  0.00     0.185 C 
ENDROOT
BRANCH   1  10
HETATM   10  O4  UNL     1      -2.732   3.065  13.126  1.00  0.00    -0.350 OA
BRANCH  10  11
HETATM   11  C3  UNL     1      -4.136   2.854  13.453  1.00  0.00     0.270 C 
BRANCH  11  12
HETATM   12  O2  UNL     1      -4.166   1.590  13.930  1.00  0.00    -0.337 OA
BRANCH  12  13
HETATM   13  C2  UNL     1      -4.242   1.351  15.257  1.00  0.00     0.340 C 
BRANCH  13  14
HETATM   14  O1  UNL     1      -5.177   0.424  15.623  1.00  0.00    -0.372 OA
HETATM   15  C1  UNL     1      -5.730   0.646  16.864  1.00  0.00     0.204 C 
ENDBRANCH  13  14
ENDBRANCH  12  13
ENDBRANCH  11  12
BRANCH  11  16
HETATM   16  C4  UNL     1      -4.531   3.874  14.435  1.00  0.00     0.140 C 
BRANCH  16  17
HETATM   17  C5  UNL     1      -5.798   4.585  14.197  1.00  0.00     0.139 C 
HETATM   18  O3  UNL     1      -6.817   4.043  13.903  1.00  0.00    -0.297 OA
BRANCH  17  19
HETATM   19  C6  UNL     1      -5.855   6.089  14.321  1.00  0.00     0.010 C 
HETATM   20  C7  UNL     1      -6.777   6.608  13.250  1.00  0.00     0.022 C 
HETATM   21  C8  UNL     1      -4.472   6.674  14.006  1.00  0.00     0.022 C 
HETATM   22  C9  UNL     1      -6.221   6.534  15.700  1.00  0.00     0.022 C 
ENDBRANCH  17  19
ENDBRANCH  16  17
ENDBRANCH  11  16
ENDBRANCH  10  11
ENDBRANCH   1  10
BRANCH   2  23
HETATM   23  O5  UNL     1      -0.390   3.042  12.533  1.00  0.00    -0.390 OA
ATOM     24  H5  UNL     1      -0.526   3.206  13.459  1.00  0.00     0.210 HD
ENDBRANCH   2  23
BRANCH   9  25
HETATM   25  O10 UNL     1      -3.870   4.256  10.038  1.00  0.00    -0.380 OA
BRANCH  25  26
HETATM   26  C19 UNL     1      -4.252   5.342  10.788  1.00  0.00     0.178 C 
BRANCH  26  27
HETATM   27  C20 UNL     1      -5.121   6.292  10.001  1.00  0.00     0.099 C 
BRANCH  27  28
HETATM   28  S1  UNL     1      -4.747   6.314   8.237  1.00  0.00    -0.171 SA
HETATM   29  C21 UNL     1      -6.320   6.450   7.336  1.00  0.00     0.089 C 
ENDBRANCH  27  28
ENDBRANCH  26  27
ENDBRANCH  25  26
ENDBRANCH   9  25
BRANCH   8  30
HETATM   30  O8  UNL     1      -2.165   1.082  10.428  1.00  0.00    -0.311 OA
BRANCH  30  31
HETATM   31  C16 UNL     1      -2.990  -0.022  10.475  1.00  0.00     0.255 C 
HETATM   32  C17 UNL     1      -2.685  -1.304  11.111  1.00  0.00     0.126 C 
HETATM   33  O9  UNL     1      -4.102   0.129   9.903  1.00  0.00    -0.266 OA
ENDBRANCH  30  31
ENDBRANCH   8  30
TORSDOF 15
ENDMDL
MODEL 5
REMARK VINA RESULT: -6.488176358      2.195      3.092
REMARK  15 active torsions:
REMARK  status: ('A' for Active; 'I' for Inactive)
REMARK    1  A    between atoms: O1_2  and  C2_3 
REMARK    2  A    between atoms: C2_3  and  O2_4 
REMARK    3  A    between atoms: O2_4  and  C3_5 
REMARK    4  A    between atoms: C3_5  and  C4_6 
REMARK    5  A    between atoms: C3_5  and  O4_13 
REMARK    6  A    between atoms: C4_6  and  C5_7 
REMARK    7  A    between atoms: C5_7  and  C6_9 
REMARK    8  A    between atoms: O4_13  and  C10_14 
REMARK    9  A    between atoms: C11_15  and  O5_16 
REMARK   10  A    between atoms: C15_23  and  O8_24 
REMARK   11  A    between atoms: O8_24  and  C16_25 
REMARK   12  A    between atoms: C18_28  and  O10_29 
REMARK   13  A    between atoms: O10_29  and  C19_30 
REMARK   14  A    between atoms: C19_30  and  C20_31 
REMARK   15  A    between atoms: C20_31  and  S1_32 
ROOT
HETATM    1  C10 UNL     1      -2.440   5.086  11.705  1.00  0.00     0.187 C 
HETATM    2  C11 UNL     1      -1.171   4.462  12.188  1.00  0.00     0.181 C 
HETATM    3  C12 UNL     1      -0.490   3.489  11.302  1.00  0.00     0.187 C 
HETATM    4  O6  UNL     1       0.372   4.185  10.457  1.00  0.00    -0.356 OA
HETATM    5  C13 UNL     1       0.306   3.527   9.232  1.00  0.00     0.339 C 
HETATM    6  O7  UNL     1      -0.939   2.982   9.128  1.00  0.00    -0.356 OA
HETATM    7  C14 UNL     1      -1.304   2.658  10.413  1.00  0.00     0.188 C 
HETATM    8  C15 UNL     1      -2.802   2.827  10.626  1.00  0.00     0.195 C 
HETATM    9  C18 UNL     1      -3.155   4.302  10.645  1.00  0.00     0.185 C 
ENDROOT
BRANCH   1  10
HETATM   10  O4  UNL     1      -3.247   5.215  12.841  1.00  0.00    -0.350 OA
BRANCH  10  11
HETATM   11  C3  UNL     1      -4.657   5.222  12.474  1.00  0.00     0.270 C 
BRANCH  11  12
HETATM   12  O2  UNL     1      -5.178   4.202  13.190  1.00  0.00    -0.337 OA
BRANCH  12  13
HETATM   13  C2  UNL     1      -4.745   3.939  14.441  1.00  0.00     0.340 C 
BRANCH  13  14
HETATM   14  O1  UNL     1      -3.986   2.809  14.564  1.00  0.00    -0.372 OA
HETATM   15  C1  UNL     1      -4.640   1.757  15.164  1.00  0.00     0.204 C 
ENDBRANCH  13  14
ENDBRANCH  12  13
ENDBRANCH  11  12
BRANCH  11  16
HETATM   16  C4  UNL     1      -5.209   6.540  12.822  1.00  0.00     0.140 C 
BRANCH  16  17
HETATM   17  C5  UNL     1      -5.033   7.624  11.841  1.00  0.00     0.139 C 
HETATM   18  O3  UNL     1      -4.023   8.243  11.712  1.00  0.00    -0.297 OA
BRANCH  17  19
HETATM   19  C6  UNL     1      -6.172   8.008  10.926  1.00  0.00     0.010 C 
HETATM   20  C7  UNL     1      -6.013   9.462  10.571  1.00  0.00     0.022 C 
HETATM   21  C8  UNL     1      -7.494   7.905  11.697  1.00  0.00     0.022 C 
HETATM   22  C9  UNL     1      -6.279   7.105   9.740  1.00  0.00     0.022 C 
ENDBRANCH  17  19
ENDBRANCH  16  17
ENDBRANCH  11  16
ENDBRANCH  10  11
ENDBRANCH   1  10
BRANCH   2  23
HETATM   23  O5  UNL     1      -1.301   3.949  13.512  1.00  0.00    -0.390 OA
ATOM     24  H5  UNL     1      -0.457   3.836  13.932  1.00  0.00     0.210 HD
ENDBRANCH   2  23
BRANCH   9  25
HETATM   25  O10 UNL     1      -2.742   4.849   9.398  1.00  0.00    -0.380 OA
BRANCH  25  26
HETATM   26  C19 UNL     1      -2.490   6.197   9.470  1.00  0.00     0.178 C 
BRANCH  26  27
HETATM   27  C20 UNL     1      -1.660   6.678   8.304  1.00  0.00     0.099 C 
BRANCH  27  28
HETATM   28  S1  UNL     1      -0.108   7.453   8.797  1.00  0.00    -0.171 SA
HETATM   29  C21 UNL     1      -0.180   7.757  10.587  1.00  0.00     0.089 C 
ENDBRANCH  27  28
ENDBRANCH  26  27
ENDBRANCH  25  26
ENDBRANCH   9  25
BRANCH   8  30
HETATM   30  O8  UNL     1      -3.357   2.051  11.617  1.00  0.00    -0.311 OA
BRANCH  30  31
HETATM   31  C16 UNL     1      -4.373   1.137  11.432  1.00  0.00     0.255 C 
HETATM   32  C17 UNL     1      -4.268  -0.316  11.574  1.00  0.00     0.126 C 
HETATM   33  O9  UNL     1      -5.481   1.643  11.111  1.00  0.00    -0.266 OA
ENDBRANCH  30  31
ENDBRANCH   8  30
TORSDOF 15
ENDMDL
