MODEL 1
REMARK VINA RESULT: -7.435079221      0.000      0.000
REMARK  18 active torsions:
REMARK  status: ('A' for Active; 'I' for Inactive)
REMARK    1  A    between atoms: C2_2  and  O2_4 
REMARK    2  A    between atoms: O2_4  and  C3_5 
REMARK    3  A    between atoms: C3_5  and  C4_6 
REMARK    4  A    between atoms: C5_8  and  O4_9 
REMARK    5  A    between atoms: O4_9  and  C6_10 
REMARK    6  A    between atoms: C6_10  and  C7_11 
REMARK    7  A    between atoms: C7_11  and  C8_12 
REMARK    8  A    between atoms: C7_11  and  O7_19 
REMARK    9  A    between atoms: C8_12  and  O5_13 
REMARK   10  A    between atoms: O5_13  and  C9_14 
REMARK   11  A    between atoms: C9_14  and  C11_16 
REMARK   12  A    between atoms: C11_16  and  O6_17 
REMARK   13  A    between atoms: O7_19  and  C12_20 
REMARK   14  A    between atoms: C12_20  and  C13_24 
REMARK   15  A    between atoms: C17_28  and  O8_29 
REMARK   16  A    between atoms: O8_29  and  C18_30 
REMARK   17  A    between atoms: C20_33  and  O10_34 
REMARK   18  A    between atoms: O10_34  and  C21_35 
ROOT
HETATM    1  O4  UNL     1      -3.288   5.231  12.492  1.00  0.00    -0.356 OA
ENDROOT
BRANCH   1   2
HETATM    2  C5  UNL     1      -4.039   4.146  12.797  1.00  0.00     0.292 C 
HETATM    3  O3  UNL     1      -3.769   3.583  14.044  1.00  0.00    -0.348 OA
HETATM    4  C4  UNL     1      -4.695   2.513  14.063  1.00  0.00     0.181 C 
HETATM    5  C20 UNL     1      -4.758   1.954  12.682  1.00  0.00     0.197 C 
HETATM    6  C17 UNL     1      -3.849   2.935  11.915  1.00  0.00     0.219 C 
BRANCH   4   7
HETATM    7  C3  UNL     1      -4.284   1.478  15.091  1.00  0.00     0.213 C 
BRANCH   7   8
HETATM    8  O2  UNL     1      -4.984   1.720  16.277  1.00  0.00    -0.319 OA
BRANCH   8   9
HETATM    9  C2  UNL     1      -5.895   0.842  16.838  1.00  0.00     0.254 C 
HETATM   10  C1  UNL     1      -7.289   1.305  17.035  1.00  0.00     0.126 C 
HETATM   11  O1  UNL     1      -5.507  -0.306  17.154  1.00  0.00    -0.266 OA
ENDBRANCH   8   9
ENDBRANCH   7   8
ENDBRANCH   4   7
BRANCH   5  12
HETATM   12  O10 UNL     1      -4.211   0.676  12.552  1.00  0.00    -0.311 OA
BRANCH  12  13
HETATM   13  C21 UNL     1      -4.346  -0.087  11.409  1.00  0.00     0.255 C 
HETATM   14  C22 UNL     1      -3.448  -1.255  11.117  1.00  0.00     0.126 C 
HETATM   15  O11 UNL     1      -5.255   0.224  10.604  1.00  0.00    -0.266 OA
ENDBRANCH  12  13
ENDBRANCH   5  12
BRANCH   6  16
HETATM   16  O8  UNL     1      -2.544   2.423  12.090  1.00  0.00    -0.308 OA
BRANCH  16  17
HETATM   17  C18 UNL     1      -1.591   2.521  11.114  1.00  0.00     0.255 C 
HETATM   18  C19 UNL     1      -0.441   3.426  11.322  1.00  0.00     0.126 C 
HETATM   19  O9  UNL     1      -1.739   1.831  10.075  1.00  0.00    -0.266 OA
ENDBRANCH  16  17
ENDBRANCH   6  16
ENDBRANCH   1   2
BRANCH   1  20
HETATM   20  C6  UNL     1      -4.010   6.388  12.246  1.00  0.00     0.205 C 
BRANCH  20  21
HETATM   21  C7  UNL     1      -4.115   6.533  10.722  1.00  0.00     0.177 C 
BRANCH  21  22
HETATM   22  C8  UNL     1      -2.928   5.933  10.035  1.00  0.00     0.203 C 
BRANCH  22  23
HETATM   23  O5  UNL     1      -3.230   5.105   8.969  1.00  0.00    -0.382 OA
BRANCH  23  24
HETATM   24  C9  UNL     1      -2.341   5.441   7.936  1.00  0.00     0.141 C 
HETATM   25  C10 UNL     1      -1.192   4.473   7.824  1.00  0.00     0.042 C 
BRANCH  24  26
HETATM   26  C11 UNL     1      -3.072   5.436   6.594  1.00  0.00     0.195 C 
BRANCH  26  27
HETATM   27  O6  UNL     1      -4.170   4.563   6.636  1.00  0.00    -0.398 OA
ATOM     28  H6  UNL     1      -4.779   4.828   7.316  1.00  0.00     0.209 HD
ENDBRANCH  26  27
ENDBRANCH  24  26
ENDBRANCH  23  24
ENDBRANCH  22  23
ENDBRANCH  21  22
BRANCH  21  29
HETATM   29  O7  UNL     1      -5.355   6.013  10.288  1.00  0.00    -0.329 OA
BRANCH  29  30
HETATM   30  C12 UNL     1      -6.111   6.683   9.357  1.00  0.00     0.119 C 
HETATM   31  N1  UNL     1      -6.196   6.179   8.174  1.00  0.00    -0.383 N 
ATOM     32  H12 UNL     1      -5.703   5.308   7.981  1.00  0.00     0.158 HD
ATOM     33  H11 UNL     1      -6.757   6.677   7.483  1.00  0.00     0.158 HD
BRANCH  30  34
HETATM   34  C13 UNL     1      -6.827   7.948   9.637  1.00  0.00     0.013 C 
HETATM   35  C14 UNL     1      -6.012   9.158   9.223  1.00  0.00     0.023 C 
HETATM   36  C15 UNL     1      -8.087   7.975   8.803  1.00  0.00     0.023 C 
HETATM   37  C16 UNL     1      -7.176   8.112  11.080  1.00  0.00     0.023 C 
ENDBRANCH  30  34
ENDBRANCH  29  30
ENDBRANCH  21  29
ENDBRANCH  20  21
ENDBRANCH   1  20
TORSDOF 18
ENDMDL
MODEL 2
REMARK VINA RESULT: -7.415308003      2.452      3.886
REMARK  18 active torsions:
REMARK  status: ('A' for Active; 'I' for Inactive)
REMARK    1  A    between atoms: C2_2  and  O2_4 
REMARK    2  A    between atoms: O2_4  and  C3_5 
REMARK    3  A    between atoms: C3_5  and  C4_6 
REMARK    4  A    between atoms: C5_8  and  O4_9 
REMARK    5  A    between atoms: O4_9  and  C6_10 
REMARK    6  A    between atoms: C6_10  and  C7_11 
REMARK    7  A    between atoms: C7_11  and  C8_12 
REMARK    8  A    between atoms: C7_11  and  O7_19 
REMARK    9  A    between atoms: C8_12  and  O5_13 
REMARK   10  A    between atoms: O5_13  and  C9_14 
REMARK   11  A    between atoms: C9_14  and  C11_16 
REMARK   12  A    between atoms: C11_16  and  O6_17 
REMARK   13  A    between atoms: O7_19  and  C12_20 
REMARK   14  A    between atoms: C12_20  and  C13_24 
REMARK   15  A    between atoms: C17_28  and  O8_29 
REMARK   16  A    between atoms: O8_29  and  C18_30 
REMARK   17  A    between atoms: C20_33  and  O10_34 
REMARK   18  A    between atoms: O10_34  and  C21_35 
ROOT
HETATM    1  O4  UNL     1      -3.566   5.707  13.898  1.00  0.00    -0.356 OA
ENDROOT
BRANCH   1   2
HETATM    2  C5  UNL     1      -4.198   4.509  13.860  1.00  0.00     0.292 C 
HETATM    3  O3  UNL     1      -3.896   3.658  14.922  1.00  0.00    -0.348 OA
HETATM    4  C4  UNL     1      -4.697   2.536  14.605  1.00  0.00     0.181 C 
HETATM    5  C20 UNL     1      -4.666   2.371  13.123  1.00  0.00     0.197 C 
HETATM    6  C17 UNL     1      -3.855   3.611  12.696  1.00  0.00     0.219 C 
BRANCH   4   7
HETATM    7  C3  UNL     1      -4.197   1.306  15.336  1.00  0.00     0.213 C 
BRANCH   7   8
HETATM    8  O2  UNL     1      -4.677   1.339  16.649  1.00  0.00    -0.319 OA
BRANCH   8   9
HETATM    9  C2  UNL     1      -5.816   0.680  17.079  1.00  0.00     0.254 C 
HETATM   10  C1  UNL     1      -7.101   1.415  17.063  1.00  0.00     0.126 C 
HETATM   11  O1  UNL     1      -5.714  -0.508  17.463  1.00  0.00    -0.266 OA
ENDBRANCH   8   9
ENDBRANCH   7   8
ENDBRANCH   4   7
BRANCH   5  12
HETATM   12  O10 UNL     1      -3.979   1.239  12.682  1.00  0.00    -0.311 OA
BRANCH  12  13
HETATM   13  C21 UNL     1      -4.440   0.428  11.666  1.00  0.00     0.255 C 
HETATM   14  C22 UNL     1      -3.990  -0.998  11.514  1.00  0.00     0.126 C 
HETATM   15  O11 UNL     1      -5.262   0.917  10.855  1.00  0.00    -0.266 OA
ENDBRANCH  12  13
ENDBRANCH   5  12
BRANCH   6  16
HETATM   16  O8  UNL     1      -2.506   3.205  12.794  1.00  0.00    -0.308 OA
BRANCH  16  17
HETATM   17  C18 UNL     1      -1.577   3.547  11.850  1.00  0.00     0.255 C 
HETATM   18  C19 UNL     1      -1.349   2.639  10.706  1.00  0.00     0.126 C 
HETATM   19  O9  UNL     1      -0.954   4.627  12.001  1.00  0.00    -0.266 OA
ENDBRANCH  16  17
ENDBRANCH   6  16
ENDBRANCH   1   2
BRANCH   1  20
HETATM   20  C6  UNL     1      -4.309   6.773  13.417  1.00  0.00     0.205 C 
BRANCH  20  21
HETATM   21  C7  UNL     1      -3.597   7.282  12.156  1.00  0.00     0.177 C 
BRANCH  21  22
HETATM   22  C8  UNL     1      -4.535   7.349  10.992  1.00  0.00     0.203 C 
BRANCH  22  23
HETATM   23  O5  UNL     1      -5.739   6.695  11.178  1.00  0.00    -0.382 OA
BRANCH  23  24
HETATM   24  C9  UNL     1      -6.715   7.455  10.513  1.00  0.00     0.141 C 
HETATM   25  C10 UNL     1      -6.540   8.936  10.727  1.00  0.00     0.042 C 
BRANCH  24  26
HETATM   26  C11 UNL     1      -6.639   7.201   9.007  1.00  0.00     0.195 C 
BRANCH  26  27
HETATM   27  O6  UNL     1      -6.897   5.852   8.724  1.00  0.00    -0.398 OA
ATOM     28  H6  UNL     1      -6.088   5.353   8.724  1.00  0.00     0.209 HD
ENDBRANCH  26  27
ENDBRANCH  24  26
ENDBRANCH  23  24
ENDBRANCH  22  23
ENDBRANCH  21  22
BRANCH  21  29
HETATM   29  O7  UNL     1      -2.950   8.503  12.446  1.00  0.00    -0.329 OA
BRANCH  29  30
HETATM   30  C12 UNL     1      -1.801   8.528  13.201  1.00  0.00     0.119 C 
HETATM   31  N1  UNL     1      -0.940   7.588  13.016  1.00  0.00    -0.383 N 
ATOM     32  H12 UNL     1      -1.145   6.870  12.321  1.00  0.00     0.158 HD
ATOM     33  H11 UNL     1      -0.087   7.606  13.576  1.00  0.00     0.158 HD
BRANCH  30  34
HETATM   34  C13 UNL     1      -1.503   9.570  14.209  1.00  0.00     0.013 C 
HETATM   35  C14 UNL     1      -1.880  10.953  13.714  1.00  0.00     0.023 C 
HETATM   36  C15 UNL     1      -2.353   9.305  15.430  1.00  0.00     0.023 C 
HETATM   37  C16 UNL     1      -0.062   9.607  14.599  1.00  0.00     0.023 C 
ENDBRANCH  30  34
ENDBRANCH  29  30
ENDBRANCH  21  29
ENDBRANCH  20  21
ENDBRANCH   1  20
TORSDOF 18
ENDMDL
MODEL 3
REMARK VINA RESULT: -7.274447289      2.399      3.616
REMARK  18 active torsions:
REMARK  status: ('A' for Active; 'I' for Inactive)
REMARK    1  A    between atoms: C2_2  and  O2_4 
REMARK    2  A    between atoms: O2_4  and  C3_5 
REMARK    3  A    between atoms: C3_5  and  C4_6 
REMARK    4  A    between atoms: C5_8  and  O4_9 
REMARK    5  A    between atoms: O4_9  and  C6_10 
REMARK    6  A    between atoms: C6_10  and  C7_11 
REMARK    7  A    between atoms: C7_11  and  C8_12 
REMARK    8  A    between atoms: C7_11  and  O7_19 
REMARK    9  A    between atoms: C8_12  and  O5_13 
REMARK   10  A    between atoms: O5_13  and  C9_14 
REMARK   11  A    between atoms: C9_14  and  C11_16 
REMARK   12  A    between atoms: C11_16  and  O6_17 
REMARK   13  A    between atoms: O7_19  and  C12_20 
REMARK   14  A    between atoms: C12_20  and  C13_24 
REMARK   15  A    between atoms: C17_28  and  O8_29 
REMARK   16  A    between atoms: O8_29  and  C18_30 
REMARK   17  A    between atoms: C20_33  and  O10_34 
REMARK   18  A    between atoms: O10_34  and  C21_35 
ROOT
HETATM    1  O4  UNL     1      -3.622   5.706  13.910  1.00  0.00    -0.356 OA
ENDROOT
BRANCH   1   2
HETATM    2  C5  UNL     1      -4.236   4.501  13.844  1.00  0.00     0.292 C 
HETATM    3  O3  UNL     1      -3.947   3.641  14.903  1.00  0.00    -0.348 OA
HETATM    4  C4  UNL     1      -4.726   2.513  14.554  1.00  0.00     0.181 C 
HETATM    5  C20 UNL     1      -4.659   2.366  13.071  1.00  0.00     0.197 C 
HETATM    6  C17 UNL     1      -3.855   3.622  12.677  1.00  0.00     0.219 C 
BRANCH   4   7
HETATM    7  C3  UNL     1      -4.227   1.281  15.282  1.00  0.00     0.213 C 
BRANCH   7   8
HETATM    8  O2  UNL     1      -4.667   1.334  16.608  1.00  0.00    -0.319 OA
BRANCH   8   9
HETATM    9  C2  UNL     1      -5.807   0.703  17.076  1.00  0.00     0.254 C 
HETATM   10  C1  UNL     1      -7.083   1.455  17.064  1.00  0.00     0.126 C 
HETATM   11  O1  UNL     1      -5.714  -0.476  17.490  1.00  0.00    -0.266 OA
ENDBRANCH   8   9
ENDBRANCH   7   8
ENDBRANCH   4   7
BRANCH   5  12
HETATM   12  O10 UNL     1      -3.946   1.249  12.633  1.00  0.00    -0.311 OA
BRANCH  12  13
HETATM   13  C21 UNL     1      -4.411   0.399  11.650  1.00  0.00     0.255 C 
HETATM   14  C22 UNL     1      -3.959  -1.031  11.550  1.00  0.00     0.126 C 
HETATM   15  O11 UNL     1      -5.235   0.857  10.825  1.00  0.00    -0.266 OA
ENDBRANCH  12  13
ENDBRANCH   5  12
BRANCH   6  16
HETATM   16  O8  UNL     1      -2.503   3.232  12.802  1.00  0.00    -0.308 OA
BRANCH  16  17
HETATM   17  C18 UNL     1      -1.563   3.572  11.869  1.00  0.00     0.255 C 
HETATM   18  C19 UNL     1      -1.201   2.590  10.824  1.00  0.00     0.126 C 
HETATM   19  O9  UNL     1      -1.045   4.714  11.943  1.00  0.00    -0.266 OA
ENDBRANCH  16  17
ENDBRANCH   6  16
ENDBRANCH   1   2
BRANCH   1  20
HETATM   20  C6  UNL     1      -4.388   6.776  13.476  1.00  0.00     0.205 C 
BRANCH  20  21
HETATM   21  C7  UNL     1      -3.751   7.281  12.174  1.00  0.00     0.177 C 
BRANCH  21  22
HETATM   22  C8  UNL     1      -4.766   7.387  11.078  1.00  0.00     0.203 C 
BRANCH  22  23
HETATM   23  O5  UNL     1      -5.382   6.195  10.741  1.00  0.00    -0.382 OA
BRANCH  23  24
HETATM   24  C9  UNL     1      -5.294   6.080   9.345  1.00  0.00     0.141 C 
HETATM   25  C10 UNL     1      -5.497   7.397   8.641  1.00  0.00     0.042 C 
BRANCH  24  26
HETATM   26  C11 UNL     1      -3.912   5.561   8.948  1.00  0.00     0.195 C 
BRANCH  26  27
HETATM   27  O6  UNL     1      -3.832   4.175   9.149  1.00  0.00    -0.398 OA
ATOM     28  H6  UNL     1      -3.155   3.798   8.599  1.00  0.00     0.209 HD
ENDBRANCH  26  27
ENDBRANCH  24  26
ENDBRANCH  23  24
ENDBRANCH  22  23
ENDBRANCH  21  22
BRANCH  21  29
HETATM   29  O7  UNL     1      -3.054   8.483  12.430  1.00  0.00    -0.329 OA
BRANCH  29  30
HETATM   30  C12 UNL     1      -1.908   8.481  13.189  1.00  0.00     0.119 C 
HETATM   31  N1  UNL     1      -1.060   7.530  12.997  1.00  0.00    -0.383 N 
ATOM     32  H12 UNL     1      -1.274   6.823  12.293  1.00  0.00     0.158 HD
ATOM     33  H11 UNL     1      -0.210   7.529  13.560  1.00  0.00     0.158 HD
BRANCH  30  34
HETATM   34  C13 UNL     1      -1.598   9.507  14.211  1.00  0.00     0.013 C 
HETATM   35  C14 UNL     1      -2.395   9.290  15.483  1.00  0.00     0.023 C 
HETATM   36  C15 UNL     1      -0.141   9.374  14.590  1.00  0.00     0.023 C 
HETATM   37  C16 UNL     1      -1.870  10.898  13.740  1.00  0.00     0.023 C 
ENDBRANCH  30  34
ENDBRANCH  29  30
ENDBRANCH  21  29
ENDBRANCH  20  21
ENDBRANCH   1  20
TORSDOF 18
ENDMDL
MODEL 4
REMARK VINA RESULT: -7.177339793      1.194      1.570
REMARK  18 active torsions:
REMARK  status: ('A' for Active; 'I' for Inactive)
REMARK    1  A    between atoms: C2_2  and  O2_4 
REMARK    2  A    between atoms: O2_4  and  C3_5 
REMARK    3  A    between atoms: C3_5  and  C4_6 
REMARK    4  A    between atoms: C5_8  and  O4_9 
REMARK    5  A    between atoms: O4_9  and  C6_10 
REMARK    6  A    between atoms: C6_10  and  C7_11 
REMARK    7  A    between atoms: C7_11  and  C8_12 
REMARK    8  A    between atoms: C7_11  and  O7_19 
REMARK    9  A    between atoms: C8_12  and  O5_13 
REMARK   10  A    between atoms: O5_13  and  C9_14 
REMARK   11  A    between atoms: C9_14  and  C11_16 
REMARK   12  A    between atoms: C11_16  and  O6_17 
REMARK   13  A    between atoms: O7_19  and  C12_20 
REMARK   14  A    between atoms: C12_20  and  C13_24 
REMARK   15  A    between atoms: C17_28  and  O8_29 
REMARK   16  A    between atoms: O8_29  and  C18_30 
REMARK   17  A    between atoms: C20_33  and  O10_34 
REMARK   18  A    between atoms: O10_34  and  C21_35 
ROOT
HETATM    1  O4  UNL     1      -3.544   5.545  13.375  1.00  0.00    -0.356 OA
ENDROOT
BRANCH   1   2
HETATM    2  C5  UNL     1      -4.184   4.356  13.482  1.00  0.00     0.292 C 
HETATM    3  O3  UNL     1      -3.876   3.632  14.633  1.00  0.00    -0.348 OA
HETATM    4  C4  UNL     1      -4.688   2.487  14.456  1.00  0.00     0.181 C 
HETATM    5  C20 UNL     1      -4.674   2.151  13.003  1.00  0.00     0.197 C 
HETATM    6  C17 UNL     1      -3.859   3.326  12.427  1.00  0.00     0.219 C 
BRANCH   4   7
HETATM    7  C3  UNL     1      -4.188   1.346  15.321  1.00  0.00     0.213 C 
BRANCH   7   8
HETATM    8  O2  UNL     1      -5.279   0.554  15.693  1.00  0.00    -0.319 OA
BRANCH   8   9
HETATM    9  C2  UNL     1      -5.943   0.662  16.903  1.00  0.00     0.254 C 
HETATM   10  C1  UNL     1      -7.192   1.456  16.951  1.00  0.00     0.126 C 
HETATM   11  O1  UNL     1      -5.462   0.085  17.906  1.00  0.00    -0.266 OA
ENDBRANCH   8   9
ENDBRANCH   7   8
ENDBRANCH   4   7
BRANCH   5  12
HETATM   12  O10 UNL     1      -3.998   0.970  12.690  1.00  0.00    -0.311 OA
BRANCH  12  13
HETATM   13  C21 UNL     1      -4.419   0.103  11.702  1.00  0.00     0.255 C 
HETATM   14  C22 UNL     1      -4.007  -1.343  11.680  1.00  0.00     0.126 C 
HETATM   15  O11 UNL     1      -5.168   0.557  10.807  1.00  0.00    -0.266 OA
ENDBRANCH  12  13
ENDBRANCH   5  12
BRANCH   6  16
HETATM   16  O8  UNL     1      -2.512   2.924  12.559  1.00  0.00    -0.308 OA
BRANCH  16  17
HETATM   17  C18 UNL     1      -1.590   3.146  11.572  1.00  0.00     0.255 C 
HETATM   18  C19 UNL     1      -1.485   2.179  10.459  1.00  0.00     0.126 C 
HETATM   19  O9  UNL     1      -0.869   4.170  11.659  1.00  0.00    -0.266 OA
ENDBRANCH  16  17
ENDBRANCH   6  16
ENDBRANCH   1   2
BRANCH   1  20
HETATM   20  C6  UNL     1      -4.374   6.653  13.347  1.00  0.00     0.205 C 
BRANCH  20  21
HETATM   21  C7  UNL     1      -4.460   7.111  11.884  1.00  0.00     0.177 C 
BRANCH  21  22
HETATM   22  C8  UNL     1      -3.220   6.747  11.127  1.00  0.00     0.203 C 
BRANCH  22  23
HETATM   23  O5  UNL     1      -3.410   5.826  10.112  1.00  0.00    -0.382 OA
BRANCH  23  24
HETATM   24  C9  UNL     1      -2.633   6.261   9.027  1.00  0.00     0.141 C 
HETATM   25  C10 UNL     1      -1.330   6.882   9.459  1.00  0.00     0.042 C 
BRANCH  24  26
HETATM   26  C11 UNL     1      -2.293   5.078   8.119  1.00  0.00     0.195 C 
BRANCH  26  27
HETATM   27  O6  UNL     1      -3.461   4.534   7.566  1.00  0.00    -0.398 OA
ATOM     28  H6  UNL     1      -3.397   3.587   7.520  1.00  0.00     0.209 HD
ENDBRANCH  26  27
ENDBRANCH  24  26
ENDBRANCH  23  24
ENDBRANCH  22  23
ENDBRANCH  21  22
BRANCH  21  29
HETATM   29  O7  UNL     1      -5.652   6.617  11.309  1.00  0.00    -0.329 OA
BRANCH  29  30
HETATM   30  C12 UNL     1      -6.538   7.466  10.691  1.00  0.00     0.119 C 
HETATM   31  N1  UNL     1      -7.283   8.206  11.438  1.00  0.00    -0.383 N 
ATOM     32  H12 UNL     1      -7.184   8.131  12.450  1.00  0.00     0.158 HD
ATOM     33  H11 UNL     1      -7.941   8.837  10.979  1.00  0.00     0.158 HD
BRANCH  30  34
HETATM   34  C13 UNL     1      -6.682   7.575   9.222  1.00  0.00     0.013 C 
HETATM   35  C14 UNL     1      -8.046   8.111   8.831  1.00  0.00     0.023 C 
HETATM   36  C15 UNL     1      -5.668   8.576   8.718  1.00  0.00     0.023 C 
HETATM   37  C16 UNL     1      -6.492   6.271   8.520  1.00  0.00     0.023 C 
ENDBRANCH  30  34
ENDBRANCH  29  30
ENDBRANCH  21  29
ENDBRANCH  20  21
ENDBRANCH   1  20
TORSDOF 18
ENDMDL
MODEL 5
REMARK VINA RESULT: -7.138454246      1.132      2.850
REMARK  18 active torsions:
REMARK  status: ('A' for Active; 'I' for Inactive)
REMARK    1  A    between atoms: C2_2  and  O2_4 
REMARK    2  A    between atoms: O2_4  and  C3_5 
REMARK    3  A    between atoms: C3_5  and  C4_6 
REMARK    4  A    between atoms: C5_8  and  O4_9 
REMARK    5  A    between atoms: O4_9  and  C6_10 
REMARK    6  A    between atoms: C6_10  and  C7_11 
REMARK    7  A    between atoms: C7_11  and  C8_12 
REMARK    8  A    between atoms: C7_11  and  O7_19 
REMARK    9  A    between atoms: C8_12  and  O5_13 
REMARK   10  A    between atoms: O5_13  and  C9_14 
REMARK   11  A    between atoms: C9_14  and  C11_16 
REMARK   12  A    between atoms: C11_16  and  O6_17 
REMARK   13  A    between atoms: O7_19  and  C12_20 
REMARK   14  A    between atoms: C12_20  and  C13_24 
REMARK   15  A    between atoms: C17_28  and  O8_29 
REMARK   16  A    between atoms: O8_29  and  C18_30 
REMARK   17  A    between atoms: C20_33  and  O10_34 
REMARK   18  A    between atoms: O10_34  and  C21_35 
ROOT
HETATM    1  O4  UNL     1      -3.508   5.662  13.202  1.00  0.00    -0.356 OA
ENDROOT
BRANCH   1   2
HETATM    2  C5  UNL     1      -4.151   4.493  13.438  1.00  0.00     0.292 C 
HETATM    3  O3  UNL     1      -3.746   3.830  14.596  1.00  0.00    -0.348 OA
HETATM    4  C4  UNL     1      -4.586   2.692  14.562  1.00  0.00     0.181 C 
HETATM    5  C20 UNL     1      -4.713   2.273  13.136  1.00  0.00     0.197 C 
HETATM    6  C17 UNL     1      -3.940   3.399  12.419  1.00  0.00     0.219 C 
BRANCH   4   7
HETATM    7  C3  UNL     1      -4.023   1.593  15.441  1.00  0.00     0.213 C 
BRANCH   7   8
HETATM    8  O2  UNL     1      -4.697   1.609  16.666  1.00  0.00    -0.319 OA
BRANCH   8   9
HETATM    9  C2  UNL     1      -5.786   0.808  16.966  1.00  0.00     0.254 C 
HETATM   10  C1  UNL     1      -7.134   1.423  16.954  1.00  0.00     0.126 C 
HETATM   11  O1  UNL     1      -5.589  -0.399  17.233  1.00  0.00    -0.266 OA
ENDBRANCH   8   9
ENDBRANCH   7   8
ENDBRANCH   4   7
BRANCH   5  12
HETATM   12  O10 UNL     1      -4.085   1.064  12.831  1.00  0.00    -0.311 OA
BRANCH  12  13
HETATM   13  C21 UNL     1      -4.465   0.266  11.771  1.00  0.00     0.255 C 
HETATM   14  C22 UNL     1      -4.029  -1.167  11.653  1.00  0.00     0.126 C 
HETATM   15  O11 UNL     1      -5.199   0.774  10.892  1.00  0.00    -0.266 OA
ENDBRANCH  12  13
ENDBRANCH   5  12
BRANCH   6  16
HETATM   16  O8  UNL     1      -2.592   2.980  12.448  1.00  0.00    -0.308 OA
BRANCH  16  17
HETATM   17  C18 UNL     1      -1.790   3.041  11.341  1.00  0.00     0.255 C 
HETATM   18  C19 UNL     1      -0.456   3.666  11.455  1.00  0.00     0.126 C 
HETATM   19  O9  UNL     1      -2.230   2.557  10.269  1.00  0.00    -0.266 OA
ENDBRANCH  16  17
ENDBRANCH   6  16
ENDBRANCH   1   2
BRANCH   1  20
HETATM   20  C6  UNL     1      -4.324   6.703  12.793  1.00  0.00     0.205 C 
BRANCH  20  21
HETATM   21  C7  UNL     1      -4.760   6.392  11.354  1.00  0.00     0.177 C 
BRANCH  21  22
HETATM   22  C8  UNL     1      -5.923   7.240  10.942  1.00  0.00     0.203 C 
BRANCH  22  23
HETATM   23  O5  UNL     1      -6.695   6.711   9.924  1.00  0.00    -0.382 OA
BRANCH  23  24
HETATM   24  C9  UNL     1      -6.993   7.771   9.055  1.00  0.00     0.141 C 
HETATM   25  C10 UNL     1      -6.207   9.017   9.370  1.00  0.00     0.042 C 
BRANCH  24  26
HETATM   26  C11 UNL     1      -6.661   7.377   7.615  1.00  0.00     0.195 C 
BRANCH  26  27
HETATM   27  O6  UNL     1      -6.558   5.983   7.500  1.00  0.00    -0.398 OA
ATOM     28  H6  UNL     1      -6.602   5.720   6.588  1.00  0.00     0.209 HD
ENDBRANCH  26  27
ENDBRANCH  24  26
ENDBRANCH  23  24
ENDBRANCH  22  23
ENDBRANCH  21  22
BRANCH  21  29
HETATM   29  O7  UNL     1      -3.642   6.490  10.496  1.00  0.00    -0.329 OA
BRANCH  29  30
HETATM   30  C12 UNL     1      -3.584   5.762   9.333  1.00  0.00     0.119 C 
HETATM   31  N1  UNL     1      -4.314   4.704   9.247  1.00  0.00    -0.383 N 
ATOM     32  H12 UNL     1      -4.902   4.454  10.042  1.00  0.00     0.158 HD
ATOM     33  H11 UNL     1      -4.271   4.164   8.383  1.00  0.00     0.158 HD
BRANCH  30  34
HETATM   34  C13 UNL     1      -2.730   6.125   8.179  1.00  0.00     0.013 C 
HETATM   35  C14 UNL     1      -1.268   5.826   8.447  1.00  0.00     0.023 C 
HETATM   36  C15 UNL     1      -3.133   5.267   7.002  1.00  0.00     0.023 C 
HETATM   37  C16 UNL     1      -2.835   7.568   7.808  1.00  0.00     0.023 C 
ENDBRANCH  30  34
ENDBRANCH  29  30
ENDBRANCH  21  29
ENDBRANCH  20  21
ENDBRANCH   1  20
TORSDOF 18
ENDMDL
