MODEL 1
REMARK VINA RESULT: -6.597943021      0.000      0.000
REMARK  13 active torsions:
REMARK  status: ('A' for Active; 'I' for Inactive)
REMARK    1  A    between atoms: C2_2  and  C3_3 
REMARK    2  A    between atoms: C3_3  and  C4_4 
REMARK    3  A    between atoms: C4_4  and  C5_5 
REMARK    4  A    between atoms: C5_5  and  O1_6 
REMARK    5  A    between atoms: C5_5  and  C19_29 
REMARK    6  A    between atoms: O1_6  and  C6_7 
REMARK    7  A    between atoms: C7_8  and  O2_9 
REMARK    8  A    between atoms: O2_9  and  C8_10 
REMARK    9  A    between atoms: C8_10  and  O3_11 
REMARK   10  A    between atoms: C10_13  and  C11_14 
REMARK   11  A    between atoms: C11_14  and  O5_16 
REMARK   12  A    between atoms: C19_29  and  O11_30 
REMARK   13  A    between atoms: C19_29  and  C20_32 
ROOT
HETATM    1  C6  UNL     1      -3.796   4.919  11.161  1.00  0.00     0.248 C 
HETATM    2  C7  UNL     1      -4.304   6.155  11.871  1.00  0.00     0.211 C 
HETATM    3  C10 UNL     1      -4.763   7.239  10.966  1.00  0.00     0.229 C 
HETATM    4  O6  UNL     1      -4.632   8.520  11.465  1.00  0.00    -0.327 OA
HETATM    5  C13 UNL     1      -4.201   9.343  10.408  1.00  0.00     0.162 C 
HETATM    6  C14 UNL     1      -2.829   9.874  10.734  1.00  0.00     0.078 C 
HETATM    7  C15 UNL     1      -5.132  10.477  10.136  1.00  0.00     0.078 C 
HETATM    8  O7  UNL     1      -4.109   8.506   9.269  1.00  0.00    -0.322 OA
HETATM    9  C16 UNL     1      -3.717   7.329   9.837  1.00  0.00     0.317 C 
HETATM   10  O8  UNL     1      -3.890   6.188   9.090  1.00  0.00    -0.296 OA
HETATM   11  C17 UNL     1      -3.216   5.177   9.818  1.00  0.00     0.318 C 
HETATM   12  O9  UNL     1      -2.922   4.054   9.100  1.00  0.00    -0.305 OA
HETATM   13  C18 UNL     1      -1.564   4.273   9.287  1.00  0.00     0.350 C 
HETATM   14  O10 UNL     1      -1.846   5.525   9.822  1.00  0.00    -0.305 OA
ENDROOT
BRANCH   1  15
HETATM   15  O1  UNL     1      -4.746   3.906  11.143  1.00  0.00    -0.367 OA
BRANCH  15  16
HETATM   16  C5  UNL     1      -4.465   2.825  11.937  1.00  0.00     0.161 C 
BRANCH  16  17
HETATM   17  C4  UNL     1      -3.896   3.130  13.278  1.00  0.00     0.035 C 
BRANCH  17  18
HETATM   18  C3  UNL     1      -4.819   2.957  14.439  1.00  0.00     0.002 C 
BRANCH  18  19
HETATM   19  C2  UNL     1      -4.500   1.577  15.039  1.00  0.00    -0.004 C 
HETATM   20  C1  UNL     1      -5.288   1.336  16.292  1.00  0.00     0.005 C 
ENDBRANCH  18  19
ENDBRANCH  17  18
ENDBRANCH  16  17
BRANCH  16  21
HETATM   21  C19 UNL     1      -3.617   1.781  11.251  1.00  0.00     0.247 C 
BRANCH  21  22
HETATM   22  O11 UNL     1      -2.480   1.423  11.923  1.00  0.00    -0.382 OA
ATOM     23  H11 UNL     1      -2.509   0.568  12.336  1.00  0.00     0.210 HD
ENDBRANCH  21  22
BRANCH  21  24
HETATM   24  C20 UNL     1      -4.490   0.568  11.058  1.00  0.00     0.205 C 
HETATM   25  O12 UNL     1      -4.582  -0.284  11.976  1.00  0.00    -0.646 OA
HETATM   26  O13 UNL     1      -5.201   0.355   9.899  1.00  0.00    -0.646 OA
ENDBRANCH  21  24
ENDBRANCH  16  21
ENDBRANCH  15  16
ENDBRANCH   1  15
BRANCH   2  27
HETATM   27  O2  UNL     1      -3.416   6.671  12.792  1.00  0.00    -0.355 OA
BRANCH  27  28
HETATM   28  C8  UNL     1      -3.898   6.639  14.093  1.00  0.00     0.337 C 
BRANCH  28  29
HETATM   29  O3  UNL     1      -3.382   7.732  14.780  1.00  0.00    -0.372 OA
HETATM   30  C9  UNL     1      -2.225   8.143  14.123  1.00  0.00     0.204 C 
ENDBRANCH  28  29
ENDBRANCH  27  28
ENDBRANCH   2  27
BRANCH   3  31
HETATM   31  C11 UNL     1      -6.107   7.047  10.423  1.00  0.00     0.301 C 
HETATM   32  O4  UNL     1      -7.068   7.704  10.887  1.00  0.00    -0.261 OA
BRANCH  31  33
HETATM   33  O5  UNL     1      -6.382   6.156   9.399  1.00  0.00    -0.324 OA
HETATM   34  C12 UNL     1      -7.239   6.531   8.333  1.00  0.00     0.213 C 
ENDBRANCH  31  33
ENDBRANCH   3  31
TORSDOF 13
ENDMDL
MODEL 2
REMARK VINA RESULT: -6.563420658      2.172      6.317
REMARK  13 active torsions:
REMARK  status: ('A' for Active; 'I' for Inactive)
REMARK    1  A    between atoms: C2_2  and  C3_3 
REMARK    2  A    between atoms: C3_3  and  C4_4 
REMARK    3  A    between atoms: C4_4  and  C5_5 
REMARK    4  A    between atoms: C5_5  and  O1_6 
REMARK    5  A    between atoms: C5_5  and  C19_29 
REMARK    6  A    between atoms: O1_6  and  C6_7 
REMARK    7  A    between atoms: C7_8  and  O2_9 
REMARK    8  A    between atoms: O2_9  and  C8_10 
REMARK    9  A    between atoms: C8_10  and  O3_11 
REMARK   10  A    between atoms: C10_13  and  C11_14 
REMARK   11  A    between atoms: C11_14  and  O5_16 
REMARK   12  A    between atoms: C19_29  and  O11_30 
REMARK   13  A    between atoms: C19_29  and  C20_32 
ROOT
HETATM    1  C6  UNL     1      -3.574   5.737  11.489  1.00  0.00     0.248 C 
HETATM    2  C7  UNL     1      -3.235   4.571  12.393  1.00  0.00     0.211 C 
HETATM    3  C10 UNL     1      -2.710   3.377  11.684  1.00  0.00     0.229 C 
HETATM    4  O6  UNL     1      -2.976   2.166  12.292  1.00  0.00    -0.327 OA
HETATM    5  C13 UNL     1      -3.295   1.245  11.277  1.00  0.00     0.162 C 
HETATM    6  C14 UNL     1      -4.725   0.803  11.454  1.00  0.00     0.078 C 
HETATM    7  C15 UNL     1      -2.395   0.055  11.265  1.00  0.00     0.078 C 
HETATM    8  O7  UNL     1      -3.183   1.951  10.055  1.00  0.00    -0.322 OA
HETATM    9  C16 UNL     1      -3.590   3.198  10.431  1.00  0.00     0.317 C 
HETATM   10  O8  UNL     1      -3.255   4.241   9.601  1.00  0.00    -0.296 OA
HETATM   11  C17 UNL     1      -3.971   5.351  10.111  1.00  0.00     0.318 C 
HETATM   12  O9  UNL     1      -4.104   6.396   9.243  1.00  0.00    -0.305 OA
HETATM   13  C18 UNL     1      -5.484   6.247   9.252  1.00  0.00     0.350 C 
HETATM   14  O10 UNL     1      -5.345   5.054   9.953  1.00  0.00    -0.305 OA
ENDROOT
BRANCH   1  15
HETATM   15  O1  UNL     1      -2.580   6.708  11.503  1.00  0.00    -0.367 OA
BRANCH  15  16
HETATM   16  C5  UNL     1      -1.893   6.826  12.682  1.00  0.00     0.161 C 
BRANCH  16  17
HETATM   17  C4  UNL     1      -2.429   7.817  13.653  1.00  0.00     0.035 C 
BRANCH  17  18
HETATM   18  C3  UNL     1      -1.480   8.285  14.707  1.00  0.00     0.002 C 
BRANCH  18  19
HETATM   19  C2  UNL     1      -2.050   9.611  15.241  1.00  0.00    -0.004 C 
HETATM   20  C1  UNL     1      -1.646  10.763  14.371  1.00  0.00     0.005 C 
ENDBRANCH  18  19
ENDBRANCH  17  18
ENDBRANCH  16  17
BRANCH  16  21
HETATM   21  C19 UNL     1      -0.412   7.050  12.492  1.00  0.00     0.247 C 
BRANCH  21  22
HETATM   22  O11 UNL     1       0.341   5.910  12.410  1.00  0.00    -0.382 OA
ATOM     23  H11 UNL     1       1.248   6.044  12.163  1.00  0.00     0.210 HD
ENDBRANCH  21  22
BRANCH  21  24
HETATM   24  C20 UNL     1      -0.251   7.852  11.227  1.00  0.00     0.205 C 
HETATM   25  O12 UNL     1       0.161   7.289  10.182  1.00  0.00    -0.646 OA
HETATM   26  O13 UNL     1      -0.542   9.196  11.170  1.00  0.00    -0.646 OA
ENDBRANCH  21  24
ENDBRANCH  16  21
ENDBRANCH  15  16
ENDBRANCH   1  15
BRANCH   2  27
HETATM   27  O2  UNL     1      -4.270   4.194  13.225  1.00  0.00    -0.355 OA
BRANCH  27  28
HETATM   28  C8  UNL     1      -5.123   5.241  13.543  1.00  0.00     0.337 C 
BRANCH  28  29
HETATM   29  O3  UNL     1      -6.374   4.712  13.842  1.00  0.00    -0.372 OA
HETATM   30  C9  UNL     1      -6.191   3.659  14.735  1.00  0.00     0.204 C 
ENDBRANCH  28  29
ENDBRANCH  27  28
ENDBRANCH   2  27
BRANCH   3  31
HETATM   31  C11 UNL     1      -1.295   3.458  11.326  1.00  0.00     0.301 C 
HETATM   32  O4  UNL     1      -0.434   2.909  12.051  1.00  0.00    -0.261 OA
BRANCH  31  33
HETATM   33  O5  UNL     1      -0.843   4.128  10.200  1.00  0.00    -0.324 OA
HETATM   34  C12 UNL     1       0.255   3.624   9.458  1.00  0.00     0.213 C 
ENDBRANCH  31  33
ENDBRANCH   3  31
TORSDOF 13
ENDMDL
MODEL 3
REMARK VINA RESULT: -6.503829807      2.393      6.253
REMARK  13 active torsions:
REMARK  status: ('A' for Active; 'I' for Inactive)
REMARK    1  A    between atoms: C2_2  and  C3_3 
REMARK    2  A    between atoms: C3_3  and  C4_4 
REMARK    3  A    between atoms: C4_4  and  C5_5 
REMARK    4  A    between atoms: C5_5  and  O1_6 
REMARK    5  A    between atoms: C5_5  and  C19_29 
REMARK    6  A    between atoms: O1_6  and  C6_7 
REMARK    7  A    between atoms: C7_8  and  O2_9 
REMARK    8  A    between atoms: O2_9  and  C8_10 
REMARK    9  A    between atoms: C8_10  and  O3_11 
REMARK   10  A    between atoms: C10_13  and  C11_14 
REMARK   11  A    between atoms: C11_14  and  O5_16 
REMARK   12  A    between atoms: C19_29  and  O11_30 
REMARK   13  A    between atoms: C19_29  and  C20_32 
ROOT
HETATM    1  C6  UNL     1      -2.554   4.854   9.804  1.00  0.00     0.248 C 
HETATM    2  C7  UNL     1      -2.044   4.254  11.097  1.00  0.00     0.211 C 
HETATM    3  C10 UNL     1      -3.014   3.366  11.786  1.00  0.00     0.229 C 
HETATM    4  O6  UNL     1      -2.891   3.313  13.161  1.00  0.00    -0.327 OA
HETATM    5  C13 UNL     1      -4.191   3.292  13.701  1.00  0.00     0.162 C 
HETATM    6  C14 UNL     1      -4.399   4.545  14.513  1.00  0.00     0.078 C 
HETATM    7  C15 UNL     1      -4.451   2.091  14.547  1.00  0.00     0.078 C 
HETATM    8  O7  UNL     1      -5.077   3.310  12.596  1.00  0.00    -0.322 OA
HETATM    9  C16 UNL     1      -4.380   4.079  11.710  1.00  0.00     0.317 C 
HETATM   10  O8  UNL     1      -4.754   4.004  10.390  1.00  0.00    -0.296 OA
HETATM   11  C17 UNL     1      -4.027   5.038   9.751  1.00  0.00     0.318 C 
HETATM   12  O9  UNL     1      -4.511   5.408   8.530  1.00  0.00    -0.305 OA
HETATM   13  C18 UNL     1      -4.771   6.687   9.005  1.00  0.00     0.350 C 
HETATM   14  O10 UNL     1      -4.491   6.257  10.297  1.00  0.00    -0.305 OA
ENDROOT
BRANCH   1  15
HETATM   15  O1  UNL     1      -2.063   4.182   8.692  1.00  0.00    -0.367 OA
BRANCH  15  16
HETATM   16  C5  UNL     1      -0.855   4.628   8.224  1.00  0.00     0.161 C 
BRANCH  16  17
HETATM   17  C4  UNL     1      -0.904   5.492   7.013  1.00  0.00     0.035 C 
BRANCH  17  18
HETATM   18  C3  UNL     1      -2.102   5.327   6.135  1.00  0.00     0.002 C 
BRANCH  18  19
HETATM   19  C2  UNL     1      -1.720   5.926   4.771  1.00  0.00    -0.004 C 
HETATM   20  C1  UNL     1      -1.014   4.917   3.915  1.00  0.00     0.005 C 
ENDBRANCH  18  19
ENDBRANCH  17  18
ENDBRANCH  16  17
BRANCH  16  21
HETATM   21  C19 UNL     1       0.154   3.524   8.020  1.00  0.00     0.247 C 
BRANCH  21  22
HETATM   22  O11 UNL     1       0.604   3.378   6.736  1.00  0.00    -0.382 OA
ATOM     23  H11 UNL     1       0.053   2.847   6.174  1.00  0.00     0.210 HD
ENDBRANCH  21  22
BRANCH  21  24
HETATM   24  C20 UNL     1       1.317   3.824   8.929  1.00  0.00     0.205 C 
HETATM   25  O12 UNL     1       1.235   4.769   9.753  1.00  0.00    -0.646 OA
HETATM   26  O13 UNL     1       2.483   3.093   8.893  1.00  0.00    -0.646 OA
ENDBRANCH  21  24
ENDBRANCH  16  21
ENDBRANCH  15  16
ENDBRANCH   1  15
BRANCH   2  27
HETATM   27  O2  UNL     1      -1.560   5.187  11.989  1.00  0.00    -0.355 OA
BRANCH  27  28
HETATM   28  C8  UNL     1      -1.305   6.420  11.406  1.00  0.00     0.337 C 
BRANCH  28  29
HETATM   29  O3  UNL     1      -1.900   7.406  12.184  1.00  0.00    -0.372 OA
HETATM   30  C9  UNL     1      -1.783   7.027  13.519  1.00  0.00     0.204 C 
ENDBRANCH  28  29
ENDBRANCH  27  28
ENDBRANCH   2  27
BRANCH   3  31
HETATM   31  C11 UNL     1      -3.095   2.014  11.237  1.00  0.00     0.301 C 
HETATM   32  O4  UNL     1      -2.217   1.169  11.525  1.00  0.00    -0.261 OA
BRANCH  31  33
HETATM   33  O5  UNL     1      -4.117   1.607  10.394  1.00  0.00    -0.324 OA
HETATM   34  C12 UNL     1      -4.788   0.379  10.623  1.00  0.00     0.213 C 
ENDBRANCH  31  33
ENDBRANCH   3  31
TORSDOF 13
ENDMDL
MODEL 4
REMARK VINA RESULT: -6.482761773      2.191      6.341
REMARK  13 active torsions:
REMARK  status: ('A' for Active; 'I' for Inactive)
REMARK    1  A    between atoms: C2_2  and  C3_3 
REMARK    2  A    between atoms: C3_3  and  C4_4 
REMARK    3  A    between atoms: C4_4  and  C5_5 
REMARK    4  A    between atoms: C5_5  and  O1_6 
REMARK    5  A    between atoms: C5_5  and  C19_29 
REMARK    6  A    between atoms: O1_6  and  C6_7 
REMARK    7  A    between atoms: C7_8  and  O2_9 
REMARK    8  A    between atoms: O2_9  and  C8_10 
REMARK    9  A    between atoms: C8_10  and  O3_11 
REMARK   10  A    between atoms: C10_13  and  C11_14 
REMARK   11  A    between atoms: C11_14  and  O5_16 
REMARK   12  A    between atoms: C19_29  and  O11_30 
REMARK   13  A    between atoms: C19_29  and  C20_32 
ROOT
HETATM    1  C6  UNL     1      -2.742   5.697  11.898  1.00  0.00     0.248 C 
HETATM    2  C7  UNL     1      -2.159   4.407  12.437  1.00  0.00     0.211 C 
HETATM    3  C10 UNL     1      -2.181   3.276  11.476  1.00  0.00     0.229 C 
HETATM    4  O6  UNL     1      -2.272   2.021  12.045  1.00  0.00    -0.327 OA
HETATM    5  C13 UNL     1      -3.143   1.256  11.246  1.00  0.00     0.162 C 
HETATM    6  C14 UNL     1      -4.360   0.898  12.061  1.00  0.00     0.078 C 
HETATM    7  C15 UNL     1      -2.508   0.016  10.713  1.00  0.00     0.078 C 
HETATM    8  O7  UNL     1      -3.539   2.098  10.179  1.00  0.00    -0.322 OA
HETATM    9  C16 UNL     1      -3.564   3.314  10.795  1.00  0.00     0.317 C 
HETATM   10  O8  UNL     1      -3.539   4.425   9.987  1.00  0.00    -0.296 OA
HETATM   11  C17 UNL     1      -3.788   5.512  10.860  1.00  0.00     0.318 C 
HETATM   12  O9  UNL     1      -4.187   6.662  10.244  1.00  0.00    -0.305 OA
HETATM   13  C18 UNL     1      -5.405   6.612  10.909  1.00  0.00     0.350 C 
HETATM   14  O10 UNL     1      -5.097   5.335  11.364  1.00  0.00    -0.305 OA
ENDROOT
BRANCH   1  15
HETATM   15  O1  UNL     1      -1.751   6.585  11.501  1.00  0.00    -0.367 OA
BRANCH  15  16
HETATM   16  C5  UNL     1      -0.849   6.930  12.473  1.00  0.00     0.161 C 
BRANCH  16  17
HETATM   17  C4  UNL     1      -1.150   8.175  13.230  1.00  0.00     0.035 C 
BRANCH  17  18
HETATM   18  C3  UNL     1      -1.467   8.003  14.680  1.00  0.00     0.002 C 
BRANCH  18  19
HETATM   19  C2  UNL     1      -2.165   9.301  15.124  1.00  0.00    -0.004 C 
HETATM   20  C1  UNL     1      -1.505  10.504  14.519  1.00  0.00     0.005 C 
ENDBRANCH  18  19
ENDBRANCH  17  18
ENDBRANCH  16  17
BRANCH  16  21
HETATM   21  C19 UNL     1       0.578   6.967  11.981  1.00  0.00     0.247 C 
BRANCH  21  22
HETATM   22  O11 UNL     1       1.246   5.775  12.048  1.00  0.00    -0.382 OA
ATOM     23  H11 UNL     1       1.358   5.425  12.924  1.00  0.00     0.210 HD
ENDBRANCH  21  22
BRANCH  21  24
HETATM   24  C20 UNL     1       0.534   7.438  10.550  1.00  0.00     0.205 C 
HETATM   25  O12 UNL     1       0.745   6.621   9.620  1.00  0.00    -0.646 OA
HETATM   26  O13 UNL     1       0.267   8.747  10.218  1.00  0.00    -0.646 OA
ENDBRANCH  21  24
ENDBRANCH  16  21
ENDBRANCH  15  16
ENDBRANCH   1  15
BRANCH   2  27
HETATM   27  O2  UNL     1      -2.713   4.005  13.634  1.00  0.00    -0.355 OA
BRANCH  27  28
HETATM   28  C8  UNL     1      -3.540   4.964  14.203  1.00  0.00     0.337 C 
BRANCH  28  29
HETATM   29  O3  UNL     1      -4.775   4.380  14.462  1.00  0.00    -0.372 OA
HETATM   30  C9  UNL     1      -4.559   3.041  14.777  1.00  0.00     0.204 C 
ENDBRANCH  28  29
ENDBRANCH  27  28
ENDBRANCH   2  27
BRANCH   3  31
HETATM   31  C11 UNL     1      -1.106   3.300  10.485  1.00  0.00     0.301 C 
HETATM   32  O4  UNL     1       0.061   3.590  10.836  1.00  0.00    -0.261 OA
BRANCH  31  33
HETATM   33  O5  UNL     1      -1.315   3.012   9.146  1.00  0.00    -0.324 OA
HETATM   34  C12 UNL     1      -0.577   3.692   8.143  1.00  0.00     0.213 C 
ENDBRANCH  31  33
ENDBRANCH   3  31
TORSDOF 13
ENDMDL
MODEL 5
REMARK VINA RESULT: -6.458603908      1.685      2.140
REMARK  13 active torsions:
REMARK  status: ('A' for Active; 'I' for Inactive)
REMARK    1  A    between atoms: C2_2  and  C3_3 
REMARK    2  A    between atoms: C3_3  and  C4_4 
REMARK    3  A    between atoms: C4_4  and  C5_5 
REMARK    4  A    between atoms: C5_5  and  O1_6 
REMARK    5  A    between atoms: C5_5  and  C19_29 
REMARK    6  A    between atoms: O1_6  and  C6_7 
REMARK    7  A    between atoms: C7_8  and  O2_9 
REMARK    8  A    between atoms: O2_9  and  C8_10 
REMARK    9  A    between atoms: C8_10  and  O3_11 
REMARK   10  A    between atoms: C10_13  and  C11_14 
REMARK   11  A    between atoms: C11_14  and  O5_16 
REMARK   12  A    between atoms: C19_29  and  O11_30 
REMARK   13  A    between atoms: C19_29  and  C20_32 
ROOT
HETATM    1  C6  UNL     1      -3.731   5.135  10.476  1.00  0.00     0.248 C 
HETATM    2  C7  UNL     1      -4.299   6.220  11.366  1.00  0.00     0.211 C 
HETATM    3  C10 UNL     1      -4.948   7.337  10.633  1.00  0.00     0.229 C 
HETATM    4  O6  UNL     1      -4.907   8.562  11.269  1.00  0.00    -0.327 OA
HETATM    5  C13 UNL     1      -4.661   9.540  10.286  1.00  0.00     0.162 C 
HETATM    6  C14 UNL     1      -3.327  10.185  10.566  1.00  0.00     0.078 C 
HETATM    7  C15 UNL     1      -5.725  10.584  10.224  1.00  0.00     0.078 C 
HETATM    8  O7  UNL     1      -4.585   8.848   9.053  1.00  0.00    -0.322 OA
HETATM    9  C16 UNL     1      -4.023   7.669   9.445  1.00  0.00     0.317 C 
HETATM   10  O8  UNL     1      -4.143   6.604   8.584  1.00  0.00    -0.296 OA
HETATM   11  C17 UNL     1      -3.305   5.602   9.133  1.00  0.00     0.318 C 
HETATM   12  O9  UNL     1      -2.961   4.605   8.266  1.00  0.00    -0.305 OA
HETATM   13  C18 UNL     1      -1.622   4.956   8.372  1.00  0.00     0.350 C 
HETATM   14  O10 UNL     1      -1.984   6.102   9.072  1.00  0.00    -0.305 OA
ENDROOT
BRANCH   1  15
HETATM   15  O1  UNL     1      -4.568   4.028  10.413  1.00  0.00    -0.367 OA
BRANCH  15  16
HETATM   16  C5  UNL     1      -4.005   2.844  10.810  1.00  0.00     0.161 C 
BRANCH  16  17
HETATM   17  C4  UNL     1      -4.955   1.779  11.230  1.00  0.00     0.035 C 
BRANCH  17  18
HETATM   18  C3  UNL     1      -4.822   0.465  10.531  1.00  0.00     0.002 C 
BRANCH  18  19
HETATM   19  C2  UNL     1      -4.276  -0.524  11.575  1.00  0.00    -0.004 C 
HETATM   20  C1  UNL     1      -3.041  -1.212  11.076  1.00  0.00     0.005 C 
ENDBRANCH  18  19
ENDBRANCH  17  18
ENDBRANCH  16  17
BRANCH  16  21
HETATM   21  C19 UNL     1      -2.934   3.012  11.861  1.00  0.00     0.247 C 
BRANCH  21  22
HETATM   22  O11 UNL     1      -3.186   2.388  13.052  1.00  0.00    -0.382 OA
ATOM     23  H11 UNL     1      -2.721   2.744  13.800  1.00  0.00     0.210 HD
ENDBRANCH  21  22
BRANCH  21  24
HETATM   24  C20 UNL     1      -1.657   2.471  11.271  1.00  0.00     0.205 C 
HETATM   25  O12 UNL     1      -0.570   2.640  11.879  1.00  0.00    -0.646 OA
HETATM   26  O13 UNL     1      -1.634   1.790  10.075  1.00  0.00    -0.646 OA
ENDBRANCH  21  24
ENDBRANCH  16  21
ENDBRANCH  15  16
ENDBRANCH   1  15
BRANCH   2  27
HETATM   27  O2  UNL     1      -3.390   6.730  12.269  1.00  0.00    -0.355 OA
BRANCH  27  28
HETATM   28  C8  UNL     1      -3.563   6.236  13.555  1.00  0.00     0.337 C 
BRANCH  28  29
HETATM   29  O3  UNL     1      -3.613   7.311  14.435  1.00  0.00    -0.372 OA
HETATM   30  C9  UNL     1      -2.628   8.220  14.058  1.00  0.00     0.204 C 
ENDBRANCH  28  29
ENDBRANCH  27  28
ENDBRANCH   2  27
BRANCH   3  31
HETATM   31  C11 UNL     1      -6.308   7.054  10.178  1.00  0.00     0.301 C 
HETATM   32  O4  UNL     1      -7.280   7.634  10.715  1.00  0.00    -0.261 OA
BRANCH  31  33
HETATM   33  O5  UNL     1      -6.587   6.157   9.159  1.00  0.00    -0.324 OA
HETATM   34  C12 UNL     1      -7.485   6.509   8.120  1.00  0.00     0.213 C 
ENDBRANCH  31  33
ENDBRANCH   3  31
TORSDOF 13
ENDMDL
