MODEL 1
REMARK VINA RESULT: -7.100631892      0.000      0.000
REMARK  16 active torsions:
REMARK  status: ('A' for Active; 'I' for Inactive)
REMARK    1  A    between atoms: O1_2  and  C2_3 
REMARK    2  A    between atoms: C2_3  and  C5_6 
REMARK    3  A    between atoms: C6_7  and  C7_8 
REMARK    4  A    between atoms: C7_8  and  C8_10 
REMARK    5  A    between atoms: C8_10  and  O3_11 
REMARK    6  A    between atoms: C8_10  and  C11_15 
REMARK    7  A    between atoms: O3_11  and  C9_12 
REMARK    8  A    between atoms: C11_15  and  C12_16 
REMARK    9  A    between atoms: C11_15  and  O6_19 
REMARK   10  A    between atoms: C12_16  and  O5_17 
REMARK   11  A    between atoms: O6_19  and  C13_20 
REMARK   12  A    between atoms: C14_21  and  O7_22 
REMARK   13  A    between atoms: O7_22  and  C15_23 
REMARK   14  A    between atoms: C18_29  and  O11_30 
REMARK   15  A    between atoms: C19_32  and  O12_33 
REMARK   16  A    between atoms: O12_33  and  C20_34 
ROOT
HETATM    1  C11 UNL     1      -2.333   4.378  12.668  1.00  0.00     0.183 C 
ENDROOT
BRANCH   1   2
HETATM    2  C8  UNL     1      -1.429   4.134  11.524  1.00  0.00     0.236 C 
BRANCH   2   3
HETATM    3  C7  UNL     1      -1.961   4.089  10.180  1.00  0.00     0.181 C 
HETATM    4  O2  UNL     1      -1.789   3.150   9.360  1.00  0.00    -0.290 OA
BRANCH   3   5
HETATM    5  C6  UNL     1      -2.776   5.204   9.665  1.00  0.00     0.052 C 
HETATM    6  C5  UNL     1      -4.091   5.141   9.617  1.00  0.00     0.014 C 
BRANCH   6   7
HETATM    7  C2  UNL     1      -4.963   6.200   9.124  1.00  0.00     0.071 C 
HETATM    8  C3  UNL     1      -4.762   6.260   7.603  1.00  0.00     0.050 C 
HETATM    9  C4  UNL     1      -4.666   7.561   9.664  1.00  0.00     0.050 C 
BRANCH   7  10
HETATM   10  O1  UNL     1      -6.310   5.909   9.358  1.00  0.00    -0.382 OA
HETATM   11  C1  UNL     1      -7.089   6.344   8.309  1.00  0.00     0.202 C 
ENDBRANCH   7  10
ENDBRANCH   6   7
ENDBRANCH   3   5
ENDBRANCH   2   3
BRANCH   2  12
HETATM   12  O3  UNL     1      -0.297   5.025  11.615  1.00  0.00    -0.305 OA
BRANCH  12  13
HETATM   13  C9  UNL     1       0.789   4.952  10.770  1.00  0.00     0.255 C 
HETATM   14  C10 UNL     1       1.087   6.055   9.785  1.00  0.00     0.126 C 
HETATM   15  O4  UNL     1       1.529   3.926  10.853  1.00  0.00    -0.266 OA
ENDBRANCH  12  13
ENDBRANCH   2  12
ENDBRANCH   1   2
BRANCH   1  16
HETATM   16  C12 UNL     1      -1.458   4.989  13.828  1.00  0.00     0.199 C 
BRANCH  16  17
HETATM   17  O5  UNL     1      -1.069   4.002  14.711  1.00  0.00    -0.398 OA
ATOM     18  H5  UNL     1      -0.168   4.132  14.979  1.00  0.00     0.209 HD
ENDBRANCH  16  17
ENDBRANCH   1  16
BRANCH   1  19
HETATM   19  O6  UNL     1      -2.967   3.264  13.119  1.00  0.00    -0.368 OA
BRANCH  19  20
HETATM   20  C13 UNL     1      -4.329   3.209  12.987  1.00  0.00     0.210 C 
HETATM   21  C14 UNL     1      -4.890   1.775  12.892  1.00  0.00     0.310 C 
HETATM   22  O9  UNL     1      -4.419   0.990  13.970  1.00  0.00    -0.284 OA
HETATM   23  C17 UNL     1      -4.289   1.709  15.176  1.00  0.00     0.292 C 
HETATM   24  O10 UNL     1      -3.447   1.376  16.018  1.00  0.00    -0.262 OA
HETATM   25  C18 UNL     1      -5.243   2.852  15.289  1.00  0.00     0.249 C 
HETATM   26  C19 UNL     1      -4.945   3.868  14.204  1.00  0.00     0.194 C 
BRANCH  21  27
HETATM   27  O7  UNL     1      -4.558   1.141  11.689  1.00  0.00    -0.287 OA
BRANCH  27  28
HETATM   28  C15 UNL     1      -3.542   0.176  11.571  1.00  0.00     0.257 C 
HETATM   29  C16 UNL     1      -3.821  -1.270  11.538  1.00  0.00     0.126 C 
HETATM   30  O8  UNL     1      -2.373   0.602  11.495  1.00  0.00    -0.266 OA
ENDBRANCH  27  28
ENDBRANCH  21  27
BRANCH  25  31
HETATM   31  O11 UNL     1      -6.548   2.434  15.311  1.00  0.00    -0.383 OA
ATOM     32  H11 UNL     1      -7.140   3.126  15.583  1.00  0.00     0.210 HD
ENDBRANCH  25  31
BRANCH  26  33
HETATM   33  O12 UNL     1      -6.154   4.499  13.924  1.00  0.00    -0.376 OA
BRANCH  33  34
HETATM   34  C20 UNL     1      -6.113   5.855  14.139  1.00  0.00     0.114 C 
HETATM   35  C21 UNL     1      -6.428   6.618  12.848  1.00  0.00     0.039 C 
HETATM   36  C22 UNL     1      -4.810   6.383  14.645  1.00  0.00     0.039 C 
ENDBRANCH  33  34
ENDBRANCH  26  33
ENDBRANCH  19  20
ENDBRANCH   1  19
TORSDOF 16
ENDMDL
MODEL 2
REMARK VINA RESULT: -7.017402186      1.306      2.053
REMARK  16 active torsions:
REMARK  status: ('A' for Active; 'I' for Inactive)
REMARK    1  A    between atoms: O1_2  and  C2_3 
REMARK    2  A    between atoms: C2_3  and  C5_6 
REMARK    3  A    between atoms: C6_7  and  C7_8 
REMARK    4  A    between atoms: C7_8  and  C8_10 
REMARK    5  A    between atoms: C8_10  and  O3_11 
REMARK    6  A    between atoms: C8_10  and  C11_15 
REMARK    7  A    between atoms: O3_11  and  C9_12 
REMARK    8  A    between atoms: C11_15  and  C12_16 
REMARK    9  A    between atoms: C11_15  and  O6_19 
REMARK   10  A    between atoms: C12_16  and  O5_17 
REMARK   11  A    between atoms: O6_19  and  C13_20 
REMARK   12  A    between atoms: C14_21  and  O7_22 
REMARK   13  A    between atoms: O7_22  and  C15_23 
REMARK   14  A    between atoms: C18_29  and  O11_30 
REMARK   15  A    between atoms: C19_32  and  O12_33 
REMARK   16  A    between atoms: O12_33  and  C20_34 
ROOT
HETATM    1  C11 UNL     1      -2.148   4.729  13.007  1.00  0.00     0.183 C 
ENDROOT
BRANCH   1   2
HETATM    2  C8  UNL     1      -2.734   5.391  11.824  1.00  0.00     0.236 C 
BRANCH   2   3
HETATM    3  C7  UNL     1      -3.143   6.777  11.899  1.00  0.00     0.181 C 
HETATM    4  O2  UNL     1      -2.743   7.608  12.755  1.00  0.00    -0.290 OA
BRANCH   3   5
HETATM    5  C6  UNL     1      -4.106   7.322  10.927  1.00  0.00     0.052 C 
HETATM    6  C5  UNL     1      -5.129   6.617  10.490  1.00  0.00     0.014 C 
BRANCH   6   7
HETATM    7  C2  UNL     1      -6.122   7.086   9.531  1.00  0.00     0.071 C 
HETATM    8  C3  UNL     1      -5.345   7.744   8.382  1.00  0.00     0.050 C 
HETATM    9  C4  UNL     1      -7.075   8.107  10.062  1.00  0.00     0.050 C 
BRANCH   7  10
HETATM   10  O1  UNL     1      -6.857   6.027   8.989  1.00  0.00    -0.382 OA
HETATM   11  C1  UNL     1      -7.450   6.405   7.805  1.00  0.00     0.202 C 
ENDBRANCH   7  10
ENDBRANCH   6   7
ENDBRANCH   3   5
ENDBRANCH   2   3
BRANCH   2  12
HETATM   12  O3  UNL     1      -1.888   5.152  10.678  1.00  0.00    -0.305 OA
BRANCH  12  13
HETATM   13  C9  UNL     1      -2.275   4.381   9.604  1.00  0.00     0.255 C 
HETATM   14  C10 UNL     1      -2.741   5.016   8.316  1.00  0.00     0.126 C 
HETATM   15  O4  UNL     1      -2.224   3.121   9.736  1.00  0.00    -0.266 OA
ENDBRANCH  12  13
ENDBRANCH   2  12
ENDBRANCH   1   2
BRANCH   1  16
HETATM   16  C12 UNL     1      -0.624   4.480  12.693  1.00  0.00     0.199 C 
BRANCH  16  17
HETATM   17  O5  UNL     1      -0.419   3.176  12.290  1.00  0.00    -0.398 OA
ATOM     18  H5  UNL     1       0.454   2.888  12.527  1.00  0.00     0.209 HD
ENDBRANCH  16  17
ENDBRANCH   1  16
BRANCH   1  19
HETATM   19  O6  UNL     1      -2.740   3.548  13.330  1.00  0.00    -0.368 OA
BRANCH  19  20
HETATM   20  C13 UNL     1      -4.063   3.391  13.011  1.00  0.00     0.210 C 
HETATM   21  C14 UNL     1      -4.482   1.923  12.788  1.00  0.00     0.310 C 
HETATM   22  O9  UNL     1      -4.093   1.128  13.892  1.00  0.00    -0.284 OA
HETATM   23  C17 UNL     1      -4.187   1.798  15.129  1.00  0.00     0.292 C 
HETATM   24  O10 UNL     1      -3.439   1.494  16.066  1.00  0.00    -0.262 OA
HETATM   25  C18 UNL     1      -5.242   2.855  15.151  1.00  0.00     0.249 C 
HETATM   26  C19 UNL     1      -4.889   3.941  14.155  1.00  0.00     0.194 C 
BRANCH  21  27
HETATM   27  O7  UNL     1      -3.939   1.375  11.620  1.00  0.00    -0.287 OA
BRANCH  27  28
HETATM   28  C15 UNL     1      -4.455   0.234  10.981  1.00  0.00     0.257 C 
HETATM   29  C16 UNL     1      -4.190  -1.133  11.461  1.00  0.00     0.126 C 
HETATM   30  O8  UNL     1      -5.159   0.430   9.971  1.00  0.00    -0.266 OA
ENDBRANCH  27  28
ENDBRANCH  21  27
BRANCH  25  31
HETATM   31  O11 UNL     1      -6.497   2.334  14.981  1.00  0.00    -0.383 OA
ATOM     32  H11 UNL     1      -7.141   3.006  14.792  1.00  0.00     0.210 HD
ENDBRANCH  25  31
BRANCH  26  33
HETATM   33  O12 UNL     1      -6.100   4.487  13.735  1.00  0.00    -0.376 OA
BRANCH  33  34
HETATM   34  C20 UNL     1      -6.377   5.694  14.327  1.00  0.00     0.114 C 
HETATM   35  C21 UNL     1      -7.086   6.630  13.343  1.00  0.00     0.039 C 
HETATM   36  C22 UNL     1      -5.191   6.437  14.850  1.00  0.00     0.039 C 
ENDBRANCH  33  34
ENDBRANCH  26  33
ENDBRANCH  19  20
ENDBRANCH   1  19
TORSDOF 16
ENDMDL
MODEL 3
REMARK VINA RESULT: -7.008046739      1.957      4.583
REMARK  16 active torsions:
REMARK  status: ('A' for Active; 'I' for Inactive)
REMARK    1  A    between atoms: O1_2  and  C2_3 
REMARK    2  A    between atoms: C2_3  and  C5_6 
REMARK    3  A    between atoms: C6_7  and  C7_8 
REMARK    4  A    between atoms: C7_8  and  C8_10 
REMARK    5  A    between atoms: C8_10  and  O3_11 
REMARK    6  A    between atoms: C8_10  and  C11_15 
REMARK    7  A    between atoms: O3_11  and  C9_12 
REMARK    8  A    between atoms: C11_15  and  C12_16 
REMARK    9  A    between atoms: C11_15  and  O6_19 
REMARK   10  A    between atoms: C12_16  and  O5_17 
REMARK   11  A    between atoms: O6_19  and  C13_20 
REMARK   12  A    between atoms: C14_21  and  O7_22 
REMARK   13  A    between atoms: O7_22  and  C15_23 
REMARK   14  A    between atoms: C18_29  and  O11_30 
REMARK   15  A    between atoms: C19_32  and  O12_33 
REMARK   16  A    between atoms: O12_33  and  C20_34 
ROOT
HETATM    1  C11 UNL     1      -5.442   5.344  13.369  1.00  0.00     0.183 C 
ENDROOT
BRANCH   1   2
HETATM    2  C8  UNL     1      -5.522   6.430  12.370  1.00  0.00     0.236 C 
BRANCH   2   3
HETATM    3  C7  UNL     1      -6.753   7.172  12.206  1.00  0.00     0.181 C 
HETATM    4  O2  UNL     1      -7.731   7.143  12.997  1.00  0.00    -0.290 OA
BRANCH   3   5
HETATM    5  C6  UNL     1      -6.942   8.048  11.037  1.00  0.00     0.052 C 
HETATM    6  C5  UNL     1      -6.867   7.591   9.803  1.00  0.00     0.014 C 
BRANCH   6   7
HETATM    7  C2  UNL     1      -7.043   8.393   8.600  1.00  0.00     0.071 C 
HETATM    8  C3  UNL     1      -6.443   9.775   8.902  1.00  0.00     0.050 C 
HETATM    9  C4  UNL     1      -8.464   8.609   8.189  1.00  0.00     0.050 C 
BRANCH   7  10
HETATM   10  O1  UNL     1      -6.340   7.859   7.516  1.00  0.00    -0.382 OA
HETATM   11  C1  UNL     1      -6.595   6.512   7.389  1.00  0.00     0.202 C 
ENDBRANCH   7  10
ENDBRANCH   6   7
ENDBRANCH   3   5
ENDBRANCH   2   3
BRANCH   2  12
HETATM   12  O3  UNL     1      -4.391   7.313  12.537  1.00  0.00    -0.305 OA
BRANCH  12  13
HETATM   13  C9  UNL     1      -3.572   7.693  11.497  1.00  0.00     0.255 C 
HETATM   14  C10 UNL     1      -2.860   9.024  11.511  1.00  0.00     0.126 C 
HETATM   15  O4  UNL     1      -3.436   6.883  10.531  1.00  0.00    -0.266 OA
ENDBRANCH  12  13
ENDBRANCH   2  12
ENDBRANCH   1   2
BRANCH   1  16
HETATM   16  C12 UNL     1      -4.352   5.765  14.426  1.00  0.00     0.199 C 
BRANCH  16  17
HETATM   17  O5  UNL     1      -4.836   6.761  15.250  1.00  0.00    -0.398 OA
ATOM     18  H5  UNL     1      -4.501   6.655  16.132  1.00  0.00     0.209 HD
ENDBRANCH  16  17
ENDBRANCH   1  16
BRANCH   1  19
HETATM   19  O6  UNL     1      -5.117   4.133  12.844  1.00  0.00    -0.368 OA
BRANCH  19  20
HETATM   20  C13 UNL     1      -3.951   3.549  13.264  1.00  0.00     0.210 C 
HETATM   21  C14 UNL     1      -4.144   2.159  13.904  1.00  0.00     0.310 C 
HETATM   22  O9  UNL     1      -4.891   1.320  13.045  1.00  0.00    -0.284 OA
HETATM   23  C17 UNL     1      -4.617   1.529  11.677  1.00  0.00     0.292 C 
HETATM   24  O10 UNL     1      -5.484   1.309  10.823  1.00  0.00    -0.262 OA
HETATM   25  C18 UNL     1      -3.230   2.020  11.419  1.00  0.00     0.249 C 
HETATM   26  C19 UNL     1      -3.050   3.383  12.057  1.00  0.00     0.194 C 
BRANCH  21  27
HETATM   27  O7  UNL     1      -4.783   2.219  15.148  1.00  0.00    -0.287 OA
BRANCH  27  28
HETATM   28  C15 UNL     1      -4.720   1.193  16.108  1.00  0.00     0.257 C 
HETATM   29  C16 UNL     1      -5.825   0.909  17.040  1.00  0.00     0.126 C 
HETATM   30  O8  UNL     1      -3.670   0.522  16.139  1.00  0.00    -0.266 OA
ENDBRANCH  27  28
ENDBRANCH  21  27
BRANCH  25  31
HETATM   31  O11 UNL     1      -2.282   1.104  11.793  1.00  0.00    -0.383 OA
ATOM     32  H11 UNL     1      -1.443   1.512  11.973  1.00  0.00     0.210 HD
ENDBRANCH  25  31
BRANCH  26  33
HETATM   33  O12 UNL     1      -1.698   3.485  12.373  1.00  0.00    -0.376 OA
BRANCH  33  34
HETATM   34  C20 UNL     1      -1.070   4.512  11.712  1.00  0.00     0.114 C 
HETATM   35  C21 UNL     1       0.200   4.011  11.015  1.00  0.00     0.039 C 
HETATM   36  C22 UNL     1      -0.665   5.669  12.566  1.00  0.00     0.039 C 
ENDBRANCH  33  34
ENDBRANCH  26  33
ENDBRANCH  19  20
ENDBRANCH   1  19
TORSDOF 16
ENDMDL
MODEL 4
REMARK VINA RESULT: -7.001198802      2.311      3.979
REMARK  16 active torsions:
REMARK  status: ('A' for Active; 'I' for Inactive)
REMARK    1  A    between atoms: O1_2  and  C2_3 
REMARK    2  A    between atoms: C2_3  and  C5_6 
REMARK    3  A    between atoms: C6_7  and  C7_8 
REMARK    4  A    between atoms: C7_8  and  C8_10 
REMARK    5  A    between atoms: C8_10  and  O3_11 
REMARK    6  A    between atoms: C8_10  and  C11_15 
REMARK    7  A    between atoms: O3_11  and  C9_12 
REMARK    8  A    between atoms: C11_15  and  C12_16 
REMARK    9  A    between atoms: C11_15  and  O6_19 
REMARK   10  A    between atoms: C12_16  and  O5_17 
REMARK   11  A    between atoms: O6_19  and  C13_20 
REMARK   12  A    between atoms: C14_21  and  O7_22 
REMARK   13  A    between atoms: O7_22  and  C15_23 
REMARK   14  A    between atoms: C18_29  and  O11_30 
REMARK   15  A    between atoms: C19_32  and  O12_33 
REMARK   16  A    between atoms: O12_33  and  C20_34 
ROOT
HETATM    1  C11 UNL     1      -2.031   4.496  12.893  1.00  0.00     0.183 C 
ENDROOT
BRANCH   1   2
HETATM    2  C8  UNL     1      -2.807   5.273  11.905  1.00  0.00     0.236 C 
BRANCH   2   3
HETATM    3  C7  UNL     1      -3.055   6.681  12.127  1.00  0.00     0.181 C 
HETATM    4  O2  UNL     1      -3.746   7.424  11.383  1.00  0.00    -0.290 OA
BRANCH   3   5
HETATM    5  C6  UNL     1      -2.477   7.362  13.298  1.00  0.00     0.052 C 
HETATM    6  C5  UNL     1      -2.303   8.668  13.329  1.00  0.00     0.014 C 
BRANCH   6   7
HETATM    7  C2  UNL     1      -1.740   9.412  14.449  1.00  0.00     0.071 C 
HETATM    8  C3  UNL     1      -2.575   9.043  15.684  1.00  0.00     0.050 C 
HETATM    9  C4  UNL     1      -1.795  10.899  14.307  1.00  0.00     0.050 C 
BRANCH   7  10
HETATM   10  O1  UNL     1      -0.419   9.035  14.708  1.00  0.00    -0.382 OA
HETATM   11  C1  UNL     1       0.427  10.113  14.575  1.00  0.00     0.202 C 
ENDBRANCH   7  10
ENDBRANCH   6   7
ENDBRANCH   3   5
ENDBRANCH   2   3
BRANCH   2  12
HETATM   12  O3  UNL     1      -2.273   5.032  10.586  1.00  0.00    -0.305 OA
BRANCH  12  13
HETATM   13  C9  UNL     1      -3.041   4.591   9.531  1.00  0.00     0.255 C 
HETATM   14  C10 UNL     1      -3.246   5.445   8.304  1.00  0.00     0.126 C 
HETATM   15  O4  UNL     1      -3.567   3.441   9.627  1.00  0.00    -0.266 OA
ENDBRANCH  12  13
ENDBRANCH   2  12
ENDBRANCH   1   2
BRANCH   1  16
HETATM   16  C12 UNL     1      -0.851   3.801  12.114  1.00  0.00     0.199 C 
BRANCH  16  17
HETATM   17  O5  UNL     1      -1.230   2.547  11.680  1.00  0.00    -0.398 OA
ATOM     18  H5  UNL     1      -1.803   2.615  10.925  1.00  0.00     0.209 HD
ENDBRANCH  16  17
ENDBRANCH   1  16
BRANCH   1  19
HETATM   19  O6  UNL     1      -2.757   3.551  13.547  1.00  0.00    -0.368 OA
BRANCH  19  20
HETATM   20  C13 UNL     1      -4.060   3.371  13.165  1.00  0.00     0.210 C 
HETATM   21  C14 UNL     1      -4.443   1.897  12.925  1.00  0.00     0.310 C 
HETATM   22  O9  UNL     1      -4.095   1.109  14.048  1.00  0.00    -0.284 OA
HETATM   23  C17 UNL     1      -4.260   1.779  15.278  1.00  0.00     0.292 C 
HETATM   24  O10 UNL     1      -3.553   1.488  16.250  1.00  0.00    -0.262 OA
HETATM   25  C18 UNL     1      -5.332   2.818  15.247  1.00  0.00     0.249 C 
HETATM   26  C19 UNL     1      -4.950   3.909  14.267  1.00  0.00     0.194 C 
BRANCH  21  27
HETATM   27  O7  UNL     1      -3.836   1.356  11.786  1.00  0.00    -0.287 OA
BRANCH  27  28
HETATM   28  C15 UNL     1      -4.344   0.252  11.080  1.00  0.00     0.257 C 
HETATM   29  C16 UNL     1      -4.045  -1.140  11.460  1.00  0.00     0.126 C 
HETATM   30  O8  UNL     1      -5.072   0.503  10.099  1.00  0.00    -0.266 OA
ENDBRANCH  27  28
ENDBRANCH  21  27
BRANCH  25  31
HETATM   31  O11 UNL     1      -6.569   2.275  15.017  1.00  0.00    -0.383 OA
ATOM     32  H11 UNL     1      -6.684   2.021  14.109  1.00  0.00     0.210 HD
ENDBRANCH  25  31
BRANCH  26  33
HETATM   33  O12 UNL     1      -6.148   4.433  13.788  1.00  0.00    -0.376 OA
BRANCH  33  34
HETATM   34  C20 UNL     1      -6.382   5.715  14.220  1.00  0.00     0.114 C 
HETATM   35  C21 UNL     1      -6.686   6.639  13.036  1.00  0.00     0.039 C 
HETATM   36  C22 UNL     1      -5.263   6.347  14.983  1.00  0.00     0.039 C 
ENDBRANCH  33  34
ENDBRANCH  26  33
ENDBRANCH  19  20
ENDBRANCH   1  19
TORSDOF 16
ENDMDL
MODEL 5
REMARK VINA RESULT: -6.846210625      2.521      5.855
REMARK  16 active torsions:
REMARK  status: ('A' for Active; 'I' for Inactive)
REMARK    1  A    between atoms: O1_2  and  C2_3 
REMARK    2  A    between atoms: C2_3  and  C5_6 
REMARK    3  A    between atoms: C6_7  and  C7_8 
REMARK    4  A    between atoms: C7_8  and  C8_10 
REMARK    5  A    between atoms: C8_10  and  O3_11 
REMARK    6  A    between atoms: C8_10  and  C11_15 
REMARK    7  A    between atoms: O3_11  and  C9_12 
REMARK    8  A    between atoms: C11_15  and  C12_16 
REMARK    9  A    between atoms: C11_15  and  O6_19 
REMARK   10  A    between atoms: C12_16  and  O5_17 
REMARK   11  A    between atoms: O6_19  and  C13_20 
REMARK   12  A    between atoms: C14_21  and  O7_22 
REMARK   13  A    between atoms: O7_22  and  C15_23 
REMARK   14  A    between atoms: C18_29  and  O11_30 
REMARK   15  A    between atoms: C19_32  and  O12_33 
REMARK   16  A    between atoms: O12_33  and  C20_34 
ROOT
HETATM    1  C11 UNL     1      -4.080   4.863  11.143  1.00  0.00     0.183 C 
ENDROOT
BRANCH   1   2
HETATM    2  C8  UNL     1      -4.558   6.124  11.749  1.00  0.00     0.236 C 
BRANCH   2   3
HETATM    3  C7  UNL     1      -3.706   7.292  11.753  1.00  0.00     0.181 C 
HETATM    4  O2  UNL     1      -3.298   7.899  10.729  1.00  0.00    -0.290 OA
BRANCH   3   5
HETATM    5  C6  UNL     1      -3.238   7.867  13.026  1.00  0.00     0.052 C 
HETATM    6  C5  UNL     1      -2.236   8.720  13.079  1.00  0.00     0.014 C 
BRANCH   6   7
HETATM    7  C2  UNL     1      -1.719   9.331  14.297  1.00  0.00     0.071 C 
HETATM    8  C3  UNL     1      -2.580   8.802  15.453  1.00  0.00     0.050 C 
HETATM    9  C4  UNL     1      -1.797  10.823  14.335  1.00  0.00     0.050 C 
BRANCH   7  10
HETATM   10  O1  UNL     1      -0.398   8.946  14.548  1.00  0.00    -0.382 OA
HETATM   11  C1  UNL     1       0.420   9.311  13.502  1.00  0.00     0.202 C 
ENDBRANCH   7  10
ENDBRANCH   6   7
ENDBRANCH   3   5
ENDBRANCH   2   3
BRANCH   2  12
HETATM   12  O3  UNL     1      -5.871   6.430  11.232  1.00  0.00    -0.305 OA
BRANCH  12  13
HETATM   13  C9  UNL     1      -6.718   7.343  11.821  1.00  0.00     0.255 C 
HETATM   14  C10 UNL     1      -6.961   8.696  11.198  1.00  0.00     0.126 C 
HETATM   15  O4  UNL     1      -7.287   7.005  12.903  1.00  0.00    -0.266 OA
ENDBRANCH  12  13
ENDBRANCH   2  12
ENDBRANCH   1   2
BRANCH   1  16
HETATM   16  C12 UNL     1      -4.643   4.811   9.673  1.00  0.00     0.199 C 
BRANCH  16  17
HETATM   17  O5  UNL     1      -3.658   4.414   8.791  1.00  0.00    -0.398 OA
ATOM     18  H5  UNL     1      -3.113   5.152   8.546  1.00  0.00     0.209 HD
ENDBRANCH  16  17
ENDBRANCH   1  16
BRANCH   1  19
HETATM   19  O6  UNL     1      -4.468   3.746  11.814  1.00  0.00    -0.368 OA
BRANCH  19  20
HETATM   20  C13 UNL     1      -3.501   3.023  12.461  1.00  0.00     0.210 C 
HETATM   21  C14 UNL     1      -4.044   1.804  13.233  1.00  0.00     0.310 C 
HETATM   22  O9  UNL     1      -4.844   1.001  12.387  1.00  0.00    -0.284 OA
HETATM   23  C17 UNL     1      -4.381   0.951  11.056  1.00  0.00     0.292 C 
HETATM   24  O10 UNL     1      -5.172   0.773  10.122  1.00  0.00    -0.262 OA
HETATM   25  C18 UNL     1      -2.903   1.131  10.936  1.00  0.00     0.249 C 
HETATM   26  C19 UNL     1      -2.523   2.516  11.422  1.00  0.00     0.194 C 
BRANCH  21  27
HETATM   27  O7  UNL     1      -4.794   2.164  14.359  1.00  0.00    -0.287 OA
BRANCH  27  28
HETATM   28  C15 UNL     1      -4.640   1.568  15.623  1.00  0.00     0.257 C 
HETATM   29  C16 UNL     1      -5.787   1.152  16.449  1.00  0.00     0.126 C 
HETATM   30  O8  UNL     1      -3.471   1.405  16.024  1.00  0.00    -0.266 OA
ENDBRANCH  27  28
ENDBRANCH  21  27
BRANCH  25  31
HETATM   31  O11 UNL     1      -2.210   0.120  11.549  1.00  0.00    -0.383 OA
ATOM     32  H11 UNL     1      -1.545  -0.252  10.981  1.00  0.00     0.210 HD
ENDBRANCH  25  31
BRANCH  26  33
HETATM   33  O12 UNL     1      -1.222   2.409  11.909  1.00  0.00    -0.376 OA
BRANCH  33  34
HETATM   34  C20 UNL     1      -0.345   3.258  11.282  1.00  0.00     0.114 C 
HETATM   35  C21 UNL     1      -0.554   4.701  11.755  1.00  0.00     0.039 C 
HETATM   36  C22 UNL     1      -0.429   3.278   9.790  1.00  0.00     0.039 C 
ENDBRANCH  33  34
ENDBRANCH  26  33
ENDBRANCH  19  20
ENDBRANCH   1  19
TORSDOF 16
ENDMDL
