MODEL 1
REMARK VINA RESULT: -7.192401878      0.000      0.000
REMARK  5 active torsions:
REMARK  status: ('A' for Active; 'I' for Inactive)
REMARK    1  A    between atoms: O1_1  and  C1_3 
REMARK    2  A    between atoms: C1_3  and  C2_4 
REMARK    3  A    between atoms: C3_6  and  O3_7 
REMARK    4  A    between atoms: C6_13  and  O5_14 
REMARK    5  A    between atoms: C6_13  and  C7_16 
ROOT
HETATM    1  C2  UNL     1      28.479  25.031 105.642  1.00  0.00     0.196 C 
HETATM    2  O2  UNL     1      28.002  24.002 106.418  1.00  0.00    -0.341 OA
HETATM    3  C3  UNL     1      26.653  24.186 106.635  1.00  0.00     0.326 C 
HETATM    4  S1  UNL     1      26.060  24.822 105.013  1.00  0.00    -0.067 SA
HETATM    5  C4  UNL     1      27.762  24.959 104.304  1.00  0.00     0.162 C 
HETATM    6  C5  UNL     1      27.998  23.680 103.611  1.00  0.00     0.224 C 
HETATM    7  O4  UNL     1      28.879  23.722 102.553  1.00  0.00    -0.348 OA
HETATM    8  C6  UNL     1      28.465  24.754 101.700  1.00  0.00     0.196 C 
HETATM    9  C8  UNL     1      28.679  26.035 102.464  1.00  0.00     0.239 C 
HETATM   10  O6  UNL     1      27.909  26.103 103.592  1.00  0.00    -0.359 OA
ENDROOT
BRANCH   1  11
HETATM   11  C1  UNL     1      28.217  26.360 106.316  1.00  0.00     0.200 C 
BRANCH  11  12
HETATM   12  O1  UNL     1      29.104  27.334 105.877  1.00  0.00    -0.398 OA
ATOM     13  H1  UNL     1      29.085  28.098 106.440  1.00  0.00     0.209 HD
ENDBRANCH  11  12
ENDBRANCH   1  11
BRANCH   3  14
HETATM   14  O3  UNL     1      26.080  22.915 106.786  1.00  0.00    -0.362 OA
ATOM     15  H3  UNL     1      26.780  22.278 106.694  1.00  0.00     0.213 HD
ENDBRANCH   3  14
BRANCH   8  16
HETATM   16  O5  UNL     1      27.175  24.583 101.253  1.00  0.00    -0.363 OA
ATOM     17  H5  UNL     1      26.809  23.746 101.511  1.00  0.00     0.213 HD
ENDBRANCH   8  16
BRANCH   8  18
HETATM   18  C7  UNL     1      29.427  24.736 100.509  1.00  0.00     0.185 C 
HETATM   19 CL1  UNL     1      30.613  23.455 100.714  1.00  0.00    -0.125 Cl
ENDBRANCH   8  18
TORSDOF 5
ENDMDL
MODEL 2
REMARK VINA RESULT: -7.125680304      3.019      5.187
REMARK  5 active torsions:
REMARK  status: ('A' for Active; 'I' for Inactive)
REMARK    1  A    between atoms: O1_1  and  C1_3 
REMARK    2  A    between atoms: C1_3  and  C2_4 
REMARK    3  A    between atoms: C3_6  and  O3_7 
REMARK    4  A    between atoms: C6_13  and  O5_14 
REMARK    5  A    between atoms: C6_13  and  C7_16 
ROOT
HETATM    1  C2  UNL     1      27.423  26.413 104.358  1.00  0.00     0.196 C 
HETATM    2  O2  UNL     1      27.057  26.232 103.045  1.00  0.00    -0.341 OA
HETATM    3  C3  UNL     1      27.817  25.220 102.498  1.00  0.00     0.326 C 
HETATM    4  S1  UNL     1      27.935  24.005 103.875  1.00  0.00    -0.067 SA
HETATM    5  C4  UNL     1      27.111  25.122 105.097  1.00  0.00     0.162 C 
HETATM    6  C5  UNL     1      25.680  24.775 105.036  1.00  0.00     0.224 C 
HETATM    7  O4  UNL     1      24.956  25.003 106.186  1.00  0.00    -0.348 OA
HETATM    8  C6  UNL     1      25.639  24.387 107.244  1.00  0.00     0.196 C 
HETATM    9  C8  UNL     1      26.926  25.154 107.409  1.00  0.00     0.239 C 
HETATM   10  O6  UNL     1      27.726  25.072 106.303  1.00  0.00    -0.359 OA
ENDROOT
BRANCH   1  11
HETATM   11  C1  UNL     1      28.898  26.736 104.450  1.00  0.00     0.200 C 
BRANCH  11  12
HETATM   12  O1  UNL     1      29.194  27.421 105.621  1.00  0.00    -0.398 OA
ATOM     13  H1  UNL     1      29.462  28.314 105.441  1.00  0.00     0.209 HD
ENDBRANCH  11  12
ENDBRANCH   1  11
BRANCH   3  14
HETATM   14  O3  UNL     1      27.040  24.607 101.505  1.00  0.00    -0.362 OA
ATOM     15  H3  UNL     1      27.588  23.959 101.078  1.00  0.00     0.213 HD
ENDBRANCH   3  14
BRANCH   8  16
HETATM   16  O5  UNL     1      25.819  23.038 107.041  1.00  0.00    -0.363 OA
ATOM     17  H5  UNL     1      25.883  22.553 107.854  1.00  0.00     0.213 HD
ENDBRANCH   8  16
BRANCH   8  18
HETATM   18  C7  UNL     1      24.781  24.608 108.492  1.00  0.00     0.185 C 
HETATM   19 CL1  UNL     1      25.623  25.660 109.621  1.00  0.00    -0.125 Cl
ENDBRANCH   8  18
TORSDOF 5
ENDMDL
MODEL 3
REMARK VINA RESULT: -7.010522435      3.203      5.587
REMARK  5 active torsions:
REMARK  status: ('A' for Active; 'I' for Inactive)
REMARK    1  A    between atoms: O1_1  and  C1_3 
REMARK    2  A    between atoms: C1_3  and  C2_4 
REMARK    3  A    between atoms: C3_6  and  O3_7 
REMARK    4  A    between atoms: C6_13  and  O5_14 
REMARK    5  A    between atoms: C6_13  and  C7_16 
ROOT
HETATM    1  C2  UNL     1      28.341  24.455 104.348  1.00  0.00     0.196 C 
HETATM    2  O2  UNL     1      28.671  25.488 103.503  1.00  0.00    -0.341 OA
HETATM    3  C3  UNL     1      27.619  25.724 102.644  1.00  0.00     0.326 C 
HETATM    4  S1  UNL     1      26.147  25.499 103.725  1.00  0.00    -0.067 SA
HETATM    5  C4  UNL     1      27.141  24.904 105.166  1.00  0.00     0.162 C 
HETATM    6  C5  UNL     1      27.428  26.110 105.964  1.00  0.00     0.224 C 
HETATM    7  O4  UNL     1      27.620  25.907 107.312  1.00  0.00    -0.348 OA
HETATM    8  C6  UNL     1      26.530  25.166 107.788  1.00  0.00     0.196 C 
HETATM    9  C8  UNL     1      26.642  23.806 107.148  1.00  0.00     0.239 C 
HETATM   10  O6  UNL     1      26.536  23.862 105.786  1.00  0.00    -0.359 OA
ENDROOT
BRANCH   1  11
HETATM   11  C1  UNL     1      28.008  23.214 103.551  1.00  0.00     0.200 C 
BRANCH  11  12
HETATM   12  O1  UNL     1      28.353  22.060 104.243  1.00  0.00    -0.398 OA
ATOM     13  H1  UNL     1      28.968  22.247 104.941  1.00  0.00     0.209 HD
ENDBRANCH  11  12
ENDBRANCH   1  11
BRANCH   3  14
HETATM   14  O3  UNL     1      27.652  27.086 102.311  1.00  0.00    -0.362 OA
ATOM     15  H3  UNL     1      27.366  27.569 103.077  1.00  0.00     0.213 HD
ENDBRANCH   3  14
BRANCH   8  16
HETATM   16  O5  UNL     1      25.326  25.791 107.556  1.00  0.00    -0.363 OA
ATOM     17  H5  UNL     1      25.431  26.700 107.301  1.00  0.00     0.213 HD
ENDBRANCH   8  16
BRANCH   8  18
HETATM   18  C7  UNL     1      26.744  25.009 109.295  1.00  0.00     0.185 C 
HETATM   19 CL1  UNL     1      25.428  25.777 110.172  1.00  0.00    -0.125 Cl
ENDBRANCH   8  18
TORSDOF 5
ENDMDL
MODEL 4
REMARK VINA RESULT: -6.934140827      3.185      5.044
REMARK  5 active torsions:
REMARK  status: ('A' for Active; 'I' for Inactive)
REMARK    1  A    between atoms: O1_1  and  C1_3 
REMARK    2  A    between atoms: C1_3  and  C2_4 
REMARK    3  A    between atoms: C3_6  and  O3_7 
REMARK    4  A    between atoms: C6_13  and  O5_14 
REMARK    5  A    between atoms: C6_13  and  C7_16 
ROOT
HETATM    1  C2  UNL     1      27.166  26.115 104.252  1.00  0.00     0.196 C 
HETATM    2  O2  UNL     1      25.995  26.118 103.531  1.00  0.00    -0.341 OA
HETATM    3  C3  UNL     1      26.011  25.069 102.637  1.00  0.00     0.326 C 
HETATM    4  S1  UNL     1      26.807  23.720 103.601  1.00  0.00    -0.067 SA
HETATM    5  C4  UNL     1      27.213  24.814 105.035  1.00  0.00     0.162 C 
HETATM    6  C5  UNL     1      26.074  24.677 105.961  1.00  0.00     0.224 C 
HETATM    7  O4  UNL     1      26.353  24.889 107.293  1.00  0.00    -0.348 OA
HETATM    8  C6  UNL     1      27.448  24.082 107.629  1.00  0.00     0.196 C 
HETATM    9  C8  UNL     1      28.624  24.641 106.869  1.00  0.00     0.239 C 
HETATM   10  O6  UNL     1      28.454  24.559 105.515  1.00  0.00    -0.359 OA
ENDROOT
BRANCH   1  11
HETATM   11  C1  UNL     1      28.354  26.218 103.320  1.00  0.00     0.200 C 
BRANCH  11  12
HETATM   12  O1  UNL     1      29.460  26.751 103.968  1.00  0.00    -0.398 OA
ATOM     13  H1  UNL     1      30.252  26.624 103.460  1.00  0.00     0.209 HD
ENDBRANCH  11  12
ENDBRANCH   1  11
BRANCH   3  14
HETATM   14  O3  UNL     1      24.680  24.673 102.439  1.00  0.00    -0.362 OA
ATOM     15  H3  UNL     1      24.278  24.601 103.297  1.00  0.00     0.213 HD
ENDBRANCH   3  14
BRANCH   8  16
HETATM   16  O5  UNL     1      27.214  22.748 107.386  1.00  0.00    -0.363 OA
ATOM     17  H5  UNL     1      28.008  22.227 107.419  1.00  0.00     0.213 HD
ENDBRANCH   8  16
BRANCH   8  18
HETATM   18  C7  UNL     1      27.695  24.295 109.124  1.00  0.00     0.185 C 
HETATM   19 CL1  UNL     1      26.454  25.344 109.794  1.00  0.00    -0.125 Cl
ENDBRANCH   8  18
TORSDOF 5
ENDMDL
MODEL 5
REMARK VINA RESULT: -6.865655034      3.169      5.392
REMARK  5 active torsions:
REMARK  status: ('A' for Active; 'I' for Inactive)
REMARK    1  A    between atoms: O1_1  and  C1_3 
REMARK    2  A    between atoms: C1_3  and  C2_4 
REMARK    3  A    between atoms: C3_6  and  O3_7 
REMARK    4  A    between atoms: C6_13  and  O5_14 
REMARK    5  A    between atoms: C6_13  and  C7_16 
ROOT
HETATM    1  C2  UNL     1      28.484  24.164 104.253  1.00  0.00     0.196 C 
HETATM    2  O2  UNL     1      28.953  25.071 103.333  1.00  0.00    -0.341 OA
HETATM    3  C3  UNL     1      28.216  24.962 102.173  1.00  0.00     0.326 C 
HETATM    4  S1  UNL     1      26.508  24.680 102.797  1.00  0.00    -0.067 SA
HETATM    5  C4  UNL     1      27.043  24.534 104.561  1.00  0.00     0.162 C 
HETATM    6  C5  UNL     1      26.922  25.895 105.116  1.00  0.00     0.224 C 
HETATM    7  O4  UNL     1      26.689  25.972 106.472  1.00  0.00    -0.348 OA
HETATM    8  C6  UNL     1      25.593  25.148 106.760  1.00  0.00     0.196 C 
HETATM    9  C8  UNL     1      26.055  23.737 106.503  1.00  0.00     0.239 C 
HETATM   10  O6  UNL     1      26.389  23.530 105.193  1.00  0.00    -0.359 OA
ENDROOT
BRANCH   1  11
HETATM   11  C1  UNL     1      28.565  22.761 103.692  1.00  0.00     0.200 C 
BRANCH  11  12
HETATM   12  O1  UNL     1      29.852  22.250 103.792  1.00  0.00    -0.398 OA
ATOM     13  H1  UNL     1      30.409  22.813 104.316  1.00  0.00     0.209 HD
ENDBRANCH  11  12
ENDBRANCH   1  11
BRANCH   3  14
HETATM   14  O3  UNL     1      28.205  26.228 101.568  1.00  0.00    -0.362 OA
ATOM     15  H3  UNL     1      27.650  26.788 102.099  1.00  0.00     0.213 HD
ENDBRANCH   3  14
BRANCH   8  16
HETATM   16  O5  UNL     1      24.468  25.502 106.052  1.00  0.00    -0.363 OA
ATOM     17  H5  UNL     1      24.591  26.296 105.545  1.00  0.00     0.213 HD
ENDBRANCH   8  16
BRANCH   8  18
HETATM   18  C7  UNL     1      25.325  25.303 108.259  1.00  0.00     0.185 C 
HETATM   19 CL1  UNL     1      23.674  24.823 108.627  1.00  0.00    -0.125 Cl
ENDBRANCH   8  18
TORSDOF 5
ENDMDL
