MODEL 1
REMARK VINA RESULT: -7.623550840      0.000      0.000
REMARK  4 active torsions:
REMARK  status: ('A' for Active; 'I' for Inactive)
REMARK    1  A    between atoms: O1_2  and  C2_3 
REMARK    2  A    between atoms: C3_5  and  C4_6 
REMARK    3  A    between atoms: C8_14  and  O3_15 
REMARK    4  A    between atoms: C9_17  and  O4_18 
ROOT
HETATM    1  C4  UNL     1      27.055  24.521 103.113  1.00  0.00     0.239 C 
HETATM    2 CL1  UNL     1      25.401  24.985 102.599  1.00  0.00    -0.083 Cl
HETATM    3  C5  UNL     1      27.269  23.094 102.978  1.00  0.00     0.104 C 
HETATM    4  N1  UNL     1      27.457  21.962 102.866  1.00  0.00    -0.194 NA
HETATM    5  C6  UNL     1      28.021  25.275 102.304  1.00  0.00     0.104 C 
HETATM    6  N2  UNL     1      28.773  25.885 101.666  1.00  0.00    -0.194 NA
ENDROOT
BRANCH   1   7
HETATM    7  C3  UNL     1      27.217  24.928 104.533  1.00  0.00     0.194 C 
HETATM    8  O2  UNL     1      28.552  24.968 104.911  1.00  0.00    -0.348 OA
HETATM    9  C2  UNL     1      28.712  25.454 106.196  1.00  0.00     0.290 C 
HETATM   10  C9  UNL     1      27.879  24.697 107.208  1.00  0.00     0.203 C 
HETATM   11  C8  UNL     1      27.138  23.551 106.585  1.00  0.00     0.168 C 
HETATM   12  C7  UNL     1      26.373  24.071 105.411  1.00  0.00     0.123 C 
HETATM   13  S1  UNL     1      24.943  25.007 106.055  1.00  0.00    -0.087 SA
BRANCH   9  14
HETATM   14  O1  UNL     1      28.464  26.801 106.310  1.00  0.00    -0.363 OA
HETATM   15  C1  UNL     1      28.838  27.503 105.141  1.00  0.00     0.204 C 
ENDBRANCH   9  14
BRANCH  10  16
HETATM   16  O4  UNL     1      28.656  24.181 108.244  1.00  0.00    -0.388 OA
ATOM     17  H4  UNL     1      28.127  23.904 108.983  1.00  0.00     0.210 HD
ENDBRANCH  10  16
BRANCH  11  18
HETATM   18  O3  UNL     1      28.074  22.578 106.252  1.00  0.00    -0.392 OA
ATOM     19  H3  UNL     1      27.974  21.772 106.744  1.00  0.00     0.210 HD
ENDBRANCH  11  18
ENDBRANCH   1   7
TORSDOF 4
ENDMDL
MODEL 2
REMARK VINA RESULT: -7.332261669      1.321      1.706
REMARK  4 active torsions:
REMARK  status: ('A' for Active; 'I' for Inactive)
REMARK    1  A    between atoms: O1_2  and  C2_3 
REMARK    2  A    between atoms: C3_5  and  C4_6 
REMARK    3  A    between atoms: C8_14  and  O3_15 
REMARK    4  A    between atoms: C9_17  and  O4_18 
ROOT
HETATM    1  C4  UNL     1      27.282  24.190 103.263  1.00  0.00     0.239 C 
HETATM    2 CL1  UNL     1      27.270  22.398 103.352  1.00  0.00    -0.083 Cl
HETATM    3  C5  UNL     1      28.412  24.672 102.496  1.00  0.00     0.104 C 
HETATM    4  N1  UNL     1      29.301  25.070 101.879  1.00  0.00    -0.194 NA
HETATM    5  C6  UNL     1      26.015  24.632 102.666  1.00  0.00     0.104 C 
HETATM    6  N2  UNL     1      25.006  24.969 102.204  1.00  0.00    -0.194 NA
ENDROOT
BRANCH   1   7
HETATM    7  C3  UNL     1      27.350  24.710 104.653  1.00  0.00     0.194 C 
HETATM    8  O2  UNL     1      28.659  24.794 105.110  1.00  0.00    -0.348 OA
HETATM    9  C2  UNL     1      28.734  25.383 106.359  1.00  0.00     0.290 C 
HETATM   10  C9  UNL     1      27.842  24.699 107.374  1.00  0.00     0.203 C 
HETATM   11  C8  UNL     1      27.148  23.500 106.799  1.00  0.00     0.168 C 
HETATM   12  C7  UNL     1      26.457  23.916 105.542  1.00  0.00     0.123 C 
HETATM   13  S1  UNL     1      24.984  24.886 106.018  1.00  0.00    -0.087 SA
BRANCH   9  14
HETATM   14  O1  UNL     1      28.471  26.732 106.349  1.00  0.00    -0.363 OA
HETATM   15  C1  UNL     1      28.845  27.328 105.124  1.00  0.00     0.204 C 
ENDBRANCH   9  14
BRANCH  10  16
HETATM   16  O4  UNL     1      28.554  24.276 108.495  1.00  0.00    -0.388 OA
ATOM     17  H4  UNL     1      29.411  24.683 108.549  1.00  0.00     0.210 HD
ENDBRANCH  10  16
BRANCH  11  18
HETATM   18  O3  UNL     1      28.109  22.514 106.605  1.00  0.00    -0.392 OA
ATOM     19  H3  UNL     1      28.018  22.052 105.780  1.00  0.00     0.210 HD
ENDBRANCH  11  18
ENDBRANCH   1   7
TORSDOF 4
ENDMDL
MODEL 3
REMARK VINA RESULT: -7.198192296      3.075      4.894
REMARK  4 active torsions:
REMARK  status: ('A' for Active; 'I' for Inactive)
REMARK    1  A    between atoms: O1_2  and  C2_3 
REMARK    2  A    between atoms: C3_5  and  C4_6 
REMARK    3  A    between atoms: C8_14  and  O3_15 
REMARK    4  A    between atoms: C9_17  and  O4_18 
ROOT
HETATM    1  C4  UNL     1      27.999  25.378 105.111  1.00  0.00     0.239 C 
HETATM    2 CL1  UNL     1      26.216  25.252 105.252  1.00  0.00    -0.083 Cl
HETATM    3  C5  UNL     1      28.448  26.742 105.301  1.00  0.00     0.104 C 
HETATM    4  N1  UNL     1      28.821  27.821 105.460  1.00  0.00    -0.194 NA
HETATM    5  C6  UNL     1      28.608  24.482 106.103  1.00  0.00     0.104 C 
HETATM    6  N2  UNL     1      29.075  23.762 106.883  1.00  0.00    -0.194 NA
ENDROOT
BRANCH   1   7
HETATM    7  C3  UNL     1      28.379  24.900 103.755  1.00  0.00     0.194 C 
HETATM    8  O2  UNL     1      28.620  25.955 102.885  1.00  0.00    -0.348 OA
HETATM    9  C2  UNL     1      29.082  25.516 101.657  1.00  0.00     0.290 C 
HETATM   10  C9  UNL     1      28.167  24.486 101.030  1.00  0.00     0.203 C 
HETATM   11  C8  UNL     1      26.939  24.244 101.857  1.00  0.00     0.168 C 
HETATM   12  C7  UNL     1      27.368  23.929 103.253  1.00  0.00     0.123 C 
HETATM   13  S1  UNL     1      28.041  22.231 103.253  1.00  0.00    -0.087 SA
BRANCH   9  14
HETATM   14  O1  UNL     1      30.367  25.029 101.694  1.00  0.00    -0.363 OA
HETATM   15  C1  UNL     1      31.105  25.417 100.552  1.00  0.00     0.204 C 
ENDBRANCH   9  14
BRANCH  10  16
HETATM   16  O4  UNL     1      27.748  24.865  99.756  1.00  0.00    -0.388 OA
ATOM     17  H4  UNL     1      27.364  25.734  99.750  1.00  0.00     0.210 HD
ENDBRANCH  10  16
BRANCH  11  18
HETATM   18  O3  UNL     1      26.141  25.378 101.763  1.00  0.00    -0.392 OA
ATOM     19  H3  UNL     1      25.730  25.623 102.584  1.00  0.00     0.210 HD
ENDBRANCH  11  18
ENDBRANCH   1   7
TORSDOF 4
ENDMDL
MODEL 4
REMARK VINA RESULT: -7.118608666      2.204      3.038
REMARK  4 active torsions:
REMARK  status: ('A' for Active; 'I' for Inactive)
REMARK    1  A    between atoms: O1_2  and  C2_3 
REMARK    2  A    between atoms: C3_5  and  C4_6 
REMARK    3  A    between atoms: C8_14  and  O3_15 
REMARK    4  A    between atoms: C9_17  and  O4_18 
ROOT
HETATM    1  C4  UNL     1      27.377  24.390 102.785  1.00  0.00     0.239 C 
HETATM    2 CL1  UNL     1      27.530  22.658 102.344  1.00  0.00    -0.083 Cl
HETATM    3  C5  UNL     1      28.362  25.199 102.097  1.00  0.00     0.104 C 
HETATM    4  N1  UNL     1      29.134  25.856 101.549  1.00  0.00    -0.194 NA
HETATM    5  C6  UNL     1      26.015  24.833 102.459  1.00  0.00     0.104 C 
HETATM    6  N2  UNL     1      24.933  25.166 102.208  1.00  0.00    -0.194 NA
ENDROOT
BRANCH   1   7
HETATM    7  C3  UNL     1      27.564  24.499 104.256  1.00  0.00     0.194 C 
HETATM    8  O2  UNL     1      26.853  23.525 104.941  1.00  0.00    -0.348 OA
HETATM    9  C2  UNL     1      27.114  23.553 106.300  1.00  0.00     0.290 C 
HETATM   10  C9  UNL     1      26.888  24.923 106.903  1.00  0.00     0.203 C 
HETATM   11  C8  UNL     1      26.362  25.904 105.896  1.00  0.00     0.168 C 
HETATM   12  C7  UNL     1      27.267  25.887 104.708  1.00  0.00     0.123 C 
HETATM   13  S1  UNL     1      28.802  26.763 105.172  1.00  0.00    -0.087 SA
BRANCH   9  14
HETATM   14  O1  UNL     1      28.372  23.107 106.628  1.00  0.00    -0.363 OA
HETATM   15  C1  UNL     1      29.004  23.965 107.556  1.00  0.00     0.204 C 
ENDBRANCH   9  14
BRANCH  10  16
HETATM   16  O4  UNL     1      25.985  24.885 107.964  1.00  0.00    -0.388 OA
ATOM     17  H4  UNL     1      25.251  25.474 107.830  1.00  0.00     0.210 HD
ENDBRANCH  10  16
BRANCH  11  18
HETATM   18  O3  UNL     1      25.052  25.540 105.603  1.00  0.00    -0.392 OA
ATOM     19  H3  UNL     1      24.744  24.795 106.105  1.00  0.00     0.210 HD
ENDBRANCH  11  18
ENDBRANCH   1   7
TORSDOF 4
ENDMDL
MODEL 5
REMARK VINA RESULT: -7.102760989      1.298      1.817
REMARK  4 active torsions:
REMARK  status: ('A' for Active; 'I' for Inactive)
REMARK    1  A    between atoms: O1_2  and  C2_3 
REMARK    2  A    between atoms: C3_5  and  C4_6 
REMARK    3  A    between atoms: C8_14  and  O3_15 
REMARK    4  A    between atoms: C9_17  and  O4_18 
ROOT
HETATM    1  C4  UNL     1      27.155  24.508 103.127  1.00  0.00     0.239 C 
HETATM    2 CL1  UNL     1      28.413  25.377 102.189  1.00  0.00    -0.083 Cl
HETATM    3  C5  UNL     1      25.826  24.821 102.643  1.00  0.00     0.104 C 
HETATM    4  N1  UNL     1      24.764  25.053 102.261  1.00  0.00    -0.194 NA
HETATM    5  C6  UNL     1      27.421  23.066 103.034  1.00  0.00     0.104 C 
HETATM    6  N2  UNL     1      27.649  21.932 102.962  1.00  0.00    -0.194 NA
ENDROOT
BRANCH   1   7
HETATM    7  C3  UNL     1      27.289  24.917 104.549  1.00  0.00     0.194 C 
HETATM    8  O2  UNL     1      28.617  24.956 104.953  1.00  0.00    -0.348 OA
HETATM    9  C2  UNL     1      28.752  25.444 106.240  1.00  0.00     0.290 C 
HETATM   10  C9  UNL     1      27.897  24.690 107.237  1.00  0.00     0.203 C 
HETATM   11  C8  UNL     1      27.166  23.545 106.601  1.00  0.00     0.168 C 
HETATM   12  C7  UNL     1      26.426  24.063 105.411  1.00  0.00     0.123 C 
HETATM   13  S1  UNL     1      24.985  25.004 106.025  1.00  0.00    -0.087 SA
BRANCH   9  14
HETATM   14  O1  UNL     1      28.503  26.792 106.347  1.00  0.00    -0.363 OA
HETATM   15  C1  UNL     1      28.845  27.481 105.161  1.00  0.00     0.204 C 
ENDBRANCH   9  14
BRANCH  10  16
HETATM   16  O4  UNL     1      28.652  24.175 108.289  1.00  0.00    -0.388 OA
ATOM     17  H4  UNL     1      29.072  23.355 108.059  1.00  0.00     0.210 HD
ENDBRANCH  10  16
BRANCH  11  18
HETATM   18  O3  UNL     1      28.107  22.570 106.289  1.00  0.00    -0.392 OA
ATOM     19  H3  UNL     1      28.857  22.566 106.872  1.00  0.00     0.210 HD
ENDBRANCH  11  18
ENDBRANCH   1   7
TORSDOF 4
ENDMDL
