MODEL 1
REMARK VINA RESULT: -8.530386055      0.000      0.000
REMARK  4 active torsions:
REMARK  status: ('A' for Active; 'I' for Inactive)
REMARK    1  A    between atoms: C2_2  and  C3_3 
REMARK    2  A    between atoms: C7_10  and  O3_11 
REMARK    3  A    between atoms: C8_13  and  N1_14 
REMARK    4  A    between atoms: C10_20  and  N4_21 
ROOT
HETATM    1  C1  UNL     1      26.954  26.852 102.771  1.00  0.00     0.082 C 
HETATM    2  C2  UNL     1      27.704  25.790 103.544  1.00  0.00     0.195 C 
HETATM    3  O2  UNL     1      28.856  26.240 104.130  1.00  0.00    -0.318 OA
HETATM    4  C7  UNL     1      28.663  26.295 105.502  1.00  0.00     0.312 C 
HETATM    5  C8  UNL     1      27.162  26.220 105.607  1.00  0.00     0.321 C 
HETATM    6  O4  UNL     1      26.855  25.352 104.558  1.00  0.00    -0.321 OA
ENDROOT
BRANCH   5   7
HETATM    7  N1  UNL     1      26.769  25.660 106.884  1.00  0.00    -0.088 N 
HETATM    8  N2  UNL     1      27.463  25.517 107.999  1.00  0.00    -0.277 N 
HETATM    9  C9  UNL     1      26.695  24.944 108.941  1.00  0.00     0.215 A 
ATOM     10  H2  UNL     1      28.435  25.799 108.126  1.00  0.00     0.188 HD
HETATM   11  N3  UNL     1      25.491  24.727 108.394  1.00  0.00    -0.185 N 
HETATM   12  C10 UNL     1      25.544  25.170 107.126  1.00  0.00     0.696 A 
ATOM     13  H3  UNL     1      24.685  24.304 108.853  1.00  0.00     0.185 HD
BRANCH  12  14
HETATM   14  N4  UNL     1      24.545  25.118 106.290  1.00  0.00    -0.233 N 
ATOM     15  H42 UNL     1      24.588  24.670 105.374  1.00  0.00     0.174 HD
ATOM     16  H41 UNL     1      23.611  25.503 106.429  1.00  0.00     0.174 HD
ENDBRANCH  12  14
ENDBRANCH   5   7
BRANCH   4  17
HETATM   17  O3  UNL     1      29.183  27.458 106.066  1.00  0.00    -0.367 OA
ATOM     18  H3  UNL     1      28.615  27.822 106.734  1.00  0.00     0.212 HD
ENDBRANCH   4  17
BRANCH   2  19
HETATM   19  C3  UNL     1      28.051  24.673 102.584  1.00  0.00     0.217 C 
HETATM   20  O1  UNL     1      29.046  23.859 103.049  1.00  0.00    -0.377 OA
HETATM   21  C4  UNL     1      28.489  22.639 103.400  1.00  0.00     0.171 C 
HETATM   22  C5  UNL     1      27.245  22.458 102.597  1.00  0.00     0.066 C 
HETATM   23  C6  UNL     1      26.849  23.865 102.264  1.00  0.00     0.206 C 
HETATM   24  F1  UNL     1      26.531  23.944 100.906  1.00  0.00    -0.246 F 
ENDBRANCH   2  19
TORSDOF 4
ENDMDL
MODEL 2
REMARK VINA RESULT: -8.108280789      3.227      5.250
REMARK  4 active torsions:
REMARK  status: ('A' for Active; 'I' for Inactive)
REMARK    1  A    between atoms: C2_2  and  C3_3 
REMARK    2  A    between atoms: C7_10  and  O3_11 
REMARK    3  A    between atoms: C8_13  and  N1_14 
REMARK    4  A    between atoms: C10_20  and  N4_21 
ROOT
HETATM    1  C1  UNL     1      27.662  24.431 107.751  1.00  0.00     0.082 C 
HETATM    2  C2  UNL     1      27.035  25.435 106.809  1.00  0.00     0.195 C 
HETATM    3  O2  UNL     1      27.809  26.540 106.581  1.00  0.00    -0.318 OA
HETATM    4  C7  UNL     1      28.296  26.481 105.284  1.00  0.00     0.312 C 
HETATM    5  C8  UNL     1      28.057  25.037 104.929  1.00  0.00     0.321 C 
HETATM    6  O4  UNL     1      26.853  24.786 105.589  1.00  0.00    -0.321 OA
ENDROOT
BRANCH   5   7
HETATM    7  N1  UNL     1      27.911  24.883 103.496  1.00  0.00    -0.088 N 
HETATM    8  N2  UNL     1      28.813  24.584 102.577  1.00  0.00    -0.277 N 
HETATM    9  C9  UNL     1      28.231  24.546 101.366  1.00  0.00     0.215 A 
ATOM     10  H2  UNL     1      29.801  24.408 102.759  1.00  0.00     0.188 HD
HETATM   11  N3  UNL     1      26.933  24.829 101.541  1.00  0.00    -0.185 N 
HETATM   12  C10 UNL     1      26.743  25.036 102.855  1.00  0.00     0.696 A 
ATOM     13  H3  UNL     1      26.221  24.878 100.812  1.00  0.00     0.185 HD
BRANCH  12  14
HETATM   14  N4  UNL     1      25.592  25.335 103.390  1.00  0.00    -0.233 N 
ATOM     15  H42 UNL     1      25.444  26.118 104.028  1.00  0.00     0.174 HD
ATOM     16  H41 UNL     1      24.708  24.847 103.251  1.00  0.00     0.174 HD
ENDBRANCH  12  14
ENDBRANCH   5   7
BRANCH   4  17
HETATM   17  O3  UNL     1      29.640  26.838 105.203  1.00  0.00    -0.367 OA
ATOM     18  H3  UNL     1      30.174  26.389 105.848  1.00  0.00     0.212 HD
ENDBRANCH   4  17
BRANCH   2  19
HETATM   19  C3  UNL     1      25.719  25.878 107.409  1.00  0.00     0.217 C 
HETATM   20  O1  UNL     1      24.646  25.597 106.610  1.00  0.00    -0.377 OA
HETATM   21  C4  UNL     1      23.927  24.561 107.185  1.00  0.00     0.171 C 
HETATM   22  C5  UNL     1      24.193  24.583 108.653  1.00  0.00     0.066 C 
HETATM   23  C6  UNL     1      25.522  25.269 108.747  1.00  0.00     0.206 C 
HETATM   24  F1  UNL     1      25.466  26.245 109.746  1.00  0.00    -0.246 F 
ENDBRANCH   2  19
TORSDOF 4
ENDMDL
MODEL 3
REMARK VINA RESULT: -8.054567982      4.112      5.853
REMARK  4 active torsions:
REMARK  status: ('A' for Active; 'I' for Inactive)
REMARK    1  A    between atoms: C2_2  and  C3_3 
REMARK    2  A    between atoms: C7_10  and  O3_11 
REMARK    3  A    between atoms: C8_13  and  N1_14 
REMARK    4  A    between atoms: C10_20  and  N4_21 
ROOT
HETATM    1  C1  UNL     1      27.424  25.875 104.612  1.00  0.00     0.082 C 
HETATM    2  C2  UNL     1      27.689  24.483 104.083  1.00  0.00     0.195 C 
HETATM    3  O2  UNL     1      26.714  24.014 103.243  1.00  0.00    -0.318 OA
HETATM    4  C7  UNL     1      27.219  23.984 101.952  1.00  0.00     0.312 C 
HETATM    5  C8  UNL     1      28.437  24.862 102.076  1.00  0.00     0.321 C 
HETATM    6  O4  UNL     1      28.878  24.543 103.360  1.00  0.00    -0.321 OA
ENDROOT
BRANCH   5   7
HETATM    7  N1  UNL     1      29.426  24.504 101.078  1.00  0.00    -0.088 N 
HETATM    8  N2  UNL     1      29.718  25.081  99.926  1.00  0.00    -0.277 N 
HETATM    9  C9  UNL     1      30.709  24.407  99.319  1.00  0.00     0.215 A 
ATOM     10  H2  UNL     1      29.261  25.913  99.553  1.00  0.00     0.188 HD
HETATM   11  N3  UNL     1      31.040  23.383 100.119  1.00  0.00    -0.185 N 
HETATM   12  C10 UNL     1      30.244  23.450 101.200  1.00  0.00     0.696 A 
ATOM     13  H3  UNL     1      31.761  22.684  99.940  1.00  0.00     0.185 HD
BRANCH  12  14
HETATM   14  N4  UNL     1      30.289  22.606 102.194  1.00  0.00    -0.233 N 
ATOM     15  H42 UNL     1      29.520  21.986 102.453  1.00  0.00     0.174 HD
ATOM     16  H41 UNL     1      31.070  22.451 102.829  1.00  0.00     0.174 HD
ENDBRANCH  12  14
ENDBRANCH   5   7
BRANCH   4  17
HETATM   17  O3  UNL     1      26.307  24.462 101.013  1.00  0.00    -0.367 OA
ATOM     18  H3  UNL     1      26.637  25.214 100.537  1.00  0.00     0.212 HD
ENDBRANCH   4  17
BRANCH   2  19
HETATM   19  C3  UNL     1      27.800  23.548 105.267  1.00  0.00     0.217 C 
HETATM   20  O1  UNL     1      29.093  23.330 105.656  1.00  0.00    -0.377 OA
HETATM   21  C4  UNL     1      29.308  23.988 106.857  1.00  0.00     0.171 C 
HETATM   22  C5  UNL     1      27.991  24.123 107.545  1.00  0.00     0.066 C 
HETATM   23  C6  UNL     1      27.010  24.059 106.414  1.00  0.00     0.206 C 
HETATM   24  F1  UNL     1      25.978  23.179 106.751  1.00  0.00    -0.246 F 
ENDBRANCH   2  19
TORSDOF 4
ENDMDL
MODEL 4
REMARK VINA RESULT: -8.035513268      1.654      2.199
REMARK  4 active torsions:
REMARK  status: ('A' for Active; 'I' for Inactive)
REMARK    1  A    between atoms: C2_2  and  C3_3 
REMARK    2  A    between atoms: C7_10  and  O3_11 
REMARK    3  A    between atoms: C8_13  and  N1_14 
REMARK    4  A    between atoms: C10_20  and  N4_21 
ROOT
HETATM    1  C1  UNL     1      28.831  26.667 105.019  1.00  0.00     0.082 C 
HETATM    2  C2  UNL     1      28.117  25.333 104.985  1.00  0.00     0.195 C 
HETATM    3  O2  UNL     1      28.704  24.371 105.762  1.00  0.00    -0.318 OA
HETATM    4  C7  UNL     1      27.893  24.134 106.861  1.00  0.00     0.312 C 
HETATM    5  C8  UNL     1      26.992  25.341 106.848  1.00  0.00     0.321 C 
HETATM    6  O4  UNL     1      26.832  25.550 105.477  1.00  0.00    -0.321 OA
ENDROOT
BRANCH   5   7
HETATM    7  N1  UNL     1      25.725  25.038 107.483  1.00  0.00    -0.088 N 
HETATM    8  N2  UNL     1      24.587  24.624 106.956  1.00  0.00    -0.277 N 
HETATM    9  C9  UNL     1      23.668  24.469 107.924  1.00  0.00     0.215 A 
ATOM     10  H2  UNL     1      24.429  24.448 105.963  1.00  0.00     0.188 HD
HETATM   11  N3  UNL     1      24.254  24.796 109.083  1.00  0.00    -0.185 N 
HETATM   12  C10 UNL     1      25.522  25.146 108.804  1.00  0.00     0.696 A 
ATOM     13  H3  UNL     1      23.820  24.783 110.006  1.00  0.00     0.185 HD
BRANCH  12  14
HETATM   14  N4  UNL     1      26.390  25.525 109.700  1.00  0.00    -0.233 N 
ATOM     15  H42 UNL     1      26.774  24.913 110.420  1.00  0.00     0.174 HD
ATOM     16  H41 UNL     1      26.795  26.455 109.803  1.00  0.00     0.174 HD
ENDBRANCH  12  14
ENDBRANCH   5   7
BRANCH   4  17
HETATM   17  O3  UNL     1      28.620  24.022 108.045  1.00  0.00    -0.367 OA
ATOM     18  H3  UNL     1      29.545  23.874 107.889  1.00  0.00     0.212 HD
ENDBRANCH   4  17
BRANCH   2  19
HETATM   19  C3  UNL     1      28.094  24.853 103.551  1.00  0.00     0.217 C 
HETATM   20  O1  UNL     1      29.011  23.871 103.301  1.00  0.00    -0.377 OA
HETATM   21  C4  UNL     1      28.337  22.671 103.133  1.00  0.00     0.171 C 
HETATM   22  C5  UNL     1      26.953  22.987 102.674  1.00  0.00     0.066 C 
HETATM   23  C6  UNL     1      26.737  24.381 103.179  1.00  0.00     0.206 C 
HETATM   24  F1  UNL     1      26.191  25.161 102.156  1.00  0.00    -0.246 F 
ENDBRANCH   2  19
TORSDOF 4
ENDMDL
MODEL 5
REMARK VINA RESULT: -8.021567072      1.024      1.456
REMARK  4 active torsions:
REMARK  status: ('A' for Active; 'I' for Inactive)
REMARK    1  A    between atoms: C2_2  and  C3_3 
REMARK    2  A    between atoms: C7_10  and  O3_11 
REMARK    3  A    between atoms: C8_13  and  N1_14 
REMARK    4  A    between atoms: C10_20  and  N4_21 
ROOT
HETATM    1  C1  UNL     1      26.535  26.506 103.147  1.00  0.00     0.082 C 
HETATM    2  C2  UNL     1      27.632  25.640 103.726  1.00  0.00     0.195 C 
HETATM    3  O2  UNL     1      28.758  26.333 104.078  1.00  0.00    -0.318 OA
HETATM    4  C7  UNL     1      28.840  26.371 105.462  1.00  0.00     0.312 C 
HETATM    5  C8  UNL     1      27.442  25.984 105.866  1.00  0.00     0.321 C 
HETATM    6  O4  UNL     1      27.117  25.052 104.880  1.00  0.00    -0.321 OA
ENDROOT
BRANCH   5   7
HETATM    7  N1  UNL     1      27.442  25.377 107.182  1.00  0.00    -0.088 N 
HETATM    8  N2  UNL     1      26.737  25.679 108.258  1.00  0.00    -0.277 N 
HETATM    9  C9  UNL     1      27.062  24.848 109.262  1.00  0.00     0.215 A 
ATOM     10  H2  UNL     1      26.048  26.430 108.317  1.00  0.00     0.188 HD
HETATM   11  N3  UNL     1      27.996  24.008 108.794  1.00  0.00    -0.185 N 
HETATM   12  C10 UNL     1      28.225  24.340 107.512  1.00  0.00     0.696 A 
ATOM     13  H3  UNL     1      28.448  23.256 109.315  1.00  0.00     0.185 HD
BRANCH  12  14
HETATM   14  N4  UNL     1      29.080  23.729 106.740  1.00  0.00    -0.233 N 
ATOM     15  H42 UNL     1      29.210  22.717 106.718  1.00  0.00     0.174 HD
ATOM     16  H41 UNL     1      29.716  24.161 106.071  1.00  0.00     0.174 HD
ENDBRANCH  12  14
ENDBRANCH   5   7
BRANCH   4  17
HETATM   17  O3  UNL     1      29.208  27.627 105.939  1.00  0.00    -0.367 OA
ATOM     18  H3  UNL     1      29.344  27.633 106.879  1.00  0.00     0.212 HD
ENDBRANCH   4  17
BRANCH   2  19
HETATM   19  C3  UNL     1      28.003  24.604 102.688  1.00  0.00     0.217 C 
HETATM   20  O1  UNL     1      29.017  23.782 103.093  1.00  0.00    -0.377 OA
HETATM   21  C4  UNL     1      28.489  22.527 103.354  1.00  0.00     0.171 C 
HETATM   22  C5  UNL     1      27.248  22.376 102.540  1.00  0.00     0.066 C 
HETATM   23  C6  UNL     1      26.820  23.793 102.310  1.00  0.00     0.206 C 
HETATM   24  F1  UNL     1      26.498  23.963 100.960  1.00  0.00    -0.246 F 
ENDBRANCH   2  19
TORSDOF 4
ENDMDL
