MODEL 1
REMARK VINA RESULT: -9.451297739      0.000      0.000
REMARK  4 active torsions:
REMARK  status: ('A' for Active; 'I' for Inactive)
REMARK    1  A    between atoms: C3_10  and  N4_11 
REMARK    2  A    between atoms: N4_11  and  N5_13 
REMARK    3  A    between atoms: N5_13  and  C4_15 
REMARK    4  A    between atoms: C5_20  and  C6_21 
ROOT
HETATM    1  C4  UNL     1      27.179  24.399 107.984  1.00  0.00     0.726 A 
HETATM    2  N6  UNL     1      27.912  25.325 107.328  1.00  0.00    -0.128 N 
ATOM      3  H6  UNL     1      28.160  26.208 107.774  1.00  0.00     0.205 HD
HETATM    4  N7  UNL     1      28.302  25.056 106.081  1.00  0.00    -0.268 N 
ATOM      5  H7  UNL     1      28.853  25.752 105.580  1.00  0.00     0.189 HD
HETATM    6  C5  UNL     1      27.997  23.905 105.457  1.00  0.00     0.164 A 
HETATM    7  N10 UNL     1      27.271  23.013 106.138  1.00  0.00    -0.268 N 
ATOM      8  H10 UNL     1      27.024  22.131 105.690  1.00  0.00     0.189 HD
HETATM    9  N11 UNL     1      26.861  23.239 107.380  1.00  0.00    -0.128 N 
ATOM     10  H11 UNL     1      26.308  22.538 107.874  1.00  0.00     0.205 HD
ENDROOT
BRANCH   1  11
HETATM   11  N5  UNL     1      26.793  24.651 109.203  1.00  0.00    -0.128 N 
ATOM     12  H5  UNL     1      27.218  24.150 109.983  1.00  0.00     0.205 HD
BRANCH  11  13
HETATM   13  N4  UNL     1      25.808  25.596 109.450  1.00  0.00    -0.269 N 
ATOM     14  H4  UNL     1      26.025  26.569 109.233  1.00  0.00     0.189 HD
BRANCH  13  15
HETATM   15  C3  UNL     1      24.651  25.341 109.929  1.00  0.00     0.159 A 
HETATM   16  C1  UNL     1      23.544  25.061 109.155  1.00  0.00     0.097 A 
HETATM   17 CL1  UNL     1      23.709  25.050 107.424  1.00  0.00    -0.079 Cl
HETATM   18  C2  UNL     1      22.338  24.799 109.785  1.00  0.00     0.136 A 
HETATM   19  N1  UNL     1      22.281  24.825 111.123  1.00  0.00    -0.296 N 
HETATM   20  N2  UNL     1      23.357  25.094 111.836  1.00  0.00    -0.241 N 
ATOM     21  H1  UNL     1      21.397  24.633 111.594  1.00  0.00     0.187 HD
HETATM   22  N3  UNL     1      24.508  25.346 111.263  1.00  0.00    -0.268 N 
ATOM     23  H2  UNL     1      23.291  25.107 112.853  1.00  0.00     0.208 HD
ATOM     24  H3  UNL     1      25.318  25.553 111.848  1.00  0.00     0.190 HD
ENDBRANCH  13  15
ENDBRANCH  11  13
ENDBRANCH   1  11
BRANCH   6  25
HETATM   25  C6  UNL     1      28.447  23.648 104.081  1.00  0.00     0.096 A 
HETATM   26  C7  UNL     1      28.087  24.320 102.934  1.00  0.00     0.053 A 
HETATM   27  C8  UNL     1      28.766  23.724 101.867  1.00  0.00     0.109 A 
HETATM   28  N8  UNL     1      29.494  22.732 102.412  1.00  0.00    -0.311 N 
HETATM   29  N9  UNL     1      29.306  22.685 103.729  1.00  0.00    -0.297 N 
ATOM     30  H8  UNL     1      30.105  22.105 101.889  1.00  0.00     0.186 HD
ATOM     31  H9  UNL     1      29.746  22.023 104.367  1.00  0.00     0.187 HD
ENDBRANCH   6  25
TORSDOF 4
ENDMDL
MODEL 2
REMARK VINA RESULT: -9.448858389      0.083      1.038
REMARK  4 active torsions:
REMARK  status: ('A' for Active; 'I' for Inactive)
REMARK    1  A    between atoms: C3_10  and  N4_11 
REMARK    2  A    between atoms: N4_11  and  N5_13 
REMARK    3  A    between atoms: N5_13  and  C4_15 
REMARK    4  A    between atoms: C5_20  and  C6_21 
ROOT
HETATM    1  C4  UNL     1      27.188  24.388 107.899  1.00  0.00     0.726 A 
HETATM    2  N6  UNL     1      26.858  23.228 107.290  1.00  0.00    -0.128 N 
ATOM      3  H6  UNL     1      26.291  22.529 107.769  1.00  0.00     0.205 HD
HETATM    4  N7  UNL     1      27.293  23.021 106.046  1.00  0.00    -0.268 N 
ATOM      5  H7  UNL     1      27.048  22.146 105.582  1.00  0.00     0.189 HD
HETATM    6  C5  UNL     1      28.042  23.916 105.380  1.00  0.00     0.164 A 
HETATM    7  N10 UNL     1      28.348  25.053 106.015  1.00  0.00    -0.268 N 
ATOM      8  H10 UNL     1      28.915  25.750 105.534  1.00  0.00     0.189 HD
HETATM    9  N11 UNL     1      27.937  25.300 107.253  1.00  0.00    -0.128 N 
ATOM     10  H11 UNL     1      28.187  26.176 107.710  1.00  0.00     0.205 HD
ENDROOT
BRANCH   1  11
HETATM   11  N5  UNL     1      26.767  24.602 109.115  1.00  0.00    -0.128 N 
ATOM     12  H5  UNL     1      27.161  24.065 109.888  1.00  0.00     0.205 HD
BRANCH  11  13
HETATM   13  N4  UNL     1      25.791  25.553 109.366  1.00  0.00    -0.269 N 
ATOM     14  H4  UNL     1      26.000  26.520 109.119  1.00  0.00     0.189 HD
BRANCH  13  15
HETATM   15  C3  UNL     1      24.648  25.310 109.885  1.00  0.00     0.159 A 
HETATM   16  C1  UNL     1      23.510  25.053 109.150  1.00  0.00     0.097 A 
HETATM   17 CL1  UNL     1      23.611  25.054 107.414  1.00  0.00    -0.079 Cl
HETATM   18  C2  UNL     1      22.323  24.804 109.822  1.00  0.00     0.136 A 
HETATM   19  N1  UNL     1      22.315  24.818 111.160  1.00  0.00    -0.296 N 
HETATM   20  N2  UNL     1      23.420  25.066 111.836  1.00  0.00    -0.241 N 
ATOM     21  H1  UNL     1      21.447  24.636 111.662  1.00  0.00     0.187 HD
HETATM   22  N3  UNL     1      24.553  25.307 111.224  1.00  0.00    -0.268 N 
ATOM     23  H2  UNL     1      23.392  25.071 112.855  1.00  0.00     0.208 HD
ATOM     24  H3  UNL     1      25.387  25.496 111.780  1.00  0.00     0.190 HD
ENDBRANCH  13  15
ENDBRANCH  11  13
ENDBRANCH   1  11
BRANCH   6  25
HETATM   25  C6  UNL     1      28.501  23.648 104.010  1.00  0.00     0.096 A 
HETATM   26  C7  UNL     1      28.162  24.321 102.856  1.00  0.00     0.053 A 
HETATM   27  C8  UNL     1      28.843  23.712 101.799  1.00  0.00     0.109 A 
HETATM   28  N8  UNL     1      29.553  22.713 102.353  1.00  0.00    -0.311 N 
HETATM   29  N9  UNL     1      29.351  22.674 103.669  1.00  0.00    -0.297 N 
ATOM     30  H8  UNL     1      30.161  22.076 101.839  1.00  0.00     0.186 HD
ATOM     31  H9  UNL     1      29.776  22.008 104.314  1.00  0.00     0.187 HD
ENDBRANCH   6  25
TORSDOF 4
ENDMDL
MODEL 3
REMARK VINA RESULT: -9.378703149      1.915      2.308
REMARK  4 active torsions:
REMARK  status: ('A' for Active; 'I' for Inactive)
REMARK    1  A    between atoms: C3_10  and  N4_11 
REMARK    2  A    between atoms: N4_11  and  N5_13 
REMARK    3  A    between atoms: N5_13  and  C4_15 
REMARK    4  A    between atoms: C5_20  and  C6_21 
ROOT
HETATM    1  C4  UNL     1      25.441  24.549 105.575  1.00  0.00     0.726 A 
HETATM    2  N6  UNL     1      25.503  25.140 104.362  1.00  0.00    -0.128 N 
ATOM      3  H6  UNL     1      24.799  25.820 104.076  1.00  0.00     0.205 HD
HETATM    4  N7  UNL     1      26.506  24.810 103.548  1.00  0.00    -0.268 N 
ATOM      5  H7  UNL     1      26.557  25.252 102.630  1.00  0.00     0.189 HD
HETATM    6  C5  UNL     1      27.454  23.919 103.887  1.00  0.00     0.164 A 
HETATM    7  N10 UNL     1      27.360  23.355 105.096  1.00  0.00    -0.268 N 
ATOM      8  H10 UNL     1      28.065  22.674 105.380  1.00  0.00     0.189 HD
HETATM    9  N11 UNL     1      26.378  23.653 105.937  1.00  0.00    -0.128 N 
ATOM     10  H11 UNL     1      26.334  23.206 106.853  1.00  0.00     0.205 HD
ENDROOT
BRANCH   1  11
HETATM   11  N5  UNL     1      24.465  24.864 106.379  1.00  0.00    -0.128 N 
ATOM     12  H5  UNL     1      23.783  25.568 106.097  1.00  0.00     0.205 HD
BRANCH  11  13
HETATM   13  N4  UNL     1      24.344  24.250 107.616  1.00  0.00    -0.269 N 
ATOM     14  H4  UNL     1      24.379  23.231 107.642  1.00  0.00     0.189 HD
BRANCH  13  15
HETATM   15  C3  UNL     1      24.192  24.863 108.728  1.00  0.00     0.159 A 
HETATM   16  C1  UNL     1      25.237  25.337 109.492  1.00  0.00     0.097 A 
HETATM   17 CL1  UNL     1      26.866  25.099 108.932  1.00  0.00    -0.079 Cl
HETATM   18  C2  UNL     1      24.952  25.988 110.682  1.00  0.00     0.136 A 
HETATM   19  N1  UNL     1      23.675  26.138 111.055  1.00  0.00    -0.296 N 
HETATM   20  N2  UNL     1      22.697  25.674 110.302  1.00  0.00    -0.241 N 
ATOM     21  H1  UNL     1      23.457  26.616 111.929  1.00  0.00     0.187 HD
HETATM   22  N3  UNL     1      22.941  25.054 109.174  1.00  0.00    -0.268 N 
ATOM     23  H2  UNL     1      21.732  25.801 110.604  1.00  0.00     0.208 HD
ATOM     24  H3  UNL     1      22.158  24.708 108.619  1.00  0.00     0.190 HD
ENDBRANCH  13  15
ENDBRANCH  11  13
ENDBRANCH   1  11
BRANCH   6  25
HETATM   25  C6  UNL     1      28.544  23.583 102.959  1.00  0.00     0.096 A 
HETATM   26  C7  UNL     1      28.839  24.175 101.750  1.00  0.00     0.053 A 
HETATM   27  C8  UNL     1      29.959  23.524 101.227  1.00  0.00     0.109 A 
HETATM   28  N8  UNL     1      30.286  22.582 102.130  1.00  0.00    -0.311 N 
HETATM   29  N9  UNL     1      29.445  22.616 103.162  1.00  0.00    -0.297 N 
ATOM     30  H8  UNL     1      31.068  21.935 102.038  1.00  0.00     0.186 HD
ATOM     31  H9  UNL     1      29.481  22.003 103.976  1.00  0.00     0.187 HD
ENDBRANCH   6  25
TORSDOF 4
ENDMDL
MODEL 4
REMARK VINA RESULT: -9.345095308      1.656      7.792
REMARK  4 active torsions:
REMARK  status: ('A' for Active; 'I' for Inactive)
REMARK    1  A    between atoms: C3_10  and  N4_11 
REMARK    2  A    between atoms: N4_11  and  N5_13 
REMARK    3  A    between atoms: N5_13  and  C4_15 
REMARK    4  A    between atoms: C5_20  and  C6_21 
ROOT
HETATM    1  C4  UNL     1      27.828  23.885 106.514  1.00  0.00     0.726 A 
HETATM    2  N6  UNL     1      26.632  23.263 106.606  1.00  0.00    -0.128 N 
ATOM      3  H6  UNL     1      26.410  22.468 106.007  1.00  0.00     0.205 HD
HETATM    4  N7  UNL     1      25.750  23.715 107.498  1.00  0.00    -0.268 N 
ATOM      5  H7  UNL     1      24.846  23.250 107.570  1.00  0.00     0.189 HD
HETATM    6  C5  UNL     1      26.005  24.759 108.306  1.00  0.00     0.164 A 
HETATM    7  N10 UNL     1      27.199  25.349 108.187  1.00  0.00    -0.268 N 
ATOM      8  H10 UNL     1      27.420  26.144 108.786  1.00  0.00     0.189 HD
HETATM    9  N11 UNL     1      28.106  24.933 107.312  1.00  0.00    -0.128 N 
ATOM     10  H11 UNL     1      29.008  25.404 107.245  1.00  0.00     0.205 HD
ENDROOT
BRANCH   1  11
HETATM   11  N5  UNL     1      28.698  23.451 105.645  1.00  0.00    -0.128 N 
ATOM     12  H5  UNL     1      29.693  23.484 105.866  1.00  0.00     0.205 HD
BRANCH  11  13
HETATM   13  N4  UNL     1      28.282  22.945 104.423  1.00  0.00    -0.269 N 
ATOM     14  H4  UNL     1      27.474  22.323 104.421  1.00  0.00     0.189 HD
BRANCH  13  15
HETATM   15  C3  UNL     1      28.835  23.198 103.299  1.00  0.00     0.159 A 
HETATM   16  C1  UNL     1      28.383  24.160 102.420  1.00  0.00     0.097 A 
HETATM   17 CL1  UNL     1      26.979  25.094 102.845  1.00  0.00    -0.079 Cl
HETATM   18  C2  UNL     1      29.063  24.347 101.227  1.00  0.00     0.136 A 
HETATM   19  N1  UNL     1      30.137  23.593 100.962  1.00  0.00    -0.296 N 
HETATM   20  N2  UNL     1      30.546  22.682 101.823  1.00  0.00    -0.241 N 
ATOM     21  H1  UNL     1      30.643  23.724 100.087  1.00  0.00     0.187 HD
HETATM   22  N3  UNL     1      29.919  22.485 102.957  1.00  0.00    -0.268 N 
ATOM     23  H2  UNL     1      31.367  22.119 101.603  1.00  0.00     0.208 HD
ATOM     24  H3  UNL     1      30.264  21.769 103.597  1.00  0.00     0.190 HD
ENDBRANCH  13  15
ENDBRANCH  11  13
ENDBRANCH   1  11
BRANCH   6  25
HETATM   25  C6  UNL     1      25.005  25.226 109.277  1.00  0.00     0.096 A 
HETATM   26  C7  UNL     1      23.637  25.067 109.226  1.00  0.00     0.053 A 
HETATM   27  C8  UNL     1      23.101  25.675 110.365  1.00  0.00     0.109 A 
HETATM   28  N8  UNL     1      24.154  26.167 111.042  1.00  0.00    -0.311 N 
HETATM   29  N9  UNL     1      25.288  25.901 110.396  1.00  0.00    -0.297 N 
ATOM     30  H8  UNL     1      24.093  26.672 111.926  1.00  0.00     0.186 HD
ATOM     31  H9  UNL     1      26.222  26.168 110.706  1.00  0.00     0.187 HD
ENDBRANCH   6  25
TORSDOF 4
ENDMDL
MODEL 5
REMARK VINA RESULT: -9.332329307      1.663      7.735
REMARK  4 active torsions:
REMARK  status: ('A' for Active; 'I' for Inactive)
REMARK    1  A    between atoms: C3_10  and  N4_11 
REMARK    2  A    between atoms: N4_11  and  N5_13 
REMARK    3  A    between atoms: N5_13  and  C4_15 
REMARK    4  A    between atoms: C5_20  and  C6_21 
ROOT
HETATM    1  C4  UNL     1      27.820  23.873 106.503  1.00  0.00     0.726 A 
HETATM    2  N6  UNL     1      28.117  24.928 107.292  1.00  0.00    -0.128 N 
ATOM      3  H6  UNL     1      29.019  25.399 107.218  1.00  0.00     0.205 HD
HETATM    4  N7  UNL     1      27.201  25.338 108.171  1.00  0.00    -0.268 N 
ATOM      5  H7  UNL     1      27.421  26.133 108.771  1.00  0.00     0.189 HD
HETATM    6  C5  UNL     1      26.002  24.746 108.300  1.00  0.00     0.164 A 
HETATM    7  N10 UNL     1      25.744  23.705 107.501  1.00  0.00    -0.268 N 
ATOM      8  H10 UNL     1      24.842  23.235 107.577  1.00  0.00     0.189 HD
HETATM    9  N11 UNL     1      26.626  23.263 106.613  1.00  0.00    -0.128 N 
ATOM     10  H11 UNL     1      26.399  22.466 106.019  1.00  0.00     0.205 HD
ENDROOT
BRANCH   1  11
HETATM   11  N5  UNL     1      28.708  23.464 105.640  1.00  0.00    -0.128 N 
ATOM     12  H5  UNL     1      29.701  23.537 105.862  1.00  0.00     0.205 HD
BRANCH  11  13
HETATM   13  N4  UNL     1      28.314  22.930 104.423  1.00  0.00    -0.269 N 
ATOM     14  H4  UNL     1      27.530  22.278 104.426  1.00  0.00     0.189 HD
BRANCH  13  15
HETATM   15  C3  UNL     1      28.859  23.192 103.297  1.00  0.00     0.159 A 
HETATM   16  C1  UNL     1      28.392  24.149 102.421  1.00  0.00     0.097 A 
HETATM   17 CL1  UNL     1      26.979  25.066 102.853  1.00  0.00    -0.079 Cl
HETATM   18  C2  UNL     1      29.065  24.346 101.226  1.00  0.00     0.136 A 
HETATM   19  N1  UNL     1      30.146  23.605 100.955  1.00  0.00    -0.296 N 
HETATM   20  N2  UNL     1      30.570  22.698 101.813  1.00  0.00    -0.241 N 
ATOM     21  H1  UNL     1      30.647  23.744 100.078  1.00  0.00     0.187 HD
HETATM   22  N3  UNL     1      29.950  22.492 102.949  1.00  0.00    -0.268 N 
ATOM     23  H2  UNL     1      31.396  22.145 101.588  1.00  0.00     0.208 HD
ATOM     24  H3  UNL     1      30.306  21.779 103.586  1.00  0.00     0.190 HD
ENDBRANCH  13  15
ENDBRANCH  11  13
ENDBRANCH   1  11
BRANCH   6  25
HETATM   25  C6  UNL     1      25.021  25.229 109.282  1.00  0.00     0.096 A 
HETATM   26  C7  UNL     1      23.652  25.074 109.257  1.00  0.00     0.053 A 
HETATM   27  C8  UNL     1      23.138  25.698 110.397  1.00  0.00     0.109 A 
HETATM   28  N8  UNL     1      24.204  26.195 111.050  1.00  0.00    -0.311 N 
HETATM   29  N9  UNL     1      25.326  25.917 110.388  1.00  0.00    -0.297 N 
ATOM     30  H8  UNL     1      24.160  26.711 111.928  1.00  0.00     0.186 HD
ATOM     31  H9  UNL     1      26.266  26.184 110.677  1.00  0.00     0.187 HD
ENDBRANCH   6  25
TORSDOF 4
ENDMDL
