MODEL 1
REMARK VINA RESULT: -4.372930011      0.000      0.000
REMARK  4 active torsions:
REMARK  status: ('A' for Active; 'I' for Inactive)
REMARK    1  A    between atoms: O1_1  and  N1_3 
REMARK    2  A    between atoms: N1_3  and  C1_5 
REMARK    3  A    between atoms: C1_5  and  C2_6 
REMARK    4  A    between atoms: C3_7  and  C4_8 
ROOT
HETATM    1  C1  UNL     1      29.052  14.616  16.078  1.00  0.00     0.234 C 
ENDROOT
BRANCH   1   2
HETATM    2  N1  UNL     1      28.910  16.022  16.282  1.00  0.00    -0.095 NA
HETATM    3 CL1  UNL     1      27.267  16.339  16.805  1.00  0.00     0.007 Cl
BRANCH   2   4
HETATM    4  O1  UNL     1      29.085  16.674  15.087  1.00  0.00    -0.297 OA
ATOM      5  H1  UNL     1      29.225  17.591  15.289  1.00  0.00     0.238 HD
ENDBRANCH   2   4
ENDBRANCH   1   2
BRANCH   1   6
HETATM    6  C2  UNL     1      28.517  13.875  17.202  1.00  0.00    -0.088 C 
HETATM    7  C3  UNL     1      28.055  13.258  18.128  1.00  0.00    -0.100 C 
BRANCH   7   8
HETATM    8  C4  UNL     1      27.477  12.527  19.231  1.00  0.00     0.065 A 
HETATM    9  C5  UNL     1      28.479  11.840  20.139  1.00  0.00     0.018 A 
HETATM   10  C6  UNL     1      27.538  11.053  19.274  1.00  0.00     0.018 A 
ENDBRANCH   7   8
ENDBRANCH   1   6
TORSDOF 4
ENDMDL
MODEL 2
REMARK VINA RESULT: -4.272632563      1.434      1.434
REMARK  4 active torsions:
REMARK  status: ('A' for Active; 'I' for Inactive)
REMARK    1  A    between atoms: O1_1  and  N1_3 
REMARK    2  A    between atoms: N1_3  and  C1_5 
REMARK    3  A    between atoms: C1_5  and  C2_6 
REMARK    4  A    between atoms: C3_7  and  C4_8 
ROOT
HETATM    1  C1  UNL     1      28.399  15.851  17.166  1.00  0.00     0.234 C 
ENDROOT
BRANCH   1   2
HETATM    2  N1  UNL     1      28.690  15.487  15.816  1.00  0.00    -0.095 NA
HETATM    3 CL1  UNL     1      29.979  14.300  15.831  1.00  0.00     0.007 Cl
BRANCH   2   4
HETATM    4  O1  UNL     1      29.162  16.585  15.142  1.00  0.00    -0.297 OA
ATOM      5  H1  UNL     1      28.834  16.528  14.252  1.00  0.00     0.238 HD
ENDBRANCH   2   4
ENDBRANCH   1   2
BRANCH   1   6
HETATM    6  C2  UNL     1      28.010  14.690  17.940  1.00  0.00    -0.088 C 
HETATM    7  C3  UNL     1      27.671  13.721  18.571  1.00  0.00    -0.100 C 
BRANCH   7   8
HETATM    8  C4  UNL     1      27.241  12.562  19.318  1.00  0.00     0.065 A 
HETATM    9  C5  UNL     1      28.356  11.785  19.992  1.00  0.00     0.018 A 
HETATM   10  C6  UNL     1      27.570  11.200  18.853  1.00  0.00     0.018 A 
ENDBRANCH   7   8
ENDBRANCH   1   6
TORSDOF 4
ENDMDL
MODEL 3
REMARK VINA RESULT: -4.222059647      3.749      5.095
REMARK  4 active torsions:
REMARK  status: ('A' for Active; 'I' for Inactive)
REMARK    1  A    between atoms: O1_1  and  N1_3 
REMARK    2  A    between atoms: N1_3  and  C1_5 
REMARK    3  A    between atoms: C1_5  and  C2_6 
REMARK    4  A    between atoms: C3_7  and  C4_8 
ROOT
HETATM    1  C1  UNL     1      27.594  12.024  18.275  1.00  0.00     0.234 C 
ENDROOT
BRANCH   1   2
HETATM    2  N1  UNL     1      27.469  12.488  19.620  1.00  0.00    -0.095 NA
HETATM    3 CL1  UNL     1      28.675  11.674  20.598  1.00  0.00     0.007 Cl
BRANCH   2   4
HETATM    4  O1  UNL     1      26.240  12.124  20.113  1.00  0.00    -0.297 OA
ATOM      5  H1  UNL     1      25.967  12.809  20.711  1.00  0.00     0.238 HD
ENDBRANCH   2   4
ENDBRANCH   1   2
BRANCH   1   6
HETATM    6  C2  UNL     1      28.298  12.993  17.460  1.00  0.00    -0.088 C 
HETATM    7  C3  UNL     1      28.881  13.812  16.797  1.00  0.00    -0.100 C 
BRANCH   7   8
HETATM    8  C4  UNL     1      29.569  14.813  16.015  1.00  0.00     0.065 A 
HETATM    9  C5  UNL     1      28.722  16.008  15.617  1.00  0.00     0.018 A 
HETATM   10  C6  UNL     1      29.225  15.029  14.595  1.00  0.00     0.018 A 
ENDBRANCH   7   8
ENDBRANCH   1   6
TORSDOF 4
ENDMDL
MODEL 4
REMARK VINA RESULT: -4.177940003      4.328      5.297
REMARK  4 active torsions:
REMARK  status: ('A' for Active; 'I' for Inactive)
REMARK    1  A    between atoms: O1_1  and  N1_3 
REMARK    2  A    between atoms: N1_3  and  C1_5 
REMARK    3  A    between atoms: C1_5  and  C2_6 
REMARK    4  A    between atoms: C3_7  and  C4_8 
ROOT
HETATM    1  C1  UNL     1      28.127  11.640  19.732  1.00  0.00     0.234 C 
ENDROOT
BRANCH   1   2
HETATM    2  N1  UNL     1      26.985  11.708  20.586  1.00  0.00    -0.095 NA
HETATM    3 CL1  UNL     1      27.004  10.311  21.645  1.00  0.00     0.007 Cl
BRANCH   2   4
HETATM    4  O1  UNL     1      25.845  11.621  19.827  1.00  0.00    -0.297 OA
ATOM      5  H1  UNL     1      26.119  11.475  18.930  1.00  0.00     0.238 HD
ENDBRANCH   2   4
ENDBRANCH   1   2
BRANCH   1   6
HETATM    6  C2  UNL     1      28.352  12.910  19.070  1.00  0.00    -0.088 C 
HETATM    7  C3  UNL     1      28.559  13.962  18.522  1.00  0.00    -0.100 C 
BRANCH   7   8
HETATM    8  C4  UNL     1      28.830  15.225  17.876  1.00  0.00     0.065 A 
HETATM    9  C5  UNL     1      27.674  15.798  17.078  1.00  0.00     0.018 A 
HETATM   10  C6  UNL     1      28.927  15.316  16.406  1.00  0.00     0.018 A 
ENDBRANCH   7   8
ENDBRANCH   1   6
TORSDOF 4
ENDMDL
MODEL 5
REMARK VINA RESULT: -4.158166955      1.605      1.609
REMARK  4 active torsions:
REMARK  status: ('A' for Active; 'I' for Inactive)
REMARK    1  A    between atoms: O1_1  and  N1_3 
REMARK    2  A    between atoms: N1_3  and  C1_5 
REMARK    3  A    between atoms: C1_5  and  C2_6 
REMARK    4  A    between atoms: C3_7  and  C4_8 
ROOT
HETATM    1  C1  UNL     1      29.653  14.697  15.699  1.00  0.00     0.234 C 
ENDROOT
BRANCH   1   2
HETATM    2  N1  UNL     1      28.808  15.516  14.891  1.00  0.00    -0.095 NA
HETATM    3 CL1  UNL     1      29.144  15.162  13.207  1.00  0.00     0.007 Cl
BRANCH   2   4
HETATM    4  O1  UNL     1      29.125  16.836  15.095  1.00  0.00    -0.297 OA
ATOM      5  H1  UNL     1      28.661  17.339  14.436  1.00  0.00     0.238 HD
ENDBRANCH   2   4
ENDBRANCH   1   2
BRANCH   1   6
HETATM    6  C2  UNL     1      28.943  14.220  16.869  1.00  0.00    -0.088 C 
HETATM    7  C3  UNL     1      28.359  13.804  17.836  1.00  0.00    -0.100 C 
BRANCH   7   8
HETATM    8  C4  UNL     1      27.655  13.282  18.984  1.00  0.00     0.065 A 
HETATM    9  C5  UNL     1      28.424  12.255  19.794  1.00  0.00     0.018 A 
HETATM   10  C6  UNL     1      27.196  11.879  19.015  1.00  0.00     0.018 A 
ENDBRANCH   7   8
ENDBRANCH   1   6
TORSDOF 4
ENDMDL
