MODEL 1
REMARK VINA RESULT: -3.643248925      0.000      0.000
REMARK  3 active torsions:
REMARK  status: ('A' for Active; 'I' for Inactive)
REMARK    1  A    between atoms: O1_1  and  C1_3 
REMARK    2  A    between atoms: C1_3  and  C2_4 
REMARK    3  A    between atoms: C2_4  and  C3_5 
ROOT
HETATM    1  C3  UNL     1      28.709  14.973  16.938  1.00  0.00    -0.092 C 
HETATM    2  C4  UNL     1      28.677  14.185  17.867  1.00  0.00    -0.024 C 
HETATM    3 BR1  UNL     1      28.621  12.990  19.327  1.00  0.00     0.010 Br
ENDROOT
BRANCH   1   4
HETATM    4  C2  UNL     1      28.731  15.917  15.842  1.00  0.00     0.120 C 
BRANCH   4   5
HETATM    5  C1  UNL     1      29.169  15.180  14.600  1.00  0.00     0.176 C 
BRANCH   5   6
HETATM    6  O1  UNL     1      30.562  15.139  14.619  1.00  0.00    -0.400 OA
ATOM      7  H1  UNL     1      30.811  14.277  14.930  1.00  0.00     0.209 HD
ENDBRANCH   5   6
ENDBRANCH   4   5
ENDBRANCH   1   4
TORSDOF 3
ENDMDL
MODEL 2
REMARK VINA RESULT: -3.564445075      1.380      1.535
REMARK  3 active torsions:
REMARK  status: ('A' for Active; 'I' for Inactive)
REMARK    1  A    between atoms: O1_1  and  C1_3 
REMARK    2  A    between atoms: C1_3  and  C2_4 
REMARK    3  A    between atoms: C2_4  and  C3_5 
ROOT
HETATM    1  C3  UNL     1      28.311  14.271  17.572  1.00  0.00    -0.092 C 
HETATM    2  C4  UNL     1      27.912  13.206  18.008  1.00  0.00    -0.024 C 
HETATM    3 BR1  UNL     1      27.279  11.571  18.707  1.00  0.00     0.010 Br
ENDROOT
BRANCH   1   4
HETATM    4  C2  UNL     1      28.768  15.544  17.060  1.00  0.00     0.120 C 
BRANCH   4   5
HETATM    5  C1  UNL     1      29.001  15.394  15.576  1.00  0.00     0.176 C 
BRANCH   5   6
HETATM    6  O1  UNL     1      29.107  16.679  15.047  1.00  0.00    -0.400 OA
ATOM      7  H1  UNL     1      29.780  16.649  14.377  1.00  0.00     0.209 HD
ENDBRANCH   5   6
ENDBRANCH   4   5
ENDBRANCH   1   4
TORSDOF 3
ENDMDL
MODEL 3
REMARK VINA RESULT: -3.424751681      3.713      4.472
REMARK  3 active torsions:
REMARK  status: ('A' for Active; 'I' for Inactive)
REMARK    1  A    between atoms: O1_1  and  C1_3 
REMARK    2  A    between atoms: C1_3  and  C2_4 
REMARK    3  A    between atoms: C2_4  and  C3_5 
ROOT
HETATM    1  C3  UNL     1      28.467  14.816  17.746  1.00  0.00    -0.092 C 
HETATM    2  C4  UNL     1      28.737  15.111  16.595  1.00  0.00    -0.024 C 
HETATM    3 BR1  UNL     1      29.140  15.540  14.802  1.00  0.00     0.010 Br
ENDROOT
BRANCH   1   4
HETATM    4  C2  UNL     1      28.128  14.461  19.106  1.00  0.00     0.120 C 
BRANCH   4   5
HETATM    5  C1  UNL     1      27.732  13.005  19.124  1.00  0.00     0.176 C 
BRANCH   5   6
HETATM    6  O1  UNL     1      26.625  12.893  19.963  1.00  0.00    -0.400 OA
ATOM      7  H1  UNL     1      26.174  12.092  19.724  1.00  0.00     0.209 HD
ENDBRANCH   5   6
ENDBRANCH   4   5
ENDBRANCH   1   4
TORSDOF 3
ENDMDL
MODEL 4
REMARK VINA RESULT: -3.396536094      1.290      1.494
REMARK  3 active torsions:
REMARK  status: ('A' for Active; 'I' for Inactive)
REMARK    1  A    between atoms: O1_1  and  C1_3 
REMARK    2  A    between atoms: C1_3  and  C2_4 
REMARK    3  A    between atoms: C2_4  and  C3_5 
ROOT
HETATM    1  C3  UNL     1      29.170  13.791  17.294  1.00  0.00    -0.092 C 
HETATM    2  C4  UNL     1      28.887  13.171  18.304  1.00  0.00    -0.024 C 
HETATM    3 BR1  UNL     1      28.474  12.191  19.864  1.00  0.00     0.010 Br
ENDROOT
BRANCH   1   4
HETATM    4  C2  UNL     1      29.525  14.525  16.100  1.00  0.00     0.120 C 
BRANCH   4   5
HETATM    5  C1  UNL     1      28.666  15.766  16.043  1.00  0.00     0.176 C 
BRANCH   5   6
HETATM    6  O1  UNL     1      29.184  16.574  15.032  1.00  0.00    -0.400 OA
ATOM      7  H1  UNL     1      30.063  16.820  15.295  1.00  0.00     0.209 HD
ENDBRANCH   5   6
ENDBRANCH   4   5
ENDBRANCH   1   4
TORSDOF 3
ENDMDL
MODEL 5
REMARK VINA RESULT: -3.394692804      3.500      4.283
REMARK  3 active torsions:
REMARK  status: ('A' for Active; 'I' for Inactive)
REMARK    1  A    between atoms: O1_1  and  C1_3 
REMARK    2  A    between atoms: C1_3  and  C2_4 
REMARK    3  A    between atoms: C2_4  and  C3_5 
ROOT
HETATM    1  C3  UNL     1      28.970  14.076  17.247  1.00  0.00    -0.092 C 
HETATM    2  C4  UNL     1      29.080  14.594  16.149  1.00  0.00    -0.024 C 
HETATM    3 BR1  UNL     1      29.223  15.379  14.439  1.00  0.00     0.010 Br
ENDROOT
BRANCH   1   4
HETATM    4  C2  UNL     1      28.821  13.464  18.549  1.00  0.00     0.120 C 
BRANCH   4   5
HETATM    5  C1  UNL     1      27.914  14.343  19.376  1.00  0.00     0.176 C 
BRANCH   5   6
HETATM    6  O1  UNL     1      28.677  14.837  20.433  1.00  0.00    -0.400 OA
ATOM      7  H1  UNL     1      28.325  14.459  21.230  1.00  0.00     0.209 HD
ENDBRANCH   5   6
ENDBRANCH   4   5
ENDBRANCH   1   4
TORSDOF 3
ENDMDL
