MODEL 1
REMARK VINA RESULT: -4.002346385      0.000      0.000
REMARK  1 active torsions:
REMARK  status: ('A' for Active; 'I' for Inactive)
REMARK    1  A    between atoms: C1_2  and  N1_3 
ROOT
HETATM    1  N1  UNL     1      29.086  15.602  16.348  1.00  0.00     0.148 N 
HETATM    2  C2  UNL     1      29.515  14.284  15.852  1.00  0.00     0.507 C 
HETATM    3  N2  UNL     1      30.078  15.052  14.726  1.00  0.00    -0.022 N 
ATOM      4  H21 UNL     1      30.294  14.625  13.826  1.00  0.00     0.281 HD
ATOM      5  H22 UNL     1      31.035  15.405  14.730  1.00  0.00     0.281 HD
HETATM    6  C3  UNL     1      28.909  15.931  14.926  1.00  0.00     0.507 C 
ENDROOT
BRANCH   1   7
HETATM    7  C1  UNL     1      27.889  15.597  17.124  1.00  0.00     0.361 C 
HETATM    8 BR1  UNL     1      27.981  14.148  18.388  1.00  0.00    -0.064 Br
ENDBRANCH   1   7
TORSDOF 1
ENDMDL
MODEL 2
REMARK VINA RESULT: -3.987874503      1.117      1.702
REMARK  1 active torsions:
REMARK  status: ('A' for Active; 'I' for Inactive)
REMARK    1  A    between atoms: C1_2  and  N1_3 
ROOT
HETATM    1  N1  UNL     1      29.546  14.784  16.015  1.00  0.00     0.148 N 
HETATM    2  C2  UNL     1      29.279  15.167  14.619  1.00  0.00     0.507 C 
HETATM    3  N2  UNL     1      29.054  16.510  15.183  1.00  0.00    -0.022 N 
ATOM      4  H21 UNL     1      28.521  17.227  14.692  1.00  0.00     0.281 HD
ATOM      5  H22 UNL     1      29.801  17.199  15.270  1.00  0.00     0.281 HD
HETATM    6  C3  UNL     1      28.514  15.778  16.344  1.00  0.00     0.507 C 
ENDROOT
BRANCH   1   7
HETATM    7  C1  UNL     1      29.219  13.435  16.346  1.00  0.00     0.361 C 
HETATM    8 BR1  UNL     1      28.837  13.340  18.231  1.00  0.00    -0.064 Br
ENDBRANCH   1   7
TORSDOF 1
ENDMDL
MODEL 3
REMARK VINA RESULT: -3.684986297      1.316      1.830
REMARK  1 active torsions:
REMARK  status: ('A' for Active; 'I' for Inactive)
REMARK    1  A    between atoms: C1_2  and  N1_3 
ROOT
HETATM    1  N1  UNL     1      28.749  14.373  16.250  1.00  0.00     0.148 N 
HETATM    2  C2  UNL     1      28.539  15.699  16.854  1.00  0.00     0.507 C 
HETATM    3  N2  UNL     1      28.414  16.155  15.458  1.00  0.00    -0.022 N 
ATOM      4  H21 UNL     1      28.541  17.129  15.187  1.00  0.00     0.281 HD
ATOM      5  H22 UNL     1      27.518  16.191  14.972  1.00  0.00     0.281 HD
HETATM    6  C3  UNL     1      29.425  15.116  15.177  1.00  0.00     0.507 C 
ENDROOT
BRANCH   1   7
HETATM    7  C1  UNL     1      29.585  13.492  16.999  1.00  0.00     0.361 C 
HETATM    8 BR1  UNL     1      28.768  13.177  18.714  1.00  0.00    -0.064 Br
ENDBRANCH   1   7
TORSDOF 1
ENDMDL
MODEL 4
REMARK VINA RESULT: -3.566502102      0.452      1.222
REMARK  1 active torsions:
REMARK  status: ('A' for Active; 'I' for Inactive)
REMARK    1  A    between atoms: C1_2  and  N1_3 
ROOT
HETATM    1  N1  UNL     1      28.537  15.011  15.957  1.00  0.00     0.148 N 
HETATM    2  C2  UNL     1      28.996  16.023  14.991  1.00  0.00     0.507 C 
HETATM    3  N2  UNL     1      29.899  14.956  14.523  1.00  0.00    -0.022 N 
ATOM      4  H21 UNL     1      30.745  15.151  13.987  1.00  0.00     0.281 HD
ATOM      5  H22 UNL     1      29.641  14.307  13.780  1.00  0.00     0.281 HD
HETATM    6  C3  UNL     1      29.936  14.558  15.943  1.00  0.00     0.507 C 
ENDROOT
BRANCH   1   7
HETATM    7  C1  UNL     1      28.078  15.529  17.204  1.00  0.00     0.361 C 
HETATM    8 BR1  UNL     1      27.922  14.074  18.455  1.00  0.00    -0.064 Br
ENDBRANCH   1   7
TORSDOF 1
ENDMDL
MODEL 5
REMARK VINA RESULT: -3.503166706      1.390      1.921
REMARK  1 active torsions:
REMARK  status: ('A' for Active; 'I' for Inactive)
REMARK    1  A    between atoms: C1_2  and  N1_3 
ROOT
HETATM    1  N1  UNL     1      29.069  14.423  17.325  1.00  0.00     0.148 N 
HETATM    2  C2  UNL     1      29.444  14.628  15.916  1.00  0.00     0.507 C 
HETATM    3  N2  UNL     1      29.114  16.040  16.185  1.00  0.00    -0.022 N 
ATOM      4  H21 UNL     1      28.896  16.702  15.441  1.00  0.00     0.281 HD
ATOM      5  H22 UNL     1      29.809  16.712  16.508  1.00  0.00     0.281 HD
HETATM    6  C3  UNL     1      28.079  15.481  17.076  1.00  0.00     0.507 C 
ENDROOT
BRANCH   1   7
HETATM    7  C1  UNL     1      28.524  13.139  17.625  1.00  0.00     0.361 C 
HETATM    8 BR1  UNL     1      28.642  12.850  19.525  1.00  0.00    -0.064 Br
ENDBRANCH   1   7
TORSDOF 1
ENDMDL
