MODEL 1
REMARK VINA RESULT: -3.452375791      0.000      0.000
REMARK  1 active torsions:
REMARK  status: ('A' for Active; 'I' for Inactive)
REMARK    1  A    between atoms: N1_3  and  C2_5 
ROOT
HETATM    1 BR1  UNL     1      28.783  13.231  18.555  1.00  0.00    -0.045 Br
HETATM    2  C1  UNL     1      28.707  12.453  16.804  1.00  0.00     0.140 C 
HETATM    3  N1  UNL     1      29.097  13.113  15.803  1.00  0.00    -0.389 N 
ATOM      4  H1  UNL     1      29.051  12.686  14.877  1.00  0.00     0.159 HD
ENDROOT
BRANCH   3   5
HETATM    5  C2  UNL     1      29.602  14.441  15.933  1.00  0.00     0.081 A 
HETATM    6  C3  UNL     1      28.704  15.609  16.016  1.00  0.00     0.027 A 
HETATM    7  C4  UNL     1      29.373  15.304  14.712  1.00  0.00     0.027 A 
ENDBRANCH   3   5
TORSDOF 1
ENDMDL
MODEL 2
REMARK VINA RESULT: -3.451254661      2.517      3.791
REMARK  1 active torsions:
REMARK  status: ('A' for Active; 'I' for Inactive)
REMARK    1  A    between atoms: N1_3  and  C2_5 
ROOT
HETATM    1 BR1  UNL     1      29.216  14.840  15.709  1.00  0.00    -0.045 Br
HETATM    2  C1  UNL     1      28.768  15.562  17.426  1.00  0.00     0.140 C 
HETATM    3  N1  UNL     1      28.682  14.801  18.428  1.00  0.00    -0.389 N 
ATOM      4  H1  UNL     1      28.443  15.200  19.337  1.00  0.00     0.159 HD
ENDROOT
BRANCH   3   5
HETATM    5  C2  UNL     1      28.912  13.397  18.322  1.00  0.00     0.081 A 
HETATM    6  C3  UNL     1      27.806  12.422  18.379  1.00  0.00     0.027 A 
HETATM    7  C4  UNL     1      28.643  12.636  19.602  1.00  0.00     0.027 A 
ENDBRANCH   3   5
TORSDOF 1
ENDMDL
MODEL 3
REMARK VINA RESULT: -3.333557421      2.004      2.189
REMARK  1 active torsions:
REMARK  status: ('A' for Active; 'I' for Inactive)
REMARK    1  A    between atoms: N1_3  and  C2_5 
ROOT
HETATM    1 BR1  UNL     1      27.586  12.517  18.957  1.00  0.00    -0.045 Br
HETATM    2  C1  UNL     1      28.312  14.256  19.305  1.00  0.00     0.140 C 
HETATM    3  N1  UNL     1      28.640  15.007  18.346  1.00  0.00    -0.389 N 
ATOM      4  H1  UNL     1      29.026  15.930  18.546  1.00  0.00     0.159 HD
ENDROOT
BRANCH   3   5
HETATM    5  C2  UNL     1      28.486  14.596  16.988  1.00  0.00     0.081 A 
HETATM    6  C3  UNL     1      29.645  14.419  16.093  1.00  0.00     0.027 A 
HETATM    7  C4  UNL     1      28.832  15.671  15.982  1.00  0.00     0.027 A 
ENDBRANCH   3   5
TORSDOF 1
ENDMDL
MODEL 4
REMARK VINA RESULT: -3.276963234      1.807      2.044
REMARK  1 active torsions:
REMARK  status: ('A' for Active; 'I' for Inactive)
REMARK    1  A    between atoms: N1_3  and  C2_5 
ROOT
HETATM    1 BR1  UNL     1      27.876  13.371  18.411  1.00  0.00    -0.045 Br
HETATM    2  C1  UNL     1      28.530  15.172  18.439  1.00  0.00     0.140 C 
HETATM    3  N1  UNL     1      28.803  15.761  17.357  1.00  0.00    -0.389 N 
ATOM      4  H1  UNL     1      29.150  16.720  17.387  1.00  0.00     0.159 HD
ENDROOT
BRANCH   3   5
HETATM    5  C2  UNL     1      28.637  15.119  16.094  1.00  0.00     0.081 A 
HETATM    6  C3  UNL     1      29.782  14.855  15.201  1.00  0.00     0.027 A 
HETATM    7  C4  UNL     1      28.894  16.025  14.910  1.00  0.00     0.027 A 
ENDBRANCH   3   5
TORSDOF 1
ENDMDL
MODEL 5
REMARK VINA RESULT: -3.270112563      2.227      2.480
REMARK  1 active torsions:
REMARK  status: ('A' for Active; 'I' for Inactive)
REMARK    1  A    between atoms: N1_3  and  C2_5 
ROOT
HETATM    1 BR1  UNL     1      27.270  11.636  18.708  1.00  0.00    -0.045 Br
HETATM    2  C1  UNL     1      28.566  12.797  19.512  1.00  0.00     0.140 C 
HETATM    3  N1  UNL     1      28.852  13.897  18.966  1.00  0.00    -0.389 N 
ATOM      4  H1  UNL     1      29.544  14.506  19.405  1.00  0.00     0.159 HD
ENDROOT
BRANCH   3   5
HETATM    5  C2  UNL     1      28.232  14.312  17.750  1.00  0.00     0.081 A 
HETATM    6  C3  UNL     1      28.980  14.379  16.479  1.00  0.00     0.027 A 
HETATM    7  C4  UNL     1      28.727  15.646  17.236  1.00  0.00     0.027 A 
ENDBRANCH   3   5
TORSDOF 1
ENDMDL
