MODEL 1
REMARK VINA RESULT: -6.884744647      0.000      0.000
REMARK  5 active torsions:
REMARK  status: ('A' for Active; 'I' for Inactive)
REMARK    1  A    between atoms: O1_2  and  C2_3 
REMARK    2  A    between atoms: C2_3  and  C3_5 
REMARK    3  A    between atoms: C8_12  and  O3_13 
REMARK    4  A    between atoms: O3_13  and  S1_14 
REMARK    5  A    between atoms: S1_14  and  N1_17 
REMARK       I    between atoms: N1_17  and  C9_19 
ROOT
HETATM    1  C3  UNL     1      50.562  50.478  34.415  1.00  0.00     0.076 A 
HETATM    2  C4  UNL     1      50.783  50.682  33.040  1.00  0.00     0.039 A 
HETATM    3  C5  UNL     1      49.846  50.245  32.132  1.00  0.00     0.013 A 
HETATM    4 BR1  UNL     1      50.176  50.535  30.267  1.00  0.00    -0.051 Br
HETATM    5  C6  UNL     1      48.708  49.614  32.570  1.00  0.00     0.041 A 
HETATM    6  C7  UNL     1      48.505  49.417  33.936  1.00  0.00     0.048 A 
HETATM    7 BR2  UNL     1      46.874  48.562  34.474  1.00  0.00    -0.048 Br
HETATM    8  C8  UNL     1      49.437  49.849  34.859  1.00  0.00     0.124 A 
ENDROOT
BRANCH   8   9
HETATM    9  O3  UNL     1      49.225  49.636  36.187  1.00  0.00    -0.214 OA
BRANCH   9  10
HETATM   10  S1  UNL     1      48.445  50.614  37.299  1.00  0.00     0.369 S 
HETATM   11  O4  UNL     1      47.600  51.587  36.482  1.00  0.00    -0.175 OA
HETATM   12  O5  UNL     1      49.332  51.415  38.197  1.00  0.00    -0.175 OA
BRANCH  10  13
HETATM   13  N1  UNL     1      47.356  49.770  38.342  1.00  0.00    -0.231 N 
HETATM   14  C9  UNL     1      47.874  48.804  39.234  1.00  0.00     0.228 C 
HETATM   15  C10 UNL     1      46.905  48.095  40.115  1.00  0.00     0.118 C 
HETATM   16  O6  UNL     1      49.097  48.555  39.281  1.00  0.00    -0.273 OA
ATOM     17  H1  UNL     1      46.355  49.966  38.314  1.00  0.00     0.183 HD
ENDBRANCH  10  13
ENDBRANCH   9  10
ENDBRANCH   8   9
BRANCH   1  18
HETATM   18  C2  UNL     1      51.578  51.086  35.262  1.00  0.00     0.295 C 
HETATM   19  O2  UNL     1      51.985  50.560  36.329  1.00  0.00    -0.259 OA
BRANCH  18  20
HETATM   20  O1  UNL     1      52.134  52.286  34.894  1.00  0.00    -0.322 OA
HETATM   21  C1  UNL     1      53.524  52.507  34.852  1.00  0.00     0.213 C 
ENDBRANCH  18  20
ENDBRANCH   1  18
TORSDOF 5
ENDMDL
MODEL 2
REMARK VINA RESULT: -6.874909137      1.971      3.604
REMARK  5 active torsions:
REMARK  status: ('A' for Active; 'I' for Inactive)
REMARK    1  A    between atoms: O1_2  and  C2_3 
REMARK    2  A    between atoms: C2_3  and  C3_5 
REMARK    3  A    between atoms: C8_12  and  O3_13 
REMARK    4  A    between atoms: O3_13  and  S1_14 
REMARK    5  A    between atoms: S1_14  and  N1_17 
REMARK       I    between atoms: N1_17  and  C9_19 
ROOT
HETATM    1  C3  UNL     1      48.191  49.429  33.888  1.00  0.00     0.076 A 
HETATM    2  C4  UNL     1      48.334  49.665  32.508  1.00  0.00     0.039 A 
HETATM    3  C5  UNL     1      49.480  50.264  32.039  1.00  0.00     0.013 A 
HETATM    4 BR1  UNL     1      49.646  50.574  30.155  1.00  0.00    -0.051 Br
HETATM    5  C6  UNL     1      50.473  50.627  32.916  1.00  0.00     0.041 A 
HETATM    6  C7  UNL     1      50.314  50.387  34.281  1.00  0.00     0.048 A 
HETATM    7 BR2  UNL     1      51.760  50.887  35.440  1.00  0.00    -0.048 Br
HETATM    8  C8  UNL     1      49.168  49.789  34.766  1.00  0.00     0.124 A 
ENDROOT
BRANCH   8   9
HETATM    9  O3  UNL     1      49.029  49.576  36.104  1.00  0.00    -0.214 OA
BRANCH   9  10
HETATM   10  S1  UNL     1      48.294  50.546  37.254  1.00  0.00     0.369 S 
HETATM   11  O4  UNL     1      47.398  51.509  36.480  1.00  0.00    -0.175 OA
HETATM   12  O5  UNL     1      49.217  51.359  38.105  1.00  0.00    -0.175 OA
BRANCH  10  13
HETATM   13  N1  UNL     1      47.269  49.691  38.351  1.00  0.00    -0.231 N 
HETATM   14  C9  UNL     1      47.850  48.771  39.253  1.00  0.00     0.228 C 
HETATM   15  C10 UNL     1      46.935  48.051  40.182  1.00  0.00     0.118 C 
HETATM   16  O6  UNL     1      49.083  48.571  39.270  1.00  0.00    -0.273 OA
ATOM     17  H1  UNL     1      46.261  49.848  38.348  1.00  0.00     0.183 HD
ENDBRANCH  10  13
ENDBRANCH   9  10
ENDBRANCH   8   9
BRANCH   1  18
HETATM   18  C2  UNL     1      46.981  48.693  34.228  1.00  0.00     0.295 C 
HETATM   19  O2  UNL     1      46.980  47.467  34.508  1.00  0.00    -0.259 OA
BRANCH  18  20
HETATM   20  O1  UNL     1      45.777  49.350  34.257  1.00  0.00    -0.322 OA
HETATM   21  C1  UNL     1      44.753  49.120  33.317  1.00  0.00     0.213 C 
ENDBRANCH  18  20
ENDBRANCH   1  18
TORSDOF 5
ENDMDL
MODEL 3
REMARK VINA RESULT: -6.821336258      1.972      3.588
REMARK  5 active torsions:
REMARK  status: ('A' for Active; 'I' for Inactive)
REMARK    1  A    between atoms: O1_2  and  C2_3 
REMARK    2  A    between atoms: C2_3  and  C3_5 
REMARK    3  A    between atoms: C8_12  and  O3_13 
REMARK    4  A    between atoms: O3_13  and  S1_14 
REMARK    5  A    between atoms: S1_14  and  N1_17 
REMARK       I    between atoms: N1_17  and  C9_19 
ROOT
HETATM    1  C3  UNL     1      48.191  49.451  33.906  1.00  0.00     0.076 A 
HETATM    2  C4  UNL     1      48.341  49.706  32.530  1.00  0.00     0.039 A 
HETATM    3  C5  UNL     1      49.489  50.312  32.075  1.00  0.00     0.013 A 
HETATM    4 BR1  UNL     1      49.664  50.648  30.197  1.00  0.00    -0.051 Br
HETATM    5  C6  UNL     1      50.477  50.663  32.962  1.00  0.00     0.041 A 
HETATM    6  C7  UNL     1      50.312  50.405  34.323  1.00  0.00     0.048 A 
HETATM    7 BR2  UNL     1      51.751  50.890  35.496  1.00  0.00    -0.048 Br
HETATM    8  C8  UNL     1      49.164  49.800  34.794  1.00  0.00     0.124 A 
ENDROOT
BRANCH   8   9
HETATM    9  O3  UNL     1      49.018  49.568  36.128  1.00  0.00    -0.214 OA
BRANCH   9  10
HETATM   10  S1  UNL     1      48.301  50.535  37.292  1.00  0.00     0.369 S 
HETATM   11  O4  UNL     1      47.407  51.511  36.534  1.00  0.00    -0.175 OA
HETATM   12  O5  UNL     1      49.237  51.332  38.143  1.00  0.00    -0.175 OA
BRANCH  10  13
HETATM   13  N1  UNL     1      47.277  49.679  38.390  1.00  0.00    -0.231 N 
HETATM   14  C9  UNL     1      47.859  48.756  39.288  1.00  0.00     0.228 C 
HETATM   15  C10 UNL     1      46.945  48.035  40.217  1.00  0.00     0.118 C 
HETATM   16  O6  UNL     1      49.092  48.553  39.301  1.00  0.00    -0.273 OA
ATOM     17  H1  UNL     1      46.270  49.837  38.390  1.00  0.00     0.183 HD
ENDBRANCH  10  13
ENDBRANCH   9  10
ENDBRANCH   8   9
BRANCH   1  18
HETATM   18  C2  UNL     1      46.980  48.710  34.230  1.00  0.00     0.295 C 
HETATM   19  O2  UNL     1      45.833  49.225  34.203  1.00  0.00    -0.259 OA
BRANCH  18  20
HETATM   20  O1  UNL     1      47.071  47.385  34.576  1.00  0.00    -0.322 OA
HETATM   21  C1  UNL     1      47.015  46.339  33.635  1.00  0.00     0.213 C 
ENDBRANCH  18  20
ENDBRANCH   1  18
TORSDOF 5
ENDMDL
MODEL 4
REMARK VINA RESULT: -6.408550745      4.303      5.877
REMARK  5 active torsions:
REMARK  status: ('A' for Active; 'I' for Inactive)
REMARK    1  A    between atoms: O1_2  and  C2_3 
REMARK    2  A    between atoms: C2_3  and  C3_5 
REMARK    3  A    between atoms: C8_12  and  O3_13 
REMARK    4  A    between atoms: O3_13  and  S1_14 
REMARK    5  A    between atoms: S1_14  and  N1_17 
REMARK       I    between atoms: N1_17  and  C9_19 
ROOT
HETATM    1  C3  UNL     1      45.029  49.143  31.678  1.00  0.00     0.076 A 
HETATM    2  C4  UNL     1      44.201  49.499  30.597  1.00  0.00     0.039 A 
HETATM    3  C5  UNL     1      44.472  48.997  29.345  1.00  0.00     0.013 A 
HETATM    4 BR1  UNL     1      43.329  49.500  27.892  1.00  0.00    -0.051 Br
HETATM    5  C6  UNL     1      45.542  48.157  29.158  1.00  0.00     0.041 A 
HETATM    6  C7  UNL     1      46.353  47.816  30.241  1.00  0.00     0.048 A 
HETATM    7 BR2  UNL     1      47.807  46.608  29.910  1.00  0.00    -0.048 Br
HETATM    8  C8  UNL     1      46.096  48.314  31.503  1.00  0.00     0.124 A 
ENDROOT
BRANCH   8   9
HETATM    9  O3  UNL     1      46.908  47.979  32.543  1.00  0.00    -0.214 OA
BRANCH   9  10
HETATM   10  S1  UNL     1      48.249  48.788  33.135  1.00  0.00     0.369 S 
HETATM   11  O4  UNL     1      48.603  49.838  32.086  1.00  0.00    -0.175 OA
HETATM   12  O5  UNL     1      49.463  47.948  33.374  1.00  0.00    -0.175 OA
BRANCH  10  13
HETATM   13  N1  UNL     1      47.966  49.640  34.611  1.00  0.00    -0.231 N 
HETATM   14  C9  UNL     1      47.364  48.955  35.691  1.00  0.00     0.228 C 
HETATM   15  C10 UNL     1      47.133  49.723  36.946  1.00  0.00     0.118 C 
HETATM   16  O6  UNL     1      47.038  47.753  35.595  1.00  0.00    -0.273 OA
ATOM     17  H1  UNL     1      48.230  50.621  34.702  1.00  0.00     0.183 HD
ENDBRANCH  10  13
ENDBRANCH   9  10
ENDBRANCH   8   9
BRANCH   1  18
HETATM   18  C2  UNL     1      44.563  49.658  32.959  1.00  0.00     0.295 C 
HETATM   19  O2  UNL     1      43.532  49.227  33.536  1.00  0.00    -0.259 OA
BRANCH  18  20
HETATM   20  O1  UNL     1      45.271  50.653  33.584  1.00  0.00    -0.322 OA
HETATM   21  C1  UNL     1      45.704  51.819  32.925  1.00  0.00     0.213 C 
ENDBRANCH  18  20
ENDBRANCH   1  18
TORSDOF 5
ENDMDL
MODEL 5
REMARK VINA RESULT: -6.401117728      2.423      3.721
REMARK  5 active torsions:
REMARK  status: ('A' for Active; 'I' for Inactive)
REMARK    1  A    between atoms: O1_2  and  C2_3 
REMARK    2  A    between atoms: C2_3  and  C3_5 
REMARK    3  A    between atoms: C8_12  and  O3_13 
REMARK    4  A    between atoms: O3_13  and  S1_14 
REMARK    5  A    between atoms: S1_14  and  N1_17 
REMARK       I    between atoms: N1_17  and  C9_19 
ROOT
HETATM    1  C3  UNL     1      47.439  49.811  33.484  1.00  0.00     0.076 A 
HETATM    2  C4  UNL     1      47.152  48.753  32.602  1.00  0.00     0.039 A 
HETATM    3  C5  UNL     1      48.160  47.898  32.221  1.00  0.00     0.013 A 
HETATM    4 BR1  UNL     1      47.740  46.467  31.018  1.00  0.00    -0.051 Br
HETATM    5  C6  UNL     1      49.435  48.082  32.699  1.00  0.00     0.041 A 
HETATM    6  C7  UNL     1      49.702  49.138  33.571  1.00  0.00     0.048 A 
HETATM    7 BR2  UNL     1      51.498  49.310  34.226  1.00  0.00    -0.048 Br
HETATM    8  C8  UNL     1      48.701  50.005  33.961  1.00  0.00     0.124 A 
ENDROOT
BRANCH   8   9
HETATM    9  O3  UNL     1      48.987  51.036  34.803  1.00  0.00    -0.214 OA
BRANCH   9  10
HETATM   10  S1  UNL     1      48.941  51.074  36.476  1.00  0.00     0.369 S 
HETATM   11  O4  UNL     1      48.163  52.332  36.847  1.00  0.00    -0.175 OA
HETATM   12  O5  UNL     1      50.269  51.133  37.162  1.00  0.00    -0.175 OA
BRANCH  10  13
HETATM   13  N1  UNL     1      48.100  49.744  37.190  1.00  0.00    -0.231 N 
HETATM   14  C9  UNL     1      48.068  49.632  38.599  1.00  0.00     0.228 C 
HETATM   15  C10 UNL     1      47.336  48.472  39.178  1.00  0.00     0.118 C 
HETATM   16  O6  UNL     1      48.631  50.475  39.328  1.00  0.00    -0.273 OA
ATOM     17  H1  UNL     1      47.635  49.050  36.605  1.00  0.00     0.183 HD
ENDBRANCH  10  13
ENDBRANCH   9  10
ENDBRANCH   8   9
BRANCH   1  18
HETATM   18  C2  UNL     1      46.261  50.566  33.887  1.00  0.00     0.295 C 
HETATM   19  O2  UNL     1      45.717  50.438  35.014  1.00  0.00    -0.259 OA
BRANCH  18  20
HETATM   20  O1  UNL     1      45.707  51.469  33.015  1.00  0.00    -0.322 OA
HETATM   21  C1  UNL     1      46.463  52.442  32.333  1.00  0.00     0.213 C 
ENDBRANCH  18  20
ENDBRANCH   1  18
TORSDOF 5
ENDMDL
