MODEL 1
REMARK VINA RESULT: -6.331821287      0.000      0.000
REMARK  8 active torsions:
REMARK  status: ('A' for Active; 'I' for Inactive)
REMARK    1  A    between atoms: C2_2  and  O1_3 
REMARK    2  A    between atoms: O1_3  and  C3_4 
REMARK    3  A    between atoms: C3_4  and  C4_6 
REMARK       I    between atoms: N1_10  and  C8_11 
REMARK    4  A    between atoms: C8_11  and  C9_13 
REMARK    5  A    between atoms: N2_17  and  C12_18 
REMARK    6  A    between atoms: C12_18  and  N3_20 
REMARK    7  A    between atoms: N3_20  and  C13_22 
REMARK    8  A    between atoms: C13_22  and  C16_25 
ROOT
HETATM    1  C9  UNL     1      50.735  49.385  34.791  1.00  0.00     0.189 C 
HETATM    2  C10 UNL     1      51.964  49.827  35.501  1.00  0.00     0.110 C 
HETATM    3  S1  UNL     1      53.196  49.921  34.135  1.00  0.00    -0.147 SA
HETATM    4  C11 UNL     1      51.940  49.860  32.786  1.00  0.00     0.200 C 
HETATM    5  N2  UNL     1      51.026  48.921  33.473  1.00  0.00    -0.335 N 
ENDROOT
BRANCH   1   6
HETATM    6  C8  UNL     1      49.632  50.381  34.761  1.00  0.00     0.244 C 
HETATM    7  N1  UNL     1      48.621  50.509  35.734  1.00  0.00    -0.336 N 
HETATM    8  C4  UNL     1      48.340  49.804  36.947  1.00  0.00     0.187 C 
HETATM    9  C7  UNL     1      47.538  51.504  35.638  1.00  0.00     0.127 C 
HETATM   10  C5  UNL     1      46.826  49.614  36.882  1.00  0.00     0.037 C 
HETATM   11  C6  UNL     1      46.326  50.651  35.909  1.00  0.00     0.022 C 
HETATM   12  O3  UNL     1      49.613  51.167  33.779  1.00  0.00    -0.271 OA
BRANCH   8  13
HETATM   13  C3  UNL     1      48.643  50.532  38.192  1.00  0.00     0.281 C 
HETATM   14  O2  UNL     1      49.389  51.511  38.325  1.00  0.00    -0.263 OA
BRANCH  13  15
HETATM   15  O1  UNL     1      48.005  50.050  39.349  1.00  0.00    -0.320 OA
BRANCH  15  16
HETATM   16  C2  UNL     1      48.274  48.731  39.790  1.00  0.00     0.174 C 
HETATM   17  C1  UNL     1      47.041  48.081  40.375  1.00  0.00     0.034 C 
ENDBRANCH  15  16
ENDBRANCH  13  15
ENDBRANCH   8  13
ENDBRANCH   1   6
BRANCH   5  18
HETATM   18  C12 UNL     1      50.553  47.757  32.831  1.00  0.00     0.172 C 
HETATM   19  S2  UNL     1      51.559  46.852  31.932  1.00  0.00    -0.041 SA
BRANCH  18  20
HETATM   20  N3  UNL     1      49.204  47.364  32.961  1.00  0.00    -0.350 N 
ATOM     21  H3  UNL     1      48.935  46.737  33.720  1.00  0.00     0.163 HD
BRANCH  20  22
HETATM   22  C13 UNL     1      48.185  47.839  32.026  1.00  0.00     0.122 C 
HETATM   23  C14 UNL     1      47.753  46.651  31.180  1.00  0.00     0.047 C 
HETATM   24  C15 UNL     1      48.817  48.888  31.163  1.00  0.00     0.047 C 
BRANCH  22  25
HETATM   25  C16 UNL     1      47.027  48.389  32.800  1.00  0.00     0.411 C 
HETATM   26  F1  UNL     1      45.849  47.876  32.331  1.00  0.00    -0.168 F 
HETATM   27  F2  UNL     1      47.074  49.767  32.744  1.00  0.00    -0.168 F 
HETATM   28  F3  UNL     1      47.170  47.963  34.121  1.00  0.00    -0.168 F 
ENDBRANCH  22  25
ENDBRANCH  20  22
ENDBRANCH  18  20
ENDBRANCH   5  18
TORSDOF 8
ENDMDL
MODEL 2
REMARK VINA RESULT: -6.239803043      2.507      3.325
REMARK  8 active torsions:
REMARK  status: ('A' for Active; 'I' for Inactive)
REMARK    1  A    between atoms: C2_2  and  O1_3 
REMARK    2  A    between atoms: O1_3  and  C3_4 
REMARK    3  A    between atoms: C3_4  and  C4_6 
REMARK       I    between atoms: N1_10  and  C8_11 
REMARK    4  A    between atoms: C8_11  and  C9_13 
REMARK    5  A    between atoms: N2_17  and  C12_18 
REMARK    6  A    between atoms: C12_18  and  N3_20 
REMARK    7  A    between atoms: N3_20  and  C13_22 
REMARK    8  A    between atoms: C13_22  and  C16_25 
ROOT
HETATM    1  C9  UNL     1      48.813  49.087  32.994  1.00  0.00     0.189 C 
HETATM    2  C10 UNL     1      49.192  47.791  32.373  1.00  0.00     0.110 C 
HETATM    3  S1  UNL     1      49.724  48.304  30.685  1.00  0.00    -0.147 SA
HETATM    4  C11 UNL     1      49.861  50.096  31.101  1.00  0.00     0.200 C 
HETATM    5  N2  UNL     1      48.703  50.125  32.022  1.00  0.00    -0.335 N 
ENDROOT
BRANCH   1   6
HETATM    6  C8  UNL     1      49.677  49.520  34.123  1.00  0.00     0.244 C 
HETATM    7  N1  UNL     1      49.217  49.981  35.373  1.00  0.00    -0.336 N 
HETATM    8  C4  UNL     1      47.910  50.168  35.923  1.00  0.00     0.187 C 
HETATM    9  C7  UNL     1      50.125  50.419  36.449  1.00  0.00     0.127 C 
HETATM   10  C5  UNL     1      48.030  51.519  36.624  1.00  0.00     0.037 C 
HETATM   11  C6  UNL     1      49.507  51.736  36.840  1.00  0.00     0.022 C 
HETATM   12  O3  UNL     1      50.919  49.466  33.931  1.00  0.00    -0.271 OA
BRANCH   8  13
HETATM   13  C3  UNL     1      47.495  49.179  36.933  1.00  0.00     0.281 C 
HETATM   14  O2  UNL     1      47.328  47.964  36.767  1.00  0.00    -0.263 OA
BRANCH  13  15
HETATM   15  O1  UNL     1      47.269  49.687  38.225  1.00  0.00    -0.320 OA
BRANCH  15  16
HETATM   16  C2  UNL     1      47.907  49.075  39.332  1.00  0.00     0.174 C 
HETATM   17  C1  UNL     1      46.911  48.366  40.222  1.00  0.00     0.034 C 
ENDBRANCH  15  16
ENDBRANCH  13  15
ENDBRANCH   8  13
ENDBRANCH   1   6
BRANCH   5  18
HETATM   18  C12 UNL     1      47.682  51.090  31.884  1.00  0.00     0.172 C 
HETATM   19  S2  UNL     1      47.840  52.303  30.815  1.00  0.00    -0.041 SA
BRANCH  18  20
HETATM   20  N3  UNL     1      46.513  51.015  32.671  1.00  0.00    -0.350 N 
ATOM     21  H3  UNL     1      46.479  51.502  33.566  1.00  0.00     0.163 HD
BRANCH  20  22
HETATM   22  C13 UNL     1      45.349  50.249  32.226  1.00  0.00     0.122 C 
HETATM   23  C14 UNL     1      45.782  49.413  31.031  1.00  0.00     0.047 C 
HETATM   24  C15 UNL     1      44.293  51.231  31.817  1.00  0.00     0.047 C 
BRANCH  22  25
HETATM   25  C16 UNL     1      44.880  49.373  33.346  1.00  0.00     0.411 C 
HETATM   26  F1  UNL     1      45.645  48.241  33.422  1.00  0.00    -0.168 F 
HETATM   27  F2  UNL     1      43.539  49.105  33.165  1.00  0.00    -0.168 F 
HETATM   28  F3  UNL     1      45.066  50.081  34.534  1.00  0.00    -0.168 F 
ENDBRANCH  22  25
ENDBRANCH  20  22
ENDBRANCH  18  20
ENDBRANCH   5  18
TORSDOF 8
ENDMDL
MODEL 3
REMARK VINA RESULT: -6.152254737      2.098      2.476
REMARK  8 active torsions:
REMARK  status: ('A' for Active; 'I' for Inactive)
REMARK    1  A    between atoms: C2_2  and  O1_3 
REMARK    2  A    between atoms: O1_3  and  C3_4 
REMARK    3  A    between atoms: C3_4  and  C4_6 
REMARK       I    between atoms: N1_10  and  C8_11 
REMARK    4  A    between atoms: C8_11  and  C9_13 
REMARK    5  A    between atoms: N2_17  and  C12_18 
REMARK    6  A    between atoms: C12_18  and  N3_20 
REMARK    7  A    between atoms: N3_20  and  C13_22 
REMARK    8  A    between atoms: C13_22  and  C16_25 
ROOT
HETATM    1  C9  UNL     1      51.045  49.381  34.655  1.00  0.00     0.189 C 
HETATM    2  C10 UNL     1      52.513  49.240  34.469  1.00  0.00     0.110 C 
HETATM    3  S1  UNL     1      52.722  49.634  32.681  1.00  0.00    -0.147 SA
HETATM    4  C11 UNL     1      51.046  50.380  32.487  1.00  0.00     0.200 C 
HETATM    5  N2  UNL     1      50.359  49.446  33.406  1.00  0.00    -0.335 N 
ENDROOT
BRANCH   1   6
HETATM    6  C8  UNL     1      50.628  50.501  35.538  1.00  0.00     0.244 C 
HETATM    7  N1  UNL     1      49.453  50.534  36.316  1.00  0.00    -0.336 N 
HETATM    8  C4  UNL     1      48.381  49.605  36.502  1.00  0.00     0.187 C 
HETATM    9  C7  UNL     1      49.081  51.686  37.157  1.00  0.00     0.127 C 
HETATM   10  C5  UNL     1      47.147  50.504  36.457  1.00  0.00     0.037 C 
HETATM   11  C6  UNL     1      47.645  51.896  36.754  1.00  0.00     0.022 C 
HETATM   12  O3  UNL     1      51.397  51.496  35.583  1.00  0.00    -0.271 OA
BRANCH   8  13
HETATM   13  C3  UNL     1      48.367  48.898  37.795  1.00  0.00     0.281 C 
HETATM   14  O2  UNL     1      49.288  48.243  38.300  1.00  0.00    -0.263 OA
BRANCH  13  15
HETATM   15  O1  UNL     1      47.169  48.987  38.525  1.00  0.00    -0.320 OA
BRANCH  15  16
HETATM   16  C2  UNL     1      46.978  48.146  39.649  1.00  0.00     0.174 C 
HETATM   17  C1  UNL     1      47.328  48.855  40.938  1.00  0.00     0.034 C 
ENDBRANCH  15  16
ENDBRANCH  13  15
ENDBRANCH   8  13
ENDBRANCH   1   6
BRANCH   5  18
HETATM   18  C12 UNL     1      49.186  48.764  33.015  1.00  0.00     0.172 C 
HETATM   19  S2  UNL     1      47.870  49.596  32.555  1.00  0.00    -0.041 SA
BRANCH  18  20
HETATM   20  N3  UNL     1      49.142  47.353  33.019  1.00  0.00    -0.350 N 
ATOM     21  H3  UNL     1      48.729  46.867  33.815  1.00  0.00     0.163 HD
BRANCH  20  22
HETATM   22  C13 UNL     1      49.678  46.577  31.902  1.00  0.00     0.122 C 
HETATM   23  C14 UNL     1      51.130  46.255  32.224  1.00  0.00     0.047 C 
HETATM   24  C15 UNL     1      49.598  47.434  30.676  1.00  0.00     0.047 C 
BRANCH  22  25
HETATM   25  C16 UNL     1      48.877  45.321  31.748  1.00  0.00     0.411 C 
HETATM   26  F1  UNL     1      49.685  44.221  31.846  1.00  0.00    -0.168 F 
HETATM   27  F2  UNL     1      48.191  45.379  30.552  1.00  0.00    -0.168 F 
HETATM   28  F3  UNL     1      47.975  45.270  32.811  1.00  0.00    -0.168 F 
ENDBRANCH  22  25
ENDBRANCH  20  22
ENDBRANCH  18  20
ENDBRANCH   5  18
TORSDOF 8
ENDMDL
MODEL 4
REMARK VINA RESULT: -6.144406101      1.757      2.249
REMARK  8 active torsions:
REMARK  status: ('A' for Active; 'I' for Inactive)
REMARK    1  A    between atoms: C2_2  and  O1_3 
REMARK    2  A    between atoms: O1_3  and  C3_4 
REMARK    3  A    between atoms: C3_4  and  C4_6 
REMARK       I    between atoms: N1_10  and  C8_11 
REMARK    4  A    between atoms: C8_11  and  C9_13 
REMARK    5  A    between atoms: N2_17  and  C12_18 
REMARK    6  A    between atoms: C12_18  and  N3_20 
REMARK    7  A    between atoms: N3_20  and  C13_22 
REMARK    8  A    between atoms: C13_22  and  C16_25 
ROOT
HETATM    1  C9  UNL     1      50.027  48.837  33.896  1.00  0.00     0.189 C 
HETATM    2  C10 UNL     1      51.479  48.679  33.620  1.00  0.00     0.110 C 
HETATM    3  S1  UNL     1      51.538  48.730  31.779  1.00  0.00    -0.147 SA
HETATM    4  C11 UNL     1      49.834  49.408  31.586  1.00  0.00     0.200 C 
HETATM    5  N2  UNL     1      49.245  48.658  32.716  1.00  0.00    -0.335 N 
ENDROOT
BRANCH   1   6
HETATM    6  C8  UNL     1      49.651  50.100  34.584  1.00  0.00     0.244 C 
HETATM    7  N1  UNL     1      48.667  50.222  35.585  1.00  0.00    -0.336 N 
HETATM    8  C4  UNL     1      47.792  49.281  36.212  1.00  0.00     0.187 C 
HETATM    9  C7  UNL     1      48.322  51.509  36.215  1.00  0.00     0.127 C 
HETATM   10  C5  UNL     1      46.464  50.035  36.257  1.00  0.00     0.037 C 
HETATM   11  C6  UNL     1      46.819  51.494  36.118  1.00  0.00     0.022 C 
HETATM   12  O3  UNL     1      50.271  51.136  34.231  1.00  0.00    -0.271 OA
BRANCH   8  13
HETATM   13  C3  UNL     1      48.139  48.912  37.596  1.00  0.00     0.281 C 
HETATM   14  O2  UNL     1      49.235  48.518  38.013  1.00  0.00    -0.263 OA
BRANCH  13  15
HETATM   15  O1  UNL     1      47.098  49.025  38.535  1.00  0.00    -0.320 OA
BRANCH  15  16
HETATM   16  C2  UNL     1      47.025  48.097  39.603  1.00  0.00     0.174 C 
HETATM   17  C1  UNL     1      47.365  48.746  40.925  1.00  0.00     0.034 C 
ENDBRANCH  15  16
ENDBRANCH  13  15
ENDBRANCH   8  13
ENDBRANCH   1   6
BRANCH   5  18
HETATM   18  C12 UNL     1      48.063  47.901  32.557  1.00  0.00     0.172 C 
HETATM   19  S2  UNL     1      48.120  46.426  31.880  1.00  0.00    -0.041 SA
BRANCH  18  20
HETATM   20  N3  UNL     1      46.820  48.416  32.982  1.00  0.00    -0.350 N 
ATOM     21  H3  UNL     1      46.419  48.095  33.864  1.00  0.00     0.163 HD
BRANCH  20  22
HETATM   22  C13 UNL     1      46.095  49.401  32.181  1.00  0.00     0.122 C 
HETATM   23  C14 UNL     1      46.238  48.997  30.722  1.00  0.00     0.047 C 
HETATM   24  C15 UNL     1      46.738  50.735  32.415  1.00  0.00     0.047 C 
BRANCH  22  25
HETATM   25  C16 UNL     1      44.655  49.406  32.593  1.00  0.00     0.411 C 
HETATM   26  F1  UNL     1      44.433  48.474  33.569  1.00  0.00    -0.168 F 
HETATM   27  F2  UNL     1      43.875  49.207  31.472  1.00  0.00    -0.168 F 
HETATM   28  F3  UNL     1      44.384  50.658  33.144  1.00  0.00    -0.168 F 
ENDBRANCH  22  25
ENDBRANCH  20  22
ENDBRANCH  18  20
ENDBRANCH   5  18
TORSDOF 8
ENDMDL
MODEL 5
REMARK VINA RESULT: -6.102230353      3.684      6.332
REMARK  8 active torsions:
REMARK  status: ('A' for Active; 'I' for Inactive)
REMARK    1  A    between atoms: C2_2  and  O1_3 
REMARK    2  A    between atoms: O1_3  and  C3_4 
REMARK    3  A    between atoms: C3_4  and  C4_6 
REMARK       I    between atoms: N1_10  and  C8_11 
REMARK    4  A    between atoms: C8_11  and  C9_13 
REMARK    5  A    between atoms: N2_17  and  C12_18 
REMARK    6  A    between atoms: C12_18  and  N3_20 
REMARK    7  A    between atoms: N3_20  and  C13_22 
REMARK    8  A    between atoms: C13_22  and  C16_25 
ROOT
HETATM    1  C9  UNL     1      48.336  50.095  32.391  1.00  0.00     0.189 C 
HETATM    2  C10 UNL     1      49.639  50.810  32.418  1.00  0.00     0.110 C 
HETATM    3  S1  UNL     1      50.760  49.555  33.169  1.00  0.00    -0.147 SA
HETATM    4  C11 UNL     1      49.600  48.142  32.927  1.00  0.00     0.200 C 
HETATM    5  N2  UNL     1      48.366  48.914  33.191  1.00  0.00    -0.335 N 
ENDROOT
BRANCH   1   6
HETATM    6  C8  UNL     1      47.813  49.792  31.034  1.00  0.00     0.244 C 
HETATM    7  N1  UNL     1      46.490  50.011  30.600  1.00  0.00    -0.336 N 
HETATM    8  C4  UNL     1      45.329  50.542  31.244  1.00  0.00     0.187 C 
HETATM    9  C7  UNL     1      46.024  49.668  29.244  1.00  0.00     0.127 C 
HETATM   10  C5  UNL     1      44.227  49.587  30.790  1.00  0.00     0.037 C 
HETATM   11  C6  UNL     1      44.756  48.914  29.548  1.00  0.00     0.022 C 
HETATM   12  O3  UNL     1      48.631  49.296  30.216  1.00  0.00    -0.271 OA
BRANCH   8  13
HETATM   13  C3  UNL     1      44.935  51.901  30.830  1.00  0.00     0.281 C 
HETATM   14  O2  UNL     1      43.862  52.247  30.321  1.00  0.00    -0.263 OA
BRANCH  13  15
HETATM   15  O1  UNL     1      45.896  52.905  31.046  1.00  0.00    -0.320 OA
BRANCH  15  16
HETATM   16  C2  UNL     1      46.156  53.847  30.021  1.00  0.00     0.174 C 
HETATM   17  C1  UNL     1      46.987  53.244  28.911  1.00  0.00     0.034 C 
ENDBRANCH  15  16
ENDBRANCH  13  15
ENDBRANCH   8  13
ENDBRANCH   1   6
BRANCH   5  18
HETATM   18  C12 UNL     1      47.404  48.461  34.120  1.00  0.00     0.172 C 
HETATM   19  S2  UNL     1      45.958  47.929  33.606  1.00  0.00    -0.041 SA
BRANCH  18  20
HETATM   20  N3  UNL     1      47.684  48.466  35.503  1.00  0.00    -0.350 N 
ATOM     21  H3  UNL     1      47.980  47.602  35.957  1.00  0.00     0.163 HD
BRANCH  20  22
HETATM   22  C13 UNL     1      47.558  49.688  36.296  1.00  0.00     0.122 C 
HETATM   23  C14 UNL     1      46.400  50.488  35.721  1.00  0.00     0.047 C 
HETATM   24  C15 UNL     1      48.839  50.453  36.153  1.00  0.00     0.047 C 
BRANCH  22  25
HETATM   25  C16 UNL     1      47.294  49.321  37.724  1.00  0.00     0.411 C 
HETATM   26  F1  UNL     1      47.512  47.986  37.924  1.00  0.00    -0.168 F 
HETATM   27  F2  UNL     1      46.011  49.712  38.049  1.00  0.00    -0.168 F 
HETATM   28  F3  UNL     1      48.215  50.015  38.509  1.00  0.00    -0.168 F 
ENDBRANCH  22  25
ENDBRANCH  20  22
ENDBRANCH  18  20
ENDBRANCH   5  18
TORSDOF 8
ENDMDL
