MODEL 1
REMARK VINA RESULT: -9.560337856      0.000      0.000
REMARK  9 active torsions:
REMARK  status: ('A' for Active; 'I' for Inactive)
REMARK    1  A    between atoms: C2_2  and  C4_4 
REMARK    2  A    between atoms: C5_5  and  O1_6 
REMARK    3  A    between atoms: C16_18  and  C17_19 
REMARK    4  A    between atoms: C17_19  and  C18_20 
REMARK       I    between atoms: C18_20  and  N1_22 
REMARK    5  A    between atoms: N1_22  and  C19_24 
REMARK    6  A    between atoms: C19_24  and  C20_25 
REMARK    7  A    between atoms: C20_25  and  O3_26 
REMARK    8  A    between atoms: C20_25  and  C21_28 
REMARK    9  A    between atoms: C21_28  and  N2_29 
ROOT
HETATM    1  C4  UNL     1      53.590  38.322   6.674  1.00  0.00     0.026 C 
HETATM    2  C5  UNL     1      54.792  38.090   5.829  1.00  0.00     0.123 C 
HETATM    3  C6  UNL     1      54.752  38.729   4.482  1.00  0.00     0.032 C 
HETATM    4  C7  UNL     1      53.879  39.890   4.316  1.00  0.00     0.008 C 
HETATM    5  C8  UNL     1      53.001  40.334   5.416  1.00  0.00    -0.001 C 
HETATM    6  C9  UNL     1      52.882  41.854   5.360  1.00  0.00    -0.003 C 
HETATM    7  C10 UNL     1      51.480  42.365   5.267  1.00  0.00     0.006 C 
HETATM    8  C11 UNL     1      51.623  43.815   4.765  1.00  0.00     0.008 C 
HETATM    9  C12 UNL     1      52.451  44.562   5.754  1.00  0.00     0.024 C 
HETATM   10  C13 UNL     1      52.387  46.045   5.654  1.00  0.00    -0.009 C 
HETATM   11  C14 UNL     1      52.832  46.678   4.403  1.00  0.00     0.010 C 
HETATM   12  C15 UNL     1      53.090  46.580   6.915  1.00  0.00     0.037 C 
HETATM   13  C16 UNL     1      54.511  46.023   6.779  1.00  0.00     0.131 C 
HETATM   14  O4  UNL     1      54.474  44.670   6.980  1.00  0.00    -0.374 OA
HETATM   15  C26 UNL     1      53.861  44.001   5.926  1.00  0.00     0.066 C 
HETATM   16  C27 UNL     1      54.667  43.940   4.691  1.00  0.00     0.047 C 
HETATM   17  C28 UNL     1      53.589  42.576   6.442  1.00  0.00     0.025 C 
HETATM   18  C29 UNL     1      54.781  41.827   6.860  1.00  0.00     0.009 C 
HETATM   19  C30 UNL     1      54.305  40.560   7.556  1.00  0.00     0.010 C 
HETATM   20  C31 UNL     1      53.263  39.798   6.778  1.00  0.00    -0.034 C 
HETATM   21  C32 UNL     1      51.990  39.851   7.642  1.00  0.00     0.016 C 
ENDROOT
BRANCH  13  22
HETATM   22  C17 UNL     1      55.414  46.794   7.648  1.00  0.00     0.134 C 
BRANCH  22  23
HETATM   23  C18 UNL     1      55.056  46.953   9.049  1.00  0.00     0.220 C 
HETATM   24  O2  UNL     1      55.052  45.952   9.828  1.00  0.00    -0.274 OA
HETATM   25  N1  UNL     1      54.714  48.250   9.524  1.00  0.00    -0.358 N 
ATOM     26  H1  UNL     1      54.720  49.049   8.890  1.00  0.00     0.162 HD
BRANCH  25  27
HETATM   27  C19 UNL     1      54.356  48.422  10.919  1.00  0.00     0.159 C 
BRANCH  27  28
HETATM   28  C20 UNL     1      55.577  48.623  11.791  1.00  0.00     0.174 C 
BRANCH  28  29
HETATM   29  O3  UNL     1      55.779  47.429  12.479  1.00  0.00    -0.389 OA
ATOM     30  H3  UNL     1      56.493  47.582  13.087  1.00  0.00     0.210 HD
ENDBRANCH  28  29
BRANCH  28  31
HETATM   31  C21 UNL     1      55.413  49.759  12.742  1.00  0.00     0.091 C 
BRANCH  31  32
HETATM   32  N2  UNL     1      56.255  50.856  12.591  1.00  0.00    -0.391 N 
HETATM   33  C22 UNL     1      57.468  50.720  11.880  1.00  0.00     0.122 C 
HETATM   34  C23 UNL     1      57.893  52.190  11.744  1.00  0.00     0.021 C 
HETATM   35  C24 UNL     1      57.499  52.729  13.102  1.00  0.00     0.021 C 
HETATM   36  C25 UNL     1      56.381  51.812  13.618  1.00  0.00     0.122 C 
ENDBRANCH  31  32
ENDBRANCH  28  31
ENDBRANCH  27  28
ENDBRANCH  25  27
ENDBRANCH  22  23
ENDBRANCH  13  22
BRANCH   1  37
HETATM   37  C2  UNL     1      52.460  37.403   6.527  1.00  0.00    -0.015 C 
HETATM   38  C1  UNL     1      52.146  36.720   5.275  1.00  0.00     0.010 C 
HETATM   39  C3  UNL     1      52.521  36.319   7.630  1.00  0.00     0.010 C 
ENDBRANCH   1  37
BRANCH   2  40
HETATM   40  O1  UNL     1      55.143  36.744   5.792  1.00  0.00    -0.395 OA
ATOM     41  H1  UNL     1      55.670  36.539   5.028  1.00  0.00     0.210 HD
ENDBRANCH   2  40
TORSDOF 9
ENDMDL
MODEL 2
REMARK VINA RESULT: -9.352925905      2.771      4.354
REMARK  9 active torsions:
REMARK  status: ('A' for Active; 'I' for Inactive)
REMARK    1  A    between atoms: C2_2  and  C4_4 
REMARK    2  A    between atoms: C5_5  and  O1_6 
REMARK    3  A    between atoms: C16_18  and  C17_19 
REMARK    4  A    between atoms: C17_19  and  C18_20 
REMARK       I    between atoms: C18_20  and  N1_22 
REMARK    5  A    between atoms: N1_22  and  C19_24 
REMARK    6  A    between atoms: C19_24  and  C20_25 
REMARK    7  A    between atoms: C20_25  and  O3_26 
REMARK    8  A    between atoms: C20_25  and  C21_28 
REMARK    9  A    between atoms: C21_28  and  N2_29 
ROOT
HETATM    1  C4  UNL     1      53.552  38.331   6.639  1.00  0.00     0.026 C 
HETATM    2  C5  UNL     1      54.811  38.120   5.874  1.00  0.00     0.123 C 
HETATM    3  C6  UNL     1      54.845  38.749   4.523  1.00  0.00     0.032 C 
HETATM    4  C7  UNL     1      53.960  39.890   4.292  1.00  0.00     0.008 C 
HETATM    5  C8  UNL     1      53.004  40.321   5.330  1.00  0.00    -0.001 C 
HETATM    6  C9  UNL     1      52.857  41.838   5.255  1.00  0.00    -0.003 C 
HETATM    7  C10 UNL     1      51.453  42.318   5.068  1.00  0.00     0.006 C 
HETATM    8  C11 UNL     1      51.597  43.768   4.566  1.00  0.00     0.008 C 
HETATM    9  C12 UNL     1      52.343  44.538   5.600  1.00  0.00     0.024 C 
HETATM   10  C13 UNL     1      52.255  46.019   5.485  1.00  0.00    -0.009 C 
HETATM   11  C14 UNL     1      52.765  46.654   4.261  1.00  0.00     0.010 C 
HETATM   12  C15 UNL     1      52.862  46.577   6.785  1.00  0.00     0.037 C 
HETATM   13  C16 UNL     1      54.301  46.050   6.745  1.00  0.00     0.131 C 
HETATM   14  O4  UNL     1      54.280  44.698   6.953  1.00  0.00    -0.374 OA
HETATM   15  C26 UNL     1      53.750  44.010   5.867  1.00  0.00     0.066 C 
HETATM   16  C27 UNL     1      54.636  43.959   4.687  1.00  0.00     0.047 C 
HETATM   17  C28 UNL     1      53.476  42.582   6.375  1.00  0.00     0.025 C 
HETATM   18  C29 UNL     1      54.654  41.862   6.875  1.00  0.00     0.009 C 
HETATM   19  C30 UNL     1      54.162  40.589   7.548  1.00  0.00     0.010 C 
HETATM   20  C31 UNL     1      53.188  39.800   6.710  1.00  0.00    -0.034 C 
HETATM   21  C32 UNL     1      51.861  39.830   7.490  1.00  0.00     0.016 C 
ENDROOT
BRANCH  13  22
HETATM   22  C17 UNL     1      55.129  46.846   7.664  1.00  0.00     0.134 C 
BRANCH  22  23
HETATM   23  C18 UNL     1      55.048  46.563   9.090  1.00  0.00     0.220 C 
HETATM   24  O2  UNL     1      54.567  47.423   9.888  1.00  0.00    -0.274 OA
HETATM   25  N1  UNL     1      55.517  45.306   9.563  1.00  0.00    -0.358 N 
ATOM     26  H1  UNL     1      55.902  44.621   8.914  1.00  0.00     0.162 HD
BRANCH  25  27
HETATM   27  C19 UNL     1      55.441  45.010  10.982  1.00  0.00     0.159 C 
BRANCH  27  28
HETATM   28  C20 UNL     1      55.480  43.521  11.247  1.00  0.00     0.174 C 
BRANCH  28  29
HETATM   29  O3  UNL     1      54.599  43.278  12.298  1.00  0.00    -0.389 OA
ATOM     30  H3  UNL     1      55.115  42.917  13.010  1.00  0.00     0.210 HD
ENDBRANCH  28  29
BRANCH  28  31
HETATM   31  C21 UNL     1      56.850  43.042  11.586  1.00  0.00     0.091 C 
BRANCH  31  32
HETATM   32  N2  UNL     1      57.404  42.048  10.786  1.00  0.00    -0.391 N 
HETATM   33  C22 UNL     1      57.000  41.921   9.439  1.00  0.00     0.122 C 
HETATM   34  C23 UNL     1      58.041  40.921   8.914  1.00  0.00     0.021 C 
HETATM   35  C24 UNL     1      58.153  39.979  10.094  1.00  0.00     0.021 C 
HETATM   36  C25 UNL     1      57.737  40.791  11.329  1.00  0.00     0.122 C 
ENDBRANCH  31  32
ENDBRANCH  28  31
ENDBRANCH  27  28
ENDBRANCH  25  27
ENDBRANCH  22  23
ENDBRANCH  13  22
BRANCH   1  37
HETATM   37  C2  UNL     1      52.455  37.386   6.425  1.00  0.00    -0.015 C 
HETATM   38  C1  UNL     1      52.259  36.659   5.175  1.00  0.00     0.010 C 
HETATM   39  C3  UNL     1      52.438  36.339   7.565  1.00  0.00     0.010 C 
ENDBRANCH   1  37
BRANCH   2  40
HETATM   40  O1  UNL     1      55.193  36.781   5.870  1.00  0.00    -0.395 OA
ATOM     41  H1  UNL     1      55.048  36.372   6.715  1.00  0.00     0.210 HD
ENDBRANCH   2  40
TORSDOF 9
ENDMDL
MODEL 3
REMARK VINA RESULT: -9.047819843      2.913      4.968
REMARK  9 active torsions:
REMARK  status: ('A' for Active; 'I' for Inactive)
REMARK    1  A    between atoms: C2_2  and  C4_4 
REMARK    2  A    between atoms: C5_5  and  O1_6 
REMARK    3  A    between atoms: C16_18  and  C17_19 
REMARK    4  A    between atoms: C17_19  and  C18_20 
REMARK       I    between atoms: C18_20  and  N1_22 
REMARK    5  A    between atoms: N1_22  and  C19_24 
REMARK    6  A    between atoms: C19_24  and  C20_25 
REMARK    7  A    between atoms: C20_25  and  O3_26 
REMARK    8  A    between atoms: C20_25  and  C21_28 
REMARK    9  A    between atoms: C21_28  and  N2_29 
ROOT
HETATM    1  C4  UNL     1      53.720  38.128   6.282  1.00  0.00     0.026 C 
HETATM    2  C5  UNL     1      54.953  37.984   5.460  1.00  0.00     0.123 C 
HETATM    3  C6  UNL     1      54.926  38.693   4.149  1.00  0.00     0.032 C 
HETATM    4  C7  UNL     1      54.017  39.831   4.020  1.00  0.00     0.008 C 
HETATM    5  C8  UNL     1      53.094  40.184   5.117  1.00  0.00    -0.001 C 
HETATM    6  C9  UNL     1      52.922  41.700   5.139  1.00  0.00    -0.003 C 
HETATM    7  C10 UNL     1      51.506  42.166   5.032  1.00  0.00     0.006 C 
HETATM    8  C11 UNL     1      51.610  43.645   4.613  1.00  0.00     0.008 C 
HETATM    9  C12 UNL     1      52.383  44.365   5.664  1.00  0.00     0.024 C 
HETATM   10  C13 UNL     1      52.269  45.849   5.641  1.00  0.00    -0.009 C 
HETATM   11  C14 UNL     1      52.724  46.564   4.440  1.00  0.00     0.010 C 
HETATM   12  C15 UNL     1      52.917  46.338   6.950  1.00  0.00     0.037 C 
HETATM   13  C16 UNL     1      54.360  45.839   6.825  1.00  0.00     0.131 C 
HETATM   14  O4  UNL     1      54.367  44.476   6.952  1.00  0.00    -0.374 OA
HETATM   15  C26 UNL     1      53.807  43.845   5.847  1.00  0.00     0.066 C 
HETATM   16  C27 UNL     1      54.649  43.880   4.634  1.00  0.00     0.047 C 
HETATM   17  C28 UNL     1      53.572  42.386   6.277  1.00  0.00     0.025 C 
HETATM   18  C29 UNL     1      54.779  41.657   6.690  1.00  0.00     0.009 C 
HETATM   19  C30 UNL     1      54.331  40.338   7.302  1.00  0.00     0.010 C 
HETATM   20  C31 UNL     1      53.338  39.584   6.455  1.00  0.00    -0.034 C 
HETATM   21  C32 UNL     1      52.041  39.546   7.283  1.00  0.00     0.016 C 
ENDROOT
BRANCH  13  22
HETATM   22  C17 UNL     1      55.211  46.593   7.760  1.00  0.00     0.134 C 
BRANCH  22  23
HETATM   23  C18 UNL     1      55.311  46.125   9.134  1.00  0.00     0.220 C 
HETATM   24  O2  UNL     1      55.032  46.901  10.098  1.00  0.00    -0.274 OA
HETATM   25  N1  UNL     1      55.726  44.785   9.371  1.00  0.00    -0.358 N 
ATOM     26  H1  UNL     1      55.948  44.168   8.590  1.00  0.00     0.162 HD
BRANCH  25  27
HETATM   27  C19 UNL     1      55.829  44.306  10.737  1.00  0.00     0.159 C 
BRANCH  27  28
HETATM   28  C20 UNL     1      55.127  42.978  10.919  1.00  0.00     0.174 C 
BRANCH  28  29
HETATM   29  O3  UNL     1      54.616  42.969  12.215  1.00  0.00    -0.389 OA
ATOM     30  H3  UNL     1      53.988  43.681  12.267  1.00  0.00     0.210 HD
ENDBRANCH  28  29
BRANCH  28  31
HETATM   31  C21 UNL     1      56.041  41.820  10.706  1.00  0.00     0.091 C 
BRANCH  31  32
HETATM   32  N2  UNL     1      55.694  40.606  11.288  1.00  0.00    -0.391 N 
HETATM   33  C22 UNL     1      56.702  39.733  11.753  1.00  0.00     0.122 C 
HETATM   34  C23 UNL     1      55.865  38.706  12.532  1.00  0.00     0.021 C 
HETATM   35  C24 UNL     1      54.663  38.570  11.622  1.00  0.00     0.021 C 
HETATM   36  C25 UNL     1      54.578  39.880  10.826  1.00  0.00     0.122 C 
ENDBRANCH  31  32
ENDBRANCH  28  31
ENDBRANCH  27  28
ENDBRANCH  25  27
ENDBRANCH  22  23
ENDBRANCH  13  22
BRANCH   1  37
HETATM   37  C2  UNL     1      52.629  37.180   6.053  1.00  0.00    -0.015 C 
HETATM   38  C1  UNL     1      52.410  36.509   4.775  1.00  0.00     0.010 C 
HETATM   39  C3  UNL     1      52.655  36.080   7.142  1.00  0.00     0.010 C 
ENDBRANCH   1  37
BRANCH   2  40
HETATM   40  O1  UNL     1      55.353  36.654   5.362  1.00  0.00    -0.395 OA
ATOM     41  H1  UNL     1      56.099  36.470   5.921  1.00  0.00     0.210 HD
ENDBRANCH   2  40
TORSDOF 9
ENDMDL
MODEL 4
REMARK VINA RESULT: -8.898039496      4.573      7.672
REMARK  9 active torsions:
REMARK  status: ('A' for Active; 'I' for Inactive)
REMARK    1  A    between atoms: C2_2  and  C4_4 
REMARK    2  A    between atoms: C5_5  and  O1_6 
REMARK    3  A    between atoms: C16_18  and  C17_19 
REMARK    4  A    between atoms: C17_19  and  C18_20 
REMARK       I    between atoms: C18_20  and  N1_22 
REMARK    5  A    between atoms: N1_22  and  C19_24 
REMARK    6  A    between atoms: C19_24  and  C20_25 
REMARK    7  A    between atoms: C20_25  and  O3_26 
REMARK    8  A    between atoms: C20_25  and  C21_28 
REMARK    9  A    between atoms: C21_28  and  N2_29 
ROOT
HETATM    1  C4  UNL     1      51.198  36.918  12.767  1.00  0.00     0.026 C 
HETATM    2  C5  UNL     1      50.374  38.014  13.346  1.00  0.00     0.123 C 
HETATM    3  C6  UNL     1      51.105  38.946  14.251  1.00  0.00     0.032 C 
HETATM    4  C7  UNL     1      52.553  39.051  14.078  1.00  0.00     0.008 C 
HETATM    5  C8  UNL     1      53.260  38.184  13.115  1.00  0.00    -0.001 C 
HETATM    6  C9  UNL     1      54.431  38.966  12.526  1.00  0.00    -0.003 C 
HETATM    7  C10 UNL     1      55.763  38.307  12.689  1.00  0.00     0.006 C 
HETATM    8  C11 UNL     1      56.789  39.435  12.463  1.00  0.00     0.008 C 
HETATM    9  C12 UNL     1      56.573  39.982  11.093  1.00  0.00     0.024 C 
HETATM   10  C13 UNL     1      57.688  40.802  10.547  1.00  0.00    -0.009 C 
HETATM   11  C14 UNL     1      58.068  42.027  11.265  1.00  0.00     0.010 C 
HETATM   12  C15 UNL     1      57.356  41.020   9.060  1.00  0.00     0.037 C 
HETATM   13  C16 UNL     1      56.021  41.771   9.113  1.00  0.00     0.131 C 
HETATM   14  O4  UNL     1      55.047  40.907   9.536  1.00  0.00    -0.374 OA
HETATM   15  C26 UNL     1      55.186  40.583  10.881  1.00  0.00     0.066 C 
HETATM   16  C27 UNL     1      54.824  41.672  11.811  1.00  0.00     0.047 C 
HETATM   17  C28 UNL     1      54.262  39.372  11.113  1.00  0.00     0.025 C 
HETATM   18  C29 UNL     1      52.844  39.605  10.815  1.00  0.00     0.009 C 
HETATM   19  C30 UNL     1      52.137  38.258  10.865  1.00  0.00     0.010 C 
HETATM   20  C31 UNL     1      52.449  37.458  12.103  1.00  0.00    -0.034 C 
HETATM   21  C32 UNL     1      53.190  36.205  11.603  1.00  0.00     0.016 C 
ENDROOT
BRANCH  13  22
HETATM   22  C17 UNL     1      55.794  42.438   7.821  1.00  0.00     0.134 C 
BRANCH  22  23
HETATM   23  C18 UNL     1      56.131  43.849   7.703  1.00  0.00     0.220 C 
HETATM   24  O2  UNL     1      57.010  44.230   6.871  1.00  0.00    -0.274 OA
HETATM   25  N1  UNL     1      55.458  44.784   8.536  1.00  0.00    -0.358 N 
ATOM     26  H1  UNL     1      54.753  44.468   9.202  1.00  0.00     0.162 HD
BRANCH  25  27
HETATM   27  C19 UNL     1      55.784  46.194   8.427  1.00  0.00     0.159 C 
BRANCH  27  28
HETATM   28  C20 UNL     1      54.662  46.982   7.789  1.00  0.00     0.174 C 
BRANCH  28  29
HETATM   29  O3  UNL     1      53.942  47.568   8.828  1.00  0.00    -0.389 OA
ATOM     30  H3  UNL     1      53.024  47.395   8.656  1.00  0.00     0.210 HD
ENDBRANCH  28  29
BRANCH  28  31
HETATM   31  C21 UNL     1      53.775  46.126   6.950  1.00  0.00     0.091 C 
BRANCH  31  32
HETATM   32  N2  UNL     1      54.132  45.933   5.620  1.00  0.00    -0.391 N 
HETATM   33  C22 UNL     1      53.947  46.973   4.683  1.00  0.00     0.122 C 
HETATM   34  C23 UNL     1      54.712  46.416   3.472  1.00  0.00     0.021 C 
HETATM   35  C24 UNL     1      54.330  44.953   3.542  1.00  0.00     0.021 C 
HETATM   36  C25 UNL     1      53.972  44.674   5.008  1.00  0.00     0.122 C 
ENDBRANCH  31  32
ENDBRANCH  28  31
ENDBRANCH  27  28
ENDBRANCH  25  27
ENDBRANCH  22  23
ENDBRANCH  13  22
BRANCH   1  37
HETATM   37  C2  UNL     1      51.340  35.685  13.543  1.00  0.00    -0.015 C 
HETATM   38  C1  UNL     1      51.370  35.659  15.003  1.00  0.00     0.010 C 
HETATM   39  C3  UNL     1      50.271  34.660  13.095  1.00  0.00     0.010 C 
ENDBRANCH   1  37
BRANCH   2  40
HETATM   40  O1  UNL     1      49.186  37.533  13.889  1.00  0.00    -0.395 OA
ATOM     41  H1  UNL     1      49.128  37.712  14.820  1.00  0.00     0.210 HD
ENDBRANCH   2  40
TORSDOF 9
ENDMDL
MODEL 5
REMARK VINA RESULT: -8.587798147      4.454      6.884
REMARK  9 active torsions:
REMARK  status: ('A' for Active; 'I' for Inactive)
REMARK    1  A    between atoms: C2_2  and  C4_4 
REMARK    2  A    between atoms: C5_5  and  O1_6 
REMARK    3  A    between atoms: C16_18  and  C17_19 
REMARK    4  A    between atoms: C17_19  and  C18_20 
REMARK       I    between atoms: C18_20  and  N1_22 
REMARK    5  A    between atoms: N1_22  and  C19_24 
REMARK    6  A    between atoms: C19_24  and  C20_25 
REMARK    7  A    between atoms: C20_25  and  O3_26 
REMARK    8  A    between atoms: C20_25  and  C21_28 
REMARK    9  A    between atoms: C21_28  and  N2_29 
ROOT
HETATM    1  C4  UNL     1      55.063  36.471   2.006  1.00  0.00     0.026 C 
HETATM    2  C5  UNL     1      54.356  37.573   1.299  1.00  0.00     0.123 C 
HETATM    3  C6  UNL     1      52.962  37.831   1.763  1.00  0.00     0.032 C 
HETATM    4  C7  UNL     1      52.618  37.411   3.120  1.00  0.00     0.008 C 
HETATM    5  C8  UNL     1      53.590  36.669   3.946  1.00  0.00    -0.001 C 
HETATM    6  C9  UNL     1      53.395  37.071   5.405  1.00  0.00    -0.003 C 
HETATM    7  C10 UNL     1      53.129  35.930   6.335  1.00  0.00     0.006 C 
HETATM    8  C11 UNL     1      52.521  36.582   7.592  1.00  0.00     0.008 C 
HETATM    9  C12 UNL     1      53.517  37.552   8.131  1.00  0.00     0.024 C 
HETATM   10  C13 UNL     1      53.286  37.996   9.531  1.00  0.00    -0.009 C 
HETATM   11  C14 UNL     1      52.033  38.702   9.841  1.00  0.00     0.010 C 
HETATM   12  C15 UNL     1      54.558  38.760   9.943  1.00  0.00     0.037 C 
HETATM   13  C16 UNL     1      54.602  39.918   8.939  1.00  0.00     0.131 C 
HETATM   14  O4  UNL     1      54.912  39.416   7.704  1.00  0.00    -0.374 OA
HETATM   15  C26 UNL     1      53.866  38.678   7.161  1.00  0.00     0.066 C 
HETATM   16  C27 UNL     1      52.721  39.490   6.703  1.00  0.00     0.047 C 
HETATM   17  C28 UNL     1      54.473  37.913   5.971  1.00  0.00     0.025 C 
HETATM   18  C29 UNL     1      55.062  38.757   4.923  1.00  0.00     0.009 C 
HETATM   19  C30 UNL     1      55.815  37.842   3.968  1.00  0.00     0.010 C 
HETATM   20  C31 UNL     1      55.011  36.654   3.509  1.00  0.00    -0.034 C 
HETATM   21  C32 UNL     1      55.745  35.423   4.072  1.00  0.00     0.016 C 
ENDROOT
BRANCH  13  22
HETATM   22  C17 UNL     1      55.483  40.974   9.462  1.00  0.00     0.134 C 
BRANCH  22  23
HETATM   23  C18 UNL     1      55.255  42.343   9.027  1.00  0.00     0.220 C 
HETATM   24  O2  UNL     1      55.564  43.316   9.780  1.00  0.00    -0.274 OA
HETATM   25  N1  UNL     1      54.683  42.565   7.743  1.00  0.00    -0.358 N 
ATOM     26  H1  UNL     1      54.438  41.777   7.145  1.00  0.00     0.162 HD
BRANCH  25  27
HETATM   27  C19 UNL     1      54.451  43.926   7.296  1.00  0.00     0.159 C 
BRANCH  27  28
HETATM   28  C20 UNL     1      55.594  44.439   6.448  1.00  0.00     0.174 C 
BRANCH  28  29
HETATM   29  O3  UNL     1      56.542  44.961   7.325  1.00  0.00    -0.389 OA
ATOM     30  H3  UNL     1      57.344  45.072   6.827  1.00  0.00     0.210 HD
ENDBRANCH  28  29
BRANCH  28  31
HETATM   31  C21 UNL     1      55.153  45.476   5.471  1.00  0.00     0.091 C 
BRANCH  31  32
HETATM   32  N2  UNL     1      53.786  45.620   5.255  1.00  0.00    -0.391 N 
HETATM   33  C22 UNL     1      53.145  44.848   4.262  1.00  0.00     0.122 C 
HETATM   34  C23 UNL     1      51.669  45.135   4.575  1.00  0.00     0.021 C 
HETATM   35  C24 UNL     1      51.731  46.609   4.915  1.00  0.00     0.021 C 
HETATM   36  C25 UNL     1      53.166  46.878   5.389  1.00  0.00     0.122 C 
ENDBRANCH  31  32
ENDBRANCH  28  31
ENDBRANCH  27  28
ENDBRANCH  25  27
ENDBRANCH  22  23
ENDBRANCH  13  22
BRANCH   1  37
HETATM   37  C2  UNL     1      54.889  35.109   1.498  1.00  0.00    -0.015 C 
HETATM   38  C1  UNL     1      53.676  34.659   0.821  1.00  0.00     0.010 C 
HETATM   39  C3  UNL     1      56.081  34.736   0.584  1.00  0.00     0.010 C 
ENDBRANCH   1  37
BRANCH   2  40
HETATM   40  O1  UNL     1      54.466  37.454  -0.083  1.00  0.00    -0.395 OA
ATOM     41  H1  UNL     1      54.951  38.178  -0.461  1.00  0.00     0.210 HD
ENDBRANCH   2  40
TORSDOF 9
ENDMDL
