MODEL 1
REMARK VINA RESULT: -6.752345445      0.000      0.000
REMARK  11 active torsions:
REMARK  status: ('A' for Active; 'I' for Inactive)
REMARK    1  A    between atoms: C2_2  and  C3_3 
REMARK    2  A    between atoms: C2_2  and  C4_6 
REMARK    3  A    between atoms: C3_3  and  O1_4 
REMARK    4  A    between atoms: C4_6  and  C5_8 
REMARK    5  A    between atoms: C14_17  and  O3_18 
REMARK    6  A    between atoms: C19_24  and  C20_25 
REMARK    7  A    between atoms: C20_25  and  O4_26 
REMARK    8  A    between atoms: C20_25  and  N1_28 
REMARK    9  A    between atoms: C25_33  and  O5_34 
REMARK   10  A    between atoms: O5_34  and  C26_35 
REMARK   11  A    between atoms: C26_35  and  C27_36 
ROOT
HETATM    1  C5  UNL     1      49.445  36.804  16.617  1.00  0.00     0.040 C 
HETATM    2  C6  UNL     1      49.494  35.506  15.784  1.00  0.00     0.019 C 
HETATM    3  C7  UNL     1      48.677  35.619  14.558  1.00  0.00     0.007 C 
HETATM    4  C8  UNL     1      49.344  36.616  13.694  1.00  0.00     0.003 C 
HETATM    5  C9  UNL     1      50.261  37.540  14.376  1.00  0.00     0.012 C 
HETATM    6  C10 UNL     1      50.622  38.591  13.421  1.00  0.00     0.033 C 
HETATM    7  C11 UNL     1      51.298  37.971  12.247  1.00  0.00    -0.023 C 
HETATM    8  C12 UNL     1      51.056  36.752  11.883  1.00  0.00    -0.072 C 
HETATM    9  C13 UNL     1      51.765  36.182  10.695  1.00  0.00     0.066 C 
HETATM   10  C14 UNL     1      50.845  35.476   9.751  1.00  0.00     0.122 C 
HETATM   11  C15 UNL     1      49.718  34.752  10.400  1.00  0.00     0.033 C 
HETATM   12  C16 UNL     1      49.090  35.456  11.560  1.00  0.00     0.016 C 
HETATM   13  C17 UNL     1      50.101  35.889  12.610  1.00  0.00    -0.017 C 
HETATM   14  C18 UNL     1      50.894  34.705  13.040  1.00  0.00     0.020 C 
HETATM   15  C19 UNL     1      49.985  37.945  15.836  1.00  0.00     0.044 C 
HETATM   16  C23 UNL     1      51.436  38.313  16.223  1.00  0.00     0.022 C 
HETATM   17  C24 UNL     1      51.922  38.417  17.554  1.00  0.00     0.033 C 
HETATM   18  C25 UNL     1      52.644  37.124  18.068  1.00  0.00     0.122 C 
HETATM   19  C28 UNL     1      51.770  36.052  17.426  1.00  0.00     0.037 C 
HETATM   20  C29 UNL     1      50.390  36.414  17.777  1.00  0.00     0.001 C 
HETATM   21  C30 UNL     1      49.869  35.220  18.553  1.00  0.00     0.011 C 
ENDROOT
BRANCH   1  22
HETATM   22  C4  UNL     1      48.126  36.800  17.233  1.00  0.00     0.143 C 
HETATM   23  O2  UNL     1      48.052  37.675  18.171  1.00  0.00    -0.297 OA
BRANCH  22  24
HETATM   24  C2  UNL     1      46.831  36.202  17.222  1.00  0.00     0.075 C 
HETATM   25  C1  UNL     1      46.251  36.100  18.699  1.00  0.00     0.020 C 
BRANCH  24  26
HETATM   26  C3  UNL     1      45.649  36.841  16.571  1.00  0.00     0.175 C 
BRANCH  26  27
HETATM   27  O1  UNL     1      45.656  38.178  16.361  1.00  0.00    -0.400 OA
ATOM     28  H1  UNL     1      44.958  38.569  15.850  1.00  0.00     0.209 HD
ENDBRANCH  26  27
ENDBRANCH  24  26
ENDBRANCH  22  24
ENDBRANCH   1  22
BRANCH  15  29
HETATM   29  C20 UNL     1      49.290  39.232  15.929  1.00  0.00     0.123 C 
BRANCH  29  30
HETATM   30  O4  UNL     1      48.049  39.154  15.496  1.00  0.00    -0.349 OA
ATOM     31  H4  UNL     1      47.684  40.011  15.305  1.00  0.00     0.219 HD
ENDBRANCH  29  30
BRANCH  29  32
HETATM   32  N1  UNL     1      49.525  40.522  16.331  1.00  0.00    -0.373 N 
HETATM   33  C21 UNL     1      50.003  41.032  17.587  1.00  0.00     0.150 C 
HETATM   34  C22 UNL     1      49.280  41.678  15.417  1.00  0.00     0.150 C 
ENDBRANCH  29  32
ENDBRANCH  15  29
BRANCH  18  35
HETATM   35  O5  UNL     1      53.893  37.043  17.555  1.00  0.00    -0.375 OA
BRANCH  35  36
HETATM   36  C26 UNL     1      54.106  36.572  16.313  1.00  0.00     0.281 C 
BRANCH  36  37
HETATM   37  C27 UNL     1      54.876  37.325  15.352  1.00  0.00     0.197 C 
HETATM   38  O6  UNL     1      55.495  36.896  14.373  1.00  0.00    -0.646 OA
HETATM   39  O7  UNL     1      54.939  38.724  15.544  1.00  0.00    -0.646 OA
ENDBRANCH  36  37
ENDBRANCH  35  36
ENDBRANCH  18  35
BRANCH  10  40
HETATM   40  O3  UNL     1      50.327  36.375   8.798  1.00  0.00    -0.395 OA
ATOM     41  H3  UNL     1      49.520  36.039   8.426  1.00  0.00     0.210 HD
ENDBRANCH  10  40
TORSDOF 11
ENDMDL
MODEL 2
REMARK VINA RESULT: -6.585618442      3.922      7.374
REMARK  11 active torsions:
REMARK  status: ('A' for Active; 'I' for Inactive)
REMARK    1  A    between atoms: C2_2  and  C3_3 
REMARK    2  A    between atoms: C2_2  and  C4_6 
REMARK    3  A    between atoms: C3_3  and  O1_4 
REMARK    4  A    between atoms: C4_6  and  C5_8 
REMARK    5  A    between atoms: C14_17  and  O3_18 
REMARK    6  A    between atoms: C19_24  and  C20_25 
REMARK    7  A    between atoms: C20_25  and  O4_26 
REMARK    8  A    between atoms: C20_25  and  N1_28 
REMARK    9  A    between atoms: C25_33  and  O5_34 
REMARK   10  A    between atoms: O5_34  and  C26_35 
REMARK   11  A    between atoms: C26_35  and  C27_36 
ROOT
HETATM    1  C5  UNL     1      52.786  37.084  11.801  1.00  0.00     0.040 C 
HETATM    2  C6  UNL     1      52.610  38.376  10.976  1.00  0.00     0.019 C 
HETATM    3  C7  UNL     1      52.811  39.580  11.810  1.00  0.00     0.007 C 
HETATM    4  C8  UNL     1      54.239  39.598  12.191  1.00  0.00     0.003 C 
HETATM    5  C9  UNL     1      54.938  38.309  12.109  1.00  0.00     0.012 C 
HETATM    6  C10 UNL     1      56.244  38.471  12.755  1.00  0.00     0.033 C 
HETATM    7  C11 UNL     1      57.016  39.520  12.033  1.00  0.00    -0.023 C 
HETATM    8  C12 UNL     1      56.432  40.481  11.392  1.00  0.00    -0.072 C 
HETATM    9  C13 UNL     1      57.260  41.508  10.685  1.00  0.00     0.066 C 
HETATM   10  C14 UNL     1      56.815  42.908  10.965  1.00  0.00     0.122 C 
HETATM   11  C15 UNL     1      55.345  43.077  11.125  1.00  0.00     0.033 C 
HETATM   12  C16 UNL     1      54.655  41.984  11.877  1.00  0.00     0.016 C 
HETATM   13  C17 UNL     1      54.960  40.601  11.324  1.00  0.00    -0.017 C 
HETATM   14  C18 UNL     1      54.632  40.572   9.872  1.00  0.00     0.020 C 
HETATM   15  C19 UNL     1      54.159  37.004  12.359  1.00  0.00     0.044 C 
HETATM   16  C23 UNL     1      55.085  36.058  11.561  1.00  0.00     0.022 C 
HETATM   17  C24 UNL     1      54.721  34.766  11.094  1.00  0.00     0.033 C 
HETATM   18  C25 UNL     1      54.245  34.744   9.600  1.00  0.00     0.122 C 
HETATM   19  C28 UNL     1      53.475  36.059   9.542  1.00  0.00     0.037 C 
HETATM   20  C29 UNL     1      52.563  36.027  10.693  1.00  0.00     0.001 C 
HETATM   21  C30 UNL     1      51.178  36.131  10.085  1.00  0.00     0.011 C 
ENDROOT
BRANCH   1  22
HETATM   22  C4  UNL     1      51.579  36.992  12.610  1.00  0.00     0.143 C 
HETATM   23  O2  UNL     1      51.577  35.919  13.316  1.00  0.00    -0.297 OA
BRANCH  22  24
HETATM   24  C2  UNL     1      50.350  37.630  12.954  1.00  0.00     0.075 C 
HETATM   25  C1  UNL     1      49.285  36.558  13.449  1.00  0.00     0.020 C 
BRANCH  24  26
HETATM   26  C3  UNL     1      50.228  38.594  14.088  1.00  0.00     0.175 C 
BRANCH  26  27
HETATM   27  O1  UNL     1      49.159  39.422  14.134  1.00  0.00    -0.400 OA
ATOM     28  H1  UNL     1      48.737  39.586  14.970  1.00  0.00     0.209 HD
ENDBRANCH  26  27
ENDBRANCH  24  26
ENDBRANCH  22  24
ENDBRANCH   1  22
BRANCH  15  29
HETATM   29  C20 UNL     1      54.314  36.524  13.735  1.00  0.00     0.123 C 
BRANCH  29  30
HETATM   30  O4  UNL     1      54.719  35.272  13.779  1.00  0.00    -0.349 OA
ATOM     31  H4  UNL     1      55.640  35.188  13.563  1.00  0.00     0.219 HD
ENDBRANCH  29  30
BRANCH  29  32
HETATM   32  N1  UNL     1      54.167  36.974  15.023  1.00  0.00    -0.373 N 
HETATM   33  C21 UNL     1      53.647  38.219  15.519  1.00  0.00     0.150 C 
HETATM   34  C22 UNL     1      54.582  36.138  16.190  1.00  0.00     0.150 C 
ENDBRANCH  29  32
ENDBRANCH  15  29
BRANCH  18  35
HETATM   35  O5  UNL     1      55.305  34.814   8.764  1.00  0.00    -0.375 OA
BRANCH  35  36
HETATM   36  C26 UNL     1      55.155  34.659   7.436  1.00  0.00     0.281 C 
BRANCH  36  37
HETATM   37  C27 UNL     1      54.558  35.695   6.627  1.00  0.00     0.197 C 
HETATM   38  O6  UNL     1      55.029  36.800   6.342  1.00  0.00    -0.646 OA
HETATM   39  O7  UNL     1      53.278  35.424   6.091  1.00  0.00    -0.646 OA
ENDBRANCH  36  37
ENDBRANCH  35  36
ENDBRANCH  18  35
BRANCH  10  40
HETATM   40  O3  UNL     1      57.466  43.416  12.106  1.00  0.00    -0.395 OA
ATOM     41  H3  UNL     1      57.394  42.805  12.830  1.00  0.00     0.210 HD
ENDBRANCH  10  40
TORSDOF 11
ENDMDL
MODEL 3
REMARK VINA RESULT: -6.396305906      3.906      7.074
REMARK  11 active torsions:
REMARK  status: ('A' for Active; 'I' for Inactive)
REMARK    1  A    between atoms: C2_2  and  C3_3 
REMARK    2  A    between atoms: C2_2  and  C4_6 
REMARK    3  A    between atoms: C3_3  and  O1_4 
REMARK    4  A    between atoms: C4_6  and  C5_8 
REMARK    5  A    between atoms: C14_17  and  O3_18 
REMARK    6  A    between atoms: C19_24  and  C20_25 
REMARK    7  A    between atoms: C20_25  and  O4_26 
REMARK    8  A    between atoms: C20_25  and  N1_28 
REMARK    9  A    between atoms: C25_33  and  O5_34 
REMARK   10  A    between atoms: O5_34  and  C26_35 
REMARK   11  A    between atoms: C26_35  and  C27_36 
ROOT
HETATM    1  C5  UNL     1      53.564  37.715  13.888  1.00  0.00     0.040 C 
HETATM    2  C6  UNL     1      54.562  38.880  14.061  1.00  0.00     0.019 C 
HETATM    3  C7  UNL     1      55.805  38.644  13.296  1.00  0.00     0.007 C 
HETATM    4  C8  UNL     1      55.440  38.705  11.865  1.00  0.00     0.003 C 
HETATM    5  C9  UNL     1      54.019  38.488  11.558  1.00  0.00     0.012 C 
HETATM    6  C10 UNL     1      53.897  38.334  10.106  1.00  0.00     0.033 C 
HETATM    7  C11 UNL     1      54.382  39.577   9.443  1.00  0.00    -0.023 C 
HETATM    8  C12 UNL     1      55.271  40.343   9.990  1.00  0.00    -0.072 C 
HETATM    9  C13 UNL     1      55.720  41.579   9.276  1.00  0.00     0.066 C 
HETATM   10  C14 UNL     1      57.208  41.731   9.255  1.00  0.00     0.122 C 
HETATM   11  C15 UNL     1      57.903  41.249  10.479  1.00  0.00     0.033 C 
HETATM   12  C16 UNL     1      57.359  39.986  11.068  1.00  0.00     0.016 C 
HETATM   13  C17 UNL     1      55.860  40.044  11.313  1.00  0.00    -0.017 C 
HETATM   14  C18 UNL     1      55.549  41.231  12.156  1.00  0.00     0.020 C 
HETATM   15  C19 UNL     1      53.178  37.567  12.462  1.00  0.00     0.044 C 
HETATM   16  C23 UNL     1      51.794  38.175  12.141  1.00  0.00     0.022 C 
HETATM   17  C24 UNL     1      50.628  38.009  12.935  1.00  0.00     0.033 C 
HETATM   18  C25 UNL     1      50.361  39.194  13.926  1.00  0.00     0.122 C 
HETATM   19  C28 UNL     1      51.791  39.525  14.343  1.00  0.00     0.037 C 
HETATM   20  C29 UNL     1      52.387  38.243  14.741  1.00  0.00     0.001 C 
HETATM   21  C30 UNL     1      52.785  38.441  16.190  1.00  0.00     0.011 C 
ENDROOT
BRANCH   1  22
HETATM   22  C4  UNL     1      54.113  36.633  14.692  1.00  0.00     0.143 C 
HETATM   23  O2  UNL     1      55.236  36.972  15.216  1.00  0.00    -0.297 OA
BRANCH  22  24
HETATM   24  C2  UNL     1      53.908  35.301  15.157  1.00  0.00     0.075 C 
HETATM   25  C1  UNL     1      54.716  35.048  16.502  1.00  0.00     0.020 C 
BRANCH  24  26
HETATM   26  C3  UNL     1      52.577  34.795  15.607  1.00  0.00     0.175 C 
BRANCH  26  27
HETATM   27  O1  UNL     1      51.515  34.910  14.776  1.00  0.00    -0.400 OA
ATOM     28  H1  UNL     1      51.173  35.774  14.580  1.00  0.00     0.209 HD
ENDBRANCH  26  27
ENDBRANCH  24  26
ENDBRANCH  22  24
ENDBRANCH   1  22
BRANCH  15  29
HETATM   29  C20 UNL     1      53.070  36.211  11.917  1.00  0.00     0.123 C 
BRANCH  29  30
HETATM   30  O4  UNL     1      51.865  35.706  12.084  1.00  0.00    -0.349 OA
ATOM     31  H4  UNL     1      51.293  35.900  11.351  1.00  0.00     0.219 HD
ENDBRANCH  29  30
BRANCH  29  32
HETATM   32  N1  UNL     1      53.842  35.276  11.275  1.00  0.00    -0.373 N 
HETATM   33  C21 UNL     1      55.121  34.724  11.629  1.00  0.00     0.150 C 
HETATM   34  C22 UNL     1      53.402  34.659   9.987  1.00  0.00     0.150 C 
ENDBRANCH  29  32
ENDBRANCH  15  29
BRANCH  18  35
HETATM   35  O5  UNL     1      49.836  40.253  13.269  1.00  0.00    -0.375 OA
BRANCH  35  36
HETATM   36  C26 UNL     1      48.830  40.971  13.799  1.00  0.00     0.281 C 
BRANCH  36  37
HETATM   37  C27 UNL     1      49.093  42.078  14.689  1.00  0.00     0.197 C 
HETATM   38  O6  UNL     1      49.066  43.284  14.426  1.00  0.00    -0.646 OA
HETATM   39  O7  UNL     1      49.424  41.755  16.025  1.00  0.00    -0.646 OA
ENDBRANCH  36  37
ENDBRANCH  35  36
ENDBRANCH  18  35
BRANCH  10  40
HETATM   40  O3  UNL     1      57.755  41.087   8.129  1.00  0.00    -0.395 OA
ATOM     41  H3  UNL     1      58.704  41.136   8.144  1.00  0.00     0.210 HD
ENDBRANCH  10  40
TORSDOF 11
ENDMDL
MODEL 4
REMARK VINA RESULT: -6.335926631      2.832      5.893
REMARK  11 active torsions:
REMARK  status: ('A' for Active; 'I' for Inactive)
REMARK    1  A    between atoms: C2_2  and  C3_3 
REMARK    2  A    between atoms: C2_2  and  C4_6 
REMARK    3  A    between atoms: C3_3  and  O1_4 
REMARK    4  A    between atoms: C4_6  and  C5_8 
REMARK    5  A    between atoms: C14_17  and  O3_18 
REMARK    6  A    between atoms: C19_24  and  C20_25 
REMARK    7  A    between atoms: C20_25  and  O4_26 
REMARK    8  A    between atoms: C20_25  and  N1_28 
REMARK    9  A    between atoms: C25_33  and  O5_34 
REMARK   10  A    between atoms: O5_34  and  C26_35 
REMARK   11  A    between atoms: C26_35  and  C27_36 
ROOT
HETATM    1  C5  UNL     1      52.046  37.564  15.766  1.00  0.00     0.040 C 
HETATM    2  C6  UNL     1      53.273  38.492  15.648  1.00  0.00     0.019 C 
HETATM    3  C7  UNL     1      54.279  37.942  14.716  1.00  0.00     0.007 C 
HETATM    4  C8  UNL     1      53.675  37.985  13.367  1.00  0.00     0.003 C 
HETATM    5  C9  UNL     1      52.209  38.063  13.326  1.00  0.00     0.012 C 
HETATM    6  C10 UNL     1      51.792  37.842  11.938  1.00  0.00     0.033 C 
HETATM    7  C11 UNL     1      52.387  38.903  11.078  1.00  0.00    -0.023 C 
HETATM    8  C12 UNL     1      53.497  39.493  11.386  1.00  0.00    -0.072 C 
HETATM    9  C13 UNL     1      54.046  40.552  10.483  1.00  0.00     0.066 C 
HETATM   10  C14 UNL     1      55.504  40.375  10.198  1.00  0.00     0.122 C 
HETATM   11  C15 UNL     1      56.303  39.835  11.333  1.00  0.00     0.033 C 
HETATM   12  C16 UNL     1      55.633  38.763  12.132  1.00  0.00     0.016 C 
HETATM   13  C17 UNL     1      54.248  39.161  12.616  1.00  0.00    -0.017 C 
HETATM   14  C18 UNL     1      54.345  40.441  13.371  1.00  0.00     0.020 C 
HETATM   15  C19 UNL     1      51.381  37.408  14.448  1.00  0.00     0.044 C 
HETATM   16  C23 UNL     1      50.113  38.280  14.300  1.00  0.00     0.022 C 
HETATM   17  C24 UNL     1      49.105  38.424  15.291  1.00  0.00     0.033 C 
HETATM   18  C25 UNL     1      49.271  39.702  16.184  1.00  0.00     0.122 C 
HETATM   19  C28 UNL     1      50.790  39.742  16.319  1.00  0.00     0.037 C 
HETATM   20  C29 UNL     1      51.178  38.390  16.744  1.00  0.00     0.001 C 
HETATM   21  C30 UNL     1      51.869  38.593  18.078  1.00  0.00     0.011 C 
ENDROOT
BRANCH   1  22
HETATM   22  C4  UNL     1      52.504  36.444  16.576  1.00  0.00     0.143 C 
HETATM   23  O2  UNL     1      51.531  35.661  16.874  1.00  0.00    -0.297 OA
BRANCH  22  24
HETATM   24  C2  UNL     1      53.634  35.835  17.198  1.00  0.00     0.075 C 
HETATM   25  C1  UNL     1      53.223  35.186  18.589  1.00  0.00     0.020 C 
BRANCH  24  26
HETATM   26  C3  UNL     1      54.345  34.659  16.613  1.00  0.00     0.175 C 
BRANCH  26  27
HETATM   27  O1  UNL     1      54.640  34.659  15.293  1.00  0.00    -0.400 OA
ATOM     28  H1  UNL     1      53.987  34.964  14.673  1.00  0.00     0.209 HD
ENDBRANCH  26  27
ENDBRANCH  24  26
ENDBRANCH  22  24
ENDBRANCH   1  22
BRANCH  15  29
HETATM   29  C20 UNL     1      50.902  36.075  14.073  1.00  0.00     0.123 C 
BRANCH  29  30
HETATM   30  O4  UNL     1      51.893  35.228  13.891  1.00  0.00    -0.349 OA
ATOM     31  H4  UNL     1      52.109  34.756  14.688  1.00  0.00     0.219 HD
ENDBRANCH  29  30
BRANCH  29  32
HETATM   32  N1  UNL     1      49.722  35.413  13.845  1.00  0.00    -0.373 N 
HETATM   33  C21 UNL     1      48.866  34.699  14.753  1.00  0.00     0.150 C 
HETATM   34  C22 UNL     1      49.125  35.339  12.478  1.00  0.00     0.150 C 
ENDBRANCH  29  32
ENDBRANCH  15  29
BRANCH  18  35
HETATM   35  O5  UNL     1      48.858  40.804  15.517  1.00  0.00    -0.375 OA
BRANCH  35  36
HETATM   36  C26 UNL     1      49.195  42.037  15.934  1.00  0.00     0.281 C 
BRANCH  36  37
HETATM   37  C27 UNL     1      48.891  43.202  15.137  1.00  0.00     0.197 C 
HETATM   38  O6  UNL     1      48.316  44.235  15.494  1.00  0.00    -0.646 OA
HETATM   39  O7  UNL     1      49.293  43.169  13.782  1.00  0.00    -0.646 OA
ENDBRANCH  36  37
ENDBRANCH  35  36
ENDBRANCH  18  35
BRANCH  10  40
HETATM   40  O3  UNL     1      55.692  39.553   9.070  1.00  0.00    -0.395 OA
ATOM     41  H3  UNL     1      55.878  38.660   9.335  1.00  0.00     0.210 HD
ENDBRANCH  10  40
TORSDOF 11
ENDMDL
MODEL 5
REMARK VINA RESULT: -6.183897661      3.942      7.909
REMARK  11 active torsions:
REMARK  status: ('A' for Active; 'I' for Inactive)
REMARK    1  A    between atoms: C2_2  and  C3_3 
REMARK    2  A    between atoms: C2_2  and  C4_6 
REMARK    3  A    between atoms: C3_3  and  O1_4 
REMARK    4  A    between atoms: C4_6  and  C5_8 
REMARK    5  A    between atoms: C14_17  and  O3_18 
REMARK    6  A    between atoms: C19_24  and  C20_25 
REMARK    7  A    between atoms: C20_25  and  O4_26 
REMARK    8  A    between atoms: C20_25  and  N1_28 
REMARK    9  A    between atoms: C25_33  and  O5_34 
REMARK   10  A    between atoms: O5_34  and  C26_35 
REMARK   11  A    between atoms: C26_35  and  C27_36 
ROOT
HETATM    1  C5  UNL     1      53.556  38.374  10.842  1.00  0.00     0.040 C 
HETATM    2  C6  UNL     1      52.155  39.001  10.998  1.00  0.00     0.019 C 
HETATM    3  C7  UNL     1      51.242  38.104  11.737  1.00  0.00     0.007 C 
HETATM    4  C8  UNL     1      51.749  38.029  13.123  1.00  0.00     0.003 C 
HETATM    5  C9  UNL     1      53.161  38.391  13.306  1.00  0.00     0.012 C 
HETATM    6  C10 UNL     1      53.541  38.018  14.672  1.00  0.00     0.033 C 
HETATM    7  C11 UNL     1      52.689  38.769  15.635  1.00  0.00    -0.023 C 
HETATM    8  C12 UNL     1      51.496  39.168  15.329  1.00  0.00    -0.072 C 
HETATM    9  C13 UNL     1      50.686  39.918  16.339  1.00  0.00     0.066 C 
HETATM   10  C14 UNL     1      49.287  39.405  16.461  1.00  0.00     0.122 C 
HETATM   11  C15 UNL     1      48.683  38.924  15.187  1.00  0.00     0.033 C 
HETATM   12  C16 UNL     1      49.608  38.167  14.289  1.00  0.00     0.016 C 
HETATM   13  C17 UNL     1      50.900  38.915  14.000  1.00  0.00    -0.017 C 
HETATM   14  C18 UNL     1      50.572  40.261  13.455  1.00  0.00     0.020 C 
HETATM   15  C19 UNL     1      54.169  38.125  12.172  1.00  0.00     0.044 C 
HETATM   16  C23 UNL     1      55.211  39.195  12.570  1.00  0.00     0.022 C 
HETATM   17  C24 UNL     1      56.216  39.711  11.709  1.00  0.00     0.033 C 
HETATM   18  C25 UNL     1      55.829  41.066  11.023  1.00  0.00     0.122 C 
HETATM   19  C28 UNL     1      54.346  40.823  10.761  1.00  0.00     0.037 C 
HETATM   20  C29 UNL     1      54.279  39.517  10.091  1.00  0.00     0.001 C 
HETATM   21  C30 UNL     1      53.633  39.809   8.751  1.00  0.00     0.011 C 
ENDROOT
BRANCH   1  22
HETATM   22  C4  UNL     1      53.391  37.346   9.824  1.00  0.00     0.143 C 
HETATM   23  O2  UNL     1      54.420  37.287   9.057  1.00  0.00    -0.297 OA
BRANCH  22  24
HETATM   24  C2  UNL     1      52.524  36.337   9.310  1.00  0.00     0.075 C 
HETATM   25  C1  UNL     1      51.729  36.877   8.044  1.00  0.00     0.020 C 
BRANCH  24  26
HETATM   26  C3  UNL     1      53.026  35.060   8.721  1.00  0.00     0.175 C 
BRANCH  26  27
HETATM   27  O1  UNL     1      53.288  35.006   7.394  1.00  0.00    -0.400 OA
ATOM     28  H1  UNL     1      53.037  34.231   6.905  1.00  0.00     0.209 HD
ENDBRANCH  26  27
ENDBRANCH  24  26
ENDBRANCH  22  24
ENDBRANCH   1  22
BRANCH  15  29
HETATM   29  C20 UNL     1      54.900  36.871  12.367  1.00  0.00     0.123 C 
BRANCH  29  30
HETATM   30  O4  UNL     1      56.147  37.079  12.735  1.00  0.00    -0.349 OA
ATOM     31  H4  UNL     1      56.741  36.441  12.357  1.00  0.00     0.219 HD
ENDBRANCH  29  30
BRANCH  29  32
HETATM   32  N1  UNL     1      54.696  35.517  12.287  1.00  0.00    -0.373 N 
HETATM   33  C21 UNL     1      53.751  34.676  12.971  1.00  0.00     0.150 C 
HETATM   34  C22 UNL     1      55.524  34.659  11.387  1.00  0.00     0.150 C 
ENDBRANCH  29  32
ENDBRANCH  15  29
BRANCH  18  35
HETATM   35  O5  UNL     1      55.961  42.093  11.893  1.00  0.00    -0.375 OA
BRANCH  35  36
HETATM   36  C26 UNL     1      56.045  43.364  11.462  1.00  0.00     0.281 C 
BRANCH  36  37
HETATM   37  C27 UNL     1      56.187  43.667  10.057  1.00  0.00     0.197 C 
HETATM   38  O6  UNL     1      56.881  43.080   9.222  1.00  0.00    -0.646 OA
HETATM   39  O7  UNL     1      55.448  44.767   9.566  1.00  0.00    -0.646 OA
ENDBRANCH  36  37
ENDBRANCH  35  36
ENDBRANCH  18  35
BRANCH  10  40
HETATM   40  O3  UNL     1      49.219  38.376  17.420  1.00  0.00    -0.395 OA
ATOM     41  H3  UNL     1      48.906  38.715  18.251  1.00  0.00     0.210 HD
ENDBRANCH  10  40
TORSDOF 11
ENDMDL
