MODEL 1
REMARK VINA RESULT: -7.118439140      0.000      0.000
REMARK  9 active torsions:
REMARK  status: ('A' for Active; 'I' for Inactive)
REMARK       I    between atoms: N1_2  and  C2_4 
REMARK    1  A    between atoms: C2_4  and  C3_6 
REMARK    2  A    between atoms: C8_11  and  C9_12 
REMARK    3  A    between atoms: C9_12  and  C11_14 
REMARK    4  A    between atoms: C11_14  and  C12_15 
REMARK    5  A    between atoms: C12_15  and  C13_16 
REMARK       I    between atoms: C13_16  and  N2_18 
REMARK    6  A    between atoms: N2_18  and  C14_20 
REMARK    7  A    between atoms: C14_20  and  C15_21 
REMARK    8  A    between atoms: C15_21  and  O4_23 
REMARK    9  A    between atoms: C28_36  and  O5_37 
ROOT
HETATM    1  C3  UNL     1      54.204  39.056  10.758  1.00  0.00     0.053 C 
HETATM    2  C4  UNL     1      52.855  39.563  11.289  1.00  0.00     0.021 C 
HETATM    3  C5  UNL     1      52.790  39.809  12.733  1.00  0.00     0.011 C 
HETATM    4  C6  UNL     1      53.048  38.515  13.522  1.00  0.00    -0.032 C 
HETATM    5  C7  UNL     1      53.495  39.018  14.873  1.00  0.00     0.016 C 
HETATM    6  C8  UNL     1      51.717  37.781  13.593  1.00  0.00    -0.002 C 
HETATM    7  C17 UNL     1      52.098  36.315  13.437  1.00  0.00     0.006 C 
HETATM    8  C18 UNL     1      53.199  36.426  12.404  1.00  0.00     0.011 C 
HETATM    9  C19 UNL     1      54.008  37.629  12.856  1.00  0.00    -0.032 C 
HETATM   10  C20 UNL     1      54.977  37.001  13.873  1.00  0.00     0.016 C 
HETATM   11  C21 UNL     1      54.867  38.175  11.748  1.00  0.00     0.013 C 
HETATM   12  C22 UNL     1      56.189  38.568  12.290  1.00  0.00     0.007 C 
HETATM   13  C23 UNL     1      56.980  39.516  11.372  1.00  0.00     0.007 C 
HETATM   14  C24 UNL     1      56.098  40.660  11.192  1.00  0.00     0.005 C 
HETATM   15  C25 UNL     1      56.615  41.937  10.689  1.00  0.00    -0.017 C 
HETATM   16  C26 UNL     1      57.893  41.890   9.917  1.00  0.00     0.018 C 
HETATM   17  C27 UNL     1      56.902  42.870  11.883  1.00  0.00     0.018 C 
HETATM   18  C28 UNL     1      55.439  42.511   9.967  1.00  0.00     0.127 C 
HETATM   19  C29 UNL     1      54.272  41.538  10.149  1.00  0.00     0.043 C 
HETATM   20  C30 UNL     1      54.994  40.210  10.230  1.00  0.00    -0.021 C 
HETATM   21  C31 UNL     1      55.538  39.964   8.844  1.00  0.00     0.017 C 
ENDROOT
BRANCH   6  22
HETATM   22  C9  UNL     1      50.861  38.038  14.748  1.00  0.00    -0.013 C 
HETATM   23  C10 UNL     1      50.803  37.085  15.885  1.00  0.00     0.010 C 
BRANCH  22  24
HETATM   24  C11 UNL     1      49.524  38.589  14.438  1.00  0.00     0.014 C 
BRANCH  24  25
HETATM   25  C12 UNL     1      49.400  40.035  14.120  1.00  0.00     0.103 C 
BRANCH  25  26
HETATM   26  C13 UNL     1      49.439  40.870  15.383  1.00  0.00     0.217 C 
HETATM   27  O2  UNL     1      48.818  41.947  15.407  1.00  0.00    -0.274 OA
HETATM   28  N2  UNL     1      50.154  40.458  16.522  1.00  0.00    -0.352 N 
ATOM     29  H2  UNL     1      50.656  39.571  16.491  1.00  0.00     0.162 HD
BRANCH  28  30
HETATM   30  C14 UNL     1      50.205  41.229  17.711  1.00  0.00     0.233 C 
BRANCH  30  31
HETATM   31  C15 UNL     1      51.073  40.685  18.783  1.00  0.00     0.276 C 
HETATM   32  O3  UNL     1      52.291  40.980  18.829  1.00  0.00    -0.263 OA
BRANCH  31  33
HETATM   33  O4  UNL     1      50.591  39.845  19.760  1.00  0.00    -0.325 OA
HETATM   34  C16 UNL     1      50.789  38.444  19.755  1.00  0.00     0.213 C 
ENDBRANCH  31  33
ENDBRANCH  30  31
ENDBRANCH  28  30
ENDBRANCH  25  26
ENDBRANCH  24  25
ENDBRANCH  22  24
ENDBRANCH   6  22
BRANCH   1  35
HETATM   35  C2  UNL     1      53.776  38.279   9.527  1.00  0.00     0.227 C 
HETATM   36  N1  UNL     1      52.683  38.657   8.719  1.00  0.00    -0.365 N 
HETATM   37  C1  UNL     1      52.300  37.885   7.550  1.00  0.00     0.149 C 
ATOM     38  H1  UNL     1      52.149  39.491   8.962  1.00  0.00     0.161 HD
HETATM   39  O1  UNL     1      54.395  37.228   9.159  1.00  0.00    -0.273 OA
ENDBRANCH   1  35
BRANCH  18  40
HETATM   40  O5  UNL     1      55.023  43.746  10.535  1.00  0.00    -0.395 OA
ATOM     41  H5  UNL     1      54.496  43.615  11.314  1.00  0.00     0.210 HD
ENDBRANCH  18  40
TORSDOF 9
ENDMDL
MODEL 2
REMARK VINA RESULT: -7.087853275      1.709      2.458
REMARK  9 active torsions:
REMARK  status: ('A' for Active; 'I' for Inactive)
REMARK       I    between atoms: N1_2  and  C2_4 
REMARK    1  A    between atoms: C2_4  and  C3_6 
REMARK    2  A    between atoms: C8_11  and  C9_12 
REMARK    3  A    between atoms: C9_12  and  C11_14 
REMARK    4  A    between atoms: C11_14  and  C12_15 
REMARK    5  A    between atoms: C12_15  and  C13_16 
REMARK       I    between atoms: C13_16  and  N2_18 
REMARK    6  A    between atoms: N2_18  and  C14_20 
REMARK    7  A    between atoms: C14_20  and  C15_21 
REMARK    8  A    between atoms: C15_21  and  O4_23 
REMARK    9  A    between atoms: C28_36  and  O5_37 
ROOT
HETATM    1  C3  UNL     1      54.205  39.145  10.933  1.00  0.00     0.053 C 
HETATM    2  C4  UNL     1      52.942  39.723  11.587  1.00  0.00     0.021 C 
HETATM    3  C5  UNL     1      53.030  39.979  13.028  1.00  0.00     0.011 C 
HETATM    4  C6  UNL     1      53.298  38.677  13.800  1.00  0.00    -0.032 C 
HETATM    5  C7  UNL     1      53.900  39.164  15.097  1.00  0.00     0.016 C 
HETATM    6  C8  UNL     1      51.945  38.013  14.008  1.00  0.00    -0.002 C 
HETATM    7  C17 UNL     1      52.234  36.529  13.830  1.00  0.00     0.006 C 
HETATM    8  C18 UNL     1      53.233  36.578  12.694  1.00  0.00     0.011 C 
HETATM    9  C19 UNL     1      54.143  37.740  13.054  1.00  0.00    -0.032 C 
HETATM   10  C20 UNL     1      55.173  37.068  13.978  1.00  0.00     0.016 C 
HETATM   11  C21 UNL     1      54.916  38.236  11.862  1.00  0.00     0.013 C 
HETATM   12  C22 UNL     1      56.303  38.563  12.270  1.00  0.00     0.007 C 
HETATM   13  C23 UNL     1      57.047  39.465  11.270  1.00  0.00     0.007 C 
HETATM   14  C24 UNL     1      56.212  40.652  11.165  1.00  0.00     0.005 C 
HETATM   15  C25 UNL     1      56.742  41.899  10.602  1.00  0.00    -0.017 C 
HETATM   16  C26 UNL     1      57.934  41.782   9.711  1.00  0.00     0.018 C 
HETATM   17  C27 UNL     1      57.190  42.821  11.753  1.00  0.00     0.018 C 
HETATM   18  C28 UNL     1      55.531  42.528   9.992  1.00  0.00     0.127 C 
HETATM   19  C29 UNL     1      54.340  41.617  10.296  1.00  0.00     0.043 C 
HETATM   20  C30 UNL     1      54.997  40.254  10.319  1.00  0.00    -0.021 C 
HETATM   21  C31 UNL     1      55.391  39.974   8.889  1.00  0.00     0.017 C 
ENDROOT
BRANCH   6  22
HETATM   22  C9  UNL     1      51.219  38.320  15.238  1.00  0.00    -0.013 C 
HETATM   23  C10 UNL     1      51.029  37.290  16.290  1.00  0.00     0.010 C 
BRANCH  22  24
HETATM   24  C11 UNL     1      50.007  39.150  15.070  1.00  0.00     0.014 C 
BRANCH  24  25
HETATM   25  C12 UNL     1      49.766  40.267  16.020  1.00  0.00     0.103 C 
BRANCH  25  26
HETATM   26  C13 UNL     1      49.183  41.467  15.301  1.00  0.00     0.217 C 
HETATM   27  O2  UNL     1      48.750  41.318  14.145  1.00  0.00    -0.274 OA
HETATM   28  N2  UNL     1      49.121  42.735  15.906  1.00  0.00    -0.352 N 
ATOM     29  H2  UNL     1      49.476  42.843  16.856  1.00  0.00     0.162 HD
BRANCH  28  30
HETATM   30  C14 UNL     1      48.583  43.869  15.246  1.00  0.00     0.233 C 
BRANCH  30  31
HETATM   31  C15 UNL     1      48.296  45.032  16.119  1.00  0.00     0.276 C 
HETATM   32  O3  UNL     1      47.437  45.884  15.785  1.00  0.00    -0.263 OA
BRANCH  31  33
HETATM   33  O4  UNL     1      48.945  45.229  17.315  1.00  0.00    -0.325 OA
HETATM   34  C16 UNL     1      48.637  46.282  18.209  1.00  0.00     0.213 C 
ENDBRANCH  31  33
ENDBRANCH  30  31
ENDBRANCH  28  30
ENDBRANCH  25  26
ENDBRANCH  24  25
ENDBRANCH  22  24
ENDBRANCH   6  22
BRANCH   1  35
HETATM   35  C2  UNL     1      53.621  38.385   9.756  1.00  0.00     0.227 C 
HETATM   36  N1  UNL     1      52.398  38.733   9.146  1.00  0.00    -0.365 N 
HETATM   37  C1  UNL     1      51.867  37.979   8.024  1.00  0.00     0.149 C 
ATOM     38  H1  UNL     1      51.874  39.533   9.501  1.00  0.00     0.161 HD
HETATM   39  O1  UNL     1      54.219  37.377   9.256  1.00  0.00    -0.273 OA
ENDBRANCH   1  35
BRANCH  18  40
HETATM   40  O5  UNL     1      55.236  43.786  10.586  1.00  0.00    -0.395 OA
ATOM     41  H5  UNL     1      55.556  44.507  10.058  1.00  0.00     0.210 HD
ENDBRANCH  18  40
TORSDOF 9
ENDMDL
MODEL 3
REMARK VINA RESULT: -7.072370459      2.594      7.470
REMARK  9 active torsions:
REMARK  status: ('A' for Active; 'I' for Inactive)
REMARK       I    between atoms: N1_2  and  C2_4 
REMARK    1  A    between atoms: C2_4  and  C3_6 
REMARK    2  A    between atoms: C8_11  and  C9_12 
REMARK    3  A    between atoms: C9_12  and  C11_14 
REMARK    4  A    between atoms: C11_14  and  C12_15 
REMARK    5  A    between atoms: C12_15  and  C13_16 
REMARK       I    between atoms: C13_16  and  N2_18 
REMARK    6  A    between atoms: N2_18  and  C14_20 
REMARK    7  A    between atoms: C14_20  and  C15_21 
REMARK    8  A    between atoms: C15_21  and  O4_23 
REMARK    9  A    between atoms: C28_36  and  O5_37 
ROOT
HETATM    1  C3  UNL     1      53.510  37.724  11.621  1.00  0.00     0.053 C 
HETATM    2  C4  UNL     1      53.177  38.722  10.504  1.00  0.00     0.021 C 
HETATM    3  C5  UNL     1      52.066  38.347   9.623  1.00  0.00     0.011 C 
HETATM    4  C6  UNL     1      52.372  37.035   8.883  1.00  0.00    -0.032 C 
HETATM    5  C7  UNL     1      51.002  36.524   8.505  1.00  0.00     0.016 C 
HETATM    6  C8  UNL     1      53.202  37.410   7.665  1.00  0.00    -0.002 C 
HETATM    7  C17 UNL     1      54.221  36.285   7.554  1.00  0.00     0.006 C 
HETATM    8  C18 UNL     1      54.526  36.045   9.017  1.00  0.00     0.011 C 
HETATM    9  C19 UNL     1      53.166  36.102   9.690  1.00  0.00    -0.032 C 
HETATM   10  C20 UNL     1      52.661  34.659   9.522  1.00  0.00     0.016 C 
HETATM   11  C21 UNL     1      53.284  36.330  11.173  1.00  0.00     0.013 C 
HETATM   12  C22 UNL     1      52.287  35.496  11.886  1.00  0.00     0.007 C 
HETATM   13  C23 UNL     1      52.018  35.950  13.331  1.00  0.00     0.007 C 
HETATM   14  C24 UNL     1      51.584  37.333  13.199  1.00  0.00     0.005 C 
HETATM   15  C25 UNL     1      50.886  38.011  14.297  1.00  0.00    -0.017 C 
HETATM   16  C26 UNL     1      51.079  37.449  15.667  1.00  0.00     0.018 C 
HETATM   17  C27 UNL     1      49.367  37.944  14.045  1.00  0.00     0.018 C 
HETATM   18  C28 UNL     1      51.290  39.439  14.114  1.00  0.00     0.127 C 
HETATM   19  C29 UNL     1      52.167  39.510  12.864  1.00  0.00     0.043 C 
HETATM   20  C30 UNL     1      52.840  38.154  12.886  1.00  0.00    -0.021 C 
HETATM   21  C31 UNL     1      53.780  38.192  14.066  1.00  0.00     0.017 C 
ENDROOT
BRANCH   6  22
HETATM   22  C9  UNL     1      52.493  37.677   6.416  1.00  0.00    -0.013 C 
HETATM   23  C10 UNL     1      52.756  36.867   5.200  1.00  0.00     0.010 C 
BRANCH  22  24
HETATM   24  C11 UNL     1      52.308  39.106   6.083  1.00  0.00     0.014 C 
BRANCH  24  25
HETATM   25  C12 UNL     1      53.484  39.897   5.637  1.00  0.00     0.103 C 
BRANCH  25  26
HETATM   26  C13 UNL     1      53.896  40.894   6.700  1.00  0.00     0.217 C 
HETATM   27  O2  UNL     1      53.409  42.039   6.667  1.00  0.00    -0.274 OA
HETATM   28  N2  UNL     1      54.807  40.560   7.717  1.00  0.00    -0.352 N 
ATOM     29  H2  UNL     1      55.197  39.617   7.736  1.00  0.00     0.162 HD
BRANCH  28  30
HETATM   30  C14 UNL     1      55.207  41.483   8.718  1.00  0.00     0.233 C 
BRANCH  30  31
HETATM   31  C15 UNL     1      56.670  41.594   8.928  1.00  0.00     0.276 C 
HETATM   32  O3  UNL     1      57.461  40.821   8.336  1.00  0.00    -0.263 OA
BRANCH  31  33
HETATM   33  O4  UNL     1      57.220  42.536   9.767  1.00  0.00    -0.325 OA
HETATM   34  C16 UNL     1      56.554  43.055  10.903  1.00  0.00     0.213 C 
ENDBRANCH  31  33
ENDBRANCH  30  31
ENDBRANCH  28  30
ENDBRANCH  25  26
ENDBRANCH  24  25
ENDBRANCH  22  24
ENDBRANCH   6  22
BRANCH   1  35
HETATM   35  C2  UNL     1      54.985  37.999  11.848  1.00  0.00     0.227 C 
HETATM   36  N1  UNL     1      55.560  39.279  11.710  1.00  0.00    -0.365 N 
HETATM   37  C1  UNL     1      56.977  39.503  11.931  1.00  0.00     0.149 C 
ATOM     38  H1  UNL     1      54.965  40.066  11.450  1.00  0.00     0.161 HD
HETATM   39  O1  UNL     1      55.789  37.066  12.178  1.00  0.00    -0.273 OA
ENDBRANCH   1  35
BRANCH  18  40
HETATM   40  O5  UNL     1      50.168  40.275  13.866  1.00  0.00    -0.395 OA
ATOM     41  H5  UNL     1      49.609  40.350  14.630  1.00  0.00     0.210 HD
ENDBRANCH  18  40
TORSDOF 9
ENDMDL
MODEL 4
REMARK VINA RESULT: -7.030579855      2.194      7.361
REMARK  9 active torsions:
REMARK  status: ('A' for Active; 'I' for Inactive)
REMARK       I    between atoms: N1_2  and  C2_4 
REMARK    1  A    between atoms: C2_4  and  C3_6 
REMARK    2  A    between atoms: C8_11  and  C9_12 
REMARK    3  A    between atoms: C9_12  and  C11_14 
REMARK    4  A    between atoms: C11_14  and  C12_15 
REMARK    5  A    between atoms: C12_15  and  C13_16 
REMARK       I    between atoms: C13_16  and  N2_18 
REMARK    6  A    between atoms: N2_18  and  C14_20 
REMARK    7  A    between atoms: C14_20  and  C15_21 
REMARK    8  A    between atoms: C15_21  and  O4_23 
REMARK    9  A    between atoms: C28_36  and  O5_37 
ROOT
HETATM    1  C3  UNL     1      52.585  38.068  13.996  1.00  0.00     0.053 C 
HETATM    2  C4  UNL     1      52.234  38.843  12.718  1.00  0.00     0.021 C 
HETATM    3  C5  UNL     1      51.307  38.172  11.800  1.00  0.00     0.011 C 
HETATM    4  C6  UNL     1      51.899  36.848  11.293  1.00  0.00    -0.032 C 
HETATM    5  C7  UNL     1      50.680  36.066  10.866  1.00  0.00     0.016 C 
HETATM    6  C8  UNL     1      52.798  37.200  10.117  1.00  0.00    -0.002 C 
HETATM    7  C17 UNL     1      53.986  36.261  10.268  1.00  0.00     0.006 C 
HETATM    8  C18 UNL     1      54.150  36.267  11.773  1.00  0.00     0.011 C 
HETATM    9  C19 UNL     1      52.728  36.177  12.299  1.00  0.00    -0.032 C 
HETATM   10  C20 UNL     1      52.479  34.659  12.297  1.00  0.00     0.016 C 
HETATM   11  C21 UNL     1      52.634  36.610  13.737  1.00  0.00     0.013 C 
HETATM   12  C22 UNL     1      51.703  35.717  14.466  1.00  0.00     0.007 C 
HETATM   13  C23 UNL     1      51.198  36.300  15.797  1.00  0.00     0.007 C 
HETATM   14  C24 UNL     1      50.572  37.560  15.424  1.00  0.00     0.005 C 
HETATM   15  C25 UNL     1      49.653  38.245  16.339  1.00  0.00    -0.017 C 
HETATM   16  C26 UNL     1      49.768  37.905  17.789  1.00  0.00     0.018 C 
HETATM   17  C27 UNL     1      48.203  37.886  15.958  1.00  0.00     0.018 C 
HETATM   18  C28 UNL     1      49.847  39.685  15.989  1.00  0.00     0.127 C 
HETATM   19  C29 UNL     1      50.844  39.743  14.831  1.00  0.00     0.043 C 
HETATM   20  C30 UNL     1      51.712  38.536  15.115  1.00  0.00    -0.021 C 
HETATM   21  C31 UNL     1      52.490  38.886  16.360  1.00  0.00     0.017 C 
ENDROOT
BRANCH   6  22
HETATM   22  C9  UNL     1      52.208  37.179   8.781  1.00  0.00    -0.013 C 
HETATM   23  C10 UNL     1      52.651  36.191   7.765  1.00  0.00     0.010 C 
BRANCH  22  24
HETATM   24  C11 UNL     1      51.961  38.504   8.173  1.00  0.00     0.014 C 
BRANCH  24  25
HETATM   25  C12 UNL     1      52.869  38.980   7.097  1.00  0.00     0.103 C 
BRANCH  25  26
HETATM   26  C13 UNL     1      54.080  39.676   7.683  1.00  0.00     0.217 C 
HETATM   27  O2  UNL     1      55.181  39.533   7.123  1.00  0.00    -0.274 OA
HETATM   28  N2  UNL     1      53.990  40.474   8.837  1.00  0.00    -0.352 N 
ATOM     29  H2  UNL     1      53.080  40.587   9.286  1.00  0.00     0.162 HD
BRANCH  28  30
HETATM   30  C14 UNL     1      55.114  41.129   9.402  1.00  0.00     0.233 C 
BRANCH  30  31
HETATM   31  C15 UNL     1      55.568  40.595  10.708  1.00  0.00     0.276 C 
HETATM   32  O3  UNL     1      55.529  39.363  10.943  1.00  0.00    -0.263 OA
BRANCH  31  33
HETATM   33  O4  UNL     1      56.045  41.412  11.707  1.00  0.00    -0.325 OA
HETATM   34  C16 UNL     1      56.774  42.601  11.465  1.00  0.00     0.213 C 
ENDBRANCH  31  33
ENDBRANCH  30  31
ENDBRANCH  28  30
ENDBRANCH  25  26
ENDBRANCH  24  25
ENDBRANCH  22  24
ENDBRANCH   6  22
BRANCH   1  35
HETATM   35  C2  UNL     1      53.962  38.618  14.318  1.00  0.00     0.227 C 
HETATM   36  N1  UNL     1      54.979  37.846  14.917  1.00  0.00    -0.365 N 
HETATM   37  C1  UNL     1      56.284  38.409  15.215  1.00  0.00     0.149 C 
ATOM     38  H1  UNL     1      54.793  36.870  15.145  1.00  0.00     0.161 HD
HETATM   39  O1  UNL     1      54.269  39.828  14.060  1.00  0.00    -0.273 OA
ENDBRANCH   1  35
BRANCH  18  40
HETATM   40  O5  UNL     1      48.645  40.278  15.515  1.00  0.00    -0.395 OA
ATOM     41  H5  UNL     1      48.549  41.171  15.823  1.00  0.00     0.210 HD
ENDBRANCH  18  40
TORSDOF 9
ENDMDL
MODEL 5
REMARK VINA RESULT: -7.021087630      3.025      8.171
REMARK  9 active torsions:
REMARK  status: ('A' for Active; 'I' for Inactive)
REMARK       I    between atoms: N1_2  and  C2_4 
REMARK    1  A    between atoms: C2_4  and  C3_6 
REMARK    2  A    between atoms: C8_11  and  C9_12 
REMARK    3  A    between atoms: C9_12  and  C11_14 
REMARK    4  A    between atoms: C11_14  and  C12_15 
REMARK    5  A    between atoms: C12_15  and  C13_16 
REMARK       I    between atoms: C13_16  and  N2_18 
REMARK    6  A    between atoms: N2_18  and  C14_20 
REMARK    7  A    between atoms: C14_20  and  C15_21 
REMARK    8  A    between atoms: C15_21  and  O4_23 
REMARK    9  A    between atoms: C28_36  and  O5_37 
ROOT
HETATM    1  C3  UNL     1      53.655  39.226  11.545  1.00  0.00     0.053 C 
HETATM    2  C4  UNL     1      53.234  39.731  10.158  1.00  0.00     0.021 C 
HETATM    3  C5  UNL     1      54.308  39.848   9.168  1.00  0.00     0.011 C 
HETATM    4  C6  UNL     1      55.374  40.854   9.631  1.00  0.00    -0.032 C 
HETATM    5  C7  UNL     1      56.597  40.447   8.845  1.00  0.00     0.016 C 
HETATM    6  C8  UNL     1      54.867  42.232   9.234  1.00  0.00    -0.002 C 
HETATM    7  C17 UNL     1      55.276  43.123  10.399  1.00  0.00     0.006 C 
HETATM    8  C18 UNL     1      55.019  42.188  11.562  1.00  0.00     0.011 C 
HETATM    9  C19 UNL     1      55.559  40.851  11.086  1.00  0.00    -0.032 C 
HETATM   10  C20 UNL     1      57.050  40.956  11.453  1.00  0.00     0.016 C 
HETATM   11  C21 UNL     1      55.013  39.706  11.895  1.00  0.00     0.013 C 
HETATM   12  C22 UNL     1      56.086  38.714  12.141  1.00  0.00     0.007 C 
HETATM   13  C23 UNL     1      55.567  37.331  12.569  1.00  0.00     0.007 C 
HETATM   14  C24 UNL     1      54.685  36.926  11.485  1.00  0.00     0.005 C 
HETATM   15  C25 UNL     1      54.277  35.526  11.328  1.00  0.00    -0.017 C 
HETATM   16  C26 UNL     1      54.364  34.659  12.540  1.00  0.00     0.018 C 
HETATM   17  C27 UNL     1      55.190  34.850  10.285  1.00  0.00     0.018 C 
HETATM   18  C28 UNL     1      52.924  35.642  10.704  1.00  0.00     0.127 C 
HETATM   19  C29 UNL     1      52.649  37.130  10.481  1.00  0.00     0.043 C 
HETATM   20  C30 UNL     1      53.405  37.755  11.635  1.00  0.00    -0.021 C 
HETATM   21  C31 UNL     1      52.638  37.365  12.875  1.00  0.00     0.017 C 
ENDROOT
BRANCH   6  22
HETATM   22  C9  UNL     1      55.274  42.756   7.933  1.00  0.00    -0.013 C 
HETATM   23  C10 UNL     1      56.419  43.692   7.809  1.00  0.00     0.010 C 
BRANCH  22  24
HETATM   24  C11 UNL     1      54.168  43.135   7.027  1.00  0.00     0.014 C 
BRANCH  24  25
HETATM   25  C12 UNL     1      54.012  42.405   5.742  1.00  0.00     0.103 C 
BRANCH  25  26
HETATM   26  C13 UNL     1      53.298  41.086   5.955  1.00  0.00     0.217 C 
HETATM   27  O2  UNL     1      52.184  41.093   6.510  1.00  0.00    -0.274 OA
HETATM   28  N2  UNL     1      53.859  39.865   5.545  1.00  0.00    -0.352 N 
ATOM     29  H2  UNL     1      54.771  39.873   5.088  1.00  0.00     0.162 HD
BRANCH  28  30
HETATM   30  C14 UNL     1      53.206  38.620   5.741  1.00  0.00     0.233 C 
BRANCH  30  31
HETATM   31  C15 UNL     1      54.077  37.516   6.209  1.00  0.00     0.276 C 
HETATM   32  O3  UNL     1      53.821  36.910   7.278  1.00  0.00    -0.263 OA
BRANCH  31  33
HETATM   33  O4  UNL     1      55.187  37.109   5.505  1.00  0.00    -0.325 OA
HETATM   34  C16 UNL     1      55.140  36.655   4.165  1.00  0.00     0.213 C 
ENDBRANCH  31  33
ENDBRANCH  30  31
ENDBRANCH  28  30
ENDBRANCH  25  26
ENDBRANCH  24  25
ENDBRANCH  22  24
ENDBRANCH   6  22
BRANCH   1  35
HETATM   35  C2  UNL     1      52.600  39.857  12.435  1.00  0.00     0.227 C 
HETATM   36  N1  UNL     1      51.238  39.933  12.079  1.00  0.00    -0.365 N 
HETATM   37  C1  UNL     1      50.257  40.550  12.955  1.00  0.00     0.149 C 
ATOM     38  H1  UNL     1      50.935  39.546  11.185  1.00  0.00     0.161 HD
HETATM   39  O1  UNL     1      52.903  40.360  13.566  1.00  0.00    -0.273 OA
ENDBRANCH   1  35
BRANCH  18  40
HETATM   40  O5  UNL     1      52.880  35.029   9.422  1.00  0.00    -0.395 OA
ATOM     41  H5  UNL     1      52.502  35.607   8.769  1.00  0.00     0.210 HD
ENDBRANCH  18  40
TORSDOF 9
ENDMDL
