MODEL 1
REMARK VINA RESULT: -10.486256037      0.000      0.000
REMARK  10 active torsions:
REMARK  status: ('A' for Active; 'I' for Inactive)
REMARK    1  A    between atoms: C2_2  and  C3_3 
REMARK    2  A    between atoms: C2_2  and  C13_20 
REMARK    3  A    between atoms: C3_3  and  C4_4 
REMARK    4  A    between atoms: C4_4  and  C5_5 
REMARK    5  A    between atoms: C5_5  and  N1_7 
REMARK    6  A    between atoms: N1_7  and  C6_9 
REMARK    7  A    between atoms: C6_9  and  C7_10 
REMARK    8  A    between atoms: C7_10  and  N2_11 
REMARK    9  A    between atoms: C24_31  and  O1_32 
REMARK   10  A    between atoms: C27_36  and  O2_37 
ROOT
HETATM    1  N2  UNL     1      55.999  42.162  10.023  1.00  0.00    -0.369 N 
HETATM    2  C8  UNL     1      57.377  41.904   9.598  1.00  0.00     0.124 C 
HETATM    3  C9  UNL     1      57.715  40.541  10.167  1.00  0.00     0.027 C 
HETATM    4  C10 UNL     1      56.960  40.566  11.473  1.00  0.00     0.078 C 
HETATM    5  C11 UNL     1      55.736  41.295  11.114  1.00  0.00     0.088 C 
HETATM    6  N3  UNL     1      54.596  41.180  11.684  1.00  0.00    -0.283 N 
ATOM      7  H3  UNL     1      53.801  41.731  11.361  1.00  0.00     0.179 HD
HETATM    8  C12 UNL     1      54.450  40.297  12.747  1.00  0.00     0.183 C 
HETATM    9  N4  UNL     1      54.337  39.565  13.649  1.00  0.00    -0.172 NA
ENDROOT
BRANCH   1  10
HETATM   10  C7  UNL     1      55.189  43.143   9.358  1.00  0.00     0.143 C 
BRANCH  10  11
HETATM   11  C6  UNL     1      55.983  44.323   8.838  1.00  0.00     0.140 C 
BRANCH  11  12
HETATM   12  N1  UNL     1      55.507  45.504   9.536  1.00  0.00    -0.383 N 
ATOM     13  H1  UNL     1      55.418  45.453  10.550  1.00  0.00     0.160 HD
BRANCH  12  14
HETATM   14  C5  UNL     1      55.158  46.717   8.905  1.00  0.00     0.073 C 
HETATM   15  S1  UNL     1      54.324  46.637   7.479  1.00  0.00    -0.066 SA
BRANCH  14  16
HETATM   16  C4  UNL     1      55.440  48.013   9.487  1.00  0.00     0.069 C 
BRANCH  16  17
HETATM   17  C3  UNL     1      54.987  48.358  10.845  1.00  0.00     0.011 C 
BRANCH  17  18
HETATM   18  C2  UNL     1      55.789  49.205  11.740  1.00  0.00    -0.014 C 
HETATM   19  C1  UNL     1      57.173  49.449  11.043  1.00  0.00     0.010 C 
BRANCH  18  20
HETATM   20  C13 UNL     1      55.247  50.477  12.190  1.00  0.00    -0.006 C 
HETATM   21  C14 UNL     1      56.306  51.163  13.128  1.00  0.00     0.006 C 
HETATM   22  C15 UNL     1      55.516  52.293  13.751  1.00  0.00     0.010 C 
HETATM   23  C16 UNL     1      54.332  51.524  14.214  1.00  0.00    -0.036 C 
HETATM   24  C17 UNL     1      54.715  50.681  15.406  1.00  0.00     0.016 C 
HETATM   25  C18 UNL     1      54.041  50.658  12.967  1.00  0.00    -0.002 C 
HETATM   26  C22 UNL     1      53.106  52.312  14.467  1.00  0.00     0.001 C 
HETATM   27  C19 UNL     1      53.217  49.559  13.494  1.00  0.00     0.006 C 
HETATM   28  C20 UNL     1      51.881  50.175  13.949  1.00  0.00     0.006 C 
HETATM   29  C21 UNL     1      51.963  51.381  14.770  1.00  0.00    -0.005 C 
HETATM   30  C30 UNL     1      50.702  52.227  14.516  1.00  0.00     0.003 C 
HETATM   31  C25 UNL     1      50.681  53.442  15.394  1.00  0.00     0.012 C 
HETATM   32  C29 UNL     1      49.448  51.441  14.794  1.00  0.00     0.008 C 
HETATM   33  C24 UNL     1      51.900  53.627  16.236  1.00  0.00     0.129 C 
HETATM   34  C26 UNL     1      50.468  54.718  14.568  1.00  0.00     0.021 C 
HETATM   35  C27 UNL     1      49.492  53.329  16.310  1.00  0.00     0.129 C 
HETATM   36  C23 UNL     1      53.198  53.332  15.560  1.00  0.00     0.038 C 
HETATM   37  C28 UNL     1      48.852  51.987  16.060  1.00  0.00     0.033 C 
BRANCH  33  38
HETATM   38  O1  UNL     1      51.759  52.949  17.466  1.00  0.00    -0.395 OA
ATOM     39  H1  UNL     1      50.854  52.740  17.669  1.00  0.00     0.210 HD
ENDBRANCH  33  38
BRANCH  35  40
HETATM   40  O2  UNL     1      48.565  54.357  16.125  1.00  0.00    -0.395 OA
ATOM     41  H2  UNL     1      47.672  54.084  16.300  1.00  0.00     0.210 HD
ENDBRANCH  35  40
ENDBRANCH  18  20
ENDBRANCH  17  18
ENDBRANCH  16  17
ENDBRANCH  14  16
ENDBRANCH  12  14
ENDBRANCH  11  12
ENDBRANCH  10  11
ENDBRANCH   1  10
TORSDOF 10
ENDMDL
MODEL 2
REMARK VINA RESULT: -10.426845457      1.565      2.038
REMARK  10 active torsions:
REMARK  status: ('A' for Active; 'I' for Inactive)
REMARK    1  A    between atoms: C2_2  and  C3_3 
REMARK    2  A    between atoms: C2_2  and  C13_20 
REMARK    3  A    between atoms: C3_3  and  C4_4 
REMARK    4  A    between atoms: C4_4  and  C5_5 
REMARK    5  A    between atoms: C5_5  and  N1_7 
REMARK    6  A    between atoms: N1_7  and  C6_9 
REMARK    7  A    between atoms: C6_9  and  C7_10 
REMARK    8  A    between atoms: C7_10  and  N2_11 
REMARK    9  A    between atoms: C24_31  and  O1_32 
REMARK   10  A    between atoms: C27_36  and  O2_37 
ROOT
HETATM    1  N2  UNL     1      54.766  42.350   8.256  1.00  0.00    -0.369 N 
HETATM    2  C8  UNL     1      54.338  42.993   7.012  1.00  0.00     0.124 C 
HETATM    3  C9  UNL     1      53.363  42.019   6.382  1.00  0.00     0.027 C 
HETATM    4  C10 UNL     1      53.966  40.694   6.777  1.00  0.00     0.078 C 
HETATM    5  C11 UNL     1      54.471  40.970   8.130  1.00  0.00     0.088 C 
HETATM    6  N3  UNL     1      54.626  40.110   9.065  1.00  0.00    -0.283 N 
ATOM      7  H3  UNL     1      54.985  40.400   9.975  1.00  0.00     0.179 HD
HETATM    8  C12 UNL     1      54.303  38.779   8.831  1.00  0.00     0.183 C 
HETATM    9  N4  UNL     1      54.043  37.660   8.624  1.00  0.00    -0.172 NA
ENDROOT
BRANCH   1  10
HETATM   10  C7  UNL     1      55.361  43.112   9.318  1.00  0.00     0.143 C 
BRANCH  10  11
HETATM   11  C6  UNL     1      56.060  44.366   8.838  1.00  0.00     0.140 C 
BRANCH  11  12
HETATM   12  N1  UNL     1      55.454  45.490   9.529  1.00  0.00    -0.383 N 
ATOM     13  H1  UNL     1      55.267  45.389  10.526  1.00  0.00     0.160 HD
BRANCH  12  14
HETATM   14  C5  UNL     1      55.107  46.711   8.914  1.00  0.00     0.073 C 
HETATM   15  S1  UNL     1      54.254  46.651   7.498  1.00  0.00    -0.066 SA
BRANCH  14  16
HETATM   16  C4  UNL     1      55.405  48.000   9.504  1.00  0.00     0.069 C 
BRANCH  16  17
HETATM   17  C3  UNL     1      54.939  48.349  10.856  1.00  0.00     0.011 C 
BRANCH  17  18
HETATM   18  C2  UNL     1      55.740  49.185  11.762  1.00  0.00    -0.014 C 
HETATM   19  C1  UNL     1      57.137  49.410  11.085  1.00  0.00     0.010 C 
BRANCH  18  20
HETATM   20  C13 UNL     1      55.210  50.464  12.206  1.00  0.00    -0.006 C 
HETATM   21  C14 UNL     1      56.278  51.148  13.135  1.00  0.00     0.006 C 
HETATM   22  C15 UNL     1      55.498  52.289  13.753  1.00  0.00     0.010 C 
HETATM   23  C16 UNL     1      54.310  51.533  14.226  1.00  0.00    -0.036 C 
HETATM   24  C17 UNL     1      54.691  50.695  15.422  1.00  0.00     0.016 C 
HETATM   25  C18 UNL     1      54.008  50.661  12.985  1.00  0.00    -0.002 C 
HETATM   26  C22 UNL     1      53.092  52.332  14.477  1.00  0.00     0.001 C 
HETATM   27  C19 UNL     1      53.177  49.572  13.523  1.00  0.00     0.006 C 
HETATM   28  C20 UNL     1      51.848  50.201  13.978  1.00  0.00     0.006 C 
HETATM   29  C21 UNL     1      51.942  51.412  14.791  1.00  0.00    -0.005 C 
HETATM   30  C30 UNL     1      50.687  52.267  14.535  1.00  0.00     0.003 C 
HETATM   31  C25 UNL     1      50.679  53.488  15.404  1.00  0.00     0.012 C 
HETATM   32  C29 UNL     1      49.428  51.492  14.822  1.00  0.00     0.008 C 
HETATM   33  C24 UNL     1      51.902  53.668  16.241  1.00  0.00     0.129 C 
HETATM   34  C26 UNL     1      50.472  54.759  14.570  1.00  0.00     0.021 C 
HETATM   35  C27 UNL     1      49.492  53.390  16.325  1.00  0.00     0.129 C 
HETATM   36  C23 UNL     1      53.195  53.359  15.563  1.00  0.00     0.038 C 
HETATM   37  C28 UNL     1      48.840  52.051  16.087  1.00  0.00     0.033 C 
BRANCH  33  38
HETATM   38  O1  UNL     1      51.760  53.000  17.477  1.00  0.00    -0.395 OA
ATOM     39  H1  UNL     1      52.434  53.237  18.102  1.00  0.00     0.210 HD
ENDBRANCH  33  38
BRANCH  35  40
HETATM   40  O2  UNL     1      48.572  54.424  16.136  1.00  0.00    -0.395 OA
ATOM     41  H2  UNL     1      47.947  54.239  15.445  1.00  0.00     0.210 HD
ENDBRANCH  35  40
ENDBRANCH  18  20
ENDBRANCH  17  18
ENDBRANCH  16  17
ENDBRANCH  14  16
ENDBRANCH  12  14
ENDBRANCH  11  12
ENDBRANCH  10  11
ENDBRANCH   1  10
TORSDOF 10
ENDMDL
MODEL 3
REMARK VINA RESULT: -10.383811994      2.327      3.683
REMARK  10 active torsions:
REMARK  status: ('A' for Active; 'I' for Inactive)
REMARK    1  A    between atoms: C2_2  and  C3_3 
REMARK    2  A    between atoms: C2_2  and  C13_20 
REMARK    3  A    between atoms: C3_3  and  C4_4 
REMARK    4  A    between atoms: C4_4  and  C5_5 
REMARK    5  A    between atoms: C5_5  and  N1_7 
REMARK    6  A    between atoms: N1_7  and  C6_9 
REMARK    7  A    between atoms: C6_9  and  C7_10 
REMARK    8  A    between atoms: C7_10  and  N2_11 
REMARK    9  A    between atoms: C24_31  and  O1_32 
REMARK   10  A    between atoms: C27_36  and  O2_37 
ROOT
HETATM    1  N2  UNL     1      54.892  43.467   6.915  1.00  0.00    -0.369 N 
HETATM    2  C8  UNL     1      53.856  42.433   6.963  1.00  0.00     0.124 C 
HETATM    3  C9  UNL     1      53.327  42.341   5.546  1.00  0.00     0.027 C 
HETATM    4  C10 UNL     1      53.418  43.779   5.098  1.00  0.00     0.078 C 
HETATM    5  C11 UNL     1      54.658  44.231   5.744  1.00  0.00     0.088 C 
HETATM    6  N3  UNL     1      55.424  45.169   5.330  1.00  0.00    -0.283 N 
ATOM      7  H3  UNL     1      56.267  45.412   5.850  1.00  0.00     0.179 HD
HETATM    8  C12 UNL     1      55.098  45.853   4.165  1.00  0.00     0.183 C 
HETATM    9  N4  UNL     1      54.812  46.435   3.195  1.00  0.00    -0.172 NA
ENDROOT
BRANCH   1  10
HETATM   10  C7  UNL     1      55.892  43.563   7.941  1.00  0.00     0.143 C 
BRANCH  10  11
HETATM   11  C6  UNL     1      55.508  44.496   9.069  1.00  0.00     0.140 C 
BRANCH  11  12
HETATM   12  N1  UNL     1      56.113  45.786   8.786  1.00  0.00    -0.383 N 
ATOM     13  H1  UNL     1      57.117  45.812   8.615  1.00  0.00     0.160 HD
BRANCH  12  14
HETATM   14  C5  UNL     1      55.404  47.004   8.732  1.00  0.00     0.073 C 
HETATM   15  S1  UNL     1      54.017  47.055   7.832  1.00  0.00    -0.066 SA
BRANCH  14  16
HETATM   16  C4  UNL     1      55.802  48.178   9.481  1.00  0.00     0.069 C 
BRANCH  16  17
HETATM   17  C3  UNL     1      55.138  48.543  10.743  1.00  0.00     0.011 C 
BRANCH  17  18
HETATM   18  C2  UNL     1      55.828  49.309  11.792  1.00  0.00    -0.014 C 
HETATM   19  C1  UNL     1      57.302  49.547  11.309  1.00  0.00     0.010 C 
BRANCH  18  20
HETATM   20  C13 UNL     1      55.261  50.570  12.242  1.00  0.00    -0.006 C 
HETATM   21  C14 UNL     1      56.298  51.268  13.195  1.00  0.00     0.006 C 
HETATM   22  C15 UNL     1      55.482  52.382  13.815  1.00  0.00     0.010 C 
HETATM   23  C16 UNL     1      54.306  51.592  14.261  1.00  0.00    -0.036 C 
HETATM   24  C17 UNL     1      54.690  50.749  15.453  1.00  0.00     0.016 C 
HETATM   25  C18 UNL     1      54.043  50.728  13.006  1.00  0.00    -0.002 C 
HETATM   26  C22 UNL     1      53.065  52.358  14.504  1.00  0.00     0.001 C 
HETATM   27  C19 UNL     1      53.231  49.612  13.519  1.00  0.00     0.006 C 
HETATM   28  C20 UNL     1      51.881  50.204  13.962  1.00  0.00     0.006 C 
HETATM   29  C21 UNL     1      51.934  51.406  14.790  1.00  0.00    -0.005 C 
HETATM   30  C30 UNL     1      50.662  52.234  14.526  1.00  0.00     0.003 C 
HETATM   31  C25 UNL     1      50.612  53.444  15.409  1.00  0.00     0.012 C 
HETATM   32  C29 UNL     1      49.419  51.425  14.786  1.00  0.00     0.008 C 
HETATM   33  C24 UNL     1      51.818  53.644  16.266  1.00  0.00     0.129 C 
HETATM   34  C26 UNL     1      50.387  54.720  14.587  1.00  0.00     0.021 C 
HETATM   35  C27 UNL     1      49.414  53.306  16.311  1.00  0.00     0.129 C 
HETATM   36  C23 UNL     1      53.128  53.374  15.603  1.00  0.00     0.038 C 
HETATM   37  C28 UNL     1      48.799  51.955  16.048  1.00  0.00     0.033 C 
BRANCH  33  38
HETATM   38  O1  UNL     1      51.674  52.957  17.491  1.00  0.00    -0.395 OA
ATOM     39  H1  UNL     1      52.197  53.336  18.188  1.00  0.00     0.210 HD
ENDBRANCH  33  38
BRANCH  35  40
HETATM   40  O2  UNL     1      48.473  54.320  16.121  1.00  0.00    -0.395 OA
ATOM     41  H2  UNL     1      47.876  54.138  15.405  1.00  0.00     0.210 HD
ENDBRANCH  35  40
ENDBRANCH  18  20
ENDBRANCH  17  18
ENDBRANCH  16  17
ENDBRANCH  14  16
ENDBRANCH  12  14
ENDBRANCH  11  12
ENDBRANCH  10  11
ENDBRANCH   1  10
TORSDOF 10
ENDMDL
MODEL 4
REMARK VINA RESULT: -10.174499828      1.639      2.443
REMARK  10 active torsions:
REMARK  status: ('A' for Active; 'I' for Inactive)
REMARK    1  A    between atoms: C2_2  and  C3_3 
REMARK    2  A    between atoms: C2_2  and  C13_20 
REMARK    3  A    between atoms: C3_3  and  C4_4 
REMARK    4  A    between atoms: C4_4  and  C5_5 
REMARK    5  A    between atoms: C5_5  and  N1_7 
REMARK    6  A    between atoms: N1_7  and  C6_9 
REMARK    7  A    between atoms: C6_9  and  C7_10 
REMARK    8  A    between atoms: C7_10  and  N2_11 
REMARK    9  A    between atoms: C24_31  and  O1_32 
REMARK   10  A    between atoms: C27_36  and  O2_37 
ROOT
HETATM    1  N2  UNL     1      55.116  42.083   8.937  1.00  0.00    -0.369 N 
HETATM    2  C8  UNL     1      55.568  40.714   9.198  1.00  0.00     0.124 C 
HETATM    3  C9  UNL     1      55.359  39.976   7.892  1.00  0.00     0.027 C 
HETATM    4  C10 UNL     1      54.105  40.633   7.372  1.00  0.00     0.078 C 
HETATM    5  C11 UNL     1      54.288  42.031   7.788  1.00  0.00     0.088 C 
HETATM    6  N3  UNL     1      53.787  43.059   7.213  1.00  0.00    -0.283 N 
ATOM      7  H3  UNL     1      53.972  43.993   7.577  1.00  0.00     0.179 HD
HETATM    8  C12 UNL     1      52.988  42.891   6.088  1.00  0.00     0.183 C 
HETATM    9  N4  UNL     1      52.306  42.744   5.153  1.00  0.00    -0.172 NA
ENDROOT
BRANCH   1  10
HETATM   10  C7  UNL     1      55.522  43.171   9.781  1.00  0.00     0.143 C 
BRANCH  10  11
HETATM   11  C6  UNL     1      55.996  44.384   9.009  1.00  0.00     0.140 C 
BRANCH  11  12
HETATM   12  N1  UNL     1      55.409  45.553   9.640  1.00  0.00    -0.383 N 
ATOM     13  H1  UNL     1      55.228  45.511  10.642  1.00  0.00     0.160 HD
BRANCH  12  14
HETATM   14  C5  UNL     1      55.073  46.742   8.959  1.00  0.00     0.073 C 
HETATM   15  S1  UNL     1      54.352  46.609   7.476  1.00  0.00    -0.066 SA
BRANCH  14  16
HETATM   16  C4  UNL     1      55.270  48.058   9.533  1.00  0.00     0.069 C 
BRANCH  16  17
HETATM   17  C3  UNL     1      54.935  48.337  10.940  1.00  0.00     0.011 C 
BRANCH  17  18
HETATM   18  C2  UNL     1      55.777  49.201  11.781  1.00  0.00    -0.014 C 
HETATM   19  C1  UNL     1      57.124  49.440  11.013  1.00  0.00     0.010 C 
BRANCH  18  20
HETATM   20  C13 UNL     1      55.252  50.477  12.239  1.00  0.00    -0.006 C 
HETATM   21  C14 UNL     1      56.313  51.137  13.192  1.00  0.00     0.006 C 
HETATM   22  C15 UNL     1      55.536  52.274  13.819  1.00  0.00     0.010 C 
HETATM   23  C16 UNL     1      54.335  51.521  14.264  1.00  0.00    -0.036 C 
HETATM   24  C17 UNL     1      54.694  50.660  15.451  1.00  0.00     0.016 C 
HETATM   25  C18 UNL     1      54.042  50.671  13.006  1.00  0.00    -0.002 C 
HETATM   26  C22 UNL     1      53.121  52.326  14.514  1.00  0.00     0.001 C 
HETATM   27  C19 UNL     1      53.195  49.581  13.516  1.00  0.00     0.006 C 
HETATM   28  C20 UNL     1      51.866  50.214  13.965  1.00  0.00     0.006 C 
HETATM   29  C21 UNL     1      51.959  51.410  14.798  1.00  0.00    -0.005 C 
HETATM   30  C30 UNL     1      50.715  52.280  14.541  1.00  0.00     0.003 C 
HETATM   31  C25 UNL     1      50.706  53.487  15.430  1.00  0.00     0.012 C 
HETATM   32  C29 UNL     1      49.446  51.511  14.800  1.00  0.00     0.008 C 
HETATM   33  C24 UNL     1      51.920  53.643  16.285  1.00  0.00     0.129 C 
HETATM   34  C26 UNL     1      50.521  54.773  14.614  1.00  0.00     0.021 C 
HETATM   35  C27 UNL     1      49.507  53.384  16.334  1.00  0.00     0.129 C 
HETATM   36  C23 UNL     1      53.219  53.334  15.617  1.00  0.00     0.038 C 
HETATM   37  C28 UNL     1      48.847  52.055  16.066  1.00  0.00     0.033 C 
BRANCH  33  38
HETATM   38  O1  UNL     1      51.757  52.956  17.507  1.00  0.00    -0.395 OA
ATOM     39  H1  UNL     1      51.210  53.429  18.124  1.00  0.00     0.210 HD
ENDBRANCH  33  38
BRANCH  35  40
HETATM   40  O2  UNL     1      48.598  54.428  16.151  1.00  0.00    -0.395 OA
ATOM     41  H2  UNL     1      48.202  54.719  16.964  1.00  0.00     0.210 HD
ENDBRANCH  35  40
ENDBRANCH  18  20
ENDBRANCH  17  18
ENDBRANCH  16  17
ENDBRANCH  14  16
ENDBRANCH  12  14
ENDBRANCH  11  12
ENDBRANCH  10  11
ENDBRANCH   1  10
TORSDOF 10
ENDMDL
MODEL 5
REMARK VINA RESULT: -10.160697852      2.549      3.501
REMARK  10 active torsions:
REMARK  status: ('A' for Active; 'I' for Inactive)
REMARK    1  A    between atoms: C2_2  and  C3_3 
REMARK    2  A    between atoms: C2_2  and  C13_20 
REMARK    3  A    between atoms: C3_3  and  C4_4 
REMARK    4  A    between atoms: C4_4  and  C5_5 
REMARK    5  A    between atoms: C5_5  and  N1_7 
REMARK    6  A    between atoms: N1_7  and  C6_9 
REMARK    7  A    between atoms: C6_9  and  C7_10 
REMARK    8  A    between atoms: C7_10  and  N2_11 
REMARK    9  A    between atoms: C24_31  and  O1_32 
REMARK   10  A    between atoms: C27_36  and  O2_37 
ROOT
HETATM    1  N2  UNL     1      55.375  44.814   5.796  1.00  0.00    -0.369 N 
HETATM    2  C8  UNL     1      55.481  45.865   4.780  1.00  0.00     0.124 C 
HETATM    3  C9  UNL     1      54.151  45.844   4.054  1.00  0.00     0.027 C 
HETATM    4  C10 UNL     1      53.822  44.372   4.074  1.00  0.00     0.078 C 
HETATM    5  C11 UNL     1      54.321  43.957   5.392  1.00  0.00     0.088 C 
HETATM    6  N3  UNL     1      53.884  42.976   6.088  1.00  0.00    -0.283 N 
ATOM      7  H3  UNL     1      54.297  42.765   6.996  1.00  0.00     0.179 HD
HETATM    8  C12 UNL     1      52.842  42.199   5.595  1.00  0.00     0.183 C 
HETATM    9  N4  UNL     1      51.977  41.541   5.169  1.00  0.00    -0.172 NA
ENDROOT
BRANCH   1  10
HETATM   10  C7  UNL     1      56.251  44.791   6.933  1.00  0.00     0.143 C 
BRANCH  10  11
HETATM   11  C6  UNL     1      55.520  44.651   8.251  1.00  0.00     0.140 C 
BRANCH  11  12
HETATM   12  N1  UNL     1      55.857  45.810   9.057  1.00  0.00    -0.383 N 
ATOM     13  H1  UNL     1      56.555  45.692   9.791  1.00  0.00     0.160 HD
BRANCH  12  14
HETATM   14  C5  UNL     1      55.286  47.090   8.893  1.00  0.00     0.073 C 
HETATM   15  S1  UNL     1      54.000  47.238   7.864  1.00  0.00    -0.066 SA
BRANCH  14  16
HETATM   16  C4  UNL     1      55.733  48.250   9.636  1.00  0.00     0.069 C 
BRANCH  16  17
HETATM   17  C3  UNL     1      55.245  48.522  10.998  1.00  0.00     0.011 C 
BRANCH  17  18
HETATM   18  C2  UNL     1      55.975  49.400  11.924  1.00  0.00    -0.014 C 
HETATM   19  C1  UNL     1      57.375  49.702  11.283  1.00  0.00     0.010 C 
BRANCH  18  20
HETATM   20  C13 UNL     1      55.364  50.648  12.353  1.00  0.00    -0.006 C 
HETATM   21  C14 UNL     1      56.357  51.376  13.331  1.00  0.00     0.006 C 
HETATM   22  C15 UNL     1      55.496  52.471  13.923  1.00  0.00     0.010 C 
HETATM   23  C16 UNL     1      54.328  51.654  14.339  1.00  0.00    -0.036 C 
HETATM   24  C17 UNL     1      54.699  50.825  15.545  1.00  0.00     0.016 C 
HETATM   25  C18 UNL     1      54.122  50.778  13.082  1.00  0.00    -0.002 C 
HETATM   26  C22 UNL     1      53.062  52.390  14.544  1.00  0.00     0.001 C 
HETATM   27  C19 UNL     1      53.324  49.645  13.577  1.00  0.00     0.006 C 
HETATM   28  C20 UNL     1      51.948  50.204  13.979  1.00  0.00     0.006 C 
HETATM   29  C21 UNL     1      51.947  51.411  14.803  1.00  0.00    -0.005 C 
HETATM   30  C30 UNL     1      50.663  52.205  14.499  1.00  0.00     0.003 C 
HETATM   31  C25 UNL     1      50.558  53.417  15.375  1.00  0.00     0.012 C 
HETATM   32  C29 UNL     1      49.433  51.367  14.728  1.00  0.00     0.008 C 
HETATM   33  C24 UNL     1      51.735  53.650  16.265  1.00  0.00     0.129 C 
HETATM   34  C26 UNL     1      50.324  54.683  14.541  1.00  0.00     0.021 C 
HETATM   35  C27 UNL     1      49.339  53.252  16.244  1.00  0.00     0.129 C 
HETATM   36  C23 UNL     1      53.068  53.411  15.640  1.00  0.00     0.038 C 
HETATM   37  C28 UNL     1      48.766  51.885  15.970  1.00  0.00     0.033 C 
BRANCH  33  38
HETATM   38  O1  UNL     1      51.573  52.965  17.489  1.00  0.00    -0.395 OA
ATOM     39  H1  UNL     1      51.508  53.552  18.232  1.00  0.00     0.210 HD
ENDBRANCH  33  38
BRANCH  35  40
HETATM   40  O2  UNL     1      48.379  54.241  16.023  1.00  0.00    -0.395 OA
ATOM     41  H2  UNL     1      48.725  55.120  16.122  1.00  0.00     0.210 HD
ENDBRANCH  35  40
ENDBRANCH  18  20
ENDBRANCH  17  18
ENDBRANCH  16  17
ENDBRANCH  14  16
ENDBRANCH  12  14
ENDBRANCH  11  12
ENDBRANCH  10  11
ENDBRANCH   1  10
TORSDOF 10
ENDMDL
