MODEL 1
REMARK VINA RESULT: -6.772135536      0.000      0.000
REMARK  8 active torsions:
REMARK  status: ('A' for Active; 'I' for Inactive)
REMARK    1  A    between atoms: C3_3  and  C4_4 
REMARK       I    between atoms: C4_4  and  N1_6 
REMARK    2  A    between atoms: N1_6  and  C5_8 
REMARK    3  A    between atoms: C6_9  and  O2_10 
REMARK    4  A    between atoms: C8_13  and  C9_14 
REMARK    5  A    between atoms: C15_22  and  C16_23 
REMARK    6  A    between atoms: C16_23  and  C18_25 
REMARK    7  A    between atoms: C26_33  and  C27_34 
REMARK    8  A    between atoms: C28_37  and  C30_39 
ROOT
HETATM    1  C5  UNL     1      54.410  39.380  10.812  1.00  0.00     0.134 C 
HETATM    2  C6  UNL     1      54.549  40.381  11.988  1.00  0.00     0.143 C 
HETATM    3  C7  UNL     1      53.871  39.719  13.207  1.00  0.00     0.056 C 
HETATM    4  C8  UNL     1      54.129  38.318  12.742  1.00  0.00     0.075 C 
HETATM    5  C10 UNL     1      53.789  37.157  13.639  1.00  0.00     0.027 C 
HETATM    6  C11 UNL     1      52.358  37.059  13.921  1.00  0.00     0.005 C 
HETATM    7  C12 UNL     1      51.872  36.083  12.835  1.00  0.00     0.000 C 
HETATM    8  C13 UNL     1      50.485  36.288  12.398  1.00  0.00     0.006 C 
HETATM    9  C14 UNL     1      49.804  37.067  13.541  1.00  0.00     0.006 C 
HETATM   10  C15 UNL     1      50.264  36.627  14.889  1.00  0.00    -0.003 C 
HETATM   11  C20 UNL     1      51.714  36.979  15.210  1.00  0.00    -0.039 C 
HETATM   12  C21 UNL     1      51.772  38.370  15.881  1.00  0.00     0.015 C 
HETATM   13  C22 UNL     1      52.155  36.062  16.281  1.00  0.00     0.015 C 
HETATM   14  C23 UNL     1      52.988  35.958  11.920  1.00  0.00    -0.025 C 
HETATM   15  C24 UNL     1      52.864  34.659  11.132  1.00  0.00     0.016 C 
HETATM   16  C25 UNL     1      53.239  37.046  10.926  1.00  0.00     0.034 C 
HETATM   17  C26 UNL     1      53.452  38.419  11.457  1.00  0.00     0.090 C 
HETATM   18  C28 UNL     1      54.115  35.879  12.930  1.00  0.00     0.022 C 
HETATM   19  C29 UNL     1      55.363  35.641  12.193  1.00  0.00     0.024 C 
ENDROOT
BRANCH   1  20
HETATM   20  N1  UNL     1      53.906  40.123   9.679  1.00  0.00    -0.349 N 
HETATM   21  C4  UNL     1      54.715  40.366   8.568  1.00  0.00     0.241 C 
HETATM   22  O1  UNL     1      55.930  39.930   8.531  1.00  0.00    -0.269 OA
ATOM     23  H1  UNL     1      52.949  40.475   9.692  1.00  0.00     0.163 HD
BRANCH  21  24
HETATM   24  C3  UNL     1      54.302  41.096   7.394  1.00  0.00     0.070 C 
HETATM   25  C2  UNL     1      54.322  42.402   7.366  1.00  0.00    -0.026 C 
HETATM   26  C1  UNL     1      53.894  43.166   6.149  1.00  0.00     0.036 C 
ENDBRANCH  21  24
ENDBRANCH   1  20
BRANCH   2  27
HETATM   27  O2  UNL     1      53.988  41.599  11.690  1.00  0.00    -0.393 OA
ATOM     28  H2  UNL     1      53.040  41.569  11.728  1.00  0.00     0.210 HD
ENDBRANCH   2  27
BRANCH  17  29
HETATM   29  C27 UNL     1      52.246  39.129  11.149  1.00  0.00     0.185 C 
HETATM   30  O5  UNL     1      51.448  39.922  11.599  1.00  0.00    -0.647 OA
HETATM   31  O6  UNL     1      51.730  38.848   9.826  1.00  0.00    -0.647 OA
ENDBRANCH  17  29
BRANCH   4  32
HETATM   32  C9  UNL     1      55.583  38.383  12.891  1.00  0.00     0.183 C 
HETATM   33  O3  UNL     1      56.613  38.428  12.288  1.00  0.00    -0.647 OA
HETATM   34  O4  UNL     1      55.961  38.406  14.289  1.00  0.00    -0.647 OA
ENDBRANCH   4  32
BRANCH  18  35
HETATM   35  C30 UNL     1      54.062  34.706  13.828  1.00  0.00     0.241 C 
HETATM   36  O7  UNL     1      54.783  34.659  14.802  1.00  0.00    -0.306 OA
ENDBRANCH  18  35
BRANCH  10  37
HETATM   37  C16 UNL     1      49.295  36.829  15.983  1.00  0.00    -0.014 C 
HETATM   38  C17 UNL     1      48.263  37.894  15.797  1.00  0.00     0.010 C 
BRANCH  37  39
HETATM   39  C18 UNL     1      48.598  35.523  16.298  1.00  0.00     0.000 C 
HETATM   40  C19 UNL     1      47.181  35.513  15.747  1.00  0.00     0.005 C 
ENDBRANCH  37  39
ENDBRANCH  10  37
TORSDOF 8
ENDMDL
MODEL 2
REMARK VINA RESULT: -6.223447256      2.342      3.349
REMARK  8 active torsions:
REMARK  status: ('A' for Active; 'I' for Inactive)
REMARK    1  A    between atoms: C3_3  and  C4_4 
REMARK       I    between atoms: C4_4  and  N1_6 
REMARK    2  A    between atoms: N1_6  and  C5_8 
REMARK    3  A    between atoms: C6_9  and  O2_10 
REMARK    4  A    between atoms: C8_13  and  C9_14 
REMARK    5  A    between atoms: C15_22  and  C16_23 
REMARK    6  A    between atoms: C16_23  and  C18_25 
REMARK    7  A    between atoms: C26_33  and  C27_34 
REMARK    8  A    between atoms: C28_37  and  C30_39 
ROOT
HETATM    1  C5  UNL     1      53.332  37.560   9.835  1.00  0.00     0.134 C 
HETATM    2  C6  UNL     1      52.409  38.795   9.666  1.00  0.00     0.143 C 
HETATM    3  C7  UNL     1      51.798  39.076  11.056  1.00  0.00     0.056 C 
HETATM    4  C8  UNL     1      52.950  38.491  11.815  1.00  0.00     0.075 C 
HETATM    5  C10 UNL     1      52.991  38.600  13.316  1.00  0.00     0.027 C 
HETATM    6  C11 UNL     1      51.888  37.893  13.966  1.00  0.00     0.005 C 
HETATM    7  C12 UNL     1      52.508  36.517  14.266  1.00  0.00     0.000 C 
HETATM    8  C13 UNL     1      51.557  35.399  14.268  1.00  0.00     0.006 C 
HETATM    9  C14 UNL     1      50.172  36.038  14.494  1.00  0.00     0.006 C 
HETATM   10  C15 UNL     1      50.215  37.181  15.450  1.00  0.00    -0.003 C 
HETATM   11  C20 UNL     1      50.950  38.414  14.931  1.00  0.00    -0.039 C 
HETATM   12  C21 UNL     1      49.952  39.341  14.202  1.00  0.00     0.015 C 
HETATM   13  C22 UNL     1      51.356  39.205  16.111  1.00  0.00     0.015 C 
HETATM   14  C23 UNL     1      53.756  36.503  13.530  1.00  0.00    -0.025 C 
HETATM   15  C24 UNL     1      54.702  35.475  14.142  1.00  0.00     0.016 C 
HETATM   16  C25 UNL     1      53.730  36.246  12.058  1.00  0.00     0.034 C 
HETATM   17  C26 UNL     1      52.910  37.162  11.220  1.00  0.00     0.090 C 
HETATM   18  C28 UNL     1      54.221  37.915  13.824  1.00  0.00     0.022 C 
HETATM   19  C29 UNL     1      55.557  38.079  13.236  1.00  0.00     0.024 C 
ENDROOT
BRANCH   1  20
HETATM   20  N1  UNL     1      53.002  36.636   8.774  1.00  0.00    -0.349 N 
HETATM   21  C4  UNL     1      53.736  36.620   7.587  1.00  0.00     0.241 C 
HETATM   22  O1  UNL     1      54.724  37.432   7.414  1.00  0.00    -0.269 OA
ATOM     23  H1  UNL     1      52.224  35.987   8.893  1.00  0.00     0.163 HD
BRANCH  21  24
HETATM   24  C3  UNL     1      53.482  35.737   6.474  1.00  0.00     0.070 C 
HETATM   25  C2  UNL     1      53.396  36.192   5.252  1.00  0.00    -0.026 C 
HETATM   26  C1  UNL     1      53.132  35.278   4.094  1.00  0.00     0.036 C 
ENDBRANCH  21  24
ENDBRANCH   1  20
BRANCH   2  27
HETATM   27  O2  UNL     1      51.442  38.582   8.715  1.00  0.00    -0.393 OA
ATOM     28  H2  UNL     1      50.740  39.219   8.777  1.00  0.00     0.210 HD
ENDBRANCH   2  27
BRANCH  17  29
HETATM   29  C27 UNL     1      51.759  36.396  10.848  1.00  0.00     0.185 C 
HETATM   30  O5  UNL     1      50.590  36.492  10.542  1.00  0.00    -0.647 OA
HETATM   31  O6  UNL     1      52.004  34.970  10.792  1.00  0.00    -0.647 OA
ENDBRANCH  17  29
BRANCH   4  32
HETATM   32  C9  UNL     1      53.916  39.517  11.423  1.00  0.00     0.183 C 
HETATM   33  O3  UNL     1      54.834  39.750  10.696  1.00  0.00    -0.647 OA
HETATM   34  O4  UNL     1      53.715  40.735  12.181  1.00  0.00    -0.647 OA
ENDBRANCH   4  32
BRANCH  18  35
HETATM   35  C30 UNL     1      54.478  38.200  15.252  1.00  0.00     0.241 C 
HETATM   36  O7  UNL     1      54.850  39.304  15.589  1.00  0.00    -0.306 OA
ENDBRANCH  18  35
BRANCH  10  37
HETATM   37  C16 UNL     1      48.961  37.439  16.182  1.00  0.00    -0.014 C 
HETATM   38  C17 UNL     1      47.681  37.102  15.489  1.00  0.00     0.010 C 
BRANCH  37  39
HETATM   39  C18 UNL     1      48.993  36.733  17.520  1.00  0.00     0.000 C 
HETATM   40  C19 UNL     1      49.193  37.722  18.657  1.00  0.00     0.005 C 
ENDBRANCH  37  39
ENDBRANCH  10  37
TORSDOF 8
ENDMDL
MODEL 3
REMARK VINA RESULT: -6.076111625      2.641      7.638
REMARK  8 active torsions:
REMARK  status: ('A' for Active; 'I' for Inactive)
REMARK    1  A    between atoms: C3_3  and  C4_4 
REMARK       I    between atoms: C4_4  and  N1_6 
REMARK    2  A    between atoms: N1_6  and  C5_8 
REMARK    3  A    between atoms: C6_9  and  O2_10 
REMARK    4  A    between atoms: C8_13  and  C9_14 
REMARK    5  A    between atoms: C15_22  and  C16_23 
REMARK    6  A    between atoms: C16_23  and  C18_25 
REMARK    7  A    between atoms: C26_33  and  C27_34 
REMARK    8  A    between atoms: C28_37  and  C30_39 
ROOT
HETATM    1  C5  UNL     1      52.251  37.623  15.558  1.00  0.00     0.134 C 
HETATM    2  C6  UNL     1      51.886  39.124  15.693  1.00  0.00     0.143 C 
HETATM    3  C7  UNL     1      52.482  39.831  14.456  1.00  0.00     0.056 C 
HETATM    4  C8  UNL     1      52.414  38.618  13.579  1.00  0.00     0.075 C 
HETATM    5  C10 UNL     1      52.760  38.730  12.118  1.00  0.00     0.027 C 
HETATM    6  C11 UNL     1      54.153  39.113  11.893  1.00  0.00     0.005 C 
HETATM    7  C12 UNL     1      54.849  37.750  11.732  1.00  0.00     0.000 C 
HETATM    8  C13 UNL     1      56.250  37.717  12.170  1.00  0.00     0.006 C 
HETATM    9  C14 UNL     1      56.720  39.185  12.153  1.00  0.00     0.006 C 
HETATM   10  C15 UNL     1      56.156  39.956  11.008  1.00  0.00    -0.003 C 
HETATM   11  C20 UNL     1      54.652  40.203  11.091  1.00  0.00    -0.039 C 
HETATM   12  C21 UNL     1      54.387  41.530  11.837  1.00  0.00     0.015 C 
HETATM   13  C22 UNL     1      54.183  40.480   9.717  1.00  0.00     0.015 C 
HETATM   14  C23 UNL     1      53.860  36.775  12.145  1.00  0.00    -0.025 C 
HETATM   15  C24 UNL     1      54.196  35.415  11.543  1.00  0.00     0.016 C 
HETATM   16  C25 UNL     1      53.619  36.556  13.604  1.00  0.00     0.034 C 
HETATM   17  C26 UNL     1      53.218  37.737  14.414  1.00  0.00     0.090 C 
HETATM   18  C28 UNL     1      52.639  37.380  11.481  1.00  0.00     0.022 C 
HETATM   19  C29 UNL     1      51.510  36.465  11.698  1.00  0.00     0.024 C 
ENDROOT
BRANCH   1  20
HETATM   20  N1  UNL     1      52.806  37.206  16.826  1.00  0.00    -0.349 N 
HETATM   21  C4  UNL     1      52.161  36.245  17.606  1.00  0.00     0.241 C 
HETATM   22  O1  UNL     1      51.056  35.709  17.208  1.00  0.00    -0.269 OA
ATOM     23  H1  UNL     1      53.679  37.620  17.156  1.00  0.00     0.163 HD
BRANCH  21  24
HETATM   24  C3  UNL     1      52.636  35.767  18.882  1.00  0.00     0.070 C 
HETATM   25  C2  UNL     1      53.909  35.772  19.177  1.00  0.00    -0.026 C 
HETATM   26  C1  UNL     1      54.407  35.277  20.500  1.00  0.00     0.036 C 
ENDBRANCH  21  24
ENDBRANCH   1  20
BRANCH   2  27
HETATM   27  O2  UNL     1      52.358  39.661  16.866  1.00  0.00    -0.393 OA
ATOM     28  H2  UNL     1      52.319  40.609  16.860  1.00  0.00     0.210 HD
ENDBRANCH   2  27
BRANCH  17  29
HETATM   29  C27 UNL     1      54.378  38.070  15.187  1.00  0.00     0.185 C 
HETATM   30  O5  UNL     1      54.967  38.999  15.696  1.00  0.00    -0.647 OA
HETATM   31  O6  UNL     1      55.197  36.926  15.525  1.00  0.00    -0.647 OA
ENDBRANCH  17  29
BRANCH   4  32
HETATM   32  C9  UNL     1      50.953  38.561  13.528  1.00  0.00     0.183 C 
HETATM   33  O3  UNL     1      50.002  37.898  13.815  1.00  0.00    -0.647 OA
HETATM   34  O4  UNL     1      50.409  39.746  12.894  1.00  0.00    -0.647 OA
ENDBRANCH   4  32
BRANCH  18  35
HETATM   35  C30 UNL     1      52.702  37.444  10.006  1.00  0.00     0.241 C 
HETATM   36  O7  UNL     1      51.791  37.947   9.384  1.00  0.00    -0.306 OA
ENDBRANCH  18  35
BRANCH  10  37
HETATM   37  C16 UNL     1      56.972  41.097  10.552  1.00  0.00    -0.014 C 
HETATM   38  C17 UNL     1      57.988  41.638  11.506  1.00  0.00     0.010 C 
BRANCH  37  39
HETATM   39  C18 UNL     1      57.662  40.748   9.251  1.00  0.00     0.000 C 
HETATM   40  C19 UNL     1      57.231  41.686   8.135  1.00  0.00     0.005 C 
ENDBRANCH  37  39
ENDBRANCH  10  37
TORSDOF 8
ENDMDL
MODEL 4
REMARK VINA RESULT: -5.913619724      2.509      3.315
REMARK  8 active torsions:
REMARK  status: ('A' for Active; 'I' for Inactive)
REMARK    1  A    between atoms: C3_3  and  C4_4 
REMARK       I    between atoms: C4_4  and  N1_6 
REMARK    2  A    between atoms: N1_6  and  C5_8 
REMARK    3  A    between atoms: C6_9  and  O2_10 
REMARK    4  A    between atoms: C8_13  and  C9_14 
REMARK    5  A    between atoms: C15_22  and  C16_23 
REMARK    6  A    between atoms: C16_23  and  C18_25 
REMARK    7  A    between atoms: C26_33  and  C27_34 
REMARK    8  A    between atoms: C28_37  and  C30_39 
ROOT
HETATM    1  C5  UNL     1      53.441  37.445   8.690  1.00  0.00     0.134 C 
HETATM    2  C6  UNL     1      52.590  38.741   8.728  1.00  0.00     0.143 C 
HETATM    3  C7  UNL     1      52.013  38.841  10.157  1.00  0.00     0.056 C 
HETATM    4  C8  UNL     1      53.138  38.085  10.795  1.00  0.00     0.075 C 
HETATM    5  C10 UNL     1      53.204  37.963  12.294  1.00  0.00     0.027 C 
HETATM    6  C11 UNL     1      52.070  37.229  12.854  1.00  0.00     0.005 C 
HETATM    7  C12 UNL     1      52.613  35.791  12.930  1.00  0.00     0.000 C 
HETATM    8  C13 UNL     1      51.598  34.740  12.784  1.00  0.00     0.006 C 
HETATM    9  C14 UNL     1      50.256  35.414  13.132  1.00  0.00     0.006 C 
HETATM   10  C15 UNL     1      50.378  36.394  14.248  1.00  0.00    -0.003 C 
HETATM   11  C20 UNL     1      51.176  37.649  13.905  1.00  0.00    -0.039 C 
HETATM   12  C21 UNL     1      50.225  38.730  13.346  1.00  0.00     0.015 C 
HETATM   13  C22 UNL     1      51.642  38.228  15.183  1.00  0.00     0.015 C 
HETATM   14  C23 UNL     1      53.849  35.818  12.174  1.00  0.00    -0.025 C 
HETATM   15  C24 UNL     1      54.740  34.659  12.604  1.00  0.00     0.016 C 
HETATM   16  C25 UNL     1      53.790  35.789  10.681  1.00  0.00     0.034 C 
HETATM   17  C26 UNL     1      53.014  36.866  10.008  1.00  0.00     0.090 C 
HETATM   18  C28 UNL     1      54.399  37.142  12.667  1.00  0.00     0.022 C 
HETATM   19  C29 UNL     1      55.735  37.318  12.083  1.00  0.00     0.024 C 
ENDROOT
BRANCH   1  20
HETATM   20  N1  UNL     1      53.045  36.712   7.509  1.00  0.00    -0.349 N 
HETATM   21  C4  UNL     1      53.784  36.805   6.329  1.00  0.00     0.241 C 
HETATM   22  O1  UNL     1      54.838  37.548   6.270  1.00  0.00    -0.269 OA
ATOM     23  H1  UNL     1      52.214  36.119   7.538  1.00  0.00     0.163 HD
BRANCH  21  24
HETATM   24  C3  UNL     1      53.467  36.113   5.103  1.00  0.00     0.070 C 
HETATM   25  C2  UNL     1      52.957  36.745   4.080  1.00  0.00    -0.026 C 
HETATM   26  C1  UNL     1      52.626  36.031   2.804  1.00  0.00     0.036 C 
ENDBRANCH  21  24
ENDBRANCH   1  20
BRANCH   2  27
HETATM   27  O2  UNL     1      51.599  38.728   7.777  1.00  0.00    -0.393 OA
ATOM     28  H2  UNL     1      51.263  39.600   7.607  1.00  0.00     0.210 HD
ENDBRANCH   2  27
BRANCH  17  29
HETATM   29  C27 UNL     1      51.815  36.230   9.549  1.00  0.00     0.185 C 
HETATM   30  O5  UNL     1      50.651  36.437   9.285  1.00  0.00    -0.647 OA
HETATM   31  O6  UNL     1      51.976  34.817   9.276  1.00  0.00    -0.647 OA
ENDBRANCH  17  29
BRANCH   4  32
HETATM   32  C9  UNL     1      54.157  39.103  10.541  1.00  0.00     0.183 C 
HETATM   33  O3  UNL     1      55.136  39.351   9.903  1.00  0.00    -0.647 OA
HETATM   34  O4  UNL     1      53.927  40.281  11.354  1.00  0.00    -0.647 OA
ENDBRANCH   4  32
BRANCH  18  35
HETATM   35  C30 UNL     1      54.690  37.192  14.116  1.00  0.00     0.241 C 
HETATM   36  O7  UNL     1      55.804  37.480  14.498  1.00  0.00    -0.306 OA
ENDBRANCH  18  35
BRANCH  10  37
HETATM   37  C16 UNL     1      49.150  36.608  15.037  1.00  0.00    -0.014 C 
HETATM   38  C17 UNL     1      47.849  36.261  14.388  1.00  0.00     0.010 C 
BRANCH  37  39
HETATM   39  C18 UNL     1      49.251  35.869  16.354  1.00  0.00     0.000 C 
HETATM   40  C19 UNL     1      49.061  36.816  17.529  1.00  0.00     0.005 C 
ENDBRANCH  37  39
ENDBRANCH  10  37
TORSDOF 8
ENDMDL
MODEL 5
REMARK VINA RESULT: -5.690673904      3.347      7.840
REMARK  8 active torsions:
REMARK  status: ('A' for Active; 'I' for Inactive)
REMARK    1  A    between atoms: C3_3  and  C4_4 
REMARK       I    between atoms: C4_4  and  N1_6 
REMARK    2  A    between atoms: N1_6  and  C5_8 
REMARK    3  A    between atoms: C6_9  and  O2_10 
REMARK    4  A    between atoms: C8_13  and  C9_14 
REMARK    5  A    between atoms: C15_22  and  C16_23 
REMARK    6  A    between atoms: C16_23  and  C18_25 
REMARK    7  A    between atoms: C26_33  and  C27_34 
REMARK    8  A    between atoms: C28_37  and  C30_39 
ROOT
HETATM    1  C5  UNL     1      49.560  37.744  16.369  1.00  0.00     0.134 C 
HETATM    2  C6  UNL     1      48.798  38.594  15.319  1.00  0.00     0.143 C 
HETATM    3  C7  UNL     1      49.768  38.795  14.134  1.00  0.00     0.056 C 
HETATM    4  C8  UNL     1      50.524  37.525  14.381  1.00  0.00     0.075 C 
HETATM    5  C10 UNL     1      51.579  37.079  13.403  1.00  0.00     0.027 C 
HETATM    6  C11 UNL     1      52.700  38.015  13.314  1.00  0.00     0.005 C 
HETATM    7  C12 UNL     1      53.699  37.431  14.328  1.00  0.00     0.000 C 
HETATM    8  C13 UNL     1      54.568  38.421  14.977  1.00  0.00     0.006 C 
HETATM    9  C14 UNL     1      54.558  39.650  14.046  1.00  0.00     0.006 C 
HETATM   10  C15 UNL     1      54.545  39.278  12.602  1.00  0.00    -0.003 C 
HETATM   11  C20 UNL     1      53.249  38.626  12.128  1.00  0.00    -0.039 C 
HETATM   12  C21 UNL     1      52.273  39.717  11.634  1.00  0.00     0.015 C 
HETATM   13  C22 UNL     1      53.570  37.869  10.900  1.00  0.00     0.015 C 
HETATM   14  C23 UNL     1      52.950  36.427  15.055  1.00  0.00    -0.025 C 
HETATM   15  C24 UNL     1      53.911  35.425  15.685  1.00  0.00     0.016 C 
HETATM   16  C25 UNL     1      52.007  36.860  16.131  1.00  0.00     0.034 C 
HETATM   17  C26 UNL     1      50.927  37.810  15.750  1.00  0.00     0.090 C 
HETATM   18  C28 UNL     1      52.197  35.807  13.895  1.00  0.00     0.022 C 
HETATM   19  C29 UNL     1      51.431  34.667  14.415  1.00  0.00     0.024 C 
ENDROOT
BRANCH   1  20
HETATM   20  N1  UNL     1      49.402  38.406  17.645  1.00  0.00    -0.349 N 
HETATM   21  C4  UNL     1      48.934  37.707  18.758  1.00  0.00     0.241 C 
HETATM   22  O1  UNL     1      48.633  36.455  18.670  1.00  0.00    -0.269 OA
ATOM     23  H1  UNL     1      49.635  39.396  17.733  1.00  0.00     0.163 HD
BRANCH  21  24
HETATM   24  C3  UNL     1      48.744  38.280  20.069  1.00  0.00     0.070 C 
HETATM   25  C2  UNL     1      47.872  37.784  20.906  1.00  0.00    -0.026 C 
HETATM   26  C1  UNL     1      47.670  38.376  22.268  1.00  0.00     0.036 C 
ENDBRANCH  21  24
ENDBRANCH   1  20
BRANCH   2  27
HETATM   27  O2  UNL     1      48.375  39.791  15.842  1.00  0.00    -0.393 OA
ATOM     28  H2  UNL     1      49.092  40.405  15.942  1.00  0.00     0.210 HD
ENDBRANCH   2  27
BRANCH  17  29
HETATM   29  C27 UNL     1      51.322  39.068  16.310  1.00  0.00     0.185 C 
HETATM   30  O5  UNL     1      51.180  40.266  16.194  1.00  0.00    -0.647 OA
HETATM   31  O6  UNL     1      52.223  38.944  17.437  1.00  0.00    -0.647 OA
ENDBRANCH  17  29
BRANCH   4  32
HETATM   32  C9  UNL     1      49.417  36.630  14.040  1.00  0.00     0.183 C 
HETATM   33  O3  UNL     1      48.522  35.986  14.497  1.00  0.00    -0.647 OA
HETATM   34  O4  UNL     1      49.341  36.422  12.608  1.00  0.00    -0.647 OA
ENDBRANCH   4  32
BRANCH  18  35
HETATM   35  C30 UNL     1      53.050  35.162  12.875  1.00  0.00     0.241 C 
HETATM   36  O7  UNL     1      52.577  34.850  11.802  1.00  0.00    -0.306 OA
ENDBRANCH  18  35
BRANCH  10  37
HETATM   37  C16 UNL     1      55.138  40.272  11.689  1.00  0.00    -0.014 C 
HETATM   38  C17 UNL     1      54.860  41.714  11.970  1.00  0.00     0.010 C 
BRANCH  37  39
HETATM   39  C18 UNL     1      56.635  40.070  11.612  1.00  0.00     0.000 C 
HETATM   40  C19 UNL     1      57.323  41.290  11.021  1.00  0.00     0.005 C 
ENDBRANCH  37  39
ENDBRANCH  10  37
TORSDOF 8
ENDMDL
