MODEL 1
REMARK VINA RESULT: -6.520390959      0.000      0.000
REMARK  7 active torsions:
REMARK  status: ('A' for Active; 'I' for Inactive)
REMARK    1  A    between atoms: C2_2  and  C3_3 
REMARK    2  A    between atoms: C3_3  and  C4_4 
REMARK    3  A    between atoms: C4_4  and  N1_5 
REMARK    4  A    between atoms: N1_5  and  C5_7 
REMARK    5  A    between atoms: C5_7  and  C6_8 
REMARK    6  A    between atoms: C6_8  and  C7_9 
REMARK    7  A    between atoms: C7_9  and  C8_10 
ROOT
HETATM    1  C5  UNL     1      11.913  -3.703   1.216  1.00  0.00     0.113 C 
ENDROOT
BRANCH   1   2
HETATM    2  N1  UNL     1      10.629  -4.091   0.748  1.00  0.00    -0.421 N 
ATOM      3  H1  UNL     1      10.132  -4.902   1.117  1.00  0.00     0.153 HD
BRANCH   2   4
HETATM    4  C4  UNL     1      10.088  -3.263  -0.275  1.00  0.00     0.117 C 
BRANCH   4   5
HETATM    5  C3  UNL     1       9.084  -2.250   0.155  1.00  0.00     0.045 C 
BRANCH   5   6
HETATM    6  C2  UNL     1       8.247  -2.606   1.301  1.00  0.00    -0.035 C 
HETATM    7  C1  UNL     1       6.943  -2.707   1.242  1.00  0.00     0.007 C 
ENDBRANCH   5   6
ENDBRANCH   4   5
ENDBRANCH   2   4
ENDBRANCH   1   2
BRANCH   1   8
HETATM    8  C6  UNL     1      12.952  -3.496   0.136  1.00  0.00     0.020 C 
BRANCH   8   9
HETATM    9  C7  UNL     1      13.676  -4.805  -0.065  1.00  0.00     0.006 C 
BRANCH   9  10
HETATM   10  C8  UNL     1      15.074  -4.655  -0.530  1.00  0.00    -0.014 C 
HETATM   11  C9  UNL     1      16.015  -5.809  -0.243  1.00  0.00     0.009 C 
HETATM   12  C10 UNL     1      16.713  -5.417  -1.555  1.00  0.00    -0.018 C 
HETATM   13  C11 UNL     1      17.634  -4.258  -1.289  1.00  0.00     0.010 C 
HETATM   14  C12 UNL     1      15.345  -4.907  -2.001  1.00  0.00     0.009 C 
ENDBRANCH   9  10
ENDBRANCH   8   9
ENDBRANCH   1   8
TORSDOF 7
ENDMDL
MODEL 2
REMARK VINA RESULT: -6.484781690      1.043      1.608
REMARK  7 active torsions:
REMARK  status: ('A' for Active; 'I' for Inactive)
REMARK    1  A    between atoms: C2_2  and  C3_3 
REMARK    2  A    between atoms: C3_3  and  C4_4 
REMARK    3  A    between atoms: C4_4  and  N1_5 
REMARK    4  A    between atoms: N1_5  and  C5_7 
REMARK    5  A    between atoms: C5_7  and  C6_8 
REMARK    6  A    between atoms: C6_8  and  C7_9 
REMARK    7  A    between atoms: C7_9  and  C8_10 
ROOT
HETATM    1  C5  UNL     1      12.780  -3.209   0.090  1.00  0.00     0.113 C 
ENDROOT
BRANCH   1   2
HETATM    2  N1  UNL     1      12.331  -4.358   0.796  1.00  0.00    -0.421 N 
ATOM      3  H1  UNL     1      12.949  -5.135   1.030  1.00  0.00     0.153 HD
BRANCH   2   4
HETATM    4  C4  UNL     1      10.954  -4.341   1.154  1.00  0.00     0.117 C 
BRANCH   4   5
HETATM    5  C3  UNL     1      10.081  -3.412   0.383  1.00  0.00     0.045 C 
BRANCH   5   6
HETATM    6  C2  UNL     1       9.217  -2.528   1.166  1.00  0.00    -0.035 C 
HETATM    7  C1  UNL     1       7.914  -2.646   1.215  1.00  0.00     0.007 C 
ENDBRANCH   5   6
ENDBRANCH   4   5
ENDBRANCH   2   4
ENDBRANCH   1   2
BRANCH   1   8
HETATM    8  C6  UNL     1      14.098  -3.376  -0.630  1.00  0.00     0.020 C 
BRANCH   8   9
HETATM    9  C7  UNL     1      14.443  -4.845  -0.630  1.00  0.00     0.006 C 
BRANCH   9  10
HETATM   10  C8  UNL     1      15.765  -5.155  -1.223  1.00  0.00    -0.014 C 
HETATM   11  C9  UNL     1      16.746  -4.004  -1.339  1.00  0.00     0.009 C 
HETATM   12  C10 UNL     1      17.838  -5.063  -1.125  1.00  0.00    -0.018 C 
HETATM   13  C11 UNL     1      18.102  -5.762  -2.431  1.00  0.00     0.010 C 
HETATM   14  C12 UNL     1      16.785  -5.827  -0.325  1.00  0.00     0.009 C 
ENDBRANCH   9  10
ENDBRANCH   8   9
ENDBRANCH   1   8
TORSDOF 7
ENDMDL
MODEL 3
REMARK VINA RESULT: -6.419804430      1.363      7.254
REMARK  7 active torsions:
REMARK  status: ('A' for Active; 'I' for Inactive)
REMARK    1  A    between atoms: C2_2  and  C3_3 
REMARK    2  A    between atoms: C3_3  and  C4_4 
REMARK    3  A    between atoms: C4_4  and  N1_5 
REMARK    4  A    between atoms: N1_5  and  C5_7 
REMARK    5  A    between atoms: C5_7  and  C6_8 
REMARK    6  A    between atoms: C6_8  and  C7_9 
REMARK    7  A    between atoms: C7_9  and  C8_10 
ROOT
HETATM    1  C5  UNL     1      12.772  -2.827  -0.038  1.00  0.00     0.113 C 
ENDROOT
BRANCH   1   2
HETATM    2  N1  UNL     1      13.924  -3.465  -0.573  1.00  0.00    -0.421 N 
ATOM      3  H1  UNL     1      14.579  -2.987  -1.191  1.00  0.00     0.153 HD
BRANCH   2   4
HETATM    4  C4  UNL     1      14.094  -4.821  -0.179  1.00  0.00     0.117 C 
BRANCH   4   5
HETATM    5  C3  UNL     1      15.419  -5.435  -0.473  1.00  0.00     0.045 C 
BRANCH   5   6
HETATM    6  C2  UNL     1      16.371  -4.608  -1.215  1.00  0.00    -0.035 C 
HETATM    7  C1  UNL     1      17.638  -4.909  -1.353  1.00  0.00     0.007 C 
ENDBRANCH   5   6
ENDBRANCH   4   5
ENDBRANCH   2   4
ENDBRANCH   1   2
BRANCH   1   8
HETATM    8  C6  UNL     1      11.819  -3.740   0.700  1.00  0.00     0.020 C 
BRANCH   8   9
HETATM    9  C7  UNL     1      10.442  -3.540   0.116  1.00  0.00     0.006 C 
BRANCH   9  10
HETATM   10  C8  UNL     1       9.630  -2.521   0.821  1.00  0.00    -0.014 C 
HETATM   11  C9  UNL     1       9.020  -1.426  -0.033  1.00  0.00     0.009 C 
HETATM   12  C10 UNL     1       7.867  -1.434   0.984  1.00  0.00    -0.018 C 
HETATM   13  C11 UNL     1       8.273  -0.630   2.188  1.00  0.00     0.010 C 
HETATM   14  C12 UNL     1       8.212  -2.906   1.196  1.00  0.00     0.009 C 
ENDBRANCH   9  10
ENDBRANCH   8   9
ENDBRANCH   1   8
TORSDOF 7
ENDMDL
MODEL 4
REMARK VINA RESULT: -6.408820190      0.827      1.000
REMARK  7 active torsions:
REMARK  status: ('A' for Active; 'I' for Inactive)
REMARK    1  A    between atoms: C2_2  and  C3_3 
REMARK    2  A    between atoms: C3_3  and  C4_4 
REMARK    3  A    between atoms: C4_4  and  N1_5 
REMARK    4  A    between atoms: N1_5  and  C5_7 
REMARK    5  A    between atoms: C5_7  and  C6_8 
REMARK    6  A    between atoms: C6_8  and  C7_9 
REMARK    7  A    between atoms: C7_9  and  C8_10 
ROOT
HETATM    1  C5  UNL     1      11.255  -3.785   0.912  1.00  0.00     0.113 C 
ENDROOT
BRANCH   1   2
HETATM    2  N1  UNL     1      10.428  -3.433  -0.188  1.00  0.00    -0.421 N 
ATOM      3  H1  UNL     1      10.544  -3.841  -1.116  1.00  0.00     0.153 HD
BRANCH   2   4
HETATM    4  C4  UNL     1       9.425  -2.467   0.102  1.00  0.00     0.117 C 
BRANCH   4   5
HETATM    5  C3  UNL     1       8.527  -2.770   1.251  1.00  0.00     0.045 C 
BRANCH   5   6
HETATM    6  C2  UNL     1       7.217  -2.117   1.246  1.00  0.00    -0.035 C 
HETATM    7  C1  UNL     1       6.083  -2.769   1.294  1.00  0.00     0.007 C 
ENDBRANCH   5   6
ENDBRANCH   4   5
ENDBRANCH   2   4
ENDBRANCH   1   2
BRANCH   1   8
HETATM    8  C6  UNL     1      12.539  -4.495   0.546  1.00  0.00     0.020 C 
BRANCH   8   9
HETATM    9  C7  UNL     1      13.387  -3.534  -0.250  1.00  0.00     0.006 C 
BRANCH   9  10
HETATM   10  C8  UNL     1      14.748  -4.038  -0.552  1.00  0.00    -0.014 C 
HETATM   11  C9  UNL     1      15.032  -5.485  -0.197  1.00  0.00     0.009 C 
HETATM   12  C10 UNL     1      15.975  -5.478  -1.411  1.00  0.00    -0.018 C 
HETATM   13  C11 UNL     1      17.281  -4.849  -1.011  1.00  0.00     0.010 C 
HETATM   14  C12 UNL     1      15.040  -4.419  -1.991  1.00  0.00     0.009 C 
ENDBRANCH   9  10
ENDBRANCH   8   9
ENDBRANCH   1   8
TORSDOF 7
ENDMDL
MODEL 5
REMARK VINA RESULT: -6.297168263      1.132      7.101
REMARK  7 active torsions:
REMARK  status: ('A' for Active; 'I' for Inactive)
REMARK    1  A    between atoms: C2_2  and  C3_3 
REMARK    2  A    between atoms: C3_3  and  C4_4 
REMARK    3  A    between atoms: C4_4  and  N1_5 
REMARK    4  A    between atoms: N1_5  and  C5_7 
REMARK    5  A    between atoms: C5_7  and  C6_8 
REMARK    6  A    between atoms: C6_8  and  C7_9 
REMARK    7  A    between atoms: C7_9  and  C8_10 
ROOT
HETATM    1  C5  UNL     1      13.151  -2.946  -0.236  1.00  0.00     0.113 C 
ENDROOT
BRANCH   1   2
HETATM    2  N1  UNL     1      13.064  -4.290   0.218  1.00  0.00    -0.421 N 
ATOM      3  H1  UNL     1      12.290  -4.627   0.791  1.00  0.00     0.153 HD
BRANCH   2   4
HETATM    4  C4  UNL     1      14.137  -5.131  -0.187  1.00  0.00     0.117 C 
BRANCH   4   5
HETATM    5  C3  UNL     1      15.271  -4.466  -0.887  1.00  0.00     0.045 C 
BRANCH   5   6
HETATM    6  C2  UNL     1      16.535  -5.203  -0.930  1.00  0.00    -0.035 C 
HETATM    7  C1  UNL     1      17.619  -4.749  -1.507  1.00  0.00     0.007 C 
ENDBRANCH   5   6
ENDBRANCH   4   5
ENDBRANCH   2   4
ENDBRANCH   1   2
BRANCH   1   8
HETATM    8  C6  UNL     1      11.843  -2.190  -0.253  1.00  0.00     0.020 C 
BRANCH   8   9
HETATM    9  C7  UNL     1      10.752  -3.162  -0.630  1.00  0.00     0.006 C 
BRANCH   9  10
HETATM   10  C8  UNL     1       9.458  -2.909   0.047  1.00  0.00    -0.014 C 
HETATM   11  C9  UNL     1       9.497  -2.760   1.556  1.00  0.00     0.009 C 
HETATM   12  C10 UNL     1       8.321  -1.787   1.376  1.00  0.00    -0.018 C 
HETATM   13  C11 UNL     1       7.052  -2.579   1.224  1.00  0.00     0.010 C 
HETATM   14  C12 UNL     1       8.921  -1.491   0.003  1.00  0.00     0.009 C 
ENDBRANCH   9  10
ENDBRANCH   8   9
ENDBRANCH   1   8
TORSDOF 7
ENDMDL
