MODEL 1
REMARK VINA RESULT: -6.485549358      0.000      0.000
REMARK  7 active torsions:
REMARK  status: ('A' for Active; 'I' for Inactive)
REMARK    1  A    between atoms: N1_2  and  C2_5 
REMARK    2  A    between atoms: C2_5  and  C3_6 
REMARK    3  A    between atoms: C3_6  and  C4_7 
REMARK    4  A    between atoms: C5_8  and  C6_9 
REMARK    5  A    between atoms: C6_9  and  C7_10 
REMARK    6  A    between atoms: C7_10  and  C8_11 
REMARK    7  A    between atoms: C8_11  and  C9_12 
ROOT
HETATM    1  C4  UNL     1      10.516  -3.910   0.754  1.00  0.00    -0.029 C 
HETATM    2  C5  UNL     1      11.782  -4.089   0.967  1.00  0.00    -0.031 C 
ENDROOT
BRANCH   1   3
HETATM    3  C3  UNL     1       9.915  -3.076  -0.286  1.00  0.00     0.054 C 
BRANCH   3   4
HETATM    4  C2  UNL     1       9.043  -2.051   0.476  1.00  0.00     0.235 C 
BRANCH   4   5
HETATM    5  N1  UNL     1       8.199  -2.851   1.337  1.00  0.00    -0.079 N 
HETATM    6  C1  UNL     1       6.820  -2.419   1.324  1.00  0.00     0.266 C 
ATOM      7  H12 UNL     1       8.565  -2.876   2.289  1.00  0.00     0.276 HD
ATOM      8  H11 UNL     1       8.274  -3.842   1.105  1.00  0.00     0.276 HD
ENDBRANCH   4   5
ENDBRANCH   3   4
ENDBRANCH   1   3
BRANCH   2   9
HETATM    9  C6  UNL     1      12.830  -3.443   0.146  1.00  0.00     0.027 C 
BRANCH   9  10
HETATM   10  C7  UNL     1      13.841  -4.529  -0.182  1.00  0.00     0.004 C 
BRANCH  10  11
HETATM   11  C8  UNL     1      15.030  -3.972  -0.940  1.00  0.00     0.005 C 
BRANCH  11  12
HETATM   12  C9  UNL     1      15.884  -5.170  -1.333  1.00  0.00    -0.014 A 
HETATM   13  C10 UNL     1      17.374  -4.825  -1.378  1.00  0.00     0.005 A 
HETATM   14  C11 UNL     1      16.798  -5.810  -0.390  1.00  0.00     0.005 A 
ENDBRANCH  11  12
ENDBRANCH  10  11
ENDBRANCH   9  10
ENDBRANCH   2   9
TORSDOF 7
ENDMDL
MODEL 2
REMARK VINA RESULT: -6.327734132      1.171      1.336
REMARK  7 active torsions:
REMARK  status: ('A' for Active; 'I' for Inactive)
REMARK    1  A    between atoms: N1_2  and  C2_5 
REMARK    2  A    between atoms: C2_5  and  C3_6 
REMARK    3  A    between atoms: C3_6  and  C4_7 
REMARK    4  A    between atoms: C5_8  and  C6_9 
REMARK    5  A    between atoms: C6_9  and  C7_10 
REMARK    6  A    between atoms: C7_10  and  C8_11 
REMARK    7  A    between atoms: C8_11  and  C9_12 
ROOT
HETATM    1  C4  UNL     1      11.465  -2.638  -0.309  1.00  0.00    -0.029 C 
HETATM    2  C5  UNL     1      12.576  -3.156   0.113  1.00  0.00    -0.031 C 
ENDROOT
BRANCH   1   3
HETATM    3  C3  UNL     1      10.141  -3.260  -0.271  1.00  0.00     0.054 C 
BRANCH   3   4
HETATM    4  C2  UNL     1       9.383  -2.522   0.858  1.00  0.00     0.235 C 
BRANCH   4   5
HETATM    5  N1  UNL     1       9.393  -1.130   0.461  1.00  0.00    -0.079 N 
HETATM    6  C1  UNL     1       8.195  -0.744  -0.247  1.00  0.00     0.266 C 
ATOM      7  H12 UNL     1      10.226  -0.910  -0.084  1.00  0.00     0.276 HD
ATOM      8  H11 UNL     1       9.555  -0.522   1.264  1.00  0.00     0.276 HD
ENDBRANCH   4   5
ENDBRANCH   3   4
ENDBRANCH   1   3
BRANCH   2   9
HETATM    9  C6  UNL     1      12.650  -4.505   0.714  1.00  0.00     0.027 C 
BRANCH   9  10
HETATM   10  C7  UNL     1      13.828  -5.200   0.051  1.00  0.00     0.004 C 
BRANCH  10  11
HETATM   11  C8  UNL     1      14.731  -4.210  -0.660  1.00  0.00     0.005 C 
BRANCH  11  12
HETATM   12  C9  UNL     1      15.786  -5.038  -1.380  1.00  0.00    -0.014 A 
HETATM   13  C10 UNL     1      17.145  -4.336  -1.412  1.00  0.00     0.005 A 
HETATM   14  C11 UNL     1      16.918  -5.631  -0.673  1.00  0.00     0.005 A 
ENDBRANCH  11  12
ENDBRANCH  10  11
ENDBRANCH   9  10
ENDBRANCH   2   9
TORSDOF 7
ENDMDL
MODEL 3
REMARK VINA RESULT: -6.067779070      1.061      1.842
REMARK  7 active torsions:
REMARK  status: ('A' for Active; 'I' for Inactive)
REMARK    1  A    between atoms: N1_2  and  C2_5 
REMARK    2  A    between atoms: C2_5  and  C3_6 
REMARK    3  A    between atoms: C3_6  and  C4_7 
REMARK    4  A    between atoms: C5_8  and  C6_9 
REMARK    5  A    between atoms: C6_9  and  C7_10 
REMARK    6  A    between atoms: C7_10  and  C8_11 
REMARK    7  A    between atoms: C8_11  and  C9_12 
ROOT
HETATM    1  C4  UNL     1      12.580  -2.963   0.107  1.00  0.00    -0.029 C 
HETATM    2  C5  UNL     1      13.542  -3.754  -0.253  1.00  0.00    -0.031 C 
ENDROOT
BRANCH   1   3
HETATM    3  C3  UNL     1      11.353  -3.342   0.807  1.00  0.00     0.054 C 
BRANCH   3   4
HETATM    4  C2  UNL     1      10.256  -3.354  -0.285  1.00  0.00     0.235 C 
BRANCH   4   5
HETATM    5  N1  UNL     1       9.360  -2.279   0.080  1.00  0.00    -0.079 N 
HETATM    6  C1  UNL     1       8.479  -2.632   1.169  1.00  0.00     0.266 C 
ATOM      7  H12 UNL     1       8.830  -1.954  -0.728  1.00  0.00     0.276 HD
ATOM      8  H11 UNL     1       9.878  -1.426   0.292  1.00  0.00     0.276 HD
ENDBRANCH   4   5
ENDBRANCH   3   4
ENDBRANCH   1   3
BRANCH   2   9
HETATM    9  C6  UNL     1      13.520  -5.210   0.012  1.00  0.00     0.027 C 
BRANCH   9  10
HETATM   10  C7  UNL     1      14.970  -5.665  -0.004  1.00  0.00     0.004 C 
BRANCH  10  11
HETATM   11  C8  UNL     1      15.672  -5.242  -1.281  1.00  0.00     0.005 C 
BRANCH  11  12
HETATM   12  C9  UNL     1      17.151  -5.129  -0.935  1.00  0.00    -0.014 A 
HETATM   13  C10 UNL     1      18.047  -5.577  -2.091  1.00  0.00     0.005 A 
HETATM   14  C11 UNL     1      18.024  -4.155  -1.586  1.00  0.00     0.005 A 
ENDBRANCH  11  12
ENDBRANCH  10  11
ENDBRANCH   9  10
ENDBRANCH   2   9
TORSDOF 7
ENDMDL
MODEL 4
REMARK VINA RESULT: -6.055748007      2.653      7.193
REMARK  7 active torsions:
REMARK  status: ('A' for Active; 'I' for Inactive)
REMARK    1  A    between atoms: N1_2  and  C2_5 
REMARK    2  A    between atoms: C2_5  and  C3_6 
REMARK    3  A    between atoms: C3_6  and  C4_7 
REMARK    4  A    between atoms: C5_8  and  C6_9 
REMARK    5  A    between atoms: C6_9  and  C7_10 
REMARK    6  A    between atoms: C7_10  and  C8_11 
REMARK    7  A    between atoms: C8_11  and  C9_12 
ROOT
HETATM    1  C4  UNL     1      13.684  -3.350  -0.311  1.00  0.00    -0.029 C 
HETATM    2  C5  UNL     1      12.540  -2.903   0.103  1.00  0.00    -0.031 C 
ENDROOT
BRANCH   1   3
HETATM    3  C3  UNL     1      14.107  -4.749  -0.364  1.00  0.00     0.054 C 
BRANCH   3   4
HETATM    4  C2  UNL     1      15.225  -4.790  -1.432  1.00  0.00     0.235 C 
BRANCH   4   5
HETATM    5  N1  UNL     1      16.402  -5.239  -0.720  1.00  0.00    -0.079 N 
HETATM    6  C1  UNL     1      17.629  -4.900  -1.400  1.00  0.00     0.266 C 
ATOM      7  H12 UNL     1      16.354  -6.239  -0.528  1.00  0.00     0.276 HD
ATOM      8  H11 UNL     1      16.406  -4.888   0.238  1.00  0.00     0.276 HD
ENDBRANCH   4   5
ENDBRANCH   3   4
ENDBRANCH   1   3
BRANCH   2   9
HETATM    9  C6  UNL     1      11.466  -3.792   0.597  1.00  0.00     0.027 C 
BRANCH   9  10
HETATM   10  C7  UNL     1      10.280  -3.580  -0.329  1.00  0.00     0.004 C 
BRANCH  10  11
HETATM   11  C8  UNL     1       9.511  -2.323   0.028  1.00  0.00     0.005 C 
BRANCH  11  12
HETATM   12  C9  UNL     1       8.688  -2.664   1.263  1.00  0.00    -0.014 A 
HETATM   13  C10 UNL     1       7.978  -1.437   1.837  1.00  0.00     0.005 A 
HETATM   14  C11 UNL     1       7.229  -2.612   1.258  1.00  0.00     0.005 A 
ENDBRANCH  11  12
ENDBRANCH  10  11
ENDBRANCH   9  10
ENDBRANCH   2   9
TORSDOF 7
ENDMDL
MODEL 5
REMARK VINA RESULT: -6.038709290      2.710      7.233
REMARK  7 active torsions:
REMARK  status: ('A' for Active; 'I' for Inactive)
REMARK    1  A    between atoms: N1_2  and  C2_5 
REMARK    2  A    between atoms: C2_5  and  C3_6 
REMARK    3  A    between atoms: C3_6  and  C4_7 
REMARK    4  A    between atoms: C5_8  and  C6_9 
REMARK    5  A    between atoms: C6_9  and  C7_10 
REMARK    6  A    between atoms: C7_10  and  C8_11 
REMARK    7  A    between atoms: C8_11  and  C9_12 
ROOT
HETATM    1  C4  UNL     1      14.425  -3.841  -0.712  1.00  0.00    -0.029 C 
HETATM    2  C5  UNL     1      13.508  -2.989  -0.374  1.00  0.00    -0.031 C 
ENDROOT
BRANCH   1   3
HETATM    3  C3  UNL     1      14.472  -5.259  -0.358  1.00  0.00     0.054 C 
BRANCH   3   4
HETATM    4  C2  UNL     1      15.968  -5.644  -0.445  1.00  0.00     0.235 C 
BRANCH   4   5
HETATM    5  N1  UNL     1      16.592  -4.545  -1.151  1.00  0.00    -0.079 N 
HETATM    6  C1  UNL     1      17.861  -4.909  -1.738  1.00  0.00     0.266 C 
ATOM      7  H12 UNL     1      16.689  -3.730  -0.546  1.00  0.00     0.276 HD
ATOM      8  H11 UNL     1      15.962  -4.156  -1.853  1.00  0.00     0.276 HD
ENDBRANCH   4   5
ENDBRANCH   3   4
ENDBRANCH   1   3
BRANCH   2   9
HETATM    9  C6  UNL     1      12.336  -3.360   0.449  1.00  0.00     0.027 C 
BRANCH   9  10
HETATM   10  C7  UNL     1      11.142  -2.651  -0.167  1.00  0.00     0.004 C 
BRANCH  10  11
HETATM   11  C8  UNL     1       9.833  -3.270   0.284  1.00  0.00     0.005 C 
BRANCH  11  12
HETATM   12  C9  UNL     1       8.852  -2.117   0.450  1.00  0.00    -0.014 A 
HETATM   13  C10 UNL     1       7.605  -2.531   1.233  1.00  0.00     0.005 A 
HETATM   14  C11 UNL     1       8.587  -1.510   1.751  1.00  0.00     0.005 A 
ENDBRANCH  11  12
ENDBRANCH  10  11
ENDBRANCH   9  10
ENDBRANCH   2   9
TORSDOF 7
ENDMDL
