MODEL 1
REMARK VINA RESULT: -5.716608438      0.000      0.000
REMARK  8 active torsions:
REMARK  status: ('A' for Active; 'I' for Inactive)
REMARK    1  A    between atoms: C2_2  and  C3_3 
REMARK    2  A    between atoms: C3_3  and  C4_4 
REMARK    3  A    between atoms: C4_4  and  C5_5 
REMARK    4  A    between atoms: C5_5  and  C6_6 
REMARK    5  A    between atoms: C5_5  and  C8_8 
REMARK    6  A    between atoms: C8_8  and  C9_9 
REMARK    7  A    between atoms: C9_9  and  C10_10 
REMARK    8  A    between atoms: C10_10  and  N1_11 
ROOT
HETATM    1  C5  UNL     1      12.518  -2.959   0.351  1.00  0.00    -0.015 C 
ENDROOT
BRANCH   1   2
HETATM    2  C4  UNL     1      13.710  -3.154  -0.540  1.00  0.00     0.008 C 
BRANCH   2   3
HETATM    3  C3  UNL     1      14.330  -4.513  -0.465  1.00  0.00     0.027 C 
BRANCH   3   4
HETATM    4  C2  UNL     1      15.577  -4.603  -1.271  1.00  0.00    -0.037 C 
HETATM    5  C1  UNL     1      16.577  -5.352  -0.828  1.00  0.00     0.007 C 
ENDBRANCH   3   4
ENDBRANCH   2   3
ENDBRANCH   1   2
BRANCH   1   6
HETATM    6  C6  UNL     1      11.967  -4.322   0.697  1.00  0.00     0.000 C 
HETATM    7  C7  UNL     1      11.644  -4.437   2.171  1.00  0.00     0.005 C 
ENDBRANCH   1   6
BRANCH   1   8
HETATM    8  C8  UNL     1      11.518  -2.108  -0.385  1.00  0.00     0.006 C 
BRANCH   8   9
HETATM    9  C9  UNL     1      10.196  -2.768  -0.569  1.00  0.00     0.028 C 
BRANCH   9  10
HETATM   10  C10 UNL     1       9.155  -1.989   0.206  1.00  0.00     0.231 C 
BRANCH  10  11
HETATM   11  N1  UNL     1       8.581  -2.732   1.296  1.00  0.00    -0.079 N 
HETATM   12  C11 UNL     1       7.130  -2.527   1.284  1.00  0.00     0.266 C 
ATOM     13  H12 UNL     1       8.838  -3.720   1.274  1.00  0.00     0.276 HD
ATOM     14  H11 UNL     1       9.002  -2.498   2.194  1.00  0.00     0.276 HD
ENDBRANCH  10  11
ENDBRANCH   9  10
ENDBRANCH   8   9
ENDBRANCH   1   8
TORSDOF 8
ENDMDL
MODEL 2
REMARK VINA RESULT: -5.709822787      1.492      2.756
REMARK  8 active torsions:
REMARK  status: ('A' for Active; 'I' for Inactive)
REMARK    1  A    between atoms: C2_2  and  C3_3 
REMARK    2  A    between atoms: C3_3  and  C4_4 
REMARK    3  A    between atoms: C4_4  and  C5_5 
REMARK    4  A    between atoms: C5_5  and  C6_6 
REMARK    5  A    between atoms: C5_5  and  C8_8 
REMARK    6  A    between atoms: C8_8  and  C9_9 
REMARK    7  A    between atoms: C9_9  and  C10_10 
REMARK    8  A    between atoms: C10_10  and  N1_11 
ROOT
HETATM    1  C5  UNL     1      14.726  -4.297  -0.375  1.00  0.00    -0.015 C 
ENDROOT
BRANCH   1   2
HETATM    2  C4  UNL     1      15.521  -4.581  -1.615  1.00  0.00     0.008 C 
BRANCH   2   3
HETATM    3  C3  UNL     1      16.953  -4.152  -1.551  1.00  0.00     0.027 C 
BRANCH   3   4
HETATM    4  C2  UNL     1      17.875  -5.307  -1.384  1.00  0.00    -0.037 C 
HETATM    5  C1  UNL     1      18.516  -5.778  -2.445  1.00  0.00     0.007 C 
ENDBRANCH   3   4
ENDBRANCH   2   3
ENDBRANCH   1   2
BRANCH   1   6
HETATM    6  C6  UNL     1      14.060  -5.582   0.056  1.00  0.00     0.000 C 
HETATM    7  C7  UNL     1      15.074  -6.634   0.448  1.00  0.00     0.005 C 
ENDBRANCH   1   6
BRANCH   1   8
HETATM    8  C8  UNL     1      13.729  -3.215  -0.695  1.00  0.00     0.006 C 
BRANCH   8   9
HETATM    9  C9  UNL     1      12.535  -3.225   0.194  1.00  0.00     0.028 C 
BRANCH   9  10
HETATM   10  C10 UNL     1      11.551  -2.189  -0.308  1.00  0.00     0.231 C 
BRANCH  10  11
HETATM   11  N1  UNL     1      10.217  -2.703  -0.475  1.00  0.00    -0.079 N 
HETATM   12  C11 UNL     1       9.645  -2.946   0.852  1.00  0.00     0.266 C 
ATOM     13  H12 UNL     1       9.633  -2.096  -1.049  1.00  0.00     0.276 HD
ATOM     14  H11 UNL     1      10.188  -3.530  -1.071  1.00  0.00     0.276 HD
ENDBRANCH  10  11
ENDBRANCH   9  10
ENDBRANCH   8   9
ENDBRANCH   1   8
TORSDOF 8
ENDMDL
MODEL 3
REMARK VINA RESULT: -5.653638718      1.086      2.014
REMARK  8 active torsions:
REMARK  status: ('A' for Active; 'I' for Inactive)
REMARK    1  A    between atoms: C2_2  and  C3_3 
REMARK    2  A    between atoms: C3_3  and  C4_4 
REMARK    3  A    between atoms: C4_4  and  C5_5 
REMARK    4  A    between atoms: C5_5  and  C6_6 
REMARK    5  A    between atoms: C5_5  and  C8_8 
REMARK    6  A    between atoms: C8_8  and  C9_9 
REMARK    7  A    between atoms: C9_9  and  C10_10 
REMARK    8  A    between atoms: C10_10  and  N1_11 
ROOT
HETATM    1  C5  UNL     1      12.825  -4.083  -0.013  1.00  0.00    -0.015 C 
ENDROOT
BRANCH   1   2
HETATM    2  C4  UNL     1      14.007  -5.007  -0.041  1.00  0.00     0.008 C 
BRANCH   2   3
HETATM    3  C3  UNL     1      15.135  -4.553  -0.911  1.00  0.00     0.027 C 
BRANCH   3   4
HETATM    4  C2  UNL     1      16.342  -5.408  -0.753  1.00  0.00    -0.037 C 
HETATM    5  C1  UNL     1      17.499  -4.984  -1.240  1.00  0.00     0.007 C 
ENDBRANCH   3   4
ENDBRANCH   2   3
ENDBRANCH   1   2
BRANCH   1   6
HETATM    6  C6  UNL     1      13.327  -2.677  -0.243  1.00  0.00     0.000 C 
HETATM    7  C7  UNL     1      12.195  -1.724  -0.561  1.00  0.00     0.005 C 
ENDBRANCH   1   6
BRANCH   1   8
HETATM    8  C8  UNL     1      12.141  -4.235   1.320  1.00  0.00     0.006 C 
BRANCH   8   9
HETATM    9  C9  UNL     1      10.684  -4.518   1.212  1.00  0.00     0.028 C 
BRANCH   9  10
HETATM   10  C10 UNL     1       9.920  -3.264   1.582  1.00  0.00     0.231 C 
BRANCH  10  11
HETATM   11  N1  UNL     1       8.947  -2.877   0.595  1.00  0.00    -0.079 N 
HETATM   12  C11 UNL     1       7.678  -2.608   1.277  1.00  0.00     0.266 C 
ATOM     13  H12 UNL     1       9.259  -2.093   0.023  1.00  0.00     0.276 HD
ATOM     14  H11 UNL     1       8.852  -3.565  -0.152  1.00  0.00     0.276 HD
ENDBRANCH  10  11
ENDBRANCH   9  10
ENDBRANCH   8   9
ENDBRANCH   1   8
TORSDOF 8
ENDMDL
MODEL 4
REMARK VINA RESULT: -5.555860716      2.588      6.084
REMARK  8 active torsions:
REMARK  status: ('A' for Active; 'I' for Inactive)
REMARK    1  A    between atoms: C2_2  and  C3_3 
REMARK    2  A    between atoms: C3_3  and  C4_4 
REMARK    3  A    between atoms: C4_4  and  C5_5 
REMARK    4  A    between atoms: C5_5  and  C6_6 
REMARK    5  A    between atoms: C5_5  and  C8_8 
REMARK    6  A    between atoms: C8_8  and  C9_9 
REMARK    7  A    between atoms: C9_9  and  C10_10 
REMARK    8  A    between atoms: C10_10  and  N1_11 
ROOT
HETATM    1  C5  UNL     1      11.958  -3.651   0.148  1.00  0.00    -0.015 C 
ENDROOT
BRANCH   1   2
HETATM    2  C4  UNL     1      11.266  -2.346  -0.118  1.00  0.00     0.008 C 
BRANCH   2   3
HETATM    3  C3  UNL     1       9.795  -2.457  -0.368  1.00  0.00     0.027 C 
BRANCH   3   4
HETATM    4  C2  UNL     1       8.994  -1.925   0.767  1.00  0.00    -0.037 C 
HETATM    5  C1  UNL     1       7.976  -2.638   1.226  1.00  0.00     0.007 C 
ENDBRANCH   3   4
ENDBRANCH   2   3
ENDBRANCH   1   2
BRANCH   1   6
HETATM    6  C6  UNL     1      11.794  -3.975   1.613  1.00  0.00     0.000 C 
HETATM    7  C7  UNL     1      10.859  -5.145   1.827  1.00  0.00     0.005 C 
ENDBRANCH   1   6
BRANCH   1   8
HETATM    8  C8  UNL     1      13.403  -3.504  -0.248  1.00  0.00     0.006 C 
BRANCH   8   9
HETATM    9  C9  UNL     1      14.148  -4.793  -0.269  1.00  0.00     0.028 C 
BRANCH   9  10
HETATM   10  C10 UNL     1      15.303  -4.667  -1.239  1.00  0.00     0.231 C 
BRANCH  10  11
HETATM   11  N1  UNL     1      16.487  -5.362  -0.808  1.00  0.00    -0.079 N 
HETATM   12  C11 UNL     1      17.649  -4.738  -1.446  1.00  0.00     0.266 C 
ATOM     13  H12 UNL     1      16.571  -5.400   0.208  1.00  0.00     0.276 HD
ATOM     14  H11 UNL     1      16.438  -6.366  -0.982  1.00  0.00     0.276 HD
ENDBRANCH  10  11
ENDBRANCH   9  10
ENDBRANCH   8   9
ENDBRANCH   1   8
TORSDOF 8
ENDMDL
MODEL 5
REMARK VINA RESULT: -5.450053223      0.936      1.092
REMARK  8 active torsions:
REMARK  status: ('A' for Active; 'I' for Inactive)
REMARK    1  A    between atoms: C2_2  and  C3_3 
REMARK    2  A    between atoms: C3_3  and  C4_4 
REMARK    3  A    between atoms: C4_4  and  C5_5 
REMARK    4  A    between atoms: C5_5  and  C6_6 
REMARK    5  A    between atoms: C5_5  and  C8_8 
REMARK    6  A    between atoms: C8_8  and  C9_9 
REMARK    7  A    between atoms: C9_9  and  C10_10 
REMARK    8  A    between atoms: C10_10  and  N1_11 
ROOT
HETATM    1  C5  UNL     1      12.476  -2.971   0.377  1.00  0.00    -0.015 C 
ENDROOT
BRANCH   1   2
HETATM    2  C4  UNL     1      13.656  -3.150  -0.533  1.00  0.00     0.008 C 
BRANCH   2   3
HETATM    3  C3  UNL     1      14.322  -4.486  -0.437  1.00  0.00     0.027 C 
BRANCH   3   4
HETATM    4  C2  UNL     1      15.577  -4.543  -1.233  1.00  0.00    -0.037 C 
HETATM    5  C1  UNL     1      16.544  -5.365  -0.852  1.00  0.00     0.007 C 
ENDBRANCH   3   4
ENDBRANCH   2   3
ENDBRANCH   1   2
BRANCH   1   6
HETATM    6  C6  UNL     1      11.992  -4.341   0.788  1.00  0.00     0.000 C 
HETATM    7  C7  UNL     1      11.636  -4.391   2.258  1.00  0.00     0.005 C 
ENDBRANCH   1   6
BRANCH   1   8
HETATM    8  C8  UNL     1      11.425  -2.191  -0.366  1.00  0.00     0.006 C 
BRANCH   8   9
HETATM    9  C9  UNL     1      10.125  -2.908  -0.485  1.00  0.00     0.028 C 
BRANCH   9  10
HETATM   10  C10 UNL     1       9.093  -2.177   0.347  1.00  0.00     0.231 C 
BRANCH  10  11
HETATM   11  N1  UNL     1       9.106  -0.752   0.149  1.00  0.00    -0.079 N 
HETATM   12  C11 UNL     1       7.888  -0.372  -0.571  1.00  0.00     0.266 C 
ATOM     13  H12 UNL     1       9.223  -0.236   1.022  1.00  0.00     0.276 HD
ATOM     14  H11 UNL     1       9.954  -0.429  -0.317  1.00  0.00     0.276 HD
ENDBRANCH  10  11
ENDBRANCH   9  10
ENDBRANCH   8   9
ENDBRANCH   1   8
TORSDOF 8
ENDMDL
