MODEL 1
REMARK VINA RESULT: -6.129712729      0.000      0.000
REMARK  8 active torsions:
REMARK  status: ('A' for Active; 'I' for Inactive)
REMARK    1  A    between atoms: C2_2  and  C3_3 
REMARK    2  A    between atoms: C3_3  and  C4_4 
REMARK    3  A    between atoms: C4_4  and  C5_5 
REMARK    4  A    between atoms: C5_5  and  N1_6 
REMARK    5  A    between atoms: N1_6  and  C6_9 
REMARK    6  A    between atoms: C6_9  and  C7_10 
REMARK    7  A    between atoms: C7_10  and  C8_11 
REMARK    8  A    between atoms: C8_11  and  C9_12 
ROOT
HETATM    1  N1  UNL     1      11.927  -3.823   1.337  1.00  0.00    -0.075 N 
ATOM      2  H11 UNL     1      12.239  -4.731   1.682  1.00  0.00     0.277 HD
ATOM      3  H12 UNL     1      12.174  -3.247   2.141  1.00  0.00     0.277 HD
ENDROOT
BRANCH   1   4
HETATM    4  C5  UNL     1      10.509  -3.817   1.117  1.00  0.00     0.232 C 
BRANCH   4   5
HETATM    5  C4  UNL     1      10.204  -3.095  -0.204  1.00  0.00     0.031 C 
BRANCH   5   6
HETATM    6  C3  UNL     1       9.033  -2.159   0.147  1.00  0.00     0.028 C 
BRANCH   6   7
HETATM    7  C2  UNL     1       8.263  -2.691   1.287  1.00  0.00    -0.037 C 
HETATM    8  C1  UNL     1       6.955  -2.605   1.286  1.00  0.00     0.007 C 
ENDBRANCH   6   7
ENDBRANCH   5   6
ENDBRANCH   4   5
ENDBRANCH   1   4
BRANCH   1   9
HETATM    9  C6  UNL     1      12.675  -3.428   0.168  1.00  0.00     0.232 C 
BRANCH   9  10
HETATM   10  C7  UNL     1      13.672  -4.494  -0.149  1.00  0.00     0.028 C 
BRANCH  10  11
HETATM   11  C8  UNL     1      14.858  -3.995  -0.918  1.00  0.00     0.005 C 
BRANCH  11  12
HETATM   12  C9  UNL     1      15.814  -5.107  -1.171  1.00  0.00    -0.023 C 
HETATM   13  C10 UNL     1      15.750  -6.145  -0.046  1.00  0.00     0.009 C 
HETATM   14  C11 UNL     1      17.261  -4.697  -1.256  1.00  0.00     0.009 C 
ENDBRANCH  11  12
ENDBRANCH  10  11
ENDBRANCH   9  10
ENDBRANCH   1   9
TORSDOF 8
ENDMDL
MODEL 2
REMARK VINA RESULT: -6.068329487      0.894      6.787
REMARK  8 active torsions:
REMARK  status: ('A' for Active; 'I' for Inactive)
REMARK    1  A    between atoms: C2_2  and  C3_3 
REMARK    2  A    between atoms: C3_3  and  C4_4 
REMARK    3  A    between atoms: C4_4  and  C5_5 
REMARK    4  A    between atoms: C5_5  and  N1_6 
REMARK    5  A    between atoms: N1_6  and  C6_9 
REMARK    6  A    between atoms: C6_9  and  C7_10 
REMARK    7  A    between atoms: C7_10  and  C8_11 
REMARK    8  A    between atoms: C8_11  and  C9_12 
ROOT
HETATM    1  N1  UNL     1      12.554  -2.903   0.203  1.00  0.00    -0.075 N 
ATOM      2  H11 UNL     1      11.840  -2.475  -0.387  1.00  0.00     0.277 HD
ATOM      3  H12 UNL     1      12.681  -2.151   0.880  1.00  0.00     0.277 HD
ENDROOT
BRANCH   1   4
HETATM    4  C5  UNL     1      13.761  -3.134  -0.538  1.00  0.00     0.232 C 
BRANCH   4   5
HETATM    5  C4  UNL     1      14.196  -4.596  -0.356  1.00  0.00     0.031 C 
BRANCH   5   6
HETATM    6  C3  UNL     1      15.253  -4.809  -1.454  1.00  0.00     0.028 C 
BRANCH   6   7
HETATM    7  C2  UNL     1      16.511  -5.315  -0.876  1.00  0.00    -0.037 C 
HETATM    8  C1  UNL     1      17.659  -4.902  -1.353  1.00  0.00     0.007 C 
ENDBRANCH   6   7
ENDBRANCH   5   6
ENDBRANCH   4   5
ENDBRANCH   1   4
BRANCH   1   9
HETATM    9  C6  UNL     1      12.054  -4.097   0.841  1.00  0.00     0.232 C 
BRANCH   9  10
HETATM   10  C7  UNL     1      10.574  -3.971   1.004  1.00  0.00     0.028 C 
BRANCH  10  11
HETATM   11  C8  UNL     1       9.933  -3.076  -0.013  1.00  0.00     0.005 C 
BRANCH  11  12
HETATM   12  C9  UNL     1       9.072  -2.064   0.658  1.00  0.00    -0.023 C 
HETATM   13  C10 UNL     1       7.842  -2.728   1.284  1.00  0.00     0.009 C 
HETATM   14  C11 UNL     1       8.530  -0.988  -0.246  1.00  0.00     0.009 C 
ENDBRANCH  11  12
ENDBRANCH  10  11
ENDBRANCH   9  10
ENDBRANCH   1   9
TORSDOF 8
ENDMDL
MODEL 3
REMARK VINA RESULT: -6.065077285      0.891      1.036
REMARK  8 active torsions:
REMARK  status: ('A' for Active; 'I' for Inactive)
REMARK    1  A    between atoms: C2_2  and  C3_3 
REMARK    2  A    between atoms: C3_3  and  C4_4 
REMARK    3  A    between atoms: C4_4  and  C5_5 
REMARK    4  A    between atoms: C5_5  and  N1_6 
REMARK    5  A    between atoms: N1_6  and  C6_9 
REMARK    6  A    between atoms: C6_9  and  C7_10 
REMARK    7  A    between atoms: C7_10  and  C8_11 
REMARK    8  A    between atoms: C8_11  and  C9_12 
ROOT
HETATM    1  N1  UNL     1      12.921  -2.764  -0.234  1.00  0.00    -0.075 N 
ATOM      2  H11 UNL     1      13.627  -2.222   0.266  1.00  0.00     0.277 HD
ATOM      3  H12 UNL     1      13.360  -2.800  -1.153  1.00  0.00     0.277 HD
ENDROOT
BRANCH   1   4
HETATM    4  C5  UNL     1      11.673  -2.057  -0.287  1.00  0.00     0.232 C 
BRANCH   4   5
HETATM    5  C4  UNL     1      10.516  -3.063  -0.211  1.00  0.00     0.031 C 
BRANCH   5   6
HETATM    6  C3  UNL     1       9.289  -2.193   0.114  1.00  0.00     0.028 C 
BRANCH   6   7
HETATM    7  C2  UNL     1       8.519  -2.772   1.231  1.00  0.00    -0.037 C 
HETATM    8  C1  UNL     1       7.220  -2.610   1.278  1.00  0.00     0.007 C 
ENDBRANCH   6   7
ENDBRANCH   5   6
ENDBRANCH   4   5
ENDBRANCH   1   4
BRANCH   1   9
HETATM    9  C6  UNL     1      12.789  -4.087   0.329  1.00  0.00     0.232 C 
BRANCH   9  10
HETATM   10  C7  UNL     1      13.944  -4.919  -0.121  1.00  0.00     0.028 C 
BRANCH  10  11
HETATM   11  C8  UNL     1      14.985  -4.144  -0.870  1.00  0.00     0.005 C 
BRANCH  11  12
HETATM   12  C9  UNL     1      16.097  -5.041  -1.288  1.00  0.00    -0.023 C 
HETATM   13  C10 UNL     1      16.404  -6.071  -0.195  1.00  0.00     0.009 C 
HETATM   14  C11 UNL     1      17.406  -4.349  -1.564  1.00  0.00     0.009 C 
ENDBRANCH  11  12
ENDBRANCH  10  11
ENDBRANCH   9  10
ENDBRANCH   1   9
TORSDOF 8
ENDMDL
MODEL 4
REMARK VINA RESULT: -6.002267836      0.798      6.699
REMARK  8 active torsions:
REMARK  status: ('A' for Active; 'I' for Inactive)
REMARK    1  A    between atoms: C2_2  and  C3_3 
REMARK    2  A    between atoms: C3_3  and  C4_4 
REMARK    3  A    between atoms: C4_4  and  C5_5 
REMARK    4  A    between atoms: C5_5  and  N1_6 
REMARK    5  A    between atoms: N1_6  and  C6_9 
REMARK    6  A    between atoms: C6_9  and  C7_10 
REMARK    7  A    between atoms: C7_10  and  C8_11 
REMARK    8  A    between atoms: C8_11  and  C9_12 
ROOT
HETATM    1  N1  UNL     1      12.230  -4.097   0.613  1.00  0.00    -0.075 N 
ATOM      2  H11 UNL     1      12.781  -4.393   1.419  1.00  0.00     0.277 HD
ATOM      3  H12 UNL     1      12.250  -4.960   0.072  1.00  0.00     0.277 HD
ENDROOT
BRANCH   1   4
HETATM    4  C5  UNL     1      12.883  -3.032  -0.092  1.00  0.00     0.232 C 
BRANCH   4   5
HETATM    5  C4  UNL     1      14.237  -3.529  -0.620  1.00  0.00     0.031 C 
BRANCH   5   6
HETATM    6  C3  UNL     1      14.224  -5.037  -0.314  1.00  0.00     0.028 C 
BRANCH   6   7
HETATM    7  C2  UNL     1      15.589  -5.591  -0.356  1.00  0.00    -0.037 C 
HETATM    8  C1  UNL     1      16.507  -5.006  -1.086  1.00  0.00     0.007 C 
ENDBRANCH   6   7
ENDBRANCH   5   6
ENDBRANCH   4   5
ENDBRANCH   1   4
BRANCH   1   9
HETATM    9  C6  UNL     1      10.881  -3.762   1.004  1.00  0.00     0.232 C 
BRANCH   9  10
HETATM   10  C7  UNL     1      10.137  -3.282  -0.199  1.00  0.00     0.028 C 
BRANCH  10  11
HETATM   11  C8  UNL     1       9.245  -2.109   0.077  1.00  0.00     0.005 C 
BRANCH  11  12
HETATM   12  C9  UNL     1       8.594  -2.256   1.407  1.00  0.00    -0.023 C 
HETATM   13  C10 UNL     1       7.153  -2.751   1.255  1.00  0.00     0.009 C 
HETATM   14  C11 UNL     1       8.499  -0.987   2.214  1.00  0.00     0.009 C 
ENDBRANCH  11  12
ENDBRANCH  10  11
ENDBRANCH   9  10
ENDBRANCH   1   9
TORSDOF 8
ENDMDL
MODEL 5
REMARK VINA RESULT: -6.002114020      0.846      6.670
REMARK  8 active torsions:
REMARK  status: ('A' for Active; 'I' for Inactive)
REMARK    1  A    between atoms: C2_2  and  C3_3 
REMARK    2  A    between atoms: C3_3  and  C4_4 
REMARK    3  A    between atoms: C4_4  and  C5_5 
REMARK    4  A    between atoms: C5_5  and  N1_6 
REMARK    5  A    between atoms: N1_6  and  C6_9 
REMARK    6  A    between atoms: C6_9  and  C7_10 
REMARK    7  A    between atoms: C7_10  and  C8_11 
REMARK    8  A    between atoms: C8_11  and  C9_12 
ROOT
HETATM    1  N1  UNL     1      12.762  -3.189   0.116  1.00  0.00    -0.075 N 
ATOM      2  H11 UNL     1      12.094  -2.884  -0.592  1.00  0.00     0.277 HD
ATOM      3  H12 UNL     1      12.961  -2.291   0.554  1.00  0.00     0.277 HD
ENDROOT
BRANCH   1   4
HETATM    4  C5  UNL     1      13.941  -3.736  -0.493  1.00  0.00     0.232 C 
BRANCH   4   5
HETATM    5  C4  UNL     1      14.014  -5.241  -0.196  1.00  0.00     0.031 C 
BRANCH   5   6
HETATM    6  C3  UNL     1      15.519  -5.557  -0.251  1.00  0.00     0.028 C 
BRANCH   6   7
HETATM    7  C2  UNL     1      16.228  -4.577  -1.094  1.00  0.00    -0.037 C 
HETATM    8  C1  UNL     1      17.453  -4.823  -1.488  1.00  0.00     0.007 C 
ENDBRANCH   6   7
ENDBRANCH   5   6
ENDBRANCH   4   5
ENDBRANCH   1   4
BRANCH   1   9
HETATM    9  C6  UNL     1      12.146  -4.098   1.053  1.00  0.00     0.232 C 
BRANCH   9  10
HETATM   10  C7  UNL     1      10.668  -3.880   1.034  1.00  0.00     0.028 C 
BRANCH  10  11
HETATM   11  C8  UNL     1      10.170  -3.262  -0.238  1.00  0.00     0.005 C 
BRANCH  11  12
HETATM   12  C9  UNL     1       9.037  -2.339   0.045  1.00  0.00    -0.023 C 
HETATM   13  C10 UNL     1       9.545  -0.914   0.288  1.00  0.00     0.009 C 
HETATM   14  C11 UNL     1       8.221  -2.686   1.263  1.00  0.00     0.009 C 
ENDBRANCH  11  12
ENDBRANCH  10  11
ENDBRANCH   9  10
ENDBRANCH   1   9
TORSDOF 8
ENDMDL
