MODEL 1
REMARK VINA RESULT: -4.992618019      0.000      0.000
REMARK  5 active torsions:
REMARK  status: ('A' for Active; 'I' for Inactive)
REMARK    1  A    between atoms: C2_2  and  C3_3 
REMARK    2  A    between atoms: C3_3  and  C4_4 
REMARK    3  A    between atoms: C4_4  and  C5_5 
REMARK    4  A    between atoms: C5_5  and  O1_6 
REMARK    5  A    between atoms: O1_6  and  C6_7 
ROOT
HETATM    1  C6  UNL     1      -9.033  -8.464 -18.354  1.00  0.00     0.085 A 
HETATM    2  C7  UNL     1      -8.875  -7.306 -17.626  1.00  0.00     0.055 A 
HETATM    3  C8  UNL     1      -7.525  -6.976 -17.607  1.00  0.00     0.090 A 
HETATM    4  N1  UNL     1      -6.875  -7.914 -18.309  1.00  0.00    -0.373 N 
ATOM      5  H1  UNL     1      -5.868  -7.936 -18.469  1.00  0.00     0.164 HD
HETATM    6  C9  UNL     1      -7.743  -8.812 -18.765  1.00  0.00     0.124 A 
ENDROOT
BRANCH   1   7
HETATM    7  O1  UNL     1     -10.151  -9.196 -18.668  1.00  0.00    -0.350 OA
BRANCH   7   8
HETATM    8  C5  UNL     1     -11.477  -8.875 -18.547  1.00  0.00     0.176 C 
BRANCH   8   9
HETATM    9  C4  UNL     1     -12.373  -9.996 -18.945  1.00  0.00     0.030 C 
BRANCH   9  10
HETATM   10  C3  UNL     1     -11.829 -10.779 -20.123  1.00  0.00     0.028 C 
BRANCH  10  11
HETATM   11  C2  UNL     1     -12.239 -12.200 -20.009  1.00  0.00    -0.037 C 
HETATM   12  C1  UNL     1     -13.446 -12.553 -20.409  1.00  0.00     0.007 C 
ENDBRANCH  10  11
ENDBRANCH   9  10
ENDBRANCH   8   9
ENDBRANCH   7   8
ENDBRANCH   1   7
TORSDOF 5
ENDMDL
MODEL 2
REMARK VINA RESULT: -4.968536479      0.749      1.212
REMARK  5 active torsions:
REMARK  status: ('A' for Active; 'I' for Inactive)
REMARK    1  A    between atoms: C2_2  and  C3_3 
REMARK    2  A    between atoms: C3_3  and  C4_4 
REMARK    3  A    between atoms: C4_4  and  C5_5 
REMARK    4  A    between atoms: C5_5  and  O1_6 
REMARK    5  A    between atoms: O1_6  and  C6_7 
ROOT
HETATM    1  C6  UNL     1      -8.765  -8.450 -18.449  1.00  0.00     0.085 A 
HETATM    2  C7  UNL     1      -7.522  -8.786 -18.939  1.00  0.00     0.055 A 
HETATM    3  C8  UNL     1      -6.602  -7.845 -18.494  1.00  0.00     0.090 A 
HETATM    4  N1  UNL     1      -7.270  -6.955 -17.748  1.00  0.00    -0.373 N 
ATOM      5  H1  UNL     1      -6.855  -6.145 -17.286  1.00  0.00     0.164 HD
HETATM    6  C9  UNL     1      -8.557  -7.286 -17.703  1.00  0.00     0.124 A 
ENDROOT
BRANCH   1   7
HETATM    7  O1  UNL     1      -9.992  -9.048 -18.594  1.00  0.00    -0.350 OA
BRANCH   7   8
HETATM    8  C5  UNL     1     -11.246  -8.557 -18.348  1.00  0.00     0.176 C 
BRANCH   8   9
HETATM    9  C4  UNL     1     -12.318  -9.528 -18.704  1.00  0.00     0.030 C 
BRANCH   9  10
HETATM   10  C3  UNL     1     -11.818 -10.631 -19.614  1.00  0.00     0.028 C 
BRANCH  10  11
HETATM   11  C2  UNL     1     -12.900 -11.621 -19.839  1.00  0.00    -0.037 C 
HETATM   12  C1  UNL     1     -12.591 -12.810 -20.320  1.00  0.00     0.007 C 
ENDBRANCH  10  11
ENDBRANCH   9  10
ENDBRANCH   8   9
ENDBRANCH   7   8
ENDBRANCH   1   7
TORSDOF 5
ENDMDL
MODEL 3
REMARK VINA RESULT: -4.671076435      1.528      2.186
REMARK  5 active torsions:
REMARK  status: ('A' for Active; 'I' for Inactive)
REMARK    1  A    between atoms: C2_2  and  C3_3 
REMARK    2  A    between atoms: C3_3  and  C4_4 
REMARK    3  A    between atoms: C4_4  and  C5_5 
REMARK    4  A    between atoms: C5_5  and  O1_6 
REMARK    5  A    between atoms: O1_6  and  C6_7 
ROOT
HETATM    1  C6  UNL     1      -7.388  -6.801 -18.289  1.00  0.00     0.085 A 
HETATM    2  C7  UNL     1      -6.901  -5.803 -17.474  1.00  0.00     0.055 A 
HETATM    3  C8  UNL     1      -5.515  -5.800 -17.555  1.00  0.00     0.090 A 
HETATM    4  N1  UNL     1      -5.163  -6.778 -18.402  1.00  0.00    -0.373 N 
ATOM      5  H1  UNL     1      -4.205  -7.016 -18.661  1.00  0.00     0.164 HD
HETATM    6  C9  UNL     1      -6.252  -7.390 -18.855  1.00  0.00     0.124 A 
ENDROOT
BRANCH   1   7
HETATM    7  O1  UNL     1      -8.669  -7.210 -18.561  1.00  0.00    -0.350 OA
BRANCH   7   8
HETATM    8  C5  UNL     1      -9.432  -8.177 -17.962  1.00  0.00     0.176 C 
BRANCH   8   9
HETATM    9  C4  UNL     1      -9.853  -9.242 -18.914  1.00  0.00     0.030 C 
BRANCH   9  10
HETATM   10  C3  UNL     1     -11.346  -9.499 -18.868  1.00  0.00     0.028 C 
BRANCH  10  11
HETATM   11  C2  UNL     1     -11.670 -10.698 -19.679  1.00  0.00    -0.037 C 
HETATM   12  C1  UNL     1     -12.859 -11.255 -19.551  1.00  0.00     0.007 C 
ENDBRANCH  10  11
ENDBRANCH   9  10
ENDBRANCH   8   9
ENDBRANCH   7   8
ENDBRANCH   1   7
TORSDOF 5
ENDMDL
MODEL 4
REMARK VINA RESULT: -4.661908884      4.499      6.351
REMARK  5 active torsions:
REMARK  status: ('A' for Active; 'I' for Inactive)
REMARK    1  A    between atoms: C2_2  and  C3_3 
REMARK    2  A    between atoms: C3_3  and  C4_4 
REMARK    3  A    between atoms: C4_4  and  C5_5 
REMARK    4  A    between atoms: C5_5  and  O1_6 
REMARK    5  A    between atoms: O1_6  and  C6_7 
ROOT
HETATM    1  C6  UNL     1      -4.296  -4.481 -17.243  1.00  0.00     0.085 A 
HETATM    2  C7  UNL     1      -4.592  -3.145 -17.096  1.00  0.00     0.055 A 
HETATM    3  C8  UNL     1      -3.882  -2.649 -16.010  1.00  0.00     0.090 A 
HETATM    4  N1  UNL     1      -3.167  -3.665 -15.505  1.00  0.00    -0.373 N 
ATOM      5  H1  UNL     1      -2.546  -3.602 -14.698  1.00  0.00     0.164 HD
HETATM    6  C9  UNL     1      -3.392  -4.766 -16.215  1.00  0.00     0.124 A 
ENDROOT
BRANCH   1   7
HETATM    7  O1  UNL     1      -4.728  -5.415 -18.152  1.00  0.00    -0.350 OA
BRANCH   7   8
HETATM    8  C5  UNL     1      -5.547  -6.499 -17.981  1.00  0.00     0.176 C 
BRANCH   8   9
HETATM    9  C4  UNL     1      -6.976  -6.113 -17.820  1.00  0.00     0.030 C 
BRANCH   9  10
HETATM   10  C3  UNL     1      -7.875  -6.791 -18.835  1.00  0.00     0.028 C 
BRANCH  10  11
HETATM   11  C2  UNL     1      -8.740  -7.783 -18.152  1.00  0.00    -0.037 C 
HETATM   12  C1  UNL     1      -9.466  -7.397 -17.120  1.00  0.00     0.007 C 
ENDBRANCH  10  11
ENDBRANCH   9  10
ENDBRANCH   8   9
ENDBRANCH   7   8
ENDBRANCH   1   7
TORSDOF 5
ENDMDL
MODEL 5
REMARK VINA RESULT: -4.597643818      4.223      5.692
REMARK  5 active torsions:
REMARK  status: ('A' for Active; 'I' for Inactive)
REMARK    1  A    between atoms: C2_2  and  C3_3 
REMARK    2  A    between atoms: C3_3  and  C4_4 
REMARK    3  A    between atoms: C4_4  and  C5_5 
REMARK    4  A    between atoms: C5_5  and  O1_6 
REMARK    5  A    between atoms: O1_6  and  C6_7 
ROOT
HETATM    1  C6  UNL     1      -5.332  -4.708 -17.316  1.00  0.00     0.085 A 
HETATM    2  C7  UNL     1      -5.077  -3.355 -17.284  1.00  0.00     0.055 A 
HETATM    3  C8  UNL     1      -3.839  -3.151 -16.690  1.00  0.00     0.090 A 
HETATM    4  N1  UNL     1      -3.349  -4.356 -16.365  1.00  0.00    -0.373 N 
ATOM      5  H1  UNL     1      -2.451  -4.523 -15.912  1.00  0.00     0.164 HD
HETATM    6  C9  UNL     1      -4.212  -5.301 -16.724  1.00  0.00     0.124 A 
ENDROOT
BRANCH   1   7
HETATM    7  O1  UNL     1      -6.403  -5.421 -17.794  1.00  0.00    -0.350 OA
BRANCH   7   8
HETATM    8  C5  UNL     1      -6.435  -6.570 -18.539  1.00  0.00     0.176 C 
BRANCH   8   9
HETATM    9  C4  UNL     1      -7.807  -6.907 -19.009  1.00  0.00     0.030 C 
BRANCH   9  10
HETATM   10  C3  UNL     1      -8.343  -8.170 -18.365  1.00  0.00     0.028 C 
BRANCH  10  11
HETATM   11  C2  UNL     1      -9.025  -7.830 -17.093  1.00  0.00    -0.037 C 
HETATM   12  C1  UNL     1      -9.671  -6.684 -16.998  1.00  0.00     0.007 C 
ENDBRANCH  10  11
ENDBRANCH   9  10
ENDBRANCH   8   9
ENDBRANCH   7   8
ENDBRANCH   1   7
TORSDOF 5
ENDMDL
