MODEL 1
REMARK VINA RESULT: -4.961378665      0.000      0.000
REMARK  5 active torsions:
REMARK  status: ('A' for Active; 'I' for Inactive)
REMARK    1  A    between atoms: C1_1  and  C2_2 
REMARK    2  A    between atoms: C1_1  and  C6_9 
REMARK    3  A    between atoms: C2_2  and  N1_3 
REMARK    4  A    between atoms: N1_3  and  C3_6 
REMARK    5  A    between atoms: C6_9  and  C7_10 
ROOT
HETATM    1  C2  UNL     1     -10.332  -9.440 -18.905  1.00  0.00     0.232 C 
ENDROOT
BRANCH   1   2
HETATM    2  C1  UNL     1     -11.844  -9.541 -18.900  1.00  0.00     0.028 C 
BRANCH   2   3
HETATM    3  C6  UNL     1     -12.211 -10.436 -20.059  1.00  0.00     0.006 C 
BRANCH   3   4
HETATM    4  C7  UNL     1     -12.849 -11.714 -19.666  1.00  0.00    -0.014 A 
HETATM    5  C8  UNL     1     -13.718 -12.505 -20.531  1.00  0.00     0.005 A 
HETATM    6  C9  UNL     1     -12.304 -12.941 -20.433  1.00  0.00     0.005 A 
ENDBRANCH   3   4
ENDBRANCH   2   3
ENDBRANCH   1   2
BRANCH   1   7
HETATM    7  N1  UNL     1      -9.904  -8.329 -18.084  1.00  0.00    -0.071 N 
ATOM      8  H12 UNL     1     -10.420  -7.479 -18.308  1.00  0.00     0.277 HD
ATOM      9  H11 UNL     1     -10.203  -8.445 -17.116  1.00  0.00     0.277 HD
BRANCH   7  10
HETATM   10  C3  UNL     1      -8.477  -8.121 -18.175  1.00  0.00     0.186 A 
HETATM   11  C4  UNL     1      -8.068  -6.869 -18.920  1.00  0.00     0.035 A 
HETATM   12  C5  UNL     1      -7.904  -6.917 -17.430  1.00  0.00     0.035 A 
ENDBRANCH   7  10
ENDBRANCH   1   7
TORSDOF 5
ENDMDL
MODEL 2
REMARK VINA RESULT: -4.639879169      4.335      6.252
REMARK  5 active torsions:
REMARK  status: ('A' for Active; 'I' for Inactive)
REMARK    1  A    between atoms: C1_1  and  C2_2 
REMARK    2  A    between atoms: C1_1  and  C6_9 
REMARK    3  A    between atoms: C2_2  and  N1_3 
REMARK    4  A    between atoms: N1_3  and  C3_6 
REMARK    5  A    between atoms: C6_9  and  C7_10 
ROOT
HETATM    1  C2  UNL     1      -5.629  -6.578 -17.039  1.00  0.00     0.232 C 
ENDROOT
BRANCH   1   2
HETATM    2  C1  UNL     1      -5.906  -6.535 -18.528  1.00  0.00     0.028 C 
BRANCH   2   3
HETATM    3  C6  UNL     1      -7.408  -6.600 -18.679  1.00  0.00     0.006 C 
BRANCH   3   4
HETATM    4  C7  UNL     1      -8.121  -7.103 -17.483  1.00  0.00    -0.014 A 
HETATM    5  C8  UNL     1      -9.502  -6.775 -17.144  1.00  0.00     0.005 A 
HETATM    6  C9  UNL     1      -9.276  -8.078 -17.814  1.00  0.00     0.005 A 
ENDBRANCH   3   4
ENDBRANCH   2   3
ENDBRANCH   1   2
BRANCH   1   7
HETATM    7  N1  UNL     1      -4.595  -5.626 -16.697  1.00  0.00    -0.071 N 
ATOM      8  H12 UNL     1      -4.718  -5.265 -15.751  1.00  0.00     0.277 HD
ATOM      9  H11 UNL     1      -3.692  -6.084 -16.576  1.00  0.00     0.277 HD
BRANCH   7  10
HETATM   10  C3  UNL     1      -4.519  -4.556 -17.665  1.00  0.00     0.186 A 
HETATM   11  C4  UNL     1      -5.031  -3.221 -17.171  1.00  0.00     0.035 A 
HETATM   12  C5  UNL     1      -3.555  -3.412 -17.358  1.00  0.00     0.035 A 
ENDBRANCH   7  10
ENDBRANCH   1   7
TORSDOF 5
ENDMDL
MODEL 3
REMARK VINA RESULT: -4.537254457      3.866      8.564
REMARK  5 active torsions:
REMARK  status: ('A' for Active; 'I' for Inactive)
REMARK    1  A    between atoms: C1_1  and  C2_2 
REMARK    2  A    between atoms: C1_1  and  C6_9 
REMARK    3  A    between atoms: C2_2  and  N1_3 
REMARK    4  A    between atoms: N1_3  and  C3_6 
REMARK    5  A    between atoms: C6_9  and  C7_10 
ROOT
HETATM    1  C2  UNL     1      -6.296  -6.290 -18.513  1.00  0.00     0.232 C 
ENDROOT
BRANCH   1   2
HETATM    2  C1  UNL     1      -6.209  -5.225 -17.438  1.00  0.00     0.028 C 
BRANCH   2   3
HETATM    3  C6  UNL     1      -4.762  -4.791 -17.390  1.00  0.00     0.006 C 
BRANCH   3   4
HETATM    4  C7  UNL     1      -4.566  -3.324 -17.357  1.00  0.00    -0.014 A 
HETATM    5  C8  UNL     1      -4.733  -2.493 -16.170  1.00  0.00     0.005 A 
HETATM    6  C9  UNL     1      -3.344  -2.881 -16.517  1.00  0.00     0.005 A 
ENDBRANCH   3   4
ENDBRANCH   2   3
ENDBRANCH   1   2
BRANCH   1   7
HETATM    7  N1  UNL     1      -7.676  -6.662 -18.734  1.00  0.00    -0.071 N 
ATOM      8  H12 UNL     1      -8.246  -5.852 -18.978  1.00  0.00     0.277 HD
ATOM      9  H11 UNL     1      -7.783  -7.196 -19.596  1.00  0.00     0.277 HD
BRANCH   7  10
HETATM   10  C3  UNL     1      -8.222  -7.372 -17.601  1.00  0.00     0.186 A 
HETATM   11  C4  UNL     1      -9.548  -6.840 -17.103  1.00  0.00     0.035 A 
HETATM   12  C5  UNL     1      -9.515  -8.151 -17.831  1.00  0.00     0.035 A 
ENDBRANCH   7  10
ENDBRANCH   1   7
TORSDOF 5
ENDMDL
MODEL 4
REMARK VINA RESULT: -4.523775284      4.185      6.094
REMARK  5 active torsions:
REMARK  status: ('A' for Active; 'I' for Inactive)
REMARK    1  A    between atoms: C1_1  and  C2_2 
REMARK    2  A    between atoms: C1_1  and  C6_9 
REMARK    3  A    between atoms: C2_2  and  N1_3 
REMARK    4  A    between atoms: N1_3  and  C3_6 
REMARK    5  A    between atoms: C6_9  and  C7_10 
ROOT
HETATM    1  C2  UNL     1      -5.033  -5.526 -17.872  1.00  0.00     0.232 C 
ENDROOT
BRANCH   1   2
HETATM    2  C1  UNL     1      -6.472  -5.416 -17.411  1.00  0.00     0.028 C 
BRANCH   2   3
HETATM    3  C6  UNL     1      -7.250  -6.435 -18.209  1.00  0.00     0.006 C 
BRANCH   3   4
HETATM    4  C7  UNL     1      -8.011  -7.404 -17.386  1.00  0.00    -0.014 A 
HETATM    5  C8  UNL     1      -9.455  -7.361 -17.182  1.00  0.00     0.005 A 
HETATM    6  C9  UNL     1      -8.958  -8.308 -18.210  1.00  0.00     0.005 A 
ENDBRANCH   3   4
ENDBRANCH   2   3
ENDBRANCH   1   2
BRANCH   1   7
HETATM    7  N1  UNL     1      -4.897  -6.605 -18.826  1.00  0.00    -0.071 N 
ATOM      8  H12 UNL     1      -5.757  -7.148 -18.900  1.00  0.00     0.277 HD
ATOM      9  H11 UNL     1      -4.851  -6.252 -19.782  1.00  0.00     0.277 HD
BRANCH   7  10
HETATM   10  C3  UNL     1      -3.764  -7.447 -18.517  1.00  0.00     0.186 A 
HETATM   11  C4  UNL     1      -3.728  -7.958 -17.094  1.00  0.00     0.035 A 
HETATM   12  C5  UNL     1      -4.057  -8.913 -18.203  1.00  0.00     0.035 A 
ENDBRANCH   7  10
ENDBRANCH   1   7
TORSDOF 5
ENDMDL
MODEL 5
REMARK VINA RESULT: -4.519289929      1.237      6.168
REMARK  5 active torsions:
REMARK  status: ('A' for Active; 'I' for Inactive)
REMARK    1  A    between atoms: C1_1  and  C2_2 
REMARK    2  A    between atoms: C1_1  and  C6_9 
REMARK    3  A    between atoms: C2_2  and  N1_3 
REMARK    4  A    between atoms: N1_3  and  C3_6 
REMARK    5  A    between atoms: C6_9  and  C7_10 
ROOT
HETATM    1  C2  UNL     1     -10.028  -9.241 -18.868  1.00  0.00     0.232 C 
ENDROOT
BRANCH   1   2
HETATM    2  C1  UNL     1      -9.349  -8.185 -18.020  1.00  0.00     0.028 C 
BRANCH   2   3
HETATM    3  C6  UNL     1      -7.951  -8.035 -18.571  1.00  0.00     0.006 C 
BRANCH   3   4
HETATM    4  C7  UNL     1      -7.474  -6.635 -18.654  1.00  0.00    -0.014 A 
HETATM    5  C8  UNL     1      -6.887  -5.894 -17.543  1.00  0.00     0.005 A 
HETATM    6  C9  UNL     1      -5.940  -6.494 -18.515  1.00  0.00     0.005 A 
ENDBRANCH   3   4
ENDBRANCH   2   3
ENDBRANCH   1   2
BRANCH   1   7
HETATM    7  N1  UNL     1     -11.446  -9.270 -18.587  1.00  0.00    -0.071 N 
ATOM      8  H12 UNL     1     -11.638  -9.693 -17.679  1.00  0.00     0.277 HD
ATOM      9  H11 UNL     1     -11.809  -8.335 -18.405  1.00  0.00     0.277 HD
BRANCH   7  10
HETATM   10  C3  UNL     1     -12.183  -9.927 -19.643  1.00  0.00     0.186 A 
HETATM   11  C4  UNL     1     -11.735 -11.341 -19.939  1.00  0.00     0.035 A 
HETATM   12  C5  UNL     1     -13.046 -11.121 -19.244  1.00  0.00     0.035 A 
ENDBRANCH   7  10
ENDBRANCH   1   7
TORSDOF 5
ENDMDL
