MODEL 1
REMARK VINA RESULT: -5.568646909      0.000      0.000
REMARK  5 active torsions:
REMARK  status: ('A' for Active; 'I' for Inactive)
REMARK    1  A    between atoms: C2_2  and  C3_3 
REMARK    2  A    between atoms: C3_3  and  C4_4 
REMARK    3  A    between atoms: C4_4  and  N1_5 
REMARK    4  A    between atoms: N1_5  and  C5_7 
REMARK    5  A    between atoms: C5_7  and  C6_8 
ROOT
HETATM    1  C6  UNL     1      -8.692  -7.767 -18.066  1.00  0.00    -0.006 A 
HETATM    2  C7  UNL     1      -8.204  -6.554 -17.676  1.00  0.00     0.015 A 
HETATM    3  C8  UNL     1      -6.865  -6.256 -17.849  1.00  0.00     0.018 A 
HETATM    4  C9  UNL     1      -6.056  -7.216 -18.420  1.00  0.00     0.087 A 
HETATM    5  N2  UNL     1      -6.526  -8.425 -18.812  1.00  0.00    -0.374 N 
ATOM      6  H2  UNL     1      -5.902  -9.115 -19.232  1.00  0.00     0.164 HD
HETATM    7  C10 UNL     1      -7.828  -8.697 -18.637  1.00  0.00     0.100 A 
ENDROOT
BRANCH   1   8
HETATM    8  C5  UNL     1     -10.089  -8.181 -17.931  1.00  0.00     0.095 C 
BRANCH   8   9
HETATM    9  N1  UNL     1     -10.408  -9.238 -18.800  1.00  0.00    -0.398 N 
ATOM     10  H1  UNL     1      -9.676  -9.745 -19.297  1.00  0.00     0.158 HD
BRANCH   9  11
HETATM   11  C4  UNL     1     -11.771  -9.582 -18.970  1.00  0.00     0.122 C 
BRANCH  11  12
HETATM   12  C3  UNL     1     -11.838 -10.803 -19.853  1.00  0.00     0.046 C 
BRANCH  12  13
HETATM   13  C2  UNL     1     -13.042 -11.622 -19.645  1.00  0.00    -0.035 C 
HETATM   14  C1  UNL     1     -13.362 -12.712 -20.299  1.00  0.00     0.007 C 
ENDBRANCH  12  13
ENDBRANCH  11  12
ENDBRANCH   9  11
ENDBRANCH   8   9
ENDBRANCH   1   8
TORSDOF 5
ENDMDL
MODEL 2
REMARK VINA RESULT: -5.147629672      3.673      5.713
REMARK  5 active torsions:
REMARK  status: ('A' for Active; 'I' for Inactive)
REMARK    1  A    between atoms: C2_2  and  C3_3 
REMARK    2  A    between atoms: C3_3  and  C4_4 
REMARK    3  A    between atoms: C4_4  and  N1_5 
REMARK    4  A    between atoms: N1_5  and  C5_7 
REMARK    5  A    between atoms: C5_7  and  C6_8 
ROOT
HETATM    1  C6  UNL     1      -4.527  -5.303 -16.929  1.00  0.00    -0.006 A 
HETATM    2  C7  UNL     1      -5.194  -4.194 -17.361  1.00  0.00     0.015 A 
HETATM    3  C8  UNL     1      -4.821  -2.941 -16.911  1.00  0.00     0.018 A 
HETATM    4  C9  UNL     1      -3.769  -2.857 -16.023  1.00  0.00     0.087 A 
HETATM    5  N2  UNL     1      -3.098  -3.950 -15.584  1.00  0.00    -0.374 N 
ATOM      6  H2  UNL     1      -2.323  -3.855 -14.926  1.00  0.00     0.164 HD
HETATM    7  C10 UNL     1      -3.473  -5.159 -16.031  1.00  0.00     0.100 A 
ENDROOT
BRANCH   1   8
HETATM    8  C5  UNL     1      -4.838  -6.672 -17.344  1.00  0.00     0.095 C 
BRANCH   8   9
HETATM    9  N1  UNL     1      -5.412  -6.712 -18.626  1.00  0.00    -0.398 N 
ATOM     10  H1  UNL     1      -5.021  -6.162 -19.391  1.00  0.00     0.158 HD
BRANCH   9  11
HETATM   11  C4  UNL     1      -6.545  -7.536 -18.830  1.00  0.00     0.122 C 
BRANCH  11  12
HETATM   12  C3  UNL     1      -7.767  -6.651 -18.848  1.00  0.00     0.046 C 
BRANCH  12  13
HETATM   13  C2  UNL     1      -8.577  -6.731 -17.623  1.00  0.00    -0.035 C 
HETATM   14  C1  UNL     1      -9.381  -7.710 -17.286  1.00  0.00     0.007 C 
ENDBRANCH  12  13
ENDBRANCH  11  12
ENDBRANCH   9  11
ENDBRANCH   8   9
ENDBRANCH   1   8
TORSDOF 5
ENDMDL
MODEL 3
REMARK VINA RESULT: -5.128729182      3.027      7.483
REMARK  5 active torsions:
REMARK  status: ('A' for Active; 'I' for Inactive)
REMARK    1  A    between atoms: C2_2  and  C3_3 
REMARK    2  A    between atoms: C3_3  and  C4_4 
REMARK    3  A    between atoms: C4_4  and  N1_5 
REMARK    4  A    between atoms: N1_5  and  C5_7 
REMARK    5  A    between atoms: C5_7  and  C6_8 
ROOT
HETATM    1  C6  UNL     1      -7.308  -6.639 -17.737  1.00  0.00    -0.006 A 
HETATM    2  C7  UNL     1      -8.610  -6.859 -17.396  1.00  0.00     0.015 A 
HETATM    3  C8  UNL     1      -9.245  -8.021 -17.795  1.00  0.00     0.018 A 
HETATM    4  C9  UNL     1      -8.523  -8.932 -18.538  1.00  0.00     0.087 A 
HETATM    5  N2  UNL     1      -7.229  -8.727 -18.885  1.00  0.00    -0.374 N 
ATOM      6  H2  UNL     1      -6.722  -9.420 -19.435  1.00  0.00     0.164 HD
HETATM    7  C10 UNL     1      -6.629  -7.593 -18.489  1.00  0.00     0.100 A 
ENDROOT
BRANCH   1   8
HETATM    8  C5  UNL     1      -6.543  -5.447 -17.366  1.00  0.00     0.095 C 
BRANCH   8   9
HETATM    9  N1  UNL     1      -5.160  -5.694 -17.357  1.00  0.00    -0.398 N 
ATOM     10  H1  UNL     1      -4.795  -6.615 -17.113  1.00  0.00     0.158 HD
BRANCH   9  11
HETATM   11  C4  UNL     1      -4.285  -4.634 -17.697  1.00  0.00     0.122 C 
BRANCH  11  12
HETATM   12  C3  UNL     1      -4.974  -3.335 -17.360  1.00  0.00     0.046 C 
BRANCH  12  13
HETATM   13  C2  UNL     1      -4.348  -2.601 -16.249  1.00  0.00    -0.035 C 
HETATM   14  C1  UNL     1      -3.106  -2.715 -15.845  1.00  0.00     0.007 C 
ENDBRANCH  12  13
ENDBRANCH  11  12
ENDBRANCH   9  11
ENDBRANCH   8   9
ENDBRANCH   1   8
TORSDOF 5
ENDMDL
MODEL 4
REMARK VINA RESULT: -5.053514509      3.043      4.563
REMARK  5 active torsions:
REMARK  status: ('A' for Active; 'I' for Inactive)
REMARK    1  A    between atoms: C2_2  and  C3_3 
REMARK    2  A    between atoms: C3_3  and  C4_4 
REMARK    3  A    between atoms: C4_4  and  N1_5 
REMARK    4  A    between atoms: N1_5  and  C5_7 
REMARK    5  A    between atoms: C5_7  and  C6_8 
ROOT
HETATM    1  C6  UNL     1      -5.294  -6.423 -18.061  1.00  0.00    -0.006 A 
HETATM    2  C7  UNL     1      -6.180  -5.461 -17.673  1.00  0.00     0.015 A 
HETATM    3  C8  UNL     1      -5.730  -4.200 -17.331  1.00  0.00     0.018 A 
HETATM    4  C9  UNL     1      -4.374  -3.956 -17.395  1.00  0.00     0.087 A 
HETATM    5  N2  UNL     1      -3.481  -4.901 -17.778  1.00  0.00    -0.374 N 
ATOM      6  H2  UNL     1      -2.483  -4.691 -17.815  1.00  0.00     0.164 HD
HETATM    7  C10 UNL     1      -3.936  -6.121 -18.106  1.00  0.00     0.100 A 
ENDROOT
BRANCH   1   8
HETATM    8  C5  UNL     1      -5.665  -7.786 -18.444  1.00  0.00     0.095 C 
BRANCH   8   9
HETATM    9  N1  UNL     1      -6.948  -7.839 -19.014  1.00  0.00    -0.398 N 
ATOM     10  H1  UNL     1      -7.288  -7.080 -19.606  1.00  0.00     0.158 HD
BRANCH   9  11
HETATM   11  C4  UNL     1      -7.757  -8.970 -18.749  1.00  0.00     0.122 C 
BRANCH  11  12
HETATM   12  C3  UNL     1      -9.122  -8.480 -18.333  1.00  0.00     0.046 C 
BRANCH  12  13
HETATM   13  C2  UNL     1      -9.119  -7.702 -17.085  1.00  0.00    -0.035 C 
HETATM   14  C1  UNL     1      -9.688  -6.536 -16.896  1.00  0.00     0.007 C 
ENDBRANCH  12  13
ENDBRANCH  11  12
ENDBRANCH   9  11
ENDBRANCH   8   9
ENDBRANCH   1   8
TORSDOF 5
ENDMDL
MODEL 5
REMARK VINA RESULT: -4.992894801      1.238      1.914
REMARK  5 active torsions:
REMARK  status: ('A' for Active; 'I' for Inactive)
REMARK    1  A    between atoms: C2_2  and  C3_3 
REMARK    2  A    between atoms: C3_3  and  C4_4 
REMARK    3  A    between atoms: C4_4  and  N1_5 
REMARK    4  A    between atoms: N1_5  and  C5_7 
REMARK    5  A    between atoms: C5_7  and  C6_8 
ROOT
HETATM    1  C6  UNL     1      -7.179  -6.606 -17.758  1.00  0.00    -0.006 A 
HETATM    2  C7  UNL     1      -6.586  -5.444 -17.357  1.00  0.00     0.015 A 
HETATM    3  C8  UNL     1      -5.256  -5.209 -17.649  1.00  0.00     0.018 A 
HETATM    4  C9  UNL     1      -4.563  -6.176 -18.347  1.00  0.00     0.087 A 
HETATM    5  N2  UNL     1      -5.139  -7.335 -18.751  1.00  0.00    -0.374 N 
ATOM      6  H2  UNL     1      -4.600  -8.032 -19.266  1.00  0.00     0.164 HD
HETATM    7  C10 UNL     1      -6.432  -7.547 -18.459  1.00  0.00     0.100 A 
ENDROOT
BRANCH   1   8
HETATM    8  C5  UNL     1      -8.579  -6.953 -17.503  1.00  0.00     0.095 C 
BRANCH   8   9
HETATM    9  N1  UNL     1      -8.948  -8.144 -18.149  1.00  0.00    -0.398 N 
ATOM     10  H1  UNL     1      -8.248  -8.734 -18.600  1.00  0.00     0.158 HD
BRANCH   9  11
HETATM   11  C4  UNL     1     -10.316  -8.508 -18.159  1.00  0.00     0.122 C 
BRANCH  11  12
HETATM   12  C3  UNL     1     -10.489  -9.649 -19.132  1.00  0.00     0.046 C 
BRANCH  12  13
HETATM   13  C2  UNL     1     -11.887 -10.067 -19.315  1.00  0.00    -0.035 C 
HETATM   14  C1  UNL     1     -12.299 -11.249 -19.703  1.00  0.00     0.007 C 
ENDBRANCH  12  13
ENDBRANCH  11  12
ENDBRANCH   9  11
ENDBRANCH   8   9
ENDBRANCH   1   8
TORSDOF 5
ENDMDL
