MODEL 1
REMARK VINA RESULT: -4.742205079      0.000      0.000
REMARK  7 active torsions:
REMARK  status: ('A' for Active; 'I' for Inactive)
REMARK    1  A    between atoms: C2_2  and  C3_3 
REMARK    2  A    between atoms: C3_3  and  C4_4 
REMARK    3  A    between atoms: C4_4  and  C5_5 
REMARK    4  A    between atoms: C5_5  and  C6_6 
REMARK    5  A    between atoms: C5_5  and  C8_12 
REMARK    6  A    between atoms: C6_6  and  C7_7 
REMARK    7  A    between atoms: C7_7  and  N1_8 
ROOT
HETATM    1  C5  UNL     1      -5.333  -5.731 -17.478  1.00  0.00    -0.009 C 
ENDROOT
BRANCH   1   2
HETATM    2  C4  UNL     1      -6.890  -5.827 -17.447  1.00  0.00     0.009 C 
BRANCH   2   3
HETATM    3  C3  UNL     1      -7.345  -6.524 -18.670  1.00  0.00     0.027 C 
BRANCH   3   4
HETATM    4  C2  UNL     1      -8.465  -7.503 -18.351  1.00  0.00    -0.037 C 
HETATM    5  C1  UNL     1      -9.220  -7.339 -17.275  1.00  0.00     0.007 C 
ENDBRANCH   3   4
ENDBRANCH   2   3
ENDBRANCH   1   2
BRANCH   1   6
HETATM    6  C6  UNL     1      -5.021  -4.298 -17.420  1.00  0.00     0.032 C 
BRANCH   6   7
HETATM    7  C7  UNL     1      -3.884  -3.823 -16.583  1.00  0.00     0.230 C 
BRANCH   7   8
HETATM    8  N1  UNL     1      -3.350  -4.885 -15.724  1.00  0.00    -0.079 N 
ATOM      9  H13 UNL     1      -3.818  -4.898 -14.818  1.00  0.00     0.274 HD
ATOM     10  H12 UNL     1      -3.625  -5.808 -16.061  1.00  0.00     0.274 HD
ATOM     11  H11 UNL     1      -2.337  -4.819 -15.615  1.00  0.00     0.274 HD
ENDBRANCH   7   8
ENDBRANCH   6   7
ENDBRANCH   1   6
BRANCH   1  12
HETATM   12  C8  UNL     1      -4.938  -6.517 -18.668  1.00  0.00    -0.010 A 
HETATM   13  C9  UNL     1      -3.847  -7.572 -18.556  1.00  0.00     0.005 A 
HETATM   14  C10 UNL     1      -3.629  -6.354 -19.339  1.00  0.00     0.005 A 
ENDBRANCH   1  12
TORSDOF 7
ENDMDL
MODEL 2
REMARK VINA RESULT: -4.707435725      1.069      1.221
REMARK  7 active torsions:
REMARK  status: ('A' for Active; 'I' for Inactive)
REMARK    1  A    between atoms: C2_2  and  C3_3 
REMARK    2  A    between atoms: C3_3  and  C4_4 
REMARK    3  A    between atoms: C4_4  and  C5_5 
REMARK    4  A    between atoms: C5_5  and  C6_6 
REMARK    5  A    between atoms: C5_5  and  C8_12 
REMARK    6  A    between atoms: C6_6  and  C7_7 
REMARK    7  A    between atoms: C7_7  and  N1_8 
ROOT
HETATM    1  C5  UNL     1      -5.745  -5.829 -17.511  1.00  0.00    -0.009 C 
ENDROOT
BRANCH   1   2
HETATM    2  C4  UNL     1      -7.281  -6.103 -17.455  1.00  0.00     0.009 C 
BRANCH   2   3
HETATM    3  C3  UNL     1      -7.697  -6.726 -18.731  1.00  0.00     0.027 C 
BRANCH   3   4
HETATM    4  C2  UNL     1      -8.514  -7.984 -18.478  1.00  0.00    -0.037 C 
HETATM    5  C1  UNL     1      -8.015  -9.181 -18.751  1.00  0.00     0.007 C 
ENDBRANCH   3   4
ENDBRANCH   2   3
ENDBRANCH   1   2
BRANCH   1   6
HETATM    6  C6  UNL     1      -5.601  -4.369 -17.512  1.00  0.00     0.032 C 
BRANCH   6   7
HETATM    7  C7  UNL     1      -4.347  -3.751 -17.000  1.00  0.00     0.230 C 
BRANCH   7   8
HETATM    8  N1  UNL     1      -4.606  -2.519 -16.248  1.00  0.00    -0.079 N 
ATOM      9  H13 UNL     1      -4.874  -1.756 -16.869  1.00  0.00     0.274 HD
ATOM     10  H12 UNL     1      -5.465  -2.593 -15.702  1.00  0.00     0.274 HD
ATOM     11  H11 UNL     1      -3.815  -2.255 -15.658  1.00  0.00     0.274 HD
ENDBRANCH   7   8
ENDBRANCH   6   7
ENDBRANCH   1   6
BRANCH   1  12
HETATM   12  C8  UNL     1      -5.274  -6.611 -18.676  1.00  0.00    -0.010 A 
HETATM   13  C9  UNL     1      -4.198  -7.671 -18.496  1.00  0.00     0.005 A 
HETATM   14  C10 UNL     1      -3.921  -6.450 -19.255  1.00  0.00     0.005 A 
ENDBRANCH   1  12
TORSDOF 7
ENDMDL
MODEL 3
REMARK VINA RESULT: -4.701241321      1.459      4.274
REMARK  7 active torsions:
REMARK  status: ('A' for Active; 'I' for Inactive)
REMARK    1  A    between atoms: C2_2  and  C3_3 
REMARK    2  A    between atoms: C3_3  and  C4_4 
REMARK    3  A    between atoms: C4_4  and  C5_5 
REMARK    4  A    between atoms: C5_5  and  C6_6 
REMARK    5  A    between atoms: C5_5  and  C8_12 
REMARK    6  A    between atoms: C6_6  and  C7_7 
REMARK    7  A    between atoms: C7_7  and  N1_8 
ROOT
HETATM    1  C5  UNL     1      -6.523  -6.622 -17.643  1.00  0.00    -0.009 C 
ENDROOT
BRANCH   1   2
HETATM    2  C4  UNL     1      -6.418  -5.084 -17.399  1.00  0.00     0.009 C 
BRANCH   2   3
HETATM    3  C3  UNL     1      -4.995  -4.689 -17.486  1.00  0.00     0.027 C 
BRANCH   3   4
HETATM    4  C2  UNL     1      -4.845  -3.179 -17.372  1.00  0.00    -0.037 C 
HETATM    5  C1  UNL     1      -4.346  -2.630 -16.273  1.00  0.00     0.007 C 
ENDBRANCH   3   4
ENDBRANCH   2   3
ENDBRANCH   1   2
BRANCH   1   6
HETATM    6  C6  UNL     1      -5.353  -6.978 -18.454  1.00  0.00     0.032 C 
BRANCH   6   7
HETATM    7  C7  UNL     1      -4.641  -8.261 -18.201  1.00  0.00     0.230 C 
BRANCH   7   8
HETATM    8  N1  UNL     1      -3.631  -8.133 -17.145  1.00  0.00    -0.079 N 
ATOM      9  H13 UNL     1      -3.408  -7.154 -16.964  1.00  0.00     0.274 HD
ATOM     10  H12 UNL     1      -4.015  -8.382 -16.233  1.00  0.00     0.274 HD
ATOM     11  H11 UNL     1      -2.789  -8.671 -17.351  1.00  0.00     0.274 HD
ENDBRANCH   7   8
ENDBRANCH   6   7
ENDBRANCH   1   6
BRANCH   1  12
HETATM   12  C8  UNL     1      -7.882  -6.816 -18.196  1.00  0.00    -0.010 A 
HETATM   13  C9  UNL     1      -8.978  -7.418 -17.330  1.00  0.00     0.005 A 
HETATM   14  C10 UNL     1      -8.449  -8.154 -18.479  1.00  0.00     0.005 A 
ENDBRANCH   1  12
TORSDOF 7
ENDMDL
MODEL 4
REMARK VINA RESULT: -4.685377135      1.858      4.273
REMARK  7 active torsions:
REMARK  status: ('A' for Active; 'I' for Inactive)
REMARK    1  A    between atoms: C2_2  and  C3_3 
REMARK    2  A    between atoms: C3_3  and  C4_4 
REMARK    3  A    between atoms: C4_4  and  C5_5 
REMARK    4  A    between atoms: C5_5  and  C6_6 
REMARK    5  A    between atoms: C5_5  and  C8_12 
REMARK    6  A    between atoms: C6_6  and  C7_7 
REMARK    7  A    between atoms: C7_7  and  N1_8 
ROOT
HETATM    1  C5  UNL     1      -5.897  -6.764 -17.471  1.00  0.00    -0.009 C 
ENDROOT
BRANCH   1   2
HETATM    2  C4  UNL     1      -5.058  -5.535 -16.998  1.00  0.00     0.009 C 
BRANCH   2   3
HETATM    3  C3  UNL     1      -5.773  -4.299 -17.382  1.00  0.00     0.027 C 
BRANCH   3   4
HETATM    4  C2  UNL     1      -4.828  -3.107 -17.393  1.00  0.00    -0.037 C 
HETATM    5  C1  UNL     1      -4.183  -2.745 -16.293  1.00  0.00     0.007 C 
ENDBRANCH   3   4
ENDBRANCH   2   3
ENDBRANCH   1   2
BRANCH   1   6
HETATM    6  C6  UNL     1      -5.037  -7.497 -18.407  1.00  0.00     0.032 C 
BRANCH   6   7
HETATM    7  C7  UNL     1      -3.722  -8.023 -17.946  1.00  0.00     0.230 C 
BRANCH   7   8
HETATM    8  N1  UNL     1      -3.610  -9.472 -18.139  1.00  0.00    -0.079 N 
ATOM      9  H13 UNL     1      -4.222  -9.979 -17.500  1.00  0.00     0.274 HD
ATOM     10  H12 UNL     1      -4.027  -9.761 -19.025  1.00  0.00     0.274 HD
ATOM     11  H11 UNL     1      -2.645  -9.796 -18.062  1.00  0.00     0.274 HD
ENDBRANCH   7   8
ENDBRANCH   6   7
ENDBRANCH   1   6
BRANCH   1  12
HETATM   12  C8  UNL     1      -7.169  -6.180 -17.950  1.00  0.00    -0.010 A 
HETATM   13  C9  UNL     1      -8.492  -6.841 -17.595  1.00  0.00     0.005 A 
HETATM   14  C10 UNL     1      -8.012  -6.830 -18.979  1.00  0.00     0.005 A 
ENDBRANCH   1  12
TORSDOF 7
ENDMDL
MODEL 5
REMARK VINA RESULT: -4.656812916      1.711      2.930
REMARK  7 active torsions:
REMARK  status: ('A' for Active; 'I' for Inactive)
REMARK    1  A    between atoms: C2_2  and  C3_3 
REMARK    2  A    between atoms: C3_3  and  C4_4 
REMARK    3  A    between atoms: C4_4  and  C5_5 
REMARK    4  A    between atoms: C5_5  and  C6_6 
REMARK    5  A    between atoms: C5_5  and  C8_12 
REMARK    6  A    between atoms: C6_6  and  C7_7 
REMARK    7  A    between atoms: C7_7  and  N1_8 
ROOT
HETATM    1  C5  UNL     1      -5.754  -5.598 -18.200  1.00  0.00    -0.009 C 
ENDROOT
BRANCH   1   2
HETATM    2  C4  UNL     1      -7.044  -6.215 -17.575  1.00  0.00     0.009 C 
BRANCH   2   3
HETATM    3  C3  UNL     1      -7.919  -6.688 -18.669  1.00  0.00     0.027 C 
BRANCH   3   4
HETATM    4  C2  UNL     1      -8.472  -8.072 -18.362  1.00  0.00    -0.037 C 
HETATM    5  C1  UNL     1      -7.858  -9.159 -18.808  1.00  0.00     0.007 C 
ENDBRANCH   3   4
ENDBRANCH   2   3
ENDBRANCH   1   2
BRANCH   1   6
HETATM    6  C6  UNL     1      -4.938  -6.738 -18.633  1.00  0.00     0.032 C 
BRANCH   6   7
HETATM    7  C7  UNL     1      -4.454  -7.725 -17.628  1.00  0.00     0.230 C 
BRANCH   7   8
HETATM    8  N1  UNL     1      -4.105  -9.011 -18.241  1.00  0.00    -0.079 N 
ATOM      9  H13 UNL     1      -3.437  -9.524 -17.665  1.00  0.00     0.274 HD
ATOM     10  H12 UNL     1      -4.888  -9.664 -18.202  1.00  0.00     0.274 HD
ATOM     11  H11 UNL     1      -3.762  -8.901 -19.196  1.00  0.00     0.274 HD
ENDBRANCH   7   8
ENDBRANCH   6   7
ENDBRANCH   1   6
BRANCH   1  12
HETATM   12  C8  UNL     1      -5.238  -4.685 -17.156  1.00  0.00    -0.010 A 
HETATM   13  C9  UNL     1      -5.073  -3.203 -17.454  1.00  0.00     0.005 A 
HETATM   14  C10 UNL     1      -3.902  -4.053 -17.232  1.00  0.00     0.005 A 
ENDBRANCH   1  12
TORSDOF 7
ENDMDL
