MODEL 1
REMARK VINA RESULT: -5.179332207      0.000      0.000
REMARK  6 active torsions:
REMARK  status: ('A' for Active; 'I' for Inactive)
REMARK    1  A    between atoms: C2_2  and  C3_3 
REMARK    2  A    between atoms: C3_3  and  N1_4 
REMARK    3  A    between atoms: N1_4  and  C4_7 
REMARK    4  A    between atoms: C4_7  and  C5_8 
REMARK    5  A    between atoms: C5_8  and  C6_9 
REMARK    6  A    between atoms: C6_9  and  C7_10 
ROOT
HETATM    1  C4  UNL     1     -10.189  -9.108 -18.718  1.00  0.00     0.232 C 
ENDROOT
BRANCH   1   2
HETATM    2  N1  UNL     1     -11.522  -9.533 -18.959  1.00  0.00    -0.072 N 
ATOM      3  H12 UNL     1     -12.063  -8.779 -19.383  1.00  0.00     0.277 HD
ATOM      4  H11 UNL     1     -12.026  -9.637 -18.079  1.00  0.00     0.277 HD
BRANCH   2   5
HETATM    5  C3  UNL     1     -11.632 -10.731 -19.745  1.00  0.00     0.259 C 
BRANCH   5   6
HETATM    6  C2  UNL     1     -12.937 -11.403 -19.577  1.00  0.00    -0.010 C 
HETATM    7  C1  UNL     1     -13.195 -12.567 -20.151  1.00  0.00     0.008 C 
ENDBRANCH   5   6
ENDBRANCH   2   5
ENDBRANCH   1   2
BRANCH   1   8
HETATM    8  C5  UNL     1     -10.032  -7.978 -17.736  1.00  0.00     0.028 C 
BRANCH   8   9
HETATM    9  C6  UNL     1      -8.624  -7.690 -17.338  1.00  0.00     0.006 C 
BRANCH   9  10
HETATM   10  C7  UNL     1      -7.955  -6.668 -18.223  1.00  0.00    -0.014 C 
HETATM   11  C8  UNL     1      -6.884  -7.382 -19.059  1.00  0.00     0.005 C 
HETATM   12  C9  UNL     1      -5.906  -6.996 -17.939  1.00  0.00     0.001 C 
HETATM   13  C10 UNL     1      -6.859  -5.860 -17.625  1.00  0.00     0.005 C 
ENDBRANCH   9  10
ENDBRANCH   8   9
ENDBRANCH   1   8
TORSDOF 6
ENDMDL
MODEL 2
REMARK VINA RESULT: -4.972561940      1.021      1.475
REMARK  6 active torsions:
REMARK  status: ('A' for Active; 'I' for Inactive)
REMARK    1  A    between atoms: C2_2  and  C3_3 
REMARK    2  A    between atoms: C3_3  and  N1_4 
REMARK    3  A    between atoms: N1_4  and  C4_7 
REMARK    4  A    between atoms: C4_7  and  C5_8 
REMARK    5  A    between atoms: C5_8  and  C6_9 
REMARK    6  A    between atoms: C6_9  and  C7_10 
ROOT
HETATM    1  C4  UNL     1     -10.057  -7.972 -17.317  1.00  0.00     0.232 C 
ENDROOT
BRANCH   1   2
HETATM    2  N1  UNL     1     -10.232  -8.807 -18.452  1.00  0.00    -0.072 N 
ATOM      3  H12 UNL     1      -9.630  -9.627 -18.386  1.00  0.00     0.277 HD
ATOM      4  H11 UNL     1      -9.837  -8.366 -19.282  1.00  0.00     0.277 HD
BRANCH   2   5
HETATM    5  C3  UNL     1     -11.593  -9.203 -18.696  1.00  0.00     0.259 C 
BRANCH   5   6
HETATM    6  C2  UNL     1     -11.691 -10.417 -19.533  1.00  0.00    -0.010 C 
HETATM    7  C1  UNL     1     -12.769 -11.183 -19.517  1.00  0.00     0.008 C 
ENDBRANCH   5   6
ENDBRANCH   2   5
ENDBRANCH   1   2
BRANCH   1   8
HETATM    8  C5  UNL     1      -8.986  -6.921 -17.440  1.00  0.00     0.028 C 
BRANCH   8   9
HETATM    9  C6  UNL     1      -7.791  -7.343 -18.224  1.00  0.00     0.006 C 
BRANCH   9  10
HETATM   10  C7  UNL     1      -6.866  -6.198 -18.557  1.00  0.00    -0.014 C 
HETATM   11  C8  UNL     1      -5.446  -6.758 -18.721  1.00  0.00     0.005 C 
HETATM   12  C9  UNL     1      -5.259  -6.425 -17.233  1.00  0.00     0.001 C 
HETATM   13  C10 UNL     1      -6.347  -5.388 -17.423  1.00  0.00     0.005 C 
ENDBRANCH   9  10
ENDBRANCH   8   9
ENDBRANCH   1   8
TORSDOF 6
ENDMDL
MODEL 3
REMARK VINA RESULT: -4.856707202      3.777      6.197
REMARK  6 active torsions:
REMARK  status: ('A' for Active; 'I' for Inactive)
REMARK    1  A    between atoms: C2_2  and  C3_3 
REMARK    2  A    between atoms: C3_3  and  N1_4 
REMARK    3  A    between atoms: N1_4  and  C4_7 
REMARK    4  A    between atoms: C4_7  and  C5_8 
REMARK    5  A    between atoms: C5_8  and  C6_9 
REMARK    6  A    between atoms: C6_9  and  C7_10 
ROOT
HETATM    1  C4  UNL     1      -4.915  -5.699 -17.022  1.00  0.00     0.232 C 
ENDROOT
BRANCH   1   2
HETATM    2  N1  UNL     1      -4.796  -7.015 -16.503  1.00  0.00    -0.072 N 
ATOM      3  H12 UNL     1      -5.661  -7.535 -16.651  1.00  0.00     0.277 HD
ATOM      4  H11 UNL     1      -4.775  -6.995 -15.484  1.00  0.00     0.277 HD
BRANCH   2   5
HETATM    5  C3  UNL     1      -3.674  -7.756 -17.012  1.00  0.00     0.259 C 
BRANCH   5   6
HETATM    6  C2  UNL     1      -4.047  -8.671 -18.111  1.00  0.00    -0.010 C 
HETATM    7  C1  UNL     1      -3.274  -9.686 -18.459  1.00  0.00     0.008 C 
ENDBRANCH   5   6
ENDBRANCH   2   5
ENDBRANCH   1   2
BRANCH   1   8
HETATM    8  C5  UNL     1      -6.256  -5.351 -17.613  1.00  0.00     0.028 C 
BRANCH   8   9
HETATM    9  C6  UNL     1      -7.345  -6.317 -17.293  1.00  0.00     0.006 C 
BRANCH   9  10
HETATM   10  C7  UNL     1      -8.106  -6.778 -18.512  1.00  0.00    -0.014 C 
HETATM   11  C8  UNL     1      -8.954  -7.996 -18.118  1.00  0.00     0.005 C 
HETATM   12  C9  UNL     1      -7.762  -8.843 -18.591  1.00  0.00     0.001 C 
HETATM   13  C10 UNL     1      -7.392  -7.664 -19.469  1.00  0.00     0.005 C 
ENDBRANCH   9  10
ENDBRANCH   8   9
ENDBRANCH   1   8
TORSDOF 6
ENDMDL
MODEL 4
REMARK VINA RESULT: -4.837638586      4.061      6.617
REMARK  6 active torsions:
REMARK  status: ('A' for Active; 'I' for Inactive)
REMARK    1  A    between atoms: C2_2  and  C3_3 
REMARK    2  A    between atoms: C3_3  and  N1_4 
REMARK    3  A    between atoms: N1_4  and  C4_7 
REMARK    4  A    between atoms: C4_7  and  C5_8 
REMARK    5  A    between atoms: C5_8  and  C6_9 
REMARK    6  A    between atoms: C6_9  and  C7_10 
ROOT
HETATM    1  C4  UNL     1      -4.376  -4.984 -17.567  1.00  0.00     0.232 C 
ENDROOT
BRANCH   1   2
HETATM    2  N1  UNL     1      -3.896  -5.890 -18.550  1.00  0.00    -0.072 N 
ATOM      3  H12 UNL     1      -3.600  -5.384 -19.385  1.00  0.00     0.277 HD
ATOM      4  H11 UNL     1      -4.666  -6.434 -18.938  1.00  0.00     0.277 HD
BRANCH   2   5
HETATM    5  C3  UNL     1      -2.846  -6.761 -18.095  1.00  0.00     0.259 C 
BRANCH   5   6
HETATM    6  C2  UNL     1      -3.363  -7.987 -17.453  1.00  0.00    -0.010 C 
HETATM    7  C1  UNL     1      -3.997  -8.917 -18.148  1.00  0.00     0.008 C 
ENDBRANCH   5   6
ENDBRANCH   2   5
ENDBRANCH   1   2
BRANCH   1   8
HETATM    8  C5  UNL     1      -5.873  -4.876 -17.457  1.00  0.00     0.028 C 
BRANCH   8   9
HETATM    9  C6  UNL     1      -6.584  -6.182 -17.350  1.00  0.00     0.006 C 
BRANCH   9  10
HETATM   10  C7  UNL     1      -7.516  -6.447 -18.506  1.00  0.00    -0.014 C 
HETATM   11  C8  UNL     1      -8.821  -7.031 -17.948  1.00  0.00     0.005 C 
HETATM   12  C9  UNL     1      -8.186  -8.408 -18.195  1.00  0.00     0.001 C 
HETATM   13  C10 UNL     1      -7.337  -7.724 -19.248  1.00  0.00     0.005 C 
ENDBRANCH   9  10
ENDBRANCH   8   9
ENDBRANCH   1   8
TORSDOF 6
ENDMDL
MODEL 5
REMARK VINA RESULT: -4.824895167      3.973      7.702
REMARK  6 active torsions:
REMARK  status: ('A' for Active; 'I' for Inactive)
REMARK    1  A    between atoms: C2_2  and  C3_3 
REMARK    2  A    between atoms: C3_3  and  N1_4 
REMARK    3  A    between atoms: N1_4  and  C4_7 
REMARK    4  A    between atoms: C4_7  and  C5_8 
REMARK    5  A    between atoms: C5_8  and  C6_9 
REMARK    6  A    between atoms: C6_9  and  C7_10 
ROOT
HETATM    1  C4  UNL     1      -5.063  -5.592 -17.859  1.00  0.00     0.232 C 
ENDROOT
BRANCH   1   2
HETATM    2  N1  UNL     1      -4.224  -4.459 -17.685  1.00  0.00    -0.072 N 
ATOM      3  H12 UNL     1      -3.658  -4.305 -18.519  1.00  0.00     0.277 HD
ATOM      4  H11 UNL     1      -3.488  -4.663 -17.009  1.00  0.00     0.277 HD
BRANCH   2   5
HETATM    5  C3  UNL     1      -4.918  -3.254 -17.321  1.00  0.00     0.259 C 
BRANCH   5   6
HETATM    6  C2  UNL     1      -4.299  -2.567 -16.169  1.00  0.00    -0.010 C 
HETATM    7  C1  UNL     1      -3.084  -2.878 -15.748  1.00  0.00     0.008 C 
ENDBRANCH   5   6
ENDBRANCH   2   5
ENDBRANCH   1   2
BRANCH   1   8
HETATM    8  C5  UNL     1      -6.481  -5.431 -17.382  1.00  0.00     0.028 C 
BRANCH   8   9
HETATM    9  C6  UNL     1      -7.250  -6.705 -17.280  1.00  0.00     0.006 C 
BRANCH   9  10
HETATM   10  C7  UNL     1      -8.028  -7.031 -18.530  1.00  0.00    -0.014 C 
HETATM   11  C8  UNL     1      -9.040  -8.136 -18.194  1.00  0.00     0.005 C 
HETATM   12  C9  UNL     1      -7.956  -9.120 -18.659  1.00  0.00     0.001 C 
HETATM   13  C10 UNL     1      -7.408  -7.980 -19.493  1.00  0.00     0.005 C 
ENDBRANCH   9  10
ENDBRANCH   8   9
ENDBRANCH   1   8
TORSDOF 6
ENDMDL
