MODEL 1
REMARK VINA RESULT: -7.705222947      0.000      0.000
REMARK  3 active torsions:
REMARK  status: ('A' for Active; 'I' for Inactive)
REMARK    1  A    between atoms: C1_4  and  N2_5 
REMARK    2  A    between atoms: C1_4  and  C10_15 
REMARK    3  A    between atoms: N2_5  and  C2_7 
ROOT
HETATM    1  N2  UNL     1       8.990  -4.591  21.354  1.00  0.00    -0.371 N 
ATOM      2  H2  UNL     1       9.669  -4.079  20.790  1.00  0.00     0.161 HD
ENDROOT
BRANCH   1   3
HETATM    3  C1  UNL     1       8.157  -5.539  20.722  1.00  0.00     0.112 C 
HETATM    4  N1  UNL     1       8.231  -6.773  21.055  1.00  0.00    -0.385 N 
ATOM      5  H12 UNL     1       8.899  -7.043  21.777  1.00  0.00     0.157 HD
ATOM      6  H11 UNL     1       7.629  -7.458  20.598  1.00  0.00     0.157 HD
BRANCH   3   7
HETATM    7  C10 UNL     1       7.205  -5.154  19.691  1.00  0.00     0.048 A 
HETATM    8  C11 UNL     1       5.848  -5.327  19.641  1.00  0.00     0.023 A 
HETATM    9  C12 UNL     1       5.206  -4.872  18.561  1.00  0.00     0.009 A 
HETATM   10  C13 UNL     1       5.952  -4.265  17.587  1.00  0.00     0.050 A 
HETATM   11  S1  UNL     1       7.534  -4.355  18.219  1.00  0.00    -0.098 SA
ENDBRANCH   3   7
ENDBRANCH   1   3
BRANCH   1  12
HETATM   12  C2  UNL     1       8.916  -4.319  22.775  1.00  0.00     0.087 C 
HETATM   13  C3  UNL     1       7.476  -4.219  23.167  1.00  0.00     0.030 C 
HETATM   14  C4  UNL     1       7.347  -3.066  24.147  1.00  0.00    -0.013 C 
HETATM   15  C5  UNL     1       8.359  -3.320  25.247  1.00  0.00     0.005 C 
HETATM   16  C9  UNL     1       7.692  -1.753  23.481  1.00  0.00     0.005 C 
HETATM   17  C6  UNL     1       9.764  -3.080  24.692  1.00  0.00     0.007 C 
HETATM   18  C7  UNL     1       9.703  -3.100  23.159  1.00  0.00     0.008 C 
HETATM   19  C8  UNL     1       9.014  -1.817  22.752  1.00  0.00     0.007 C 
ENDBRANCH   1  12
TORSDOF 3
ENDMDL
MODEL 2
REMARK VINA RESULT: -7.652529457      5.601      7.527
REMARK  3 active torsions:
REMARK  status: ('A' for Active; 'I' for Inactive)
REMARK    1  A    between atoms: C1_4  and  N2_5 
REMARK    2  A    between atoms: C1_4  and  C10_15 
REMARK    3  A    between atoms: N2_5  and  C2_7 
ROOT
HETATM    1  N2  UNL     1       6.055  -4.699  15.542  1.00  0.00    -0.371 N 
ATOM      2  H2  UNL     1       5.509  -3.841  15.463  1.00  0.00     0.161 HD
ENDROOT
BRANCH   1   3
HETATM    3  C1  UNL     1       6.958  -5.028  14.508  1.00  0.00     0.112 C 
HETATM    4  N1  UNL     1       8.209  -4.805  14.660  1.00  0.00    -0.385 N 
ATOM      5  H12 UNL     1       8.526  -4.389  15.536  1.00  0.00     0.157 HD
ATOM      6  H11 UNL     1       8.861  -5.044  13.913  1.00  0.00     0.157 HD
BRANCH   3   7
HETATM    7  C10 UNL     1       6.505  -5.621  13.259  1.00  0.00     0.048 A 
HETATM    8  C11 UNL     1       7.196  -5.867  12.103  1.00  0.00     0.023 A 
HETATM    9  C12 UNL     1       6.530  -6.429  11.090  1.00  0.00     0.009 A 
HETATM   10  C13 UNL     1       5.206  -6.719  11.285  1.00  0.00     0.050 A 
HETATM   11  S1  UNL     1       4.940  -6.191  12.885  1.00  0.00    -0.098 SA
ENDBRANCH   3   7
ENDBRANCH   1   3
BRANCH   1  12
HETATM   12  C2  UNL     1       5.878  -5.535  16.712  1.00  0.00     0.087 C 
HETATM   13  C3  UNL     1       5.539  -6.920  16.261  1.00  0.00     0.030 C 
HETATM   14  C4  UNL     1       4.457  -7.451  17.185  1.00  0.00    -0.013 C 
HETATM   15  C5  UNL     1       4.974  -7.279  18.599  1.00  0.00     0.005 C 
HETATM   16  C9  UNL     1       3.186  -6.643  17.044  1.00  0.00     0.005 C 
HETATM   17  C6  UNL     1       4.961  -5.791  18.953  1.00  0.00     0.007 C 
HETATM   18  C7  UNL     1       4.858  -4.972  17.659  1.00  0.00     0.008 C 
HETATM   19  C8  UNL     1       3.444  -5.158  17.159  1.00  0.00     0.007 C 
ENDBRANCH   1  12
TORSDOF 3
ENDMDL
MODEL 3
REMARK VINA RESULT: -7.637175239      1.349      1.451
REMARK  3 active torsions:
REMARK  status: ('A' for Active; 'I' for Inactive)
REMARK    1  A    between atoms: C1_4  and  N2_5 
REMARK    2  A    between atoms: C1_4  and  C10_15 
REMARK    3  A    between atoms: N2_5  and  C2_7 
ROOT
HETATM    1  N2  UNL     1       7.773  -3.491  20.821  1.00  0.00    -0.371 N 
ATOM      2  H2  UNL     1       7.245  -2.618  20.805  1.00  0.00     0.161 HD
ENDROOT
BRANCH   1   3
HETATM    3  C1  UNL     1       7.924  -4.217  19.620  1.00  0.00     0.112 C 
HETATM    4  N1  UNL     1       9.092  -4.396  19.127  1.00  0.00    -0.385 N 
ATOM      5  H12 UNL     1       9.894  -4.003  19.620  1.00  0.00     0.157 HD
ATOM      6  H11 UNL     1       9.201  -4.921  18.260  1.00  0.00     0.157 HD
BRANCH   3   7
HETATM    7  C10 UNL     1       6.780  -4.777  18.916  1.00  0.00     0.048 A 
HETATM    8  C11 UNL     1       5.674  -5.417  19.407  1.00  0.00     0.023 A 
HETATM    9  C12 UNL     1       4.760  -5.837  18.528  1.00  0.00     0.009 A 
HETATM   10  C13 UNL     1       4.998  -5.595  17.201  1.00  0.00     0.050 A 
HETATM   11  S1  UNL     1       6.498  -4.786  17.233  1.00  0.00    -0.098 SA
ENDBRANCH   3   7
ENDBRANCH   1   3
BRANCH   1  12
HETATM   12  C2  UNL     1       8.342  -3.940  22.075  1.00  0.00     0.087 C 
HETATM   13  C3  UNL     1       7.288  -4.676  22.840  1.00  0.00     0.030 C 
HETATM   14  C4  UNL     1       7.412  -4.269  24.298  1.00  0.00    -0.013 C 
HETATM   15  C5  UNL     1       8.857  -4.503  24.690  1.00  0.00     0.005 C 
HETATM   16  C9  UNL     1       7.105  -2.799  24.474  1.00  0.00     0.005 C 
HETATM   17  C6  UNL     1       9.730  -3.445  24.013  1.00  0.00     0.007 C 
HETATM   18  C7  UNL     1       8.940  -2.810  22.861  1.00  0.00     0.008 C 
HETATM   19  C8  UNL     1       7.888  -1.938  23.508  1.00  0.00     0.007 C 
ENDBRANCH   1  12
TORSDOF 3
ENDMDL
MODEL 4
REMARK VINA RESULT: -7.606991385      0.785      1.777
REMARK  3 active torsions:
REMARK  status: ('A' for Active; 'I' for Inactive)
REMARK    1  A    between atoms: C1_4  and  N2_5 
REMARK    2  A    between atoms: C1_4  and  C10_15 
REMARK    3  A    between atoms: N2_5  and  C2_7 
ROOT
HETATM    1  N2  UNL     1       8.629  -5.549  22.176  1.00  0.00    -0.371 N 
ATOM      2  H2  UNL     1       9.410  -5.986  22.664  1.00  0.00     0.161 HD
ENDROOT
BRANCH   1   3
HETATM    3  C1  UNL     1       8.066  -6.207  21.061  1.00  0.00     0.112 C 
HETATM    4  N1  UNL     1       8.183  -7.478  20.948  1.00  0.00    -0.385 N 
ATOM      5  H12 UNL     1       8.685  -7.987  21.674  1.00  0.00     0.157 HD
ATOM      6  H11 UNL     1       7.776  -7.953  20.142  1.00  0.00     0.157 HD
BRANCH   3   7
HETATM    7  C10 UNL     1       7.351  -5.480  20.024  1.00  0.00     0.048 A 
HETATM    8  C11 UNL     1       6.004  -5.322  19.833  1.00  0.00     0.023 A 
HETATM    9  C12 UNL     1       5.609  -4.593  18.785  1.00  0.00     0.009 A 
HETATM   10  C13 UNL     1       6.580  -4.058  17.981  1.00  0.00     0.050 A 
HETATM   11  S1  UNL     1       8.018  -4.597  18.725  1.00  0.00    -0.098 SA
ENDBRANCH   3   7
ENDBRANCH   1   3
BRANCH   1  12
HETATM   12  C2  UNL     1       8.135  -4.272  22.652  1.00  0.00     0.087 C 
HETATM   13  C3  UNL     1       9.129  -3.213  22.296  1.00  0.00     0.030 C 
HETATM   14  C4  UNL     1       9.235  -2.269  23.481  1.00  0.00    -0.013 C 
HETATM   15  C5  UNL     1       7.824  -1.825  23.808  1.00  0.00     0.005 C 
HETATM   16  C9  UNL     1       9.799  -2.983  24.689  1.00  0.00     0.005 C 
HETATM   17  C6  UNL     1       7.069  -3.000  24.434  1.00  0.00     0.007 C 
HETATM   18  C7  UNL     1       7.822  -4.300  24.120  1.00  0.00     0.008 C 
HETATM   19  C8  UNL     1       9.069  -4.275  24.974  1.00  0.00     0.007 C 
ENDBRANCH   1  12
TORSDOF 3
ENDMDL
MODEL 5
REMARK VINA RESULT: -7.575708659      1.954      2.926
REMARK  3 active torsions:
REMARK  status: ('A' for Active; 'I' for Inactive)
REMARK    1  A    between atoms: C1_4  and  N2_5 
REMARK    2  A    between atoms: C1_4  and  C10_15 
REMARK    3  A    between atoms: N2_5  and  C2_7 
ROOT
HETATM    1  N2  UNL     1       9.290  -3.942  20.324  1.00  0.00    -0.371 N 
ATOM      2  H2  UNL     1       9.854  -4.774  20.497  1.00  0.00     0.161 HD
ENDROOT
BRANCH   1   3
HETATM    3  C1  UNL     1       9.272  -3.390  19.025  1.00  0.00     0.112 C 
HETATM    4  N1  UNL     1       9.841  -2.264  18.804  1.00  0.00    -0.385 N 
ATOM      5  H12 UNL     1      10.299  -1.789  19.582  1.00  0.00     0.157 HD
ATOM      6  H11 UNL     1       9.828  -1.865  17.866  1.00  0.00     0.157 HD
BRANCH   3   7
HETATM    7  C10 UNL     1       8.618  -4.067  17.915  1.00  0.00     0.048 A 
HETATM    8  C11 UNL     1       9.159  -4.651  16.802  1.00  0.00     0.023 A 
HETATM    9  C12 UNL     1       8.320  -5.211  15.926  1.00  0.00     0.009 A 
HETATM   10  C13 UNL     1       6.981  -5.160  16.209  1.00  0.00     0.050 A 
HETATM   11  S1  UNL     1       6.945  -4.326  17.696  1.00  0.00    -0.098 SA
ENDBRANCH   3   7
ENDBRANCH   1   3
BRANCH   1  12
HETATM   12  C2  UNL     1       8.536  -3.369  21.420  1.00  0.00     0.087 C 
HETATM   13  C3  UNL     1       9.372  -2.317  22.076  1.00  0.00     0.030 C 
HETATM   14  C4  UNL     1       9.178  -2.447  23.576  1.00  0.00    -0.013 C 
HETATM   15  C5  UNL     1       7.684  -2.412  23.824  1.00  0.00     0.005 C 
HETATM   16  C9  UNL     1       9.710  -3.773  24.074  1.00  0.00     0.005 C 
HETATM   17  C6  UNL     1       7.070  -3.725  23.332  1.00  0.00     0.007 C 
HETATM   18  C7  UNL     1       8.063  -4.415  22.388  1.00  0.00     0.008 C 
HETATM   19  C8  UNL     1       9.180  -4.934  23.265  1.00  0.00     0.007 C 
ENDBRANCH   1  12
TORSDOF 3
ENDMDL
