MODEL 1
REMARK VINA RESULT: -7.844771065      0.000      0.000
REMARK  3 active torsions:
REMARK  status: ('A' for Active; 'I' for Inactive)
REMARK    1  A    between atoms: C2_2  and  N1_4 
REMARK    2  A    between atoms: N1_4  and  C4_6 
REMARK    3  A    between atoms: C14_17  and  O1_18 
ROOT
HETATM    1  C4  UNL     1       5.681  -5.783  15.794  1.00  0.00     0.108 C 
HETATM    2  C5  UNL     1       7.169  -5.856  15.551  1.00  0.00     0.027 C 
HETATM    3  C6  UNL     1       7.903  -4.586  15.900  1.00  0.00     0.002 C 
HETATM    4  C7  UNL     1       9.052  -4.935  16.836  1.00  0.00     0.000 C 
HETATM    5  C8  UNL     1       9.171  -4.002  18.003  1.00  0.00     0.000 C 
HETATM    6  C9  UNL     1       8.821  -4.705  19.314  1.00  0.00     0.000 C 
HETATM    7  C10 UNL     1       7.556  -4.159  19.924  1.00  0.00     0.000 C 
HETATM    8  C11 UNL     1       6.395  -5.143  19.770  1.00  0.00     0.003 C 
HETATM    9  C12 UNL     1       5.369  -4.588  18.808  1.00  0.00     0.040 C 
HETATM   10  C13 UNL     1       4.595  -5.622  18.064  1.00  0.00     0.200 C 
HETATM   11  F1  UNL     1       3.471  -5.049  17.495  1.00  0.00    -0.247 F 
HETATM   12  C14 UNL     1       5.368  -6.467  17.109  1.00  0.00     0.174 C 
ENDROOT
BRANCH   1  13
HETATM   13  N1  UNL     1       5.006  -6.491  14.739  1.00  0.00    -0.411 N 
ATOM     14  H1  UNL     1       4.743  -7.473  14.834  1.00  0.00     0.154 HD
BRANCH  13  15
HETATM   15  C2  UNL     1       4.724  -5.751  13.558  1.00  0.00     0.068 C 
HETATM   16  C1  UNL     1       3.225  -5.491  13.489  1.00  0.00     0.031 C 
HETATM   17  C3  UNL     1       5.120  -6.497  12.294  1.00  0.00     0.031 C 
ENDBRANCH  13  15
ENDBRANCH   1  13
BRANCH  12  18
HETATM   18  O1  UNL     1       4.582  -7.625  16.883  1.00  0.00    -0.391 OA
ATOM     19  H1  UNL     1       4.086  -7.842  17.663  1.00  0.00     0.210 HD
ENDBRANCH  12  18
TORSDOF 3
ENDMDL
MODEL 2
REMARK VINA RESULT: -7.368249579      2.437      3.787
REMARK  3 active torsions:
REMARK  status: ('A' for Active; 'I' for Inactive)
REMARK    1  A    between atoms: C2_2  and  N1_4 
REMARK    2  A    between atoms: N1_4  and  C4_6 
REMARK    3  A    between atoms: C14_17  and  O1_18 
ROOT
HETATM    1  C4  UNL     1       6.221  -5.791  14.324  1.00  0.00     0.108 C 
HETATM    2  C5  UNL     1       4.806  -5.911  14.836  1.00  0.00     0.027 C 
HETATM    3  C6  UNL     1       4.656  -6.887  15.976  1.00  0.00     0.002 C 
HETATM    4  C7  UNL     1       3.946  -6.182  17.124  1.00  0.00     0.000 C 
HETATM    5  C8  UNL     1       4.576  -6.442  18.459  1.00  0.00     0.000 C 
HETATM    6  C9  UNL     1       5.230  -5.178  19.020  1.00  0.00     0.000 C 
HETATM    7  C10 UNL     1       6.730  -5.305  19.090  1.00  0.00     0.000 C 
HETATM    8  C11 UNL     1       7.409  -4.466  18.006  1.00  0.00     0.003 C 
HETATM    9  C12 UNL     1       8.056  -5.369  16.981  1.00  0.00     0.040 C 
HETATM   10  C13 UNL     1       8.143  -4.789  15.611  1.00  0.00     0.200 C 
HETATM   11  F1  UNL     1       9.043  -5.514  14.849  1.00  0.00    -0.247 F 
HETATM   12  C14 UNL     1       6.849  -4.544  14.913  1.00  0.00     0.174 C 
ENDROOT
BRANCH   1  13
HETATM   13  N1  UNL     1       6.182  -5.649  12.892  1.00  0.00    -0.411 N 
ATOM     14  H1  UNL     1       6.374  -4.757  12.435  1.00  0.00     0.154 HD
BRANCH  13  15
HETATM   15  C2  UNL     1       5.864  -6.819  12.148  1.00  0.00     0.068 C 
HETATM   16  C1  UNL     1       6.926  -7.022  11.077  1.00  0.00     0.031 C 
HETATM   17  C3  UNL     1       4.518  -6.715  11.448  1.00  0.00     0.031 C 
ENDBRANCH  13  15
ENDBRANCH   1  13
BRANCH  12  18
HETATM   18  O1  UNL     1       7.125  -3.605  13.888  1.00  0.00    -0.391 OA
ATOM     19  H1  UNL     1       7.785  -2.987  14.178  1.00  0.00     0.210 HD
ENDBRANCH  12  18
TORSDOF 3
ENDMDL
MODEL 3
REMARK VINA RESULT: -7.366307895      5.211      7.330
REMARK  3 active torsions:
REMARK  status: ('A' for Active; 'I' for Inactive)
REMARK    1  A    between atoms: C2_2  and  N1_4 
REMARK    2  A    between atoms: N1_4  and  C4_6 
REMARK    3  A    between atoms: C14_17  and  O1_18 
ROOT
HETATM    1  C4  UNL     1       8.124  -4.026  21.763  1.00  0.00     0.108 C 
HETATM    2  C5  UNL     1       7.253  -5.163  22.240  1.00  0.00     0.027 C 
HETATM    3  C6  UNL     1       8.028  -6.307  22.843  1.00  0.00     0.002 C 
HETATM    4  C7  UNL     1       7.448  -6.612  24.217  1.00  0.00     0.000 C 
HETATM    5  C8  UNL     1       8.494  -6.817  25.271  1.00  0.00     0.000 C 
HETATM    6  C9  UNL     1       8.480  -5.682  26.295  1.00  0.00     0.000 C 
HETATM    7  C10 UNL     1       9.734  -4.849  26.228  1.00  0.00     0.000 C 
HETATM    8  C11 UNL     1       9.462  -3.486  25.590  1.00  0.00     0.003 C 
HETATM    9  C12 UNL     1      10.142  -3.400  24.242  1.00  0.00     0.040 C 
HETATM   10  C13 UNL     1       9.463  -2.505  23.262  1.00  0.00     0.200 C 
HETATM   11  F1  UNL     1      10.322  -2.215  22.216  1.00  0.00    -0.247 F 
HETATM   12  C14 UNL     1       8.108  -2.928  22.807  1.00  0.00     0.174 C 
ENDROOT
BRANCH   1  13
HETATM   13  N1  UNL     1       7.570  -3.502  20.542  1.00  0.00    -0.411 N 
ATOM     14  H1  UNL     1       7.339  -2.514  20.437  1.00  0.00     0.154 HD
BRANCH  13  15
HETATM   15  C2  UNL     1       7.363  -4.435  19.489  1.00  0.00     0.068 C 
HETATM   16  C1  UNL     1       8.426  -4.215  18.422  1.00  0.00     0.031 C 
HETATM   17  C3  UNL     1       6.004  -4.273  18.825  1.00  0.00     0.031 C 
ENDBRANCH  13  15
ENDBRANCH   1  13
BRANCH  12  18
HETATM   18  O1  UNL     1       7.486  -1.766  22.285  1.00  0.00    -0.391 OA
ATOM     19  H1  UNL     1       7.353  -1.127  22.975  1.00  0.00     0.210 HD
ENDBRANCH  12  18
TORSDOF 3
ENDMDL
MODEL 4
REMARK VINA RESULT: -7.347170535      3.317      6.385
REMARK  3 active torsions:
REMARK  status: ('A' for Active; 'I' for Inactive)
REMARK    1  A    between atoms: C2_2  and  N1_4 
REMARK    2  A    between atoms: N1_4  and  C4_6 
REMARK    3  A    between atoms: C14_17  and  O1_18 
ROOT
HETATM    1  C4  UNL     1       6.968  -4.699  20.503  1.00  0.00     0.108 C 
HETATM    2  C5  UNL     1       5.800  -5.387  19.839  1.00  0.00     0.027 C 
HETATM    3  C6  UNL     1       5.255  -4.642  18.647  1.00  0.00     0.002 C 
HETATM    4  C7  UNL     1       5.201  -5.597  17.463  1.00  0.00     0.000 C 
HETATM    5  C8  UNL     1       5.720  -4.997  16.192  1.00  0.00     0.000 C 
HETATM    6  C9  UNL     1       7.030  -5.657  15.761  1.00  0.00     0.000 C 
HETATM    7  C10 UNL     1       8.193  -4.703  15.844  1.00  0.00     0.000 C 
HETATM    8  C11 UNL     1       9.101  -5.036  17.029  1.00  0.00     0.003 C 
HETATM    9  C12 UNL     1       9.006  -3.948  18.075  1.00  0.00     0.040 C 
HETATM   10  C13 UNL     1       9.251  -4.409  19.471  1.00  0.00     0.200 C 
HETATM   11  F1  UNL     1       9.492  -3.320  20.291  1.00  0.00    -0.247 F 
HETATM   12  C14 UNL     1       8.251  -5.359  20.040  1.00  0.00     0.174 C 
ENDROOT
BRANCH   1  13
HETATM   13  N1  UNL     1       6.856  -4.870  21.927  1.00  0.00    -0.411 N 
ATOM     14  H1  UNL     1       6.276  -5.604  22.336  1.00  0.00     0.154 HD
BRANCH  13  15
HETATM   15  C2  UNL     1       7.596  -3.963  22.735  1.00  0.00     0.068 C 
HETATM   16  C1  UNL     1       7.225  -4.191  24.194  1.00  0.00     0.031 C 
HETATM   17  C3  UNL     1       7.294  -2.510  22.405  1.00  0.00     0.031 C 
ENDBRANCH  13  15
ENDBRANCH   1  13
BRANCH  12  18
HETATM   18  O1  UNL     1       8.892  -6.000  21.129  1.00  0.00    -0.391 OA
ATOM     19  H1  UNL     1       9.593  -6.558  20.815  1.00  0.00     0.210 HD
ENDBRANCH  12  18
TORSDOF 3
ENDMDL
MODEL 5
REMARK VINA RESULT: -7.144106221      2.579      3.844
REMARK  3 active torsions:
REMARK  status: ('A' for Active; 'I' for Inactive)
REMARK    1  A    between atoms: C2_2  and  N1_4 
REMARK    2  A    between atoms: N1_4  and  C4_6 
REMARK    3  A    between atoms: C14_17  and  O1_18 
ROOT
HETATM    1  C4  UNL     1       5.984  -5.468  17.592  1.00  0.00     0.108 C 
HETATM    2  C5  UNL     1       5.431  -4.942  18.894  1.00  0.00     0.027 C 
HETATM    3  C6  UNL     1       6.249  -5.329  20.100  1.00  0.00     0.002 C 
HETATM    4  C7  UNL     1       6.576  -4.067  20.887  1.00  0.00     0.000 C 
HETATM    5  C8  UNL     1       8.005  -3.998  21.332  1.00  0.00     0.000 C 
HETATM    6  C9  UNL     1       8.762  -2.889  20.599  1.00  0.00     0.000 C 
HETATM    7  C10 UNL     1       9.823  -3.443  19.684  1.00  0.00     0.000 C 
HETATM    8  C11 UNL     1       9.409  -3.320  18.216  1.00  0.00     0.003 C 
HETATM    9  C12 UNL     1       9.147  -4.692  17.635  1.00  0.00     0.040 C 
HETATM   10  C13 UNL     1       8.145  -4.716  16.532  1.00  0.00     0.200 C 
HETATM   11  F1  UNL     1       8.233  -5.913  15.843  1.00  0.00    -0.247 F 
HETATM   12  C14 UNL     1       6.746  -4.355  16.901  1.00  0.00     0.174 C 
ENDROOT
BRANCH   1  13
HETATM   13  N1  UNL     1       4.885  -5.860  16.749  1.00  0.00    -0.411 N 
ATOM     14  H1  UNL     1       4.965  -5.867  15.731  1.00  0.00     0.154 HD
BRANCH  13  15
HETATM   15  C2  UNL     1       3.683  -6.237  17.409  1.00  0.00     0.068 C 
HETATM   16  C1  UNL     1       3.799  -7.691  17.844  1.00  0.00     0.031 C 
HETATM   17  C3  UNL     1       2.464  -6.121  16.508  1.00  0.00     0.031 C 
ENDBRANCH  13  15
ENDBRANCH   1  13
BRANCH  12  18
HETATM   18  O1  UNL     1       6.099  -3.997  15.692  1.00  0.00    -0.391 OA
ATOM     19  H1  UNL     1       6.385  -3.137  15.409  1.00  0.00     0.210 HD
ENDBRANCH  12  18
TORSDOF 3
ENDMDL
