MODEL 1
REMARK VINA RESULT: -6.885401705      0.000      0.000
REMARK  4 active torsions:
REMARK  status: ('A' for Active; 'I' for Inactive)
REMARK    1  A    between atoms: C2_2  and  N1_3 
REMARK    2  A    between atoms: N1_3  and  C3_5 
REMARK    3  A    between atoms: C3_5  and  C4_9 
REMARK    4  A    between atoms: C7_13  and  C8_14 
ROOT
HETATM    1  C3  UNL     1       8.200  -4.155  19.723  1.00  0.00     0.108 C 
HETATM    2  N2  UNL     1       9.348  -3.868  19.130  1.00  0.00    -0.385 N 
ATOM      3  H21 UNL     1      10.154  -4.165  19.680  1.00  0.00     0.157 HD
ATOM      4  H22 UNL     1       9.268  -3.385  18.235  1.00  0.00     0.157 HD
ENDROOT
BRANCH   1   5
HETATM    5  N1  UNL     1       7.096  -3.749  18.970  1.00  0.00    -0.367 N 
ATOM      6  H1  UNL     1       6.836  -2.763  18.998  1.00  0.00     0.162 HD
BRANCH   5   7
HETATM    7  C2  UNL     1       6.284  -4.649  18.138  1.00  0.00     0.028 A 
HETATM    8  C1  UNL     1       6.954  -5.007  16.799  1.00  0.00     0.038 C 
HETATM    9  C11 UNL     1       4.820  -4.516  18.129  1.00  0.00     0.033 A 
HETATM   10  C12 UNL     1       5.497  -5.753  18.712  1.00  0.00     0.033 A 
ENDBRANCH   5   7
ENDBRANCH   1   5
BRANCH   1  11
HETATM   11  C4  UNL     1       8.313  -4.836  20.984  1.00  0.00     0.040 A 
HETATM   12  C5  UNL     1       8.230  -6.234  21.144  1.00  0.00     0.157 A 
HETATM   13  O1  UNL     1       8.333  -6.480  22.408  1.00  0.00    -0.333 OA
HETATM   14  C6  UNL     1       8.474  -5.394  23.096  1.00  0.00     0.151 A 
HETATM   15  C7  UNL     1       8.471  -4.278  22.230  1.00  0.00     0.003 A 
BRANCH  15  16
HETATM   16  C8  UNL     1       8.651  -2.900  22.705  1.00  0.00     0.059 C 
HETATM   17  C9  UNL     1       9.312  -2.997  24.122  1.00  0.00     0.037 C 
HETATM   18  C10 UNL     1       7.444  -2.081  22.903  1.00  0.00     0.037 C 
HETATM   19 CL1  UNL     1       9.885  -1.988  21.781  1.00  0.00    -0.115 Cl
ENDBRANCH  15  16
ENDBRANCH   1  11
TORSDOF 4
ENDMDL
MODEL 2
REMARK VINA RESULT: -6.870913746      2.232      2.820
REMARK  4 active torsions:
REMARK  status: ('A' for Active; 'I' for Inactive)
REMARK    1  A    between atoms: C2_2  and  N1_3 
REMARK    2  A    between atoms: N1_3  and  C3_5 
REMARK    3  A    between atoms: C3_5  and  C4_9 
REMARK    4  A    between atoms: C7_13  and  C8_14 
ROOT
HETATM    1  C3  UNL     1       7.649  -5.356  21.109  1.00  0.00     0.108 C 
HETATM    2  N2  UNL     1       8.273  -6.524  21.087  1.00  0.00    -0.385 N 
ATOM      3  H21 UNL     1       9.234  -6.456  21.421  1.00  0.00     0.157 HD
ATOM      4  H22 UNL     1       7.722  -7.306  20.732  1.00  0.00     0.157 HD
ENDROOT
BRANCH   1   5
HETATM    5  N1  UNL     1       6.332  -5.449  20.653  1.00  0.00    -0.367 N 
ATOM      6  H1  UNL     1       5.600  -5.624  21.342  1.00  0.00     0.162 HD
BRANCH   5   7
HETATM    7  C2  UNL     1       5.930  -5.312  19.246  1.00  0.00     0.028 A 
HETATM    8  C1  UNL     1       4.923  -6.386  18.794  1.00  0.00     0.038 C 
HETATM    9  C11 UNL     1       6.909  -4.864  18.245  1.00  0.00     0.033 A 
HETATM   10  C12 UNL     1       5.707  -4.000  18.616  1.00  0.00     0.033 A 
ENDBRANCH   5   7
ENDBRANCH   1   5
BRANCH   1  11
HETATM   11  C4  UNL     1       8.423  -4.255  21.609  1.00  0.00     0.040 A 
HETATM   12  C5  UNL     1       9.134  -3.347  20.798  1.00  0.00     0.157 A 
HETATM   13  O1  UNL     1       9.740  -2.523  21.587  1.00  0.00    -0.333 OA
HETATM   14  C6  UNL     1       9.506  -2.792  22.830  1.00  0.00     0.151 A 
HETATM   15  C7  UNL     1       8.650  -3.912  22.921  1.00  0.00     0.003 A 
BRANCH  15  16
HETATM   16  C8  UNL     1       8.166  -4.444  24.203  1.00  0.00     0.059 C 
HETATM   17  C9  UNL     1       8.779  -3.537  25.323  1.00  0.00     0.037 C 
HETATM   18  C10 UNL     1       8.556  -5.815  24.566  1.00  0.00     0.037 C 
HETATM   19 CL1  UNL     1       6.409  -4.203  24.450  1.00  0.00    -0.115 Cl
ENDBRANCH  15  16
ENDBRANCH   1  11
TORSDOF 4
ENDMDL
MODEL 3
REMARK VINA RESULT: -6.821700517      2.718      4.002
REMARK  4 active torsions:
REMARK  status: ('A' for Active; 'I' for Inactive)
REMARK    1  A    between atoms: C2_2  and  N1_3 
REMARK    2  A    between atoms: N1_3  and  C3_5 
REMARK    3  A    between atoms: C3_5  and  C4_9 
REMARK    4  A    between atoms: C7_13  and  C8_14 
ROOT
HETATM    1  C3  UNL     1       7.806  -3.216  22.833  1.00  0.00     0.108 C 
HETATM    2  N2  UNL     1       7.776  -1.928  22.528  1.00  0.00    -0.385 N 
ATOM      3  H21 UNL     1       8.328  -1.364  23.174  1.00  0.00     0.157 HD
ATOM      4  H22 UNL     1       7.204  -1.685  21.720  1.00  0.00     0.157 HD
ENDROOT
BRANCH   1   5
HETATM    5  N1  UNL     1       7.050  -3.989  21.949  1.00  0.00    -0.367 N 
ATOM      6  H1  UNL     1       6.103  -4.244  22.228  1.00  0.00     0.162 HD
BRANCH   5   7
HETATM    7  C2  UNL     1       7.531  -4.460  20.642  1.00  0.00     0.028 A 
HETATM    8  C1  UNL     1       6.460  -4.383  19.538  1.00  0.00     0.038 C 
HETATM    9  C11 UNL     1       8.473  -5.587  20.569  1.00  0.00     0.033 A 
HETATM   10  C12 UNL     1       8.892  -4.178  20.156  1.00  0.00     0.033 A 
ENDBRANCH   5   7
ENDBRANCH   1   5
BRANCH   1  11
HETATM   11  C4  UNL     1       8.611  -3.560  23.973  1.00  0.00     0.040 A 
HETATM   12  C5  UNL     1       9.731  -2.823  24.408  1.00  0.00     0.157 A 
HETATM   13  O1  UNL     1      10.227  -3.446  25.425  1.00  0.00    -0.333 OA
HETATM   14  C6  UNL     1       9.554  -4.513  25.706  1.00  0.00     0.151 A 
HETATM   15  C7  UNL     1       8.480  -4.651  24.798  1.00  0.00     0.003 A 
BRANCH  15  16
HETATM   16  C8  UNL     1       7.505  -5.747  24.877  1.00  0.00     0.059 C 
HETATM   17  C9  UNL     1       7.669  -6.391  26.296  1.00  0.00     0.037 C 
HETATM   18  C10 UNL     1       7.654  -6.865  23.932  1.00  0.00     0.037 C 
HETATM   19 CL1  UNL     1       5.807  -5.182  24.920  1.00  0.00    -0.115 Cl
ENDBRANCH  15  16
ENDBRANCH   1  11
TORSDOF 4
ENDMDL
MODEL 4
REMARK VINA RESULT: -6.803566338      3.085      5.412
REMARK  4 active torsions:
REMARK  status: ('A' for Active; 'I' for Inactive)
REMARK    1  A    between atoms: C2_2  and  N1_3 
REMARK    2  A    between atoms: N1_3  and  C3_5 
REMARK    3  A    between atoms: C3_5  and  C4_9 
REMARK    4  A    between atoms: C7_13  and  C8_14 
ROOT
HETATM    1  C3  UNL     1       7.343  -3.720  23.705  1.00  0.00     0.108 C 
HETATM    2  N2  UNL     1       6.916  -2.791  24.546  1.00  0.00    -0.385 N 
ATOM      3  H21 UNL     1       7.349  -1.883  24.374  1.00  0.00     0.157 HD
ATOM      4  H22 UNL     1       6.243  -3.109  25.244  1.00  0.00     0.157 HD
ENDROOT
BRANCH   1   5
HETATM    5  N1  UNL     1       6.750  -4.963  23.941  1.00  0.00    -0.367 N 
ATOM      6  H1  UNL     1       6.028  -5.277  23.292  1.00  0.00     0.162 HD
BRANCH   5   7
HETATM    7  C2  UNL     1       7.097  -5.847  25.063  1.00  0.00     0.028 A 
HETATM    8  C1  UNL     1       5.897  -6.176  25.970  1.00  0.00     0.038 C 
HETATM    9  C11 UNL     1       8.405  -5.717  25.721  1.00  0.00     0.033 A 
HETATM   10  C12 UNL     1       8.045  -6.964  24.919  1.00  0.00     0.033 A 
ENDBRANCH   5   7
ENDBRANCH   1   5
BRANCH   1  11
HETATM   11  C4  UNL     1       8.291  -3.272  22.723  1.00  0.00     0.040 A 
HETATM   12  C5  UNL     1       9.221  -2.233  22.929  1.00  0.00     0.157 A 
HETATM   13  O1  UNL     1       9.873  -2.080  21.825  1.00  0.00    -0.333 OA
HETATM   14  C6  UNL     1       9.472  -2.905  20.915  1.00  0.00     0.151 A 
HETATM   15  C7  UNL     1       8.439  -3.718  21.431  1.00  0.00     0.003 A 
BRANCH  15  16
HETATM   16  C8  UNL     1       7.798  -4.785  20.651  1.00  0.00     0.059 C 
HETATM   17  C9  UNL     1       8.572  -4.873  19.292  1.00  0.00     0.037 C 
HETATM   18  C10 UNL     1       6.387  -4.605  20.275  1.00  0.00     0.037 C 
HETATM   19 CL1  UNL     1       8.063  -6.419  21.335  1.00  0.00    -0.115 Cl
ENDBRANCH  15  16
ENDBRANCH   1  11
TORSDOF 4
ENDMDL
MODEL 5
REMARK VINA RESULT: -6.770134274      5.323      7.185
REMARK  4 active torsions:
REMARK  status: ('A' for Active; 'I' for Inactive)
REMARK    1  A    between atoms: C2_2  and  N1_3 
REMARK    2  A    between atoms: N1_3  and  C3_5 
REMARK    3  A    between atoms: C3_5  and  C4_9 
REMARK    4  A    between atoms: C7_13  and  C8_14 
ROOT
HETATM    1  C3  UNL     1       5.123  -6.022  14.142  1.00  0.00     0.108 C 
HETATM    2  N2  UNL     1       3.898  -5.537  14.008  1.00  0.00    -0.385 N 
ATOM      3  H21 UNL     1       3.686  -4.821  14.703  1.00  0.00     0.157 HD
ATOM      4  H22 UNL     1       3.345  -5.952  13.258  1.00  0.00     0.157 HD
ENDROOT
BRANCH   1   5
HETATM    5  N1  UNL     1       5.413  -7.002  13.191  1.00  0.00    -0.367 N 
ATOM      6  H1  UNL     1       5.530  -7.962  13.517  1.00  0.00     0.162 HD
BRANCH   5   7
HETATM    7  C2  UNL     1       5.562  -6.743  11.752  1.00  0.00     0.028 A 
HETATM    8  C1  UNL     1       4.216  -6.649  11.010  1.00  0.00     0.038 C 
HETATM    9  C11 UNL     1       6.683  -7.340  11.012  1.00  0.00     0.033 A 
HETATM   10  C12 UNL     1       6.588  -5.830  11.220  1.00  0.00     0.033 A 
ENDBRANCH   5   7
ENDBRANCH   1   5
BRANCH   1  11
HETATM   11  C4  UNL     1       5.902  -5.438  15.199  1.00  0.00     0.040 A 
HETATM   12  C5  UNL     1       7.041  -4.633  14.997  1.00  0.00     0.157 A 
HETATM   13  O1  UNL     1       7.502  -4.324  16.164  1.00  0.00    -0.333 OA
HETATM   14  C6  UNL     1       6.790  -4.840  17.111  1.00  0.00     0.151 A 
HETATM   15  C7  UNL     1       5.723  -5.581  16.554  1.00  0.00     0.003 A 
BRANCH  15  16
HETATM   16  C8  UNL     1       4.710  -6.259  17.375  1.00  0.00     0.059 C 
HETATM   17  C9  UNL     1       4.976  -5.832  18.858  1.00  0.00     0.037 C 
HETATM   18  C10 UNL     1       4.718  -7.731  17.394  1.00  0.00     0.037 C 
HETATM   19 CL1  UNL     1       3.051  -5.643  17.102  1.00  0.00    -0.115 Cl
ENDBRANCH  15  16
ENDBRANCH   1  11
TORSDOF 4
ENDMDL
