MODEL 1
REMARK VINA RESULT: -8.405911795      0.000      0.000
REMARK  3 active torsions:
REMARK  status: ('A' for Active; 'I' for Inactive)
REMARK    1  A    between atoms: C4_5  and  C5_6 
REMARK    2  A    between atoms: N2_7  and  C6_9 
REMARK    3  A    between atoms: C12_15  and  O1_16 
ROOT
HETATM    1  N1  UNL     1       9.475  -4.194  26.273  1.00  0.00    -0.190 NA
HETATM    2  C1  UNL     1       9.423  -3.908  25.146  1.00  0.00     0.117 C 
HETATM    3  C2  UNL     1       9.333  -3.559  23.752  1.00  0.00     0.116 A 
HETATM    4  C3  UNL     1       9.097  -4.427  22.695  1.00  0.00     0.058 A 
HETATM    5  C4  UNL     1       9.098  -3.637  21.537  1.00  0.00     0.033 A 
HETATM    6  C12 UNL     1       9.333  -2.334  21.924  1.00  0.00     0.152 A 
HETATM    7  N3  UNL     1       9.472  -2.306  23.256  1.00  0.00    -0.328 N 
ATOM      8  H3  UNL     1       9.655  -1.470  23.811  1.00  0.00     0.168 HD
ENDROOT
BRANCH   5   9
HETATM    9  C5  UNL     1       8.887  -4.125  20.192  1.00  0.00     0.099 C 
HETATM   10  N2  UNL     1       8.106  -3.484  19.410  1.00  0.00    -0.393 N 
ATOM     11  H2  UNL     1       7.650  -2.641  19.762  1.00  0.00     0.159 HD
BRANCH  10  12
HETATM   12  C6  UNL     1       7.841  -3.892  18.067  1.00  0.00     0.081 C 
HETATM   13  C7  UNL     1       8.953  -4.791  17.567  1.00  0.00     0.025 C 
HETATM   14  C8  UNL     1       8.747  -4.955  16.073  1.00  0.00     0.002 C 
HETATM   15  C9  UNL     1       7.399  -5.540  15.798  1.00  0.00     0.000 C 
HETATM   16  C10 UNL     1       6.269  -4.825  16.462  1.00  0.00     0.002 C 
HETATM   17  C11 UNL     1       6.554  -4.708  17.962  1.00  0.00     0.025 C 
ENDBRANCH  10  12
ENDBRANCH   5   9
BRANCH   6  18
HETATM   18  O1  UNL     1       9.406  -1.264  21.055  1.00  0.00    -0.345 OA
ATOM     19  H1  UNL     1       9.193  -0.367  21.287  1.00  0.00     0.219 HD
ENDBRANCH   6  18
TORSDOF 3
ENDMDL
MODEL 2
REMARK VINA RESULT: -8.255113386      2.021      3.037
REMARK  3 active torsions:
REMARK  status: ('A' for Active; 'I' for Inactive)
REMARK    1  A    between atoms: C4_5  and  C5_6 
REMARK    2  A    between atoms: N2_7  and  C6_9 
REMARK    3  A    between atoms: C12_15  and  O1_16 
ROOT
HETATM    1  N1  UNL     1       9.091  -5.353  23.230  1.00  0.00    -0.190 NA
HETATM    2  C1  UNL     1       9.074  -4.955  22.137  1.00  0.00     0.117 C 
HETATM    3  C2  UNL     1       9.028  -4.461  20.785  1.00  0.00     0.116 A 
HETATM    4  C3  UNL     1       8.560  -5.143  19.670  1.00  0.00     0.058 A 
HETATM    5  C4  UNL     1       8.713  -4.267  18.587  1.00  0.00     0.033 A 
HETATM    6  C12 UNL     1       9.262  -3.098  19.072  1.00  0.00     0.152 A 
HETATM    7  N3  UNL     1       9.445  -3.233  20.393  1.00  0.00    -0.328 N 
ATOM      8  H3  UNL     1       9.838  -2.521  21.009  1.00  0.00     0.168 HD
ENDROOT
BRANCH   5   9
HETATM    9  C5  UNL     1       8.352  -4.559  17.218  1.00  0.00     0.099 C 
HETATM   10  N2  UNL     1       7.148  -4.370  16.835  1.00  0.00    -0.393 N 
ATOM     11  H2  UNL     1       6.472  -4.016  17.513  1.00  0.00     0.159 HD
BRANCH  10  12
HETATM   12  C6  UNL     1       6.703  -4.630  15.502  1.00  0.00     0.081 C 
HETATM   13  C7  UNL     1       7.887  -4.944  14.610  1.00  0.00     0.025 C 
HETATM   14  C8  UNL     1       7.376  -4.936  13.182  1.00  0.00     0.002 C 
HETATM   15  C9  UNL     1       6.282  -5.941  13.019  1.00  0.00     0.000 C 
HETATM   16  C10 UNL     1       5.185  -5.829  14.026  1.00  0.00     0.002 C 
HETATM   17  C11 UNL     1       5.786  -5.850  15.435  1.00  0.00     0.025 C 
ENDBRANCH  10  12
ENDBRANCH   5   9
BRANCH   6  18
HETATM   18  O1  UNL     1       9.560  -1.996  18.298  1.00  0.00    -0.345 OA
ATOM     19  H1  UNL     1       9.450  -1.095  18.579  1.00  0.00     0.219 HD
ENDBRANCH   6  18
TORSDOF 3
ENDMDL
MODEL 3
REMARK VINA RESULT: -8.185597615      2.381      6.567
REMARK  3 active torsions:
REMARK  status: ('A' for Active; 'I' for Inactive)
REMARK    1  A    between atoms: C4_5  and  C5_6 
REMARK    2  A    between atoms: N2_7  and  C6_9 
REMARK    3  A    between atoms: C12_15  and  O1_16 
ROOT
HETATM    1  N1  UNL     1       9.243  -4.419  15.942  1.00  0.00    -0.190 NA
HETATM    2  C1  UNL     1       9.201  -4.238  17.090  1.00  0.00     0.117 C 
HETATM    3  C2  UNL     1       9.167  -4.029  18.515  1.00  0.00     0.116 A 
HETATM    4  C3  UNL     1       8.789  -4.953  19.478  1.00  0.00     0.058 A 
HETATM    5  C4  UNL     1       8.917  -4.301  20.712  1.00  0.00     0.033 A 
HETATM    6  C12 UNL     1       9.362  -3.019  20.461  1.00  0.00     0.152 A 
HETATM    7  N3  UNL     1       9.506  -2.874  19.137  1.00  0.00    -0.328 N 
ATOM      8  H3  UNL     1       9.823  -2.024  18.669  1.00  0.00     0.168 HD
ENDROOT
BRANCH   5   9
HETATM    9  C5  UNL     1       8.628  -4.888  22.002  1.00  0.00     0.099 C 
HETATM   10  N2  UNL     1       7.882  -4.255  22.824  1.00  0.00    -0.393 N 
ATOM     11  H2  UNL     1       7.511  -3.347  22.543  1.00  0.00     0.159 HD
BRANCH  10  12
HETATM   12  C6  UNL     1       7.545  -4.759  24.118  1.00  0.00     0.081 C 
HETATM   13  C7  UNL     1       6.125  -5.287  24.116  1.00  0.00     0.025 C 
HETATM   14  C8  UNL     1       5.750  -5.544  25.563  1.00  0.00     0.002 C 
HETATM   15  C9  UNL     1       6.701  -6.521  26.177  1.00  0.00     0.000 C 
HETATM   16  C10 UNL     1       8.143  -6.170  26.007  1.00  0.00     0.002 C 
HETATM   17  C11 UNL     1       8.435  -5.933  24.523  1.00  0.00     0.025 C 
ENDBRANCH  10  12
ENDBRANCH   5   9
BRANCH   6  18
HETATM   18  O1  UNL     1       9.607  -2.073  21.436  1.00  0.00    -0.345 OA
ATOM     19  H1  UNL     1       8.976  -1.425  21.726  1.00  0.00     0.219 HD
ENDBRANCH   6  18
TORSDOF 3
ENDMDL
MODEL 4
REMARK VINA RESULT: -8.172746819      3.308      5.200
REMARK  3 active torsions:
REMARK  status: ('A' for Active; 'I' for Inactive)
REMARK    1  A    between atoms: C4_5  and  C5_6 
REMARK    2  A    between atoms: N2_7  and  C6_9 
REMARK    3  A    between atoms: C12_15  and  O1_16 
ROOT
HETATM    1  N1  UNL     1       7.717  -3.423  21.495  1.00  0.00    -0.190 NA
HETATM    2  C1  UNL     1       7.802  -3.801  20.398  1.00  0.00     0.117 C 
HETATM    3  C2  UNL     1       7.898  -4.247  19.032  1.00  0.00     0.116 A 
HETATM    4  C3  UNL     1       6.842  -4.551  18.184  1.00  0.00     0.058 A 
HETATM    5  C4  UNL     1       7.421  -4.937  16.968  1.00  0.00     0.033 A 
HETATM    6  C12 UNL     1       8.790  -4.858  17.115  1.00  0.00     0.152 A 
HETATM    7  N3  UNL     1       9.058  -4.443  18.360  1.00  0.00    -0.328 N 
ATOM      8  H3  UNL     1       9.992  -4.296  18.744  1.00  0.00     0.168 HD
ENDROOT
BRANCH   5   9
HETATM    9  C5  UNL     1       6.692  -5.341  15.786  1.00  0.00     0.099 C 
HETATM   10  N2  UNL     1       7.032  -4.867  14.649  1.00  0.00    -0.393 N 
ATOM     11  H2  UNL     1       7.813  -4.212  14.610  1.00  0.00     0.159 HD
BRANCH  10  12
HETATM   12  C6  UNL     1       6.369  -5.211  13.431  1.00  0.00     0.081 C 
HETATM   13  C7  UNL     1       7.336  -5.898  12.488  1.00  0.00     0.025 C 
HETATM   14  C8  UNL     1       6.649  -5.981  11.139  1.00  0.00     0.002 C 
HETATM   15  C9  UNL     1       5.365  -6.738  11.258  1.00  0.00     0.000 C 
HETATM   16  C10 UNL     1       4.458  -6.248  12.339  1.00  0.00     0.002 C 
HETATM   17  C11 UNL     1       5.227  -6.199  13.662  1.00  0.00     0.025 C 
ENDBRANCH  10  12
ENDBRANCH   5   9
BRANCH   6  18
HETATM   18  O1  UNL     1       9.700  -5.163  16.123  1.00  0.00    -0.345 OA
ATOM     19  H1  UNL     1      10.514  -5.633  16.266  1.00  0.00     0.219 HD
ENDBRANCH   6  18
TORSDOF 3
ENDMDL
MODEL 5
REMARK VINA RESULT: -8.130607280      2.500      4.178
REMARK  3 active torsions:
REMARK  status: ('A' for Active; 'I' for Inactive)
REMARK    1  A    between atoms: C4_5  and  C5_6 
REMARK    2  A    between atoms: N2_7  and  C6_9 
REMARK    3  A    between atoms: C12_15  and  O1_16 
ROOT
HETATM    1  N1  UNL     1       8.934  -3.298  22.327  1.00  0.00    -0.190 NA
HETATM    2  C1  UNL     1       9.068  -3.404  21.177  1.00  0.00     0.117 C 
HETATM    3  C2  UNL     1       9.212  -3.527  19.749  1.00  0.00     0.116 A 
HETATM    4  C3  UNL     1       8.624  -4.487  18.938  1.00  0.00     0.058 A 
HETATM    5  C4  UNL     1       9.051  -4.207  17.633  1.00  0.00     0.033 A 
HETATM    6  C12 UNL     1       9.874  -3.102  17.693  1.00  0.00     0.152 A 
HETATM    7  N3  UNL     1       9.960  -2.707  18.971  1.00  0.00    -0.328 N 
ATOM      8  H3  UNL     1      10.504  -1.913  19.307  1.00  0.00     0.168 HD
ENDROOT
BRANCH   5   9
HETATM    9  C5  UNL     1       8.681  -4.957  16.453  1.00  0.00     0.099 C 
HETATM   10  N2  UNL     1       7.574  -4.698  15.870  1.00  0.00    -0.393 N 
ATOM     11  H2  UNL     1       6.979  -3.965  16.259  1.00  0.00     0.159 HD
BRANCH  10  12
HETATM   12  C6  UNL     1       7.129  -5.387  14.700  1.00  0.00     0.081 C 
HETATM   13  C7  UNL     1       5.616  -5.371  14.630  1.00  0.00     0.025 C 
HETATM   14  C8  UNL     1       5.217  -6.340  13.533  1.00  0.00     0.002 C 
HETATM   15  C9  UNL     1       5.832  -5.931  12.234  1.00  0.00     0.000 C 
HETATM   16  C10 UNL     1       7.307  -5.702  12.294  1.00  0.00     0.002 C 
HETATM   17  C11 UNL     1       7.620  -4.712  13.419  1.00  0.00     0.025 C 
ENDBRANCH  10  12
ENDBRANCH   5   9
BRANCH   6  18
HETATM   18  O1  UNL     1      10.490  -2.526  16.600  1.00  0.00    -0.345 OA
ATOM     19  H1  UNL     1      11.393  -2.679  16.350  1.00  0.00     0.219 HD
ENDBRANCH   6  18
TORSDOF 3
ENDMDL
