MODEL 1
REMARK VINA RESULT: -7.879752459      0.000      0.000
REMARK  3 active torsions:
REMARK  status: ('A' for Active; 'I' for Inactive)
REMARK    1  A    between atoms: C4_4  and  C5_5 
REMARK    2  A    between atoms: C5_5  and  C6_6 
REMARK    3  A    between atoms: C8_10  and  N2_11 
ROOT
HETATM    1  C6  UNL     1       6.473  -3.991  17.786  1.00  0.00     0.074 C 
HETATM    2  C7  UNL     1       7.248  -3.925  19.083  1.00  0.00     0.031 A 
HETATM    3  N1  UNL     1       6.800  -3.899  20.308  1.00  0.00    -0.339 N 
ATOM      4  H1  UNL     1       5.797  -3.926  20.494  1.00  0.00     0.168 HD
HETATM    5  C8  UNL     1       7.671  -3.837  21.310  1.00  0.00     0.142 A 
HETATM    6  S1  UNL     1       9.178  -3.813  20.525  1.00  0.00    -0.057 SA
HETATM    7  C9  UNL     1       8.602  -3.886  18.900  1.00  0.00     0.009 A 
HETATM    8  C10 UNL     1       9.234  -3.898  17.530  1.00  0.00     0.051 C 
HETATM    9  C11 UNL     1       8.569  -5.055  16.821  1.00  0.00     0.043 C 
HETATM   10  C12 UNL     1       7.095  -4.975  16.854  1.00  0.00     0.180 C 
HETATM   11  F1  UNL     1       6.588  -4.670  15.580  1.00  0.00    -0.249 F 
ENDROOT
BRANCH   1  12
HETATM   12  C5  UNL     1       5.034  -4.413  18.024  1.00  0.00     0.041 C 
BRANCH  12  13
HETATM   13  C4  UNL     1       4.890  -5.843  18.367  1.00  0.00    -0.024 C 
HETATM   14  C2  UNL     1       4.007  -6.643  17.769  1.00  0.00    -0.091 C 
HETATM   15  C1  UNL     1       3.123  -6.090  16.709  1.00  0.00     0.042 C 
HETATM   16  C3  UNL     1       3.888  -8.077  18.139  1.00  0.00     0.042 C 
ENDBRANCH  12  13
ENDBRANCH   1  12
BRANCH   5  17
HETATM   17  N2  UNL     1       7.448  -3.802  22.599  1.00  0.00    -0.380 N 
ATOM     18  H22 UNL     1       8.098  -3.516  23.331  1.00  0.00     0.158 HD
ATOM     19  H21 UNL     1       6.602  -4.047  23.115  1.00  0.00     0.158 HD
ENDBRANCH   5  17
TORSDOF 3
ENDMDL
MODEL 2
REMARK VINA RESULT: -7.771497550      3.825      4.784
REMARK  3 active torsions:
REMARK  status: ('A' for Active; 'I' for Inactive)
REMARK    1  A    between atoms: C4_4  and  C5_5 
REMARK    2  A    between atoms: C5_5  and  C6_6 
REMARK    3  A    between atoms: C8_10  and  N2_11 
ROOT
HETATM    1  C6  UNL     1       5.797  -5.060  15.125  1.00  0.00     0.074 C 
HETATM    2  C7  UNL     1       5.331  -5.698  16.415  1.00  0.00     0.031 A 
HETATM    3  N1  UNL     1       4.323  -6.502  16.617  1.00  0.00    -0.339 N 
ATOM      4  H1  UNL     1       3.723  -6.786  15.842  1.00  0.00     0.168 HD
HETATM    5  C8  UNL     1       4.091  -6.945  17.848  1.00  0.00     0.142 A 
HETATM    6  S1  UNL     1       5.321  -6.219  18.770  1.00  0.00    -0.057 SA
HETATM    7  C9  UNL     1       6.097  -5.354  17.493  1.00  0.00     0.009 A 
HETATM    8  C10 UNL     1       7.278  -4.423  17.383  1.00  0.00     0.051 C 
HETATM    9  C11 UNL     1       8.084  -4.975  16.230  1.00  0.00     0.043 C 
HETATM   10  C12 UNL     1       7.281  -5.151  15.004  1.00  0.00     0.180 C 
HETATM   11  F1  UNL     1       7.645  -4.202  14.033  1.00  0.00    -0.249 F 
ENDROOT
BRANCH   1  12
HETATM   12  C5  UNL     1       5.184  -5.746  13.918  1.00  0.00     0.041 C 
BRANCH  12  13
HETATM   13  C4  UNL     1       6.184  -6.252  12.956  1.00  0.00    -0.024 C 
HETATM   14  C2  UNL     1       5.856  -6.724  11.754  1.00  0.00    -0.091 C 
HETATM   15  C1  UNL     1       4.425  -6.748  11.345  1.00  0.00     0.042 C 
HETATM   16  C3  UNL     1       6.888  -7.226  10.810  1.00  0.00     0.042 C 
ENDBRANCH  12  13
ENDBRANCH   1  12
BRANCH   5  17
HETATM   17  N2  UNL     1       3.150  -7.749  18.275  1.00  0.00    -0.380 N 
ATOM     18  H22 UNL     1       2.822  -7.861  19.233  1.00  0.00     0.158 HD
ATOM     19  H21 UNL     1       2.574  -8.406  17.748  1.00  0.00     0.158 HD
ENDBRANCH   5  17
TORSDOF 3
ENDMDL
MODEL 3
REMARK VINA RESULT: -7.734462768      1.280      1.810
REMARK  3 active torsions:
REMARK  status: ('A' for Active; 'I' for Inactive)
REMARK    1  A    between atoms: C4_4  and  C5_5 
REMARK    2  A    between atoms: C5_5  and  C6_6 
REMARK    3  A    between atoms: C8_10  and  N2_11 
ROOT
HETATM    1  C6  UNL     1       6.572  -4.571  19.306  1.00  0.00     0.074 C 
HETATM    2  C7  UNL     1       7.218  -4.603  20.674  1.00  0.00     0.031 A 
HETATM    3  N1  UNL     1       6.736  -5.051  21.800  1.00  0.00    -0.339 N 
ATOM      4  H1  UNL     1       5.799  -5.452  21.840  1.00  0.00     0.168 HD
HETATM    5  C8  UNL     1       7.486  -4.977  22.895  1.00  0.00     0.142 A 
HETATM    6  S1  UNL     1       8.923  -4.257  22.344  1.00  0.00    -0.057 SA
HETATM    7  C9  UNL     1       8.480  -4.078  20.686  1.00  0.00     0.009 A 
HETATM    8  C10 UNL     1       9.135  -3.520  19.447  1.00  0.00     0.051 C 
HETATM    9  C11 UNL     1       8.947  -4.598  18.405  1.00  0.00     0.043 C 
HETATM   10  C12 UNL     1       7.538  -5.014  18.261  1.00  0.00     0.180 C 
HETATM   11  F1  UNL     1       7.012  -4.563  17.038  1.00  0.00    -0.249 F 
ENDROOT
BRANCH   1  12
HETATM   12  C5  UNL     1       5.362  -5.486  19.247  1.00  0.00     0.041 C 
BRANCH  12  13
HETATM   13  C4  UNL     1       4.563  -5.327  18.015  1.00  0.00    -0.024 C 
HETATM   14  C2  UNL     1       3.882  -6.330  17.461  1.00  0.00    -0.091 C 
HETATM   15  C1  UNL     1       3.917  -7.674  18.098  1.00  0.00     0.042 C 
HETATM   16  C3  UNL     1       3.087  -6.135  16.221  1.00  0.00     0.042 C 
ENDBRANCH  12  13
ENDBRANCH   1  12
BRANCH   5  17
HETATM   17  N2  UNL     1       7.209  -5.360  24.115  1.00  0.00    -0.380 N 
ATOM     18  H22 UNL     1       6.449  -5.972  24.414  1.00  0.00     0.158 HD
ATOM     19  H21 UNL     1       7.685  -5.130  24.988  1.00  0.00     0.158 HD
ENDBRANCH   5  17
TORSDOF 3
ENDMDL
MODEL 4
REMARK VINA RESULT: -7.550311947      3.161      4.356
REMARK  3 active torsions:
REMARK  status: ('A' for Active; 'I' for Inactive)
REMARK    1  A    between atoms: C4_4  and  C5_5 
REMARK    2  A    between atoms: C5_5  and  C6_6 
REMARK    3  A    between atoms: C8_10  and  N2_11 
ROOT
HETATM    1  C6  UNL     1       5.922  -5.944  15.962  1.00  0.00     0.074 C 
HETATM    2  C7  UNL     1       6.833  -5.236  16.941  1.00  0.00     0.031 A 
HETATM    3  N1  UNL     1       7.916  -4.547  16.705  1.00  0.00    -0.339 N 
ATOM      4  H1  UNL     1       8.255  -4.425  15.751  1.00  0.00     0.168 HD
HETATM    5  C8  UNL     1       8.571  -4.008  17.728  1.00  0.00     0.142 A 
HETATM    6  S1  UNL     1       7.649  -4.473  19.078  1.00  0.00    -0.057 SA
HETATM    7  C9  UNL     1       6.431  -5.365  18.240  1.00  0.00     0.009 A 
HETATM    8  C10 UNL     1       5.203  -6.147  18.634  1.00  0.00     0.051 C 
HETATM    9  C11 UNL     1       4.117  -5.624  17.722  1.00  0.00     0.043 C 
HETATM   10  C12 UNL     1       4.492  -5.681  16.295  1.00  0.00     0.180 C 
HETATM   11  F1  UNL     1       3.755  -6.675  15.629  1.00  0.00    -0.249 F 
ENDROOT
BRANCH   1  12
HETATM   12  C5  UNL     1       6.168  -5.472  14.540  1.00  0.00     0.041 C 
BRANCH  12  13
HETATM   13  C4  UNL     1       5.229  -6.050  13.557  1.00  0.00    -0.024 C 
HETATM   14  C2  UNL     1       5.571  -6.301  12.293  1.00  0.00    -0.091 C 
HETATM   15  C1  UNL     1       6.953  -5.992  11.836  1.00  0.00     0.042 C 
HETATM   16  C3  UNL     1       4.602  -6.883  11.330  1.00  0.00     0.042 C 
ENDBRANCH  12  13
ENDBRANCH   1  12
BRANCH   5  17
HETATM   17  N2  UNL     1       9.663  -3.288  17.725  1.00  0.00    -0.380 N 
ATOM     18  H22 UNL     1      10.038  -2.730  18.492  1.00  0.00     0.158 HD
ATOM     19  H21 UNL     1      10.340  -3.145  16.975  1.00  0.00     0.158 HD
ENDBRANCH   5  17
TORSDOF 3
ENDMDL
MODEL 5
REMARK VINA RESULT: -7.550100593      2.679      4.396
REMARK  3 active torsions:
REMARK  status: ('A' for Active; 'I' for Inactive)
REMARK    1  A    between atoms: C4_4  and  C5_5 
REMARK    2  A    between atoms: C5_5  and  C6_6 
REMARK    3  A    between atoms: C8_10  and  N2_11 
ROOT
HETATM    1  C6  UNL     1       5.579  -5.913  16.232  1.00  0.00     0.074 C 
HETATM    2  C7  UNL     1       6.086  -5.452  17.581  1.00  0.00     0.031 A 
HETATM    3  N1  UNL     1       7.028  -4.591  17.854  1.00  0.00    -0.339 N 
ATOM      4  H1  UNL     1       7.536  -4.123  17.104  1.00  0.00     0.168 HD
HETATM    5  C8  UNL     1       7.316  -4.335  19.126  1.00  0.00     0.142 A 
HETATM    6  S1  UNL     1       6.235  -5.327  19.985  1.00  0.00    -0.057 SA
HETATM    7  C9  UNL     1       5.443  -6.045  18.630  1.00  0.00     0.009 A 
HETATM    8  C10 UNL     1       4.347  -7.064  18.436  1.00  0.00     0.051 C 
HETATM    9  C11 UNL     1       3.405  -6.416  17.447  1.00  0.00     0.043 C 
HETATM   10  C12 UNL     1       4.088  -5.958  16.222  1.00  0.00     0.180 C 
HETATM   11  F1  UNL     1       3.737  -6.767  15.127  1.00  0.00    -0.249 F 
ENDROOT
BRANCH   1  12
HETATM   12  C5  UNL     1       6.029  -4.977  15.124  1.00  0.00     0.041 C 
BRANCH  12  13
HETATM   13  C4  UNL     1       6.015  -5.600  13.785  1.00  0.00    -0.024 C 
HETATM   14  C2  UNL     1       6.993  -5.426  12.897  1.00  0.00    -0.091 C 
HETATM   15  C1  UNL     1       8.157  -4.571  13.253  1.00  0.00     0.042 C 
HETATM   16  C3  UNL     1       6.947  -6.067  11.558  1.00  0.00     0.042 C 
ENDBRANCH  12  13
ENDBRANCH   1  12
BRANCH   5  17
HETATM   17  N2  UNL     1       8.209  -3.519  19.625  1.00  0.00    -0.380 N 
ATOM     18  H22 UNL     1       8.425  -3.366  20.610  1.00  0.00     0.158 HD
ATOM     19  H21 UNL     1       8.851  -2.891  19.141  1.00  0.00     0.158 HD
ENDBRANCH   5  17
TORSDOF 3
ENDMDL
