MODEL 1
REMARK VINA RESULT: -8.968615120      0.000      0.000
REMARK  15 active torsions:
REMARK  status: ('A' for Active; 'I' for Inactive)
REMARK       I    between atoms: C2_2  and  N1_4 
REMARK    1  A    between atoms: N1_4  and  C3_6 
REMARK    2  A    between atoms: C3_6  and  C4_7 
REMARK    3  A    between atoms: C4_7  and  C5_8 
REMARK    4  A    between atoms: C5_8  and  N2_9 
REMARK       I    between atoms: N2_9  and  C6_11 
REMARK       I    between atoms: C6_11  and  N5_16 
REMARK    5  A    between atoms: N5_16  and  C9_18 
REMARK    6  A    between atoms: C9_18  and  C10_19 
REMARK    7  A    between atoms: C11_20  and  C12_21 
REMARK    8  A    between atoms: C12_21  and  C13_22 
REMARK    9  A    between atoms: C13_22  and  C14_23 
REMARK   10  A    between atoms: C14_23  and  O2_24 
REMARK   11  A    between atoms: C14_23  and  C15_26 
REMARK   12  A    between atoms: C17_28  and  C18_29 
REMARK   13  A    between atoms: C18_29  and  O3_30 
REMARK   14  A    between atoms: C18_29  and  O4_32 
REMARK   15  A    between atoms: O4_32  and  C19_33 
ROOT
HETATM    1  N2  UNL     1      15.566  20.877  17.530  1.00  0.00    -0.226 N 
ATOM      2  H2  UNL     1      16.411  20.380  17.814  1.00  0.00     0.177 HD
HETATM    3  C6  UNL     1      15.774  21.691  16.433  1.00  0.00     0.685 C 
HETATM    4  N3  UNL     1      14.902  21.969  15.509  1.00  0.00    -0.126 N 
ATOM      5  H3  UNL     1      15.265  22.581  14.778  1.00  0.00     0.197 HD
HETATM    6  C7  UNL     1      13.623  21.613  15.324  1.00  0.00     0.196 C 
HETATM    7  N4  UNL     1      12.525  21.336  15.189  1.00  0.00    -0.171 NA
HETATM    8  N5  UNL     1      17.016  22.360  16.352  1.00  0.00    -0.218 N 
HETATM    9  C8  UNL     1      18.193  21.501  16.714  1.00  0.00     0.169 C 
ENDROOT
BRANCH   1  10
HETATM   10  C5  UNL     1      14.470  20.577  18.341  1.00  0.00     0.139 C 
BRANCH  10  11
HETATM   11  C4  UNL     1      15.007  20.082  19.713  1.00  0.00     0.040 C 
BRANCH  11  12
HETATM   12  C3  UNL     1      14.269  18.947  20.247  1.00  0.00     0.124 C 
BRANCH  12  13
HETATM   13  N1  UNL     1      13.440  18.248  19.311  1.00  0.00    -0.361 N 
HETATM   14  C2  UNL     1      12.079  17.979  19.566  1.00  0.00     0.213 C 
HETATM   15  C1  UNL     1      11.146  17.284  18.652  1.00  0.00     0.117 C 
HETATM   16  O1  UNL     1      11.573  18.370  20.691  1.00  0.00    -0.274 OA
ATOM     17  H1  UNL     1      13.847  17.935  18.430  1.00  0.00     0.162 HD
ENDBRANCH  12  13
ENDBRANCH  11  12
ENDBRANCH  10  11
ENDBRANCH   1  10
BRANCH   8  18
HETATM   18  C9  UNL     1      17.267  23.695  15.976  1.00  0.00     0.167 C 
BRANCH  18  19
HETATM   19  C10 UNL     1      18.145  23.999  14.826  1.00  0.00    -0.010 C 
HETATM   20  C11 UNL     1      18.127  25.309  14.403  1.00  0.00    -0.018 C 
BRANCH  20  21
HETATM   21  C12 UNL     1      18.829  25.828  13.416  1.00  0.00     0.109 C 
BRANCH  21  22
HETATM   22  C13 UNL     1      19.831  26.767  14.151  1.00  0.00    -0.148 C 
BRANCH  22  23
HETATM   23  C14 UNL     1      20.643  27.506  14.721  1.00  0.00     0.189 C 
BRANCH  23  24
HETATM   24  O2  UNL     1      20.321  28.749  14.991  1.00  0.00    -0.384 OA
ATOM     25  H2  UNL     1      20.738  29.201  15.715  1.00  0.00     0.211 HD
ENDBRANCH  23  24
BRANCH  23  26
HETATM   26  C15 UNL     1      22.000  27.164  15.179  1.00  0.00     0.035 A 
HETATM   27  C16 UNL     1      22.361  25.739  15.445  1.00  0.00     0.018 A 
HETATM   28  C17 UNL     1      22.190  26.673  16.606  1.00  0.00     0.049 A 
BRANCH  28  29
HETATM   29  C18 UNL     1      21.018  26.625  17.451  1.00  0.00     0.261 C 
BRANCH  29  30
HETATM   30  O3  UNL     1      20.678  27.621  18.253  1.00  0.00    -0.371 OA
ATOM     31  H3  UNL     1      20.662  27.533  19.199  1.00  0.00     0.212 HD
ENDBRANCH  29  30
BRANCH  29  32
HETATM   32  O4  UNL     1      20.141  25.553  17.531  1.00  0.00    -0.356 OA
BRANCH  32  33
HETATM   33  C19 UNL     1      20.229  24.545  18.498  1.00  0.00     0.129 C 
HETATM   34  C20 UNL     1      18.941  24.309  19.205  1.00  0.00     0.062 C 
HETATM   35  C21 UNL     1      19.136  23.208  20.202  1.00  0.00     0.021 C 
HETATM   36  C22 UNL     1      17.851  22.787  20.859  1.00  0.00     0.037 C 
HETATM   37  C23 UNL     1      19.557  21.993  19.338  1.00  0.00     0.037 C 
HETATM   38  N6  UNL     1      20.170  23.450  21.158  1.00  0.00    -0.405 N 
HETATM   39  C24 UNL     1      20.986  24.559  20.920  1.00  0.00     0.021 C 
ATOM     40  H6  UNL     1      20.304  22.848  21.970  1.00  0.00     0.154 HD
HETATM   41  C25 UNL     1      22.325  24.356  21.618  1.00  0.00     0.037 C 
HETATM   42  C26 UNL     1      20.360  25.811  21.585  1.00  0.00     0.037 C 
HETATM   43  C27 UNL     1      21.330  24.832  19.484  1.00  0.00     0.062 C 
ENDBRANCH  32  33
ENDBRANCH  29  32
ENDBRANCH  28  29
ENDBRANCH  23  26
ENDBRANCH  22  23
ENDBRANCH  21  22
ENDBRANCH  20  21
ENDBRANCH  18  19
ENDBRANCH   8  18
TORSDOF 15
ENDMDL
MODEL 2
REMARK VINA RESULT: -8.940290022      2.164      2.705
REMARK  15 active torsions:
REMARK  status: ('A' for Active; 'I' for Inactive)
REMARK       I    between atoms: C2_2  and  N1_4 
REMARK    1  A    between atoms: N1_4  and  C3_6 
REMARK    2  A    between atoms: C3_6  and  C4_7 
REMARK    3  A    between atoms: C4_7  and  C5_8 
REMARK    4  A    between atoms: C5_8  and  N2_9 
REMARK       I    between atoms: N2_9  and  C6_11 
REMARK       I    between atoms: C6_11  and  N5_16 
REMARK    5  A    between atoms: N5_16  and  C9_18 
REMARK    6  A    between atoms: C9_18  and  C10_19 
REMARK    7  A    between atoms: C11_20  and  C12_21 
REMARK    8  A    between atoms: C12_21  and  C13_22 
REMARK    9  A    between atoms: C13_22  and  C14_23 
REMARK   10  A    between atoms: C14_23  and  O2_24 
REMARK   11  A    between atoms: C14_23  and  C15_26 
REMARK   12  A    between atoms: C17_28  and  C18_29 
REMARK   13  A    between atoms: C18_29  and  O3_30 
REMARK   14  A    between atoms: C18_29  and  O4_32 
REMARK   15  A    between atoms: O4_32  and  C19_33 
ROOT
HETATM    1  N2  UNL     1      14.222  22.048  15.559  1.00  0.00    -0.226 N 
ATOM      2  H2  UNL     1      14.154  21.677  16.507  1.00  0.00     0.177 HD
HETATM    3  C6  UNL     1      15.526  22.112  15.108  1.00  0.00     0.685 C 
HETATM    4  N3  UNL     1      15.920  21.960  13.878  1.00  0.00    -0.126 N 
ATOM      5  H3  UNL     1      16.930  22.033  13.762  1.00  0.00     0.197 HD
HETATM    6  C7  UNL     1      15.264  21.729  12.731  1.00  0.00     0.196 C 
HETATM    7  N4  UNL     1      14.700  21.565  11.754  1.00  0.00    -0.171 NA
HETATM    8  N5  UNL     1      16.517  22.468  16.049  1.00  0.00    -0.218 N 
HETATM    9  C8  UNL     1      16.359  21.794  17.382  1.00  0.00     0.169 C 
ENDROOT
BRANCH   1  10
HETATM   10  C5  UNL     1      12.975  22.372  15.020  1.00  0.00     0.139 C 
BRANCH  10  11
HETATM   11  C4  UNL     1      12.216  21.048  14.731  1.00  0.00     0.040 C 
BRANCH  11  12
HETATM   12  C3  UNL     1      12.969  19.858  15.099  1.00  0.00     0.124 C 
BRANCH  12  13
HETATM   13  N1  UNL     1      13.303  18.975  14.022  1.00  0.00    -0.361 N 
HETATM   14  C2  UNL     1      12.465  17.909  13.635  1.00  0.00     0.213 C 
HETATM   15  C1  UNL     1      12.718  16.963  12.526  1.00  0.00     0.117 C 
HETATM   16  O1  UNL     1      11.364  17.723  14.288  1.00  0.00    -0.274 OA
ATOM     17  H1  UNL     1      14.177  19.123  13.517  1.00  0.00     0.162 HD
ENDBRANCH  12  13
ENDBRANCH  11  12
ENDBRANCH  10  11
ENDBRANCH   1  10
BRANCH   8  18
HETATM   18  C9  UNL     1      17.607  23.348  15.883  1.00  0.00     0.167 C 
BRANCH  18  19
HETATM   19  C10 UNL     1      17.399  24.706  15.339  1.00  0.00    -0.010 C 
HETATM   20  C11 UNL     1      18.227  25.054  14.296  1.00  0.00    -0.018 C 
BRANCH  20  21
HETATM   21  C12 UNL     1      18.226  26.195  13.635  1.00  0.00     0.109 C 
BRANCH  21  22
HETATM   22  C13 UNL     1      19.497  26.915  14.176  1.00  0.00    -0.148 C 
BRANCH  22  23
HETATM   23  C14 UNL     1      20.493  27.498  14.621  1.00  0.00     0.189 C 
BRANCH  23  24
HETATM   24  O2  UNL     1      20.445  28.789  14.858  1.00  0.00    -0.384 OA
ATOM     25  H2  UNL     1      20.586  29.406  14.150  1.00  0.00     0.211 HD
ENDBRANCH  23  24
BRANCH  23  26
HETATM   26  C15 UNL     1      21.802  26.913  14.955  1.00  0.00     0.035 A 
HETATM   27  C16 UNL     1      21.918  25.447  15.218  1.00  0.00     0.018 A 
HETATM   28  C17 UNL     1      22.037  26.401  16.368  1.00  0.00     0.049 A 
BRANCH  28  29
HETATM   29  C18 UNL     1      20.965  26.575  17.322  1.00  0.00     0.261 C 
BRANCH  29  30
HETATM   30  O3  UNL     1      20.847  27.659  18.070  1.00  0.00    -0.371 OA
ATOM     31  H3  UNL     1      20.568  28.496  17.718  1.00  0.00     0.212 HD
ENDBRANCH  29  30
BRANCH  29  32
HETATM   32  O4  UNL     1      19.966  25.645  17.571  1.00  0.00    -0.356 OA
BRANCH  32  33
HETATM   33  C19 UNL     1      20.091  24.593  18.485  1.00  0.00     0.129 C 
HETATM   34  C20 UNL     1      18.824  24.300  19.207  1.00  0.00     0.062 C 
HETATM   35  C21 UNL     1      19.058  23.155  20.144  1.00  0.00     0.021 C 
HETATM   36  C22 UNL     1      17.795  22.680  20.806  1.00  0.00     0.037 C 
HETATM   37  C23 UNL     1      19.479  21.991  19.212  1.00  0.00     0.037 C 
HETATM   38  N6  UNL     1      20.108  23.368  21.089  1.00  0.00    -0.405 N 
HETATM   39  C24 UNL     1      20.901  24.501  20.888  1.00  0.00     0.021 C 
ATOM     40  H6  UNL     1      20.271  22.729  21.866  1.00  0.00     0.154 HD
HETATM   41  C25 UNL     1      22.259  24.287  21.546  1.00  0.00     0.037 C 
HETATM   42  C26 UNL     1      20.271  25.708  21.627  1.00  0.00     0.037 C 
HETATM   43  C27 UNL     1      21.209  24.849  19.460  1.00  0.00     0.062 C 
ENDBRANCH  32  33
ENDBRANCH  29  32
ENDBRANCH  28  29
ENDBRANCH  23  26
ENDBRANCH  22  23
ENDBRANCH  21  22
ENDBRANCH  20  21
ENDBRANCH  18  19
ENDBRANCH   8  18
TORSDOF 15
ENDMDL
MODEL 3
REMARK VINA RESULT: -8.914565812      2.230      5.327
REMARK  15 active torsions:
REMARK  status: ('A' for Active; 'I' for Inactive)
REMARK       I    between atoms: C2_2  and  N1_4 
REMARK    1  A    between atoms: N1_4  and  C3_6 
REMARK    2  A    between atoms: C3_6  and  C4_7 
REMARK    3  A    between atoms: C4_7  and  C5_8 
REMARK    4  A    between atoms: C5_8  and  N2_9 
REMARK       I    between atoms: N2_9  and  C6_11 
REMARK       I    between atoms: C6_11  and  N5_16 
REMARK    5  A    between atoms: N5_16  and  C9_18 
REMARK    6  A    between atoms: C9_18  and  C10_19 
REMARK    7  A    between atoms: C11_20  and  C12_21 
REMARK    8  A    between atoms: C12_21  and  C13_22 
REMARK    9  A    between atoms: C13_22  and  C14_23 
REMARK   10  A    between atoms: C14_23  and  O2_24 
REMARK   11  A    between atoms: C14_23  and  C15_26 
REMARK   12  A    between atoms: C17_28  and  C18_29 
REMARK   13  A    between atoms: C18_29  and  O3_30 
REMARK   14  A    between atoms: C18_29  and  O4_32 
REMARK   15  A    between atoms: O4_32  and  C19_33 
ROOT
HETATM    1  N2  UNL     1      12.605  20.557  15.855  1.00  0.00    -0.226 N 
ATOM      2  H2  UNL     1      12.107  19.852  16.399  1.00  0.00     0.177 HD
HETATM    3  C6  UNL     1      13.842  20.863  16.389  1.00  0.00     0.685 C 
HETATM    4  N3  UNL     1      14.901  21.211  15.720  1.00  0.00    -0.126 N 
ATOM      5  H3  UNL     1      15.716  21.381  16.308  1.00  0.00     0.197 HD
HETATM    6  C7  UNL     1      15.136  21.392  14.412  1.00  0.00     0.196 C 
HETATM    7  N4  UNL     1      15.323  21.577  13.303  1.00  0.00    -0.171 NA
HETATM    8  N5  UNL     1      13.946  20.895  17.798  1.00  0.00    -0.218 N 
HETATM    9  C8  UNL     1      13.242  19.759  18.484  1.00  0.00     0.169 C 
ENDROOT
BRANCH   1  10
HETATM   10  C5  UNL     1      11.877  20.987  14.744  1.00  0.00     0.139 C 
BRANCH  10  11
HETATM   11  C4  UNL     1      11.866  19.836  13.700  1.00  0.00     0.040 C 
BRANCH  11  12
HETATM   12  C3  UNL     1      12.619  18.664  14.124  1.00  0.00     0.124 C 
BRANCH  12  13
HETATM   13  N1  UNL     1      11.923  17.415  14.041  1.00  0.00    -0.361 N 
HETATM   14  C2  UNL     1      11.090  16.947  15.079  1.00  0.00     0.213 C 
HETATM   15  C1  UNL     1      10.320  15.684  15.072  1.00  0.00     0.117 C 
HETATM   16  O1  UNL     1      10.965  17.672  16.143  1.00  0.00    -0.274 OA
ATOM     17  H1  UNL     1      12.033  16.844  13.203  1.00  0.00     0.162 HD
ENDBRANCH  12  13
ENDBRANCH  11  12
ENDBRANCH  10  11
ENDBRANCH   1  10
BRANCH   8  18
HETATM   18  C9  UNL     1      14.619  21.835  18.605  1.00  0.00     0.167 C 
BRANCH  18  19
HETATM   19  C10 UNL     1      15.749  21.417  19.461  1.00  0.00    -0.010 C 
HETATM   20  C11 UNL     1      16.997  21.576  18.903  1.00  0.00    -0.018 C 
BRANCH  20  21
HETATM   21  C12 UNL     1      18.155  21.294  19.468  1.00  0.00     0.109 C 
BRANCH  21  22
HETATM   22  C13 UNL     1      18.528  22.623  20.189  1.00  0.00    -0.148 C 
BRANCH  22  23
HETATM   23  C14 UNL     1      18.812  23.690  20.747  1.00  0.00     0.189 C 
BRANCH  23  24
HETATM   24  O2  UNL     1      18.115  24.771  20.486  1.00  0.00    -0.384 OA
ATOM     25  H2  UNL     1      17.388  25.013  21.048  1.00  0.00     0.211 HD
ENDBRANCH  23  24
BRANCH  23  26
HETATM   26  C15 UNL     1      19.880  23.933  21.730  1.00  0.00     0.035 A 
HETATM   27  C16 UNL     1      20.384  25.321  21.957  1.00  0.00     0.018 A 
HETATM   28  C17 UNL     1      21.257  24.343  21.230  1.00  0.00     0.049 A 
BRANCH  28  29
HETATM   29  C18 UNL     1      21.448  24.415  19.799  1.00  0.00     0.261 C 
BRANCH  29  30
HETATM   30  O3  UNL     1      22.225  23.571  19.141  1.00  0.00    -0.371 OA
ATOM     31  H3  UNL     1      21.911  23.049  18.412  1.00  0.00     0.212 HD
ENDBRANCH  29  30
BRANCH  29  32
HETATM   32  O4  UNL     1      20.864  25.360  18.967  1.00  0.00    -0.356 OA
BRANCH  32  33
HETATM   33  C19 UNL     1      20.680  25.180  17.591  1.00  0.00     0.129 C 
HETATM   34  C20 UNL     1      20.330  26.442  16.886  1.00  0.00     0.062 C 
HETATM   35  C21 UNL     1      20.171  26.147  15.425  1.00  0.00     0.021 C 
HETATM   36  C22 UNL     1      19.971  27.388  14.602  1.00  0.00     0.037 C 
HETATM   37  C23 UNL     1      21.561  25.609  15.000  1.00  0.00     0.037 C 
HETATM   38  N6  UNL     1      19.198  25.144  15.126  1.00  0.00    -0.405 N 
HETATM   39  C24 UNL     1      18.683  24.437  16.216  1.00  0.00     0.021 C 
ATOM     40  H6  UNL     1      18.896  24.956  14.171  1.00  0.00     0.154 HD
HETATM   41  C25 UNL     1      18.163  23.087  15.736  1.00  0.00     0.037 C 
HETATM   42  C26 UNL     1      17.443  25.182  16.773  1.00  0.00     0.037 C 
HETATM   43  C27 UNL     1      19.653  24.115  17.315  1.00  0.00     0.062 C 
ENDBRANCH  32  33
ENDBRANCH  29  32
ENDBRANCH  28  29
ENDBRANCH  23  26
ENDBRANCH  22  23
ENDBRANCH  21  22
ENDBRANCH  20  21
ENDBRANCH  18  19
ENDBRANCH   8  18
TORSDOF 15
ENDMDL
MODEL 4
REMARK VINA RESULT: -8.837268531      2.406      5.233
REMARK  15 active torsions:
REMARK  status: ('A' for Active; 'I' for Inactive)
REMARK       I    between atoms: C2_2  and  N1_4 
REMARK    1  A    between atoms: N1_4  and  C3_6 
REMARK    2  A    between atoms: C3_6  and  C4_7 
REMARK    3  A    between atoms: C4_7  and  C5_8 
REMARK    4  A    between atoms: C5_8  and  N2_9 
REMARK       I    between atoms: N2_9  and  C6_11 
REMARK       I    between atoms: C6_11  and  N5_16 
REMARK    5  A    between atoms: N5_16  and  C9_18 
REMARK    6  A    between atoms: C9_18  and  C10_19 
REMARK    7  A    between atoms: C11_20  and  C12_21 
REMARK    8  A    between atoms: C12_21  and  C13_22 
REMARK    9  A    between atoms: C13_22  and  C14_23 
REMARK   10  A    between atoms: C14_23  and  O2_24 
REMARK   11  A    between atoms: C14_23  and  C15_26 
REMARK   12  A    between atoms: C17_28  and  C18_29 
REMARK   13  A    between atoms: C18_29  and  O3_30 
REMARK   14  A    between atoms: C18_29  and  O4_32 
REMARK   15  A    between atoms: O4_32  and  C19_33 
ROOT
HETATM    1  N2  UNL     1      12.530  18.980  18.379  1.00  0.00    -0.226 N 
ATOM      2  H2  UNL     1      12.758  18.410  19.194  1.00  0.00     0.177 HD
HETATM    3  C6  UNL     1      13.556  19.836  18.027  1.00  0.00     0.685 C 
HETATM    4  N3  UNL     1      13.850  20.223  16.821  1.00  0.00    -0.126 N 
ATOM      5  H3  UNL     1      14.656  20.847  16.779  1.00  0.00     0.197 HD
HETATM    6  C7  UNL     1      13.307  19.968  15.622  1.00  0.00     0.196 C 
HETATM    7  N4  UNL     1      12.822  19.776  14.608  1.00  0.00    -0.171 NA
HETATM    8  N5  UNL     1      14.297  20.420  19.077  1.00  0.00    -0.218 N 
HETATM    9  C8  UNL     1      14.645  19.462  20.181  1.00  0.00     0.169 C 
ENDROOT
BRANCH   1  10
HETATM   10  C5  UNL     1      11.253  18.713  17.880  1.00  0.00     0.139 C 
BRANCH  10  11
HETATM   11  C4  UNL     1      10.957  17.203  18.098  1.00  0.00     0.040 C 
BRANCH  11  12
HETATM   12  C3  UNL     1      10.594  16.502  16.875  1.00  0.00     0.124 C 
BRANCH  12  13
HETATM   13  N1  UNL     1      11.301  16.904  15.696  1.00  0.00    -0.361 N 
HETATM   14  C2  UNL     1      10.984  16.395  14.419  1.00  0.00     0.213 C 
HETATM   15  C1  UNL     1      11.645  16.766  13.148  1.00  0.00     0.117 C 
HETATM   16  O1  UNL     1      10.029  15.528  14.321  1.00  0.00    -0.274 OA
ATOM     17  H1  UNL     1      12.059  17.581  15.782  1.00  0.00     0.162 HD
ENDBRANCH  12  13
ENDBRANCH  11  12
ENDBRANCH  10  11
ENDBRANCH   1  10
BRANCH   8  18
HETATM   18  C9  UNL     1      14.741  21.753  19.200  1.00  0.00     0.167 C 
BRANCH  18  19
HETATM   19  C10 UNL     1      16.087  22.143  18.733  1.00  0.00    -0.010 C 
HETATM   20  C11 UNL     1      17.110  21.313  19.132  1.00  0.00    -0.018 C 
BRANCH  20  21
HETATM   21  C12 UNL     1      18.389  21.438  18.834  1.00  0.00     0.109 C 
BRANCH  21  22
HETATM   22  C13 UNL     1      18.842  22.636  19.720  1.00  0.00    -0.148 C 
BRANCH  22  23
HETATM   23  C14 UNL     1      19.182  23.587  20.434  1.00  0.00     0.189 C 
BRANCH  23  24
HETATM   24  O2  UNL     1      18.329  24.552  20.688  1.00  0.00    -0.384 OA
ATOM     25  H2  UNL     1      18.473  25.419  20.329  1.00  0.00     0.211 HD
ENDBRANCH  23  24
BRANCH  23  26
HETATM   26  C15 UNL     1      20.483  23.799  21.089  1.00  0.00     0.035 A 
HETATM   27  C16 UNL     1      20.749  25.070  21.827  1.00  0.00     0.018 A 
HETATM   28  C17 UNL     1      21.433  24.839  20.512  1.00  0.00     0.049 A 
BRANCH  28  29
HETATM   29  C18 UNL     1      21.014  25.523  19.310  1.00  0.00     0.261 C 
BRANCH  29  30
HETATM   30  O3  UNL     1      20.678  26.802  19.299  1.00  0.00    -0.371 OA
ATOM     31  H3  UNL     1      20.222  27.205  18.569  1.00  0.00     0.212 HD
ENDBRANCH  29  30
BRANCH  29  32
HETATM   32  O4  UNL     1      20.905  24.933  18.059  1.00  0.00    -0.356 OA
BRANCH  32  33
HETATM   33  C19 UNL     1      19.847  25.172  17.174  1.00  0.00     0.129 C 
HETATM   34  C20 UNL     1      19.240  23.920  16.648  1.00  0.00     0.062 C 
HETATM   35  C21 UNL     1      18.113  24.282  15.730  1.00  0.00     0.021 C 
HETATM   36  C22 UNL     1      17.333  23.083  15.269  1.00  0.00     0.037 C 
HETATM   37  C23 UNL     1      17.132  25.070  16.635  1.00  0.00     0.037 C 
HETATM   38  N6  UNL     1      18.486  25.127  14.640  1.00  0.00    -0.405 N 
HETATM   39  C24 UNL     1      19.775  25.665  14.687  1.00  0.00     0.021 C 
ATOM     40  H6  UNL     1      17.847  25.327  13.871  1.00  0.00     0.154 HD
HETATM   41  C25 UNL     1      19.817  26.939  13.852  1.00  0.00     0.037 C 
HETATM   42  C26 UNL     1      20.764  24.690  14.000  1.00  0.00     0.037 C 
HETATM   43  C27 UNL     1      20.275  26.068  16.043  1.00  0.00     0.062 C 
ENDBRANCH  32  33
ENDBRANCH  29  32
ENDBRANCH  28  29
ENDBRANCH  23  26
ENDBRANCH  22  23
ENDBRANCH  21  22
ENDBRANCH  20  21
ENDBRANCH  18  19
ENDBRANCH   8  18
TORSDOF 15
ENDMDL
MODEL 5
REMARK VINA RESULT: -8.819726320      2.116      4.879
REMARK  15 active torsions:
REMARK  status: ('A' for Active; 'I' for Inactive)
REMARK       I    between atoms: C2_2  and  N1_4 
REMARK    1  A    between atoms: N1_4  and  C3_6 
REMARK    2  A    between atoms: C3_6  and  C4_7 
REMARK    3  A    between atoms: C4_7  and  C5_8 
REMARK    4  A    between atoms: C5_8  and  N2_9 
REMARK       I    between atoms: N2_9  and  C6_11 
REMARK       I    between atoms: C6_11  and  N5_16 
REMARK    5  A    between atoms: N5_16  and  C9_18 
REMARK    6  A    between atoms: C9_18  and  C10_19 
REMARK    7  A    between atoms: C11_20  and  C12_21 
REMARK    8  A    between atoms: C12_21  and  C13_22 
REMARK    9  A    between atoms: C13_22  and  C14_23 
REMARK   10  A    between atoms: C14_23  and  O2_24 
REMARK   11  A    between atoms: C14_23  and  C15_26 
REMARK   12  A    between atoms: C17_28  and  C18_29 
REMARK   13  A    between atoms: C18_29  and  O3_30 
REMARK   14  A    between atoms: C18_29  and  O4_32 
REMARK   15  A    between atoms: O4_32  and  C19_33 
ROOT
HETATM    1  N2  UNL     1      12.600  19.668  17.146  1.00  0.00    -0.226 N 
ATOM      2  H2  UNL     1      13.156  19.531  17.990  1.00  0.00     0.177 HD
HETATM    3  C6  UNL     1      13.363  20.084  16.071  1.00  0.00     0.685 C 
HETATM    4  N3  UNL     1      13.147  19.799  14.822  1.00  0.00    -0.126 N 
ATOM      5  H3  UNL     1      13.840  20.197  14.188  1.00  0.00     0.197 HD
HETATM    6  C7  UNL     1      12.198  19.086  14.198  1.00  0.00     0.196 C 
HETATM    7  N4  UNL     1      11.370  18.508  13.670  1.00  0.00    -0.171 NA
HETATM    8  N5  UNL     1      14.421  20.981  16.342  1.00  0.00    -0.218 N 
HETATM    9  C8  UNL     1      15.219  20.628  17.565  1.00  0.00     0.169 C 
ENDROOT
BRANCH   1  10
HETATM   10  C5  UNL     1      11.246  19.390  17.344  1.00  0.00     0.139 C 
BRANCH  10  11
HETATM   11  C4  UNL     1      11.077  17.846  17.419  1.00  0.00     0.040 C 
BRANCH  11  12
HETATM   12  C3  UNL     1      11.239  17.312  18.763  1.00  0.00     0.124 C 
BRANCH  12  13
HETATM   13  N1  UNL     1      12.567  17.362  19.296  1.00  0.00    -0.361 N 
HETATM   14  C2  UNL     1      12.867  18.011  20.511  1.00  0.00     0.213 C 
HETATM   15  C1  UNL     1      14.201  18.095  21.146  1.00  0.00     0.117 C 
HETATM   16  O1  UNL     1      11.904  18.588  21.155  1.00  0.00    -0.274 OA
ATOM     17  H1  UNL     1      13.323  16.912  18.779  1.00  0.00     0.162 HD
ENDBRANCH  12  13
ENDBRANCH  11  12
ENDBRANCH  10  11
ENDBRANCH   1  10
BRANCH   8  18
HETATM   18  C9  UNL     1      14.805  22.126  15.614  1.00  0.00     0.167 C 
BRANCH  18  19
HETATM   19  C10 UNL     1      16.144  22.722  15.803  1.00  0.00    -0.010 C 
HETATM   20  C11 UNL     1      16.224  23.691  16.777  1.00  0.00    -0.018 C 
BRANCH  20  21
HETATM   21  C12 UNL     1      17.303  24.355  17.142  1.00  0.00     0.109 C 
BRANCH  21  22
HETATM   22  C13 UNL     1      17.962  23.408  18.188  1.00  0.00    -0.148 C 
BRANCH  22  23
HETATM   23  C14 UNL     1      18.493  22.674  19.030  1.00  0.00     0.189 C 
BRANCH  23  24
HETATM   24  O2  UNL     1      18.878  21.465  18.696  1.00  0.00    -0.384 OA
ATOM     25  H2  UNL     1      18.243  20.760  18.653  1.00  0.00     0.211 HD
ENDBRANCH  23  24
BRANCH  23  26
HETATM   26  C15 UNL     1      18.782  22.987  20.439  1.00  0.00     0.035 A 
HETATM   27  C16 UNL     1      18.669  24.394  20.930  1.00  0.00     0.018 A 
HETATM   28  C17 UNL     1      20.031  23.789  20.771  1.00  0.00     0.049 A 
BRANCH  28  29
HETATM   29  C18 UNL     1      20.897  24.150  19.671  1.00  0.00     0.261 C 
BRANCH  29  30
HETATM   30  O3  UNL     1      21.990  23.467  19.372  1.00  0.00    -0.371 OA
ATOM     31  H3  UNL     1      22.567  23.108  20.036  1.00  0.00     0.212 HD
ENDBRANCH  29  30
BRANCH  29  32
HETATM   32  O4  UNL     1      20.699  25.234  18.829  1.00  0.00    -0.356 OA
BRANCH  32  33
HETATM   33  C19 UNL     1      21.419  25.443  17.646  1.00  0.00     0.129 C 
HETATM   34  C20 UNL     1      21.650  26.884  17.357  1.00  0.00     0.062 C 
HETATM   35  C21 UNL     1      22.436  26.999  16.088  1.00  0.00     0.021 C 
HETATM   36  C22 UNL     1      22.857  28.411  15.792  1.00  0.00     0.037 C 
HETATM   37  C23 UNL     1      23.756  26.248  16.397  1.00  0.00     0.037 C 
HETATM   38  N6  UNL     1      21.828  26.375  14.955  1.00  0.00    -0.405 N 
HETATM   39  C24 UNL     1      20.709  25.579  15.214  1.00  0.00     0.021 C 
ATOM     40  H6  UNL     1      22.189  26.505  14.011  1.00  0.00     0.154 HD
HETATM   41  C25 UNL     1      20.549  24.559  14.093  1.00  0.00     0.037 C 
HETATM   42  C26 UNL     1      19.431  26.454  15.160  1.00  0.00     0.037 C 
HETATM   43  C27 UNL     1      20.751  24.769  16.477  1.00  0.00     0.062 C 
ENDBRANCH  32  33
ENDBRANCH  29  32
ENDBRANCH  28  29
ENDBRANCH  23  26
ENDBRANCH  22  23
ENDBRANCH  21  22
ENDBRANCH  20  21
ENDBRANCH  18  19
ENDBRANCH   8  18
TORSDOF 15
ENDMDL
