MODEL 1
REMARK VINA RESULT: -8.454065519      0.000      0.000
REMARK  14 active torsions:
REMARK  status: ('A' for Active; 'I' for Inactive)
REMARK    1  A    between atoms: C2_2  and  C3_3 
REMARK    2  A    between atoms: C3_3  and  N1_4 
REMARK       I    between atoms: N1_4  and  C4_5 
REMARK    3  A    between atoms: C4_5  and  C5_7 
REMARK    4  A    between atoms: C5_7  and  C6_8 
REMARK    5  A    between atoms: C6_8  and  C7_9 
REMARK    6  A    between atoms: C7_9  and  C8_10 
REMARK    7  A    between atoms: C8_10  and  C9_11 
REMARK    8  A    between atoms: C16_19  and  C17_20 
REMARK    9  A    between atoms: C19_22  and  C20_23 
REMARK   10  A    between atoms: C20_23  and  O2_24 
REMARK   11  A    between atoms: C22_26  and  O3_27 
REMARK   12  A    between atoms: C23_29  and  O4_30 
REMARK   13  A    between atoms: C24_32  and  O5_33 
REMARK   14  A    between atoms: O5_33  and  C25_34 
ROOT
HETATM    1  C9  UNL     1      17.415  23.598  17.675  1.00  0.00     0.022 C 
HETATM    2  C10 UNL     1      17.715  25.070  17.765  1.00  0.00     0.014 C 
HETATM    3  C11 UNL     1      18.946  25.546  17.040  1.00  0.00     0.006 C 
HETATM    4  C12 UNL     1      19.238  24.661  15.926  1.00  0.00    -0.008 A 
HETATM    5  C13 UNL     1      18.865  24.668  14.547  1.00  0.00     0.012 A 
HETATM    6  C14 UNL     1      17.806  24.297  15.410  1.00  0.00     0.024 A 
HETATM    7  C15 UNL     1      17.511  23.087  16.227  1.00  0.00     0.239 C 
HETATM    8  N2  UNL     1      16.160  22.719  16.160  1.00  0.00     0.107 N 
HETATM    9  C16 UNL     1      15.713  21.387  16.214  1.00  0.00     0.260 C 
HETATM   10  C24 UNL     1      15.209  21.042  17.590  1.00  0.00     0.167 C 
HETATM   11  C27 UNL     1      15.170  22.412  18.233  1.00  0.00     0.071 C 
HETATM   12  C28 UNL     1      15.975  23.352  17.460  1.00  0.00     0.237 C 
ENDROOT
BRANCH   9  13
HETATM   13  C17 UNL     1      14.603  21.117  15.229  1.00  0.00     0.053 C 
HETATM   14  C18 UNL     1      13.672  22.280  15.017  1.00  0.00     0.019 C 
HETATM   15  C19 UNL     1      12.835  21.783  13.831  1.00  0.00     0.041 C 
HETATM   16  C22 UNL     1      13.626  20.667  13.186  1.00  0.00     0.153 C 
HETATM   17  C23 UNL     1      15.037  20.815  13.822  1.00  0.00     0.153 C 
BRANCH  15  18
HETATM   18  C20 UNL     1      11.534  21.268  14.394  1.00  0.00     0.174 C 
BRANCH  18  19
HETATM   19  O2  UNL     1      11.304  19.941  14.057  1.00  0.00    -0.395 OA
HETATM   20  C21 UNL     1      11.615  19.017  15.016  1.00  0.00     0.201 C 
ENDBRANCH  18  19
ENDBRANCH  15  18
BRANCH  16  21
HETATM   21  O3  UNL     1      13.792  20.807  11.823  1.00  0.00    -0.393 OA
ATOM     22  H3  UNL     1      14.565  20.376  11.479  1.00  0.00     0.210 HD
ENDBRANCH  16  21
BRANCH  17  23
HETATM   23  O4  UNL     1      15.688  21.866  13.199  1.00  0.00    -0.393 OA
ATOM     24  H4  UNL     1      15.533  21.914  12.263  1.00  0.00     0.210 HD
ENDBRANCH  17  23
ENDBRANCH   9  13
BRANCH  10  25
HETATM   25  O5  UNL     1      13.925  20.480  17.514  1.00  0.00    -0.314 OA
BRANCH  25  26
HETATM   26  C25 UNL     1      13.313  19.724  18.515  1.00  0.00     0.255 C 
HETATM   27  C26 UNL     1      14.078  19.070  19.583  1.00  0.00     0.126 C 
HETATM   28  O6  UNL     1      12.022  19.646  18.414  1.00  0.00    -0.266 OA
ENDBRANCH  25  26
ENDBRANCH  10  25
BRANCH   1  29
HETATM   29  C8  UNL     1      18.252  22.761  18.568  1.00  0.00     0.014 C 
BRANCH  29  30
HETATM   30  C7  UNL     1      18.218  23.127  20.031  1.00  0.00     0.001 C 
BRANCH  30  31
HETATM   31  C6  UNL     1      19.584  23.381  20.613  1.00  0.00     0.010 C 
BRANCH  31  32
HETATM   32  C5  UNL     1      20.643  23.641  19.576  1.00  0.00     0.119 C 
BRANCH  32  33
HETATM   33  C4  UNL     1      21.436  24.864  19.909  1.00  0.00     0.290 C 
HETATM   34  N1  UNL     1      22.108  25.509  18.824  1.00  0.00    -0.388 NA
HETATM   35  O1  UNL     1      21.442  25.226  21.116  1.00  0.00    -0.257 OA
BRANCH  34  36
HETATM   36  C3  UNL     1      22.726  26.112  17.856  1.00  0.00     0.158 C 
BRANCH  36  37
HETATM   37  C2  UNL     1      22.106  27.307  17.125  1.00  0.00     0.055 C 
HETATM   38  C1  UNL     1      22.155  27.051  15.653  1.00  0.00     0.011 C 
ENDBRANCH  36  37
ENDBRANCH  34  36
ENDBRANCH  32  33
ENDBRANCH  31  32
ENDBRANCH  30  31
ENDBRANCH  29  30
ENDBRANCH   1  29
TORSDOF 14
ENDMDL
MODEL 2
REMARK VINA RESULT: -8.413143000      2.396      5.136
REMARK  14 active torsions:
REMARK  status: ('A' for Active; 'I' for Inactive)
REMARK    1  A    between atoms: C2_2  and  C3_3 
REMARK    2  A    between atoms: C3_3  and  N1_4 
REMARK       I    between atoms: N1_4  and  C4_5 
REMARK    3  A    between atoms: C4_5  and  C5_7 
REMARK    4  A    between atoms: C5_7  and  C6_8 
REMARK    5  A    between atoms: C6_8  and  C7_9 
REMARK    6  A    between atoms: C7_9  and  C8_10 
REMARK    7  A    between atoms: C8_10  and  C9_11 
REMARK    8  A    between atoms: C16_19  and  C17_20 
REMARK    9  A    between atoms: C19_22  and  C20_23 
REMARK   10  A    between atoms: C20_23  and  O2_24 
REMARK   11  A    between atoms: C22_26  and  O3_27 
REMARK   12  A    between atoms: C23_29  and  O4_30 
REMARK   13  A    between atoms: C24_32  and  O5_33 
REMARK   14  A    between atoms: O5_33  and  C25_34 
ROOT
HETATM    1  C9  UNL     1      19.806  23.720  18.623  1.00  0.00     0.022 C 
HETATM    2  C10 UNL     1      21.083  23.495  19.386  1.00  0.00     0.014 C 
HETATM    3  C11 UNL     1      21.227  24.247  20.683  1.00  0.00     0.006 C 
HETATM    4  C12 UNL     1      19.915  24.531  21.239  1.00  0.00    -0.008 A 
HETATM    5  C13 UNL     1      19.068  23.834  22.155  1.00  0.00     0.012 A 
HETATM    6  C14 UNL     1      19.115  23.236  20.873  1.00  0.00     0.024 A 
HETATM    7  C15 UNL     1      18.573  23.609  19.536  1.00  0.00     0.239 C 
HETATM    8  N2  UNL     1      18.040  22.506  18.854  1.00  0.00     0.107 N 
HETATM    9  C16 UNL     1      16.937  22.587  17.987  1.00  0.00     0.260 C 
HETATM   10  C24 UNL     1      17.382  22.612  16.549  1.00  0.00     0.167 C 
HETATM   11  C27 UNL     1      18.847  22.262  16.695  1.00  0.00     0.071 C 
HETATM   12  C28 UNL     1      19.273  22.455  18.078  1.00  0.00     0.237 C 
ENDROOT
BRANCH   9  13
HETATM   13  C17 UNL     1      15.987  21.427  18.161  1.00  0.00     0.053 C 
HETATM   14  C18 UNL     1      15.868  20.939  19.580  1.00  0.00     0.019 C 
HETATM   15  C19 UNL     1      14.697  19.956  19.462  1.00  0.00     0.041 C 
HETATM   16  C22 UNL     1      13.968  20.308  18.184  1.00  0.00     0.153 C 
HETATM   17  C23 UNL     1      14.552  21.701  17.813  1.00  0.00     0.153 C 
BRANCH  15  18
HETATM   18  C20 UNL     1      15.289  18.571  19.382  1.00  0.00     0.174 C 
BRANCH  18  19
HETATM   19  O2  UNL     1      14.612  17.662  20.185  1.00  0.00    -0.395 OA
HETATM   20  C21 UNL     1      13.903  18.194  21.225  1.00  0.00     0.201 C 
ENDBRANCH  18  19
ENDBRANCH  15  18
BRANCH  16  21
HETATM   21  O3  UNL     1      12.608  20.479  18.338  1.00  0.00    -0.393 OA
ATOM     22  H3  UNL     1      12.080  19.863  17.844  1.00  0.00     0.210 HD
ENDBRANCH  16  21
BRANCH  17  23
HETATM   23  O4  UNL     1      13.951  22.653  18.618  1.00  0.00    -0.393 OA
ATOM     24  H4  UNL     1      14.220  23.544  18.428  1.00  0.00     0.210 HD
ENDBRANCH  17  23
ENDBRANCH   9  13
BRANCH  10  25
HETATM   25  O5  UNL     1      16.698  21.635  15.808  1.00  0.00    -0.314 OA
BRANCH  25  26
HETATM   26  C25 UNL     1      15.999  21.863  14.621  1.00  0.00     0.255 C 
HETATM   27  C26 UNL     1      14.855  21.040  14.213  1.00  0.00     0.126 C 
HETATM   28  O6  UNL     1      16.452  22.852  13.914  1.00  0.00    -0.266 OA
ENDBRANCH  25  26
ENDBRANCH  10  25
BRANCH   1  29
HETATM   29  C8  UNL     1      19.774  24.999  17.874  1.00  0.00     0.014 C 
BRANCH  29  30
HETATM   30  C7  UNL     1      21.117  25.607  17.558  1.00  0.00     0.001 C 
BRANCH  30  31
HETATM   31  C6  UNL     1      21.054  27.091  17.307  1.00  0.00     0.010 C 
BRANCH  31  32
HETATM   32  C5  UNL     1      22.081  27.582  16.323  1.00  0.00     0.119 C 
BRANCH  32  33
HETATM   33  C4  UNL     1      21.429  28.151  15.103  1.00  0.00     0.290 C 
HETATM   34  N1  UNL     1      20.325  27.420  14.564  1.00  0.00    -0.388 NA
HETATM   35  O1  UNL     1      21.905  29.228  14.655  1.00  0.00    -0.257 OA
BRANCH  34  36
HETATM   36  C3  UNL     1      19.320  26.774  14.058  1.00  0.00     0.158 C 
BRANCH  36  37
HETATM   37  C2  UNL     1      19.206  25.250  14.161  1.00  0.00     0.055 C 
HETATM   38  C1  UNL     1      20.581  24.666  14.207  1.00  0.00     0.011 C 
ENDBRANCH  36  37
ENDBRANCH  34  36
ENDBRANCH  32  33
ENDBRANCH  31  32
ENDBRANCH  30  31
ENDBRANCH  29  30
ENDBRANCH   1  29
TORSDOF 14
ENDMDL
MODEL 3
REMARK VINA RESULT: -8.336051136      2.691      9.207
REMARK  14 active torsions:
REMARK  status: ('A' for Active; 'I' for Inactive)
REMARK    1  A    between atoms: C2_2  and  C3_3 
REMARK    2  A    between atoms: C3_3  and  N1_4 
REMARK       I    between atoms: N1_4  and  C4_5 
REMARK    3  A    between atoms: C4_5  and  C5_7 
REMARK    4  A    between atoms: C5_7  and  C6_8 
REMARK    5  A    between atoms: C6_8  and  C7_9 
REMARK    6  A    between atoms: C7_9  and  C8_10 
REMARK    7  A    between atoms: C8_10  and  C9_11 
REMARK    8  A    between atoms: C16_19  and  C17_20 
REMARK    9  A    between atoms: C19_22  and  C20_23 
REMARK   10  A    between atoms: C20_23  and  O2_24 
REMARK   11  A    between atoms: C22_26  and  O3_27 
REMARK   12  A    between atoms: C23_29  and  O4_30 
REMARK   13  A    between atoms: C24_32  and  O5_33 
REMARK   14  A    between atoms: O5_33  and  C25_34 
ROOT
HETATM    1  C9  UNL     1      18.449  22.975  17.687  1.00  0.00     0.022 C 
HETATM    2  C10 UNL     1      18.105  21.756  16.874  1.00  0.00     0.014 C 
HETATM    3  C11 UNL     1      16.940  21.891  15.930  1.00  0.00     0.006 C 
HETATM    4  C12 UNL     1      16.781  23.280  15.533  1.00  0.00    -0.008 A 
HETATM    5  C13 UNL     1      17.288  24.050  14.442  1.00  0.00     0.012 A 
HETATM    6  C14 UNL     1      18.266  23.763  15.425  1.00  0.00     0.024 A 
HETATM    7  C15 UNL     1      18.509  24.240  16.815  1.00  0.00     0.239 C 
HETATM    8  N2  UNL     1      19.869  24.472  17.065  1.00  0.00     0.107 N 
HETATM    9  C16 UNL     1      20.341  25.482  17.922  1.00  0.00     0.260 C 
HETATM   10  C24 UNL     1      20.715  24.918  19.266  1.00  0.00     0.167 C 
HETATM   11  C27 UNL     1      20.657  23.432  18.981  1.00  0.00     0.071 C 
HETATM   12  C28 UNL     1      19.909  23.187  17.753  1.00  0.00     0.237 C 
ENDROOT
BRANCH   9  13
HETATM   13  C17 UNL     1      21.549  26.189  17.359  1.00  0.00     0.053 C 
HETATM   14  C18 UNL     1      22.154  25.511  16.159  1.00  0.00     0.019 C 
HETATM   15  C19 UNL     1      23.173  26.563  15.702  1.00  0.00     0.041 C 
HETATM   16  C22 UNL     1      22.750  27.872  16.331  1.00  0.00     0.153 C 
HETATM   17  C23 UNL     1      21.308  27.576  16.834  1.00  0.00     0.153 C 
BRANCH  15  18
HETATM   18  C20 UNL     1      24.521  26.126  16.219  1.00  0.00     0.174 C 
BRANCH  18  19
HETATM   19  O2  UNL     1      25.568  26.756  15.557  1.00  0.00    -0.395 OA
HETATM   20  C21 UNL     1      26.793  26.162  15.673  1.00  0.00     0.201 C 
ENDBRANCH  18  19
ENDBRANCH  15  18
BRANCH  16  21
HETATM   21  O3  UNL     1      22.649  28.921  15.440  1.00  0.00    -0.393 OA
ATOM     22  H3  UNL     1      23.067  29.722  15.733  1.00  0.00     0.210 HD
ENDBRANCH  16  21
BRANCH  17  23
HETATM   23  O4  UNL     1      20.450  27.624  15.750  1.00  0.00    -0.393 OA
ATOM     24  H4  UNL     1      20.330  28.496  15.392  1.00  0.00     0.210 HD
ENDBRANCH  17  23
ENDBRANCH   9  13
BRANCH  10  25
HETATM   25  O5  UNL     1      22.015  25.317  19.619  1.00  0.00    -0.314 OA
BRANCH  25  26
HETATM   26  C25 UNL     1      22.842  24.659  20.531  1.00  0.00     0.255 C 
HETATM   27  C26 UNL     1      24.092  24.004  20.127  1.00  0.00     0.126 C 
HETATM   28  O6  UNL     1      22.408  24.671  21.753  1.00  0.00    -0.266 OA
ENDBRANCH  25  26
ENDBRANCH  10  25
BRANCH   1  29
HETATM   29  C8  UNL     1      17.549  23.195  18.845  1.00  0.00     0.014 C 
BRANCH  29  30
HETATM   30  C7  UNL     1      17.221  21.970  19.662  1.00  0.00     0.001 C 
BRANCH  30  31
HETATM   31  C6  UNL     1      15.769  21.577  19.587  1.00  0.00     0.010 C 
BRANCH  31  32
HETATM   32  C5  UNL     1      15.541  20.224  18.969  1.00  0.00     0.119 C 
BRANCH  32  33
HETATM   33  C4  UNL     1      14.171  20.124  18.379  1.00  0.00     0.290 C 
HETATM   34  N1  UNL     1      13.241  19.275  19.055  1.00  0.00    -0.388 NA
HETATM   35  O1  UNL     1      13.950  20.800  17.339  1.00  0.00    -0.257 OA
BRANCH  34  36
HETATM   36  C3  UNL     1      12.379  18.510  19.652  1.00  0.00     0.158 C 
BRANCH  36  37
HETATM   37  C2  UNL     1      12.721  17.769  20.948  1.00  0.00     0.055 C 
HETATM   38  C1  UNL     1      13.823  18.500  21.646  1.00  0.00     0.011 C 
ENDBRANCH  36  37
ENDBRANCH  34  36
ENDBRANCH  32  33
ENDBRANCH  31  32
ENDBRANCH  30  31
ENDBRANCH  29  30
ENDBRANCH   1  29
TORSDOF 14
ENDMDL
MODEL 4
REMARK VINA RESULT: -8.210248042      2.537      8.802
REMARK  14 active torsions:
REMARK  status: ('A' for Active; 'I' for Inactive)
REMARK    1  A    between atoms: C2_2  and  C3_3 
REMARK    2  A    between atoms: C3_3  and  N1_4 
REMARK       I    between atoms: N1_4  and  C4_5 
REMARK    3  A    between atoms: C4_5  and  C5_7 
REMARK    4  A    between atoms: C5_7  and  C6_8 
REMARK    5  A    between atoms: C6_8  and  C7_9 
REMARK    6  A    between atoms: C7_9  and  C8_10 
REMARK    7  A    between atoms: C8_10  and  C9_11 
REMARK    8  A    between atoms: C16_19  and  C17_20 
REMARK    9  A    between atoms: C19_22  and  C20_23 
REMARK   10  A    between atoms: C20_23  and  O2_24 
REMARK   11  A    between atoms: C22_26  and  O3_27 
REMARK   12  A    between atoms: C23_29  and  O4_30 
REMARK   13  A    between atoms: C24_32  and  O5_33 
REMARK   14  A    between atoms: O5_33  and  C25_34 
ROOT
HETATM    1  C9  UNL     1      18.422  22.830  17.717  1.00  0.00     0.022 C 
HETATM    2  C10 UNL     1      18.113  21.597  16.911  1.00  0.00     0.014 C 
HETATM    3  C11 UNL     1      16.942  21.692  15.970  1.00  0.00     0.006 C 
HETATM    4  C12 UNL     1      16.740  23.073  15.566  1.00  0.00    -0.008 A 
HETATM    5  C13 UNL     1      17.221  23.853  14.470  1.00  0.00     0.012 A 
HETATM    6  C14 UNL     1      18.210  23.600  15.451  1.00  0.00     0.024 A 
HETATM    7  C15 UNL     1      18.442  24.092  16.838  1.00  0.00     0.239 C 
HETATM    8  N2  UNL     1      19.795  24.366  17.083  1.00  0.00     0.107 N 
HETATM    9  C16 UNL     1      20.239  25.393  17.933  1.00  0.00     0.260 C 
HETATM   10  C24 UNL     1      20.633  24.848  19.279  1.00  0.00     0.167 C 
HETATM   11  C27 UNL     1      20.620  23.360  19.002  1.00  0.00     0.071 C 
HETATM   12  C28 UNL     1      19.875  23.086  17.777  1.00  0.00     0.237 C 
ENDROOT
BRANCH   9  13
HETATM   13  C17 UNL     1      21.424  26.134  17.363  1.00  0.00     0.053 C 
HETATM   14  C18 UNL     1      22.036  25.476  16.156  1.00  0.00     0.019 C 
HETATM   15  C19 UNL     1      23.024  26.556  15.695  1.00  0.00     0.041 C 
HETATM   16  C22 UNL     1      22.572  27.851  16.332  1.00  0.00     0.153 C 
HETATM   17  C23 UNL     1      21.143  27.516  16.846  1.00  0.00     0.153 C 
BRANCH  15  18
HETATM   18  C20 UNL     1      24.387  26.152  16.199  1.00  0.00     0.174 C 
BRANCH  18  19
HETATM   19  O2  UNL     1      25.399  26.945  15.673  1.00  0.00    -0.395 OA
HETATM   20  C21 UNL     1      26.640  26.375  15.621  1.00  0.00     0.201 C 
ENDBRANCH  18  19
ENDBRANCH  15  18
BRANCH  16  21
HETATM   21  O3  UNL     1      22.437  28.900  15.446  1.00  0.00    -0.393 OA
ATOM     22  H3  UNL     1      21.555  29.016  15.112  1.00  0.00     0.210 HD
ENDBRANCH  16  21
BRANCH  17  23
HETATM   23  O4  UNL     1      20.275  27.546  15.769  1.00  0.00    -0.393 OA
ATOM     24  H4  UNL     1      19.478  28.037  15.929  1.00  0.00     0.210 HD
ENDBRANCH  17  23
ENDBRANCH   9  13
BRANCH  10  25
HETATM   25  O5  UNL     1      21.922  25.288  19.627  1.00  0.00    -0.314 OA
BRANCH  25  26
HETATM   26  C25 UNL     1      22.763  24.672  20.554  1.00  0.00     0.255 C 
HETATM   27  C26 UNL     1      24.037  24.054  20.169  1.00  0.00     0.126 C 
HETATM   28  O6  UNL     1      22.318  24.685  21.773  1.00  0.00    -0.266 OA
ENDBRANCH  25  26
ENDBRANCH  10  25
BRANCH   1  29
HETATM   29  C8  UNL     1      17.519  23.029  18.876  1.00  0.00     0.014 C 
BRANCH  29  30
HETATM   30  C7  UNL     1      17.213  21.795  19.687  1.00  0.00     0.001 C 
BRANCH  30  31
HETATM   31  C6  UNL     1      15.741  21.605  19.948  1.00  0.00     0.010 C 
BRANCH  31  32
HETATM   32  C5  UNL     1      14.872  21.926  18.763  1.00  0.00     0.119 C 
BRANCH  32  33
HETATM   33  C4  UNL     1      14.146  20.711  18.281  1.00  0.00     0.290 C 
HETATM   34  N1  UNL     1      13.726  20.713  16.915  1.00  0.00    -0.388 NA
HETATM   35  O1  UNL     1      13.969  19.786  19.118  1.00  0.00    -0.257 OA
BRANCH  34  36
HETATM   36  C3  UNL     1      13.336  20.692  15.677  1.00  0.00     0.158 C 
BRANCH  36  37
HETATM   37  C2  UNL     1      13.220  21.974  14.846  1.00  0.00     0.055 C 
HETATM   38  C1  UNL     1      13.779  21.717  13.484  1.00  0.00     0.011 C 
ENDBRANCH  36  37
ENDBRANCH  34  36
ENDBRANCH  32  33
ENDBRANCH  31  32
ENDBRANCH  30  31
ENDBRANCH  29  30
ENDBRANCH   1  29
TORSDOF 14
ENDMDL
MODEL 5
REMARK VINA RESULT: -8.045241142      1.141      1.715
REMARK  14 active torsions:
REMARK  status: ('A' for Active; 'I' for Inactive)
REMARK    1  A    between atoms: C2_2  and  C3_3 
REMARK    2  A    between atoms: C3_3  and  N1_4 
REMARK       I    between atoms: N1_4  and  C4_5 
REMARK    3  A    between atoms: C4_5  and  C5_7 
REMARK    4  A    between atoms: C5_7  and  C6_8 
REMARK    5  A    between atoms: C6_8  and  C7_9 
REMARK    6  A    between atoms: C7_9  and  C8_10 
REMARK    7  A    between atoms: C8_10  and  C9_11 
REMARK    8  A    between atoms: C16_19  and  C17_20 
REMARK    9  A    between atoms: C19_22  and  C20_23 
REMARK   10  A    between atoms: C20_23  and  O2_24 
REMARK   11  A    between atoms: C22_26  and  O3_27 
REMARK   12  A    between atoms: C23_29  and  O4_30 
REMARK   13  A    between atoms: C24_32  and  O5_33 
REMARK   14  A    between atoms: O5_33  and  C25_34 
ROOT
HETATM    1  C9  UNL     1      17.557  23.558  17.731  1.00  0.00     0.022 C 
HETATM    2  C10 UNL     1      17.862  25.027  17.844  1.00  0.00     0.014 C 
HETATM    3  C11 UNL     1      19.083  25.513  17.109  1.00  0.00     0.006 C 
HETATM    4  C12 UNL     1      19.356  24.649  15.974  1.00  0.00    -0.008 A 
HETATM    5  C13 UNL     1      18.962  24.682  14.601  1.00  0.00     0.012 A 
HETATM    6  C14 UNL     1      17.915  24.298  15.473  1.00  0.00     0.024 A 
HETATM    7  C15 UNL     1      17.630  23.074  16.273  1.00  0.00     0.239 C 
HETATM    8  N2  UNL     1      16.277  22.710  16.219  1.00  0.00     0.107 N 
HETATM    9  C16 UNL     1      15.826  21.379  16.255  1.00  0.00     0.260 C 
HETATM   10  C24 UNL     1      15.343  21.010  17.631  1.00  0.00     0.167 C 
HETATM   11  C27 UNL     1      15.317  22.367  18.301  1.00  0.00     0.071 C 
HETATM   12  C28 UNL     1      16.113  23.319  17.533  1.00  0.00     0.237 C 
ENDROOT
BRANCH   9  13
HETATM   13  C17 UNL     1      14.701  21.130  15.281  1.00  0.00     0.053 C 
HETATM   14  C18 UNL     1      13.764  22.296  15.114  1.00  0.00     0.019 C 
HETATM   15  C19 UNL     1      12.909  21.826  13.930  1.00  0.00     0.041 C 
HETATM   16  C22 UNL     1      13.691  20.728  13.244  1.00  0.00     0.153 C 
HETATM   17  C23 UNL     1      15.113  20.865  13.861  1.00  0.00     0.153 C 
BRANCH  15  18
HETATM   18  C20 UNL     1      11.619  21.293  14.502  1.00  0.00     0.174 C 
BRANCH  18  19
HETATM   19  O2  UNL     1      11.415  19.956  14.186  1.00  0.00    -0.395 OA
HETATM   20  C21 UNL     1      11.666  19.060  15.187  1.00  0.00     0.201 C 
ENDBRANCH  18  19
ENDBRANCH  15  18
BRANCH  16  21
HETATM   21  O3  UNL     1      13.834  20.902  11.883  1.00  0.00    -0.393 OA
ATOM     22  H3  UNL     1      14.594  20.468  11.513  1.00  0.00     0.210 HD
ENDBRANCH  16  21
BRANCH  17  23
HETATM   23  O4  UNL     1      15.750  21.932  13.253  1.00  0.00    -0.393 OA
ATOM     24  H4  UNL     1      15.453  22.782  13.556  1.00  0.00     0.210 HD
ENDBRANCH  17  23
ENDBRANCH   9  13
BRANCH  10  25
HETATM   25  O5  UNL     1      14.055  20.452  17.564  1.00  0.00    -0.314 OA
BRANCH  25  26
HETATM   26  C25 UNL     1      13.437  19.723  18.581  1.00  0.00     0.255 C 
HETATM   27  C26 UNL     1      14.199  19.048  19.638  1.00  0.00     0.126 C 
HETATM   28  O6  UNL     1      12.142  19.688  18.504  1.00  0.00    -0.266 OA
ENDBRANCH  25  26
ENDBRANCH  10  25
BRANCH   1  29
HETATM   29  C8  UNL     1      18.405  22.703  18.595  1.00  0.00     0.014 C 
BRANCH  29  30
HETATM   30  C7  UNL     1      18.184  22.848  20.080  1.00  0.00     0.001 C 
BRANCH  30  31
HETATM   31  C6  UNL     1      19.235  23.687  20.759  1.00  0.00     0.010 C 
BRANCH  31  32
HETATM   32  C5  UNL     1      20.564  23.675  20.054  1.00  0.00     0.119 C 
BRANCH  32  33
HETATM   33  C4  UNL     1      21.521  24.632  20.691  1.00  0.00     0.290 C 
HETATM   34  N1  UNL     1      22.881  24.565  20.257  1.00  0.00    -0.388 NA
HETATM   35  O1  UNL     1      21.047  25.420  21.553  1.00  0.00    -0.257 OA
BRANCH  34  36
HETATM   36  C3  UNL     1      24.122  24.523  19.878  1.00  0.00     0.158 C 
BRANCH  36  37
HETATM   37  C2  UNL     1      25.224  23.972  20.788  1.00  0.00     0.055 C 
HETATM   38  C1  UNL     1      24.986  24.456  22.182  1.00  0.00     0.011 C 
ENDBRANCH  36  37
ENDBRANCH  34  36
ENDBRANCH  32  33
ENDBRANCH  31  32
ENDBRANCH  30  31
ENDBRANCH  29  30
ENDBRANCH   1  29
TORSDOF 14
ENDMDL
