MODEL 1
REMARK VINA RESULT: -8.258294370      0.000      0.000
REMARK  16 active torsions:
REMARK  status: ('A' for Active; 'I' for Inactive)
REMARK    1  A    between atoms: C2_2  and  C3_3 
REMARK    2  A    between atoms: C3_3  and  N1_4 
REMARK    3  A    between atoms: N1_4  and  C4_6 
REMARK    4  A    between atoms: C4_6  and  N2_8 
REMARK    5  A    between atoms: N2_8  and  C6_10 
REMARK    6  A    between atoms: C6_10  and  C7_11 
REMARK    7  A    between atoms: C7_11  and  C8_12 
REMARK    8  A    between atoms: C8_12  and  C9_13 
REMARK    9  A    between atoms: C9_13  and  N3_14 
REMARK   10  A    between atoms: N3_14  and  C10_16 
REMARK   11  A    between atoms: N4_25  and  C19_26 
REMARK   12  A    between atoms: C19_26  and  C20_27 
REMARK   13  A    between atoms: C20_27  and  C21_28 
REMARK   14  A    between atoms: C21_28  and  O1_29 
REMARK   15  A    between atoms: O1_29  and  C22_30 
REMARK   16  A    between atoms: C24_35  and  N6_36 
ROOT
HETATM    1  C10 UNL     1      16.868  21.095  18.427  1.00  0.00     0.046 C 
HETATM    2  C11 UNL     1      15.968  20.643  19.369  1.00  0.00     0.063 C 
HETATM    3  C12 UNL     1      14.764  20.031  19.148  1.00  0.00     0.080 A 
HETATM    4  C13 UNL     1      13.959  19.940  18.031  1.00  0.00     0.079 A 
HETATM    5  C14 UNL     1      14.268  20.518  16.810  1.00  0.00     0.063 C 
HETATM    6  C15 UNL     1      15.347  21.279  16.409  1.00  0.00     0.049 A 
HETATM    7  C16 UNL     1      16.505  21.521  17.144  1.00  0.00     0.019 A 
HETATM    8  C17 UNL     1      17.274  22.324  16.322  1.00  0.00     0.033 A 
HETATM    9  C18 UNL     1      16.610  22.564  15.132  1.00  0.00     0.092 A 
HETATM   10  N4  UNL     1      15.434  21.908  15.222  1.00  0.00    -0.356 N 
HETATM   11  N5  UNL     1      12.850  19.220  18.310  1.00  0.00    -0.190 N 
ATOM     12  H5  UNL     1      12.086  18.996  17.673  1.00  0.00     0.184 HD
HETATM   13  C24 UNL     1      12.964  18.857  19.616  1.00  0.00     0.678 A 
HETATM   14  N7  UNL     1      14.120  19.356  20.094  1.00  0.00    -0.186 N 
HETATM   15  C25 UNL     1      14.533  19.145  21.457  1.00  0.00     0.175 C 
ENDROOT
BRANCH   1  16
HETATM   16  N3  UNL     1      18.097  21.163  18.674  1.00  0.00    -0.369 N 
ATOM     17  H3  UNL     1      18.693  20.891  17.893  1.00  0.00     0.165 HD
BRANCH  16  18
HETATM   18  C9  UNL     1      18.807  21.545  19.828  1.00  0.00     0.061 C 
BRANCH  18  19
HETATM   19  C8  UNL     1      18.388  22.897  20.391  1.00  0.00     0.046 C 
BRANCH  19  20
HETATM   20  C7  UNL     1      19.347  23.983  20.154  1.00  0.00     0.025 C 
BRANCH  20  21
HETATM   21  C6  UNL     1      20.162  24.066  18.947  1.00  0.00     0.125 C 
BRANCH  21  22
HETATM   22  N2  UNL     1      19.788  24.905  17.853  1.00  0.00    -0.363 N 
HETATM   23  C5  UNL     1      18.408  25.232  17.598  1.00  0.00     0.152 C 
BRANCH  22  24
HETATM   24  C4  UNL     1      20.842  25.400  17.009  1.00  0.00     0.169 C 
HETATM   25  S1  UNL     1      21.347  26.960  17.353  1.00  0.00    -0.041 SA
BRANCH  24  26
HETATM   26  N1  UNL     1      21.495  24.779  15.959  1.00  0.00    -0.364 N 
ATOM     27  H1  UNL     1      22.405  24.390  16.205  1.00  0.00     0.162 HD
BRANCH  26  28
HETATM   28  C3  UNL     1      21.122  24.586  14.594  1.00  0.00     0.148 C 
BRANCH  28  29
HETATM   29  C2  UNL     1      19.696  24.784  14.286  1.00  0.00    -0.018 C 
HETATM   30  C1  UNL     1      19.168  25.857  13.763  1.00  0.00     0.008 C 
ENDBRANCH  28  29
ENDBRANCH  26  28
ENDBRANCH  24  26
ENDBRANCH  22  24
ENDBRANCH  21  22
ENDBRANCH  20  21
ENDBRANCH  19  20
ENDBRANCH  18  19
ENDBRANCH  16  18
ENDBRANCH   1  16
BRANCH  10  31
HETATM   31  C19 UNL     1      14.413  21.893  14.179  1.00  0.00     0.130 C 
BRANCH  31  32
HETATM   32  C20 UNL     1      14.859  21.037  13.008  1.00  0.00     0.047 C 
BRANCH  32  33
HETATM   33  C21 UNL     1      14.049  19.758  13.002  1.00  0.00     0.180 C 
BRANCH  33  34
HETATM   34  O1  UNL     1      12.839  19.913  13.717  1.00  0.00    -0.322 OA
BRANCH  34  35
HETATM   35  C22 UNL     1      12.113  18.871  14.236  1.00  0.00     0.254 C 
HETATM   36  C23 UNL     1      12.060  17.585  13.481  1.00  0.00     0.126 C 
HETATM   37  O2  UNL     1      11.527  19.052  15.327  1.00  0.00    -0.266 OA
ENDBRANCH  34  35
ENDBRANCH  33  34
ENDBRANCH  32  33
ENDBRANCH  31  32
ENDBRANCH  10  31
BRANCH  13  38
HETATM   38  N6  UNL     1      12.064  18.151  20.212  1.00  0.00    -0.234 N 
ATOM     39  H62 UNL     1      11.712  17.221  19.987  1.00  0.00     0.174 HD
ATOM     40  H61 UNL     1      11.574  18.486  21.041  1.00  0.00     0.174 HD
ENDBRANCH  13  38
TORSDOF 16
ENDMDL
MODEL 2
REMARK VINA RESULT: -8.236525440      0.831      1.269
REMARK  16 active torsions:
REMARK  status: ('A' for Active; 'I' for Inactive)
REMARK    1  A    between atoms: C2_2  and  C3_3 
REMARK    2  A    between atoms: C3_3  and  N1_4 
REMARK    3  A    between atoms: N1_4  and  C4_6 
REMARK    4  A    between atoms: C4_6  and  N2_8 
REMARK    5  A    between atoms: N2_8  and  C6_10 
REMARK    6  A    between atoms: C6_10  and  C7_11 
REMARK    7  A    between atoms: C7_11  and  C8_12 
REMARK    8  A    between atoms: C8_12  and  C9_13 
REMARK    9  A    between atoms: C9_13  and  N3_14 
REMARK   10  A    between atoms: N3_14  and  C10_16 
REMARK   11  A    between atoms: N4_25  and  C19_26 
REMARK   12  A    between atoms: C19_26  and  C20_27 
REMARK   13  A    between atoms: C20_27  and  C21_28 
REMARK   14  A    between atoms: C21_28  and  O1_29 
REMARK   15  A    between atoms: O1_29  and  C22_30 
REMARK   16  A    between atoms: C24_35  and  N6_36 
ROOT
HETATM    1  C10 UNL     1      16.812  21.052  18.405  1.00  0.00     0.046 C 
HETATM    2  C11 UNL     1      15.917  20.598  19.351  1.00  0.00     0.063 C 
HETATM    3  C12 UNL     1      14.709  19.993  19.135  1.00  0.00     0.080 A 
HETATM    4  C13 UNL     1      13.895  19.912  18.023  1.00  0.00     0.079 A 
HETATM    5  C14 UNL     1      14.198  20.498  16.804  1.00  0.00     0.063 C 
HETATM    6  C15 UNL     1      15.276  21.257  16.401  1.00  0.00     0.049 A 
HETATM    7  C16 UNL     1      16.441  21.489  17.129  1.00  0.00     0.019 A 
HETATM    8  C17 UNL     1      17.208  22.295  16.306  1.00  0.00     0.033 A 
HETATM    9  C18 UNL     1      16.535  22.546  15.123  1.00  0.00     0.092 A 
HETATM   10  N4  UNL     1      15.357  21.894  15.217  1.00  0.00    -0.356 N 
HETATM   11  N5  UNL     1      12.785  19.195  18.305  1.00  0.00    -0.190 N 
ATOM     12  H5  UNL     1      12.015  18.979  17.672  1.00  0.00     0.184 HD
HETATM   13  C24 UNL     1      12.908  18.822  19.608  1.00  0.00     0.678 A 
HETATM   14  N7  UNL     1      14.069  19.313  20.081  1.00  0.00    -0.186 N 
HETATM   15  C25 UNL     1      14.491  19.090  21.439  1.00  0.00     0.175 C 
ENDROOT
BRANCH   1  16
HETATM   16  N3  UNL     1      18.043  21.114  18.644  1.00  0.00    -0.369 N 
ATOM     17  H3  UNL     1      18.631  20.770  17.884  1.00  0.00     0.165 HD
BRANCH  16  18
HETATM   18  C9  UNL     1      18.765  21.568  19.764  1.00  0.00     0.061 C 
BRANCH  18  19
HETATM   19  C8  UNL     1      18.495  23.022  20.123  1.00  0.00     0.046 C 
BRANCH  19  20
HETATM   20  C7  UNL     1      19.441  23.601  21.086  1.00  0.00     0.025 C 
BRANCH  20  21
HETATM   21  C6  UNL     1      20.255  24.774  20.785  1.00  0.00     0.125 C 
BRANCH  21  22
HETATM   22  N2  UNL     1      21.313  24.717  19.827  1.00  0.00    -0.363 N 
HETATM   23  C5  UNL     1      22.627  24.251  20.189  1.00  0.00     0.152 C 
BRANCH  22  24
HETATM   24  C4  UNL     1      21.018  25.156  18.489  1.00  0.00     0.169 C 
HETATM   25  S1  UNL     1      21.275  26.788  18.211  1.00  0.00    -0.041 SA
BRANCH  24  26
HETATM   26  N1  UNL     1      20.553  24.432  17.407  1.00  0.00    -0.364 N 
ATOM     27  H1  UNL     1      20.871  23.462  17.385  1.00  0.00     0.162 HD
BRANCH  26  28
HETATM   28  C3  UNL     1      19.709  24.797  16.314  1.00  0.00     0.148 C 
BRANCH  28  29
HETATM   29  C2  UNL     1      20.085  24.241  15.003  1.00  0.00    -0.018 C 
HETATM   30  C1  UNL     1      21.273  24.284  14.466  1.00  0.00     0.008 C 
ENDBRANCH  28  29
ENDBRANCH  26  28
ENDBRANCH  24  26
ENDBRANCH  22  24
ENDBRANCH  21  22
ENDBRANCH  20  21
ENDBRANCH  19  20
ENDBRANCH  18  19
ENDBRANCH  16  18
ENDBRANCH   1  16
BRANCH  10  31
HETATM   31  C19 UNL     1      14.329  21.891  14.182  1.00  0.00     0.130 C 
BRANCH  31  32
HETATM   32  C20 UNL     1      14.774  21.063  12.990  1.00  0.00     0.047 C 
BRANCH  32  33
HETATM   33  C21 UNL     1      14.026  19.748  13.003  1.00  0.00     0.180 C 
BRANCH  33  34
HETATM   34  O1  UNL     1      12.796  19.863  13.693  1.00  0.00    -0.322 OA
BRANCH  34  35
HETATM   35  C22 UNL     1      12.102  18.798  14.209  1.00  0.00     0.254 C 
HETATM   36  C23 UNL     1      12.071  17.518  13.442  1.00  0.00     0.126 C 
HETATM   37  O2  UNL     1      11.524  18.954  15.308  1.00  0.00    -0.266 OA
ENDBRANCH  34  35
ENDBRANCH  33  34
ENDBRANCH  32  33
ENDBRANCH  31  32
ENDBRANCH  10  31
BRANCH  13  38
HETATM   38  N6  UNL     1      12.009  18.116  20.206  1.00  0.00    -0.234 N 
ATOM     39  H62 UNL     1      11.967  17.109  20.356  1.00  0.00     0.174 HD
ATOM     40  H61 UNL     1      11.179  18.537  20.624  1.00  0.00     0.174 HD
ENDBRANCH  13  38
TORSDOF 16
ENDMDL
MODEL 3
REMARK VINA RESULT: -7.990459120      1.185      1.272
REMARK  16 active torsions:
REMARK  status: ('A' for Active; 'I' for Inactive)
REMARK    1  A    between atoms: C2_2  and  C3_3 
REMARK    2  A    between atoms: C3_3  and  N1_4 
REMARK    3  A    between atoms: N1_4  and  C4_6 
REMARK    4  A    between atoms: C4_6  and  N2_8 
REMARK    5  A    between atoms: N2_8  and  C6_10 
REMARK    6  A    between atoms: C6_10  and  C7_11 
REMARK    7  A    between atoms: C7_11  and  C8_12 
REMARK    8  A    between atoms: C8_12  and  C9_13 
REMARK    9  A    between atoms: C9_13  and  N3_14 
REMARK   10  A    between atoms: N3_14  and  C10_16 
REMARK   11  A    between atoms: N4_25  and  C19_26 
REMARK   12  A    between atoms: C19_26  and  C20_27 
REMARK   13  A    between atoms: C20_27  and  C21_28 
REMARK   14  A    between atoms: C21_28  and  O1_29 
REMARK   15  A    between atoms: O1_29  and  C22_30 
REMARK   16  A    between atoms: C24_35  and  N6_36 
ROOT
HETATM    1  C10 UNL     1      16.840  21.012  18.365  1.00  0.00     0.046 C 
HETATM    2  C11 UNL     1      15.949  20.566  19.318  1.00  0.00     0.063 C 
HETATM    3  C12 UNL     1      14.728  19.982  19.113  1.00  0.00     0.080 A 
HETATM    4  C13 UNL     1      13.899  19.922  18.011  1.00  0.00     0.079 A 
HETATM    5  C14 UNL     1      14.197  20.510  16.792  1.00  0.00     0.063 C 
HETATM    6  C15 UNL     1      15.283  21.254  16.380  1.00  0.00     0.049 A 
HETATM    7  C16 UNL     1      16.460  21.463  17.096  1.00  0.00     0.019 A 
HETATM    8  C17 UNL     1      17.230  22.261  16.269  1.00  0.00     0.033 A 
HETATM    9  C18 UNL     1      16.547  22.531  15.095  1.00  0.00     0.092 A 
HETATM   10  N4  UNL     1      15.360  21.898  15.200  1.00  0.00    -0.356 N 
HETATM   11  N5  UNL     1      12.782  19.221  18.302  1.00  0.00    -0.190 N 
ATOM     12  H5  UNL     1      12.001  19.021  17.678  1.00  0.00     0.184 HD
HETATM   13  C24 UNL     1      12.914  18.837  19.601  1.00  0.00     0.678 A 
HETATM   14  N7  UNL     1      14.089  19.306  20.063  1.00  0.00    -0.186 N 
HETATM   15  C25 UNL     1      14.524  19.068  21.414  1.00  0.00     0.175 C 
ENDROOT
BRANCH   1  16
HETATM   16  N3  UNL     1      18.074  21.052  18.589  1.00  0.00    -0.369 N 
ATOM     17  H3  UNL     1      18.637  20.553  17.899  1.00  0.00     0.165 HD
BRANCH  16  18
HETATM   18  C9  UNL     1      18.828  21.656  19.613  1.00  0.00     0.061 C 
BRANCH  18  19
HETATM   19  C8  UNL     1      18.518  23.132  19.818  1.00  0.00     0.046 C 
BRANCH  19  20
HETATM   20  C7  UNL     1      19.581  24.047  19.383  1.00  0.00     0.025 C 
BRANCH  20  21
HETATM   21  C6  UNL     1      20.235  23.936  18.084  1.00  0.00     0.125 C 
BRANCH  21  22
HETATM   22  N2  UNL     1      19.915  24.825  17.012  1.00  0.00    -0.363 N 
HETATM   23  C5  UNL     1      18.657  25.526  16.971  1.00  0.00     0.152 C 
BRANCH  22  24
HETATM   24  C4  UNL     1      20.894  24.982  15.970  1.00  0.00     0.169 C 
HETATM   25  S1  UNL     1      20.368  24.549  14.440  1.00  0.00    -0.041 SA
BRANCH  24  26
HETATM   26  N1  UNL     1      22.197  25.436  16.047  1.00  0.00    -0.364 N 
ATOM     27  H1  UNL     1      22.866  24.735  16.370  1.00  0.00     0.162 HD
BRANCH  26  28
HETATM   28  C3  UNL     1      22.777  26.709  15.757  1.00  0.00     0.148 C 
BRANCH  28  29
HETATM   29  C2  UNL     1      21.824  27.788  15.445  1.00  0.00    -0.018 C 
HETATM   30  C1  UNL     1      21.620  28.312  14.267  1.00  0.00     0.008 C 
ENDBRANCH  28  29
ENDBRANCH  26  28
ENDBRANCH  24  26
ENDBRANCH  22  24
ENDBRANCH  21  22
ENDBRANCH  20  21
ENDBRANCH  19  20
ENDBRANCH  18  19
ENDBRANCH  16  18
ENDBRANCH   1  16
BRANCH  10  31
HETATM   31  C19 UNL     1      14.319  21.917  14.177  1.00  0.00     0.130 C 
BRANCH  31  32
HETATM   32  C20 UNL     1      14.718  21.056  12.993  1.00  0.00     0.047 C 
BRANCH  32  33
HETATM   33  C21 UNL     1      14.045  19.707  13.122  1.00  0.00     0.180 C 
BRANCH  33  34
HETATM   34  O1  UNL     1      12.718  19.838  13.597  1.00  0.00    -0.322 OA
BRANCH  34  35
HETATM   35  C22 UNL     1      12.027  18.837  14.233  1.00  0.00     0.254 C 
HETATM   36  C23 UNL     1      11.958  17.491  13.593  1.00  0.00     0.126 C 
HETATM   37  O2  UNL     1      11.485  19.107  15.329  1.00  0.00    -0.266 OA
ENDBRANCH  34  35
ENDBRANCH  33  34
ENDBRANCH  32  33
ENDBRANCH  31  32
ENDBRANCH  10  31
BRANCH  13  38
HETATM   38  N6  UNL     1      12.011  18.142  20.205  1.00  0.00    -0.234 N 
ATOM     39  H62 UNL     1      11.249  17.587  19.816  1.00  0.00     0.174 HD
ATOM     40  H61 UNL     1      11.970  18.074  21.222  1.00  0.00     0.174 HD
ENDBRANCH  13  38
TORSDOF 16
ENDMDL
MODEL 4
REMARK VINA RESULT: -7.947718161      3.958      8.830
REMARK  16 active torsions:
REMARK  status: ('A' for Active; 'I' for Inactive)
REMARK    1  A    between atoms: C2_2  and  C3_3 
REMARK    2  A    between atoms: C3_3  and  N1_4 
REMARK    3  A    between atoms: N1_4  and  C4_6 
REMARK    4  A    between atoms: C4_6  and  N2_8 
REMARK    5  A    between atoms: N2_8  and  C6_10 
REMARK    6  A    between atoms: C6_10  and  C7_11 
REMARK    7  A    between atoms: C7_11  and  C8_12 
REMARK    8  A    between atoms: C8_12  and  C9_13 
REMARK    9  A    between atoms: C9_13  and  N3_14 
REMARK   10  A    between atoms: N3_14  and  C10_16 
REMARK   11  A    between atoms: N4_25  and  C19_26 
REMARK   12  A    between atoms: C19_26  and  C20_27 
REMARK   13  A    between atoms: C20_27  and  C21_28 
REMARK   14  A    between atoms: C21_28  and  O1_29 
REMARK   15  A    between atoms: O1_29  and  C22_30 
REMARK   16  A    between atoms: C24_35  and  N6_36 
ROOT
HETATM    1  C10 UNL     1      18.074  23.604  15.656  1.00  0.00     0.046 C 
HETATM    2  C11 UNL     1      18.513  23.032  16.832  1.00  0.00     0.063 C 
HETATM    3  C12 UNL     1      19.069  23.663  17.912  1.00  0.00     0.080 A 
HETATM    4  C13 UNL     1      19.621  24.917  18.073  1.00  0.00     0.079 A 
HETATM    5  C14 UNL     1      19.717  25.851  17.054  1.00  0.00     0.063 C 
HETATM    6  C15 UNL     1      19.341  25.796  15.728  1.00  0.00     0.049 A 
HETATM    7  C16 UNL     1      18.600  24.785  15.121  1.00  0.00     0.019 A 
HETATM    8  C17 UNL     1      18.485  25.185  13.802  1.00  0.00     0.033 A 
HETATM    9  C18 UNL     1      19.132  26.393  13.612  1.00  0.00     0.092 A 
HETATM   10  N4  UNL     1      19.644  26.736  14.812  1.00  0.00    -0.356 N 
HETATM   11  N5  UNL     1      20.044  25.084  19.345  1.00  0.00    -0.190 N 
ATOM     12  H5  UNL     1      20.490  25.911  19.742  1.00  0.00     0.184 HD
HETATM   13  C24 UNL     1      19.752  23.920  19.987  1.00  0.00     0.678 A 
HETATM   14  N7  UNL     1      19.168  23.086  19.105  1.00  0.00    -0.186 N 
HETATM   15  C25 UNL     1      18.739  21.764  19.479  1.00  0.00     0.175 C 
ENDROOT
BRANCH   1  16
HETATM   16  N3  UNL     1      17.161  23.079  14.973  1.00  0.00    -0.369 N 
ATOM     17  H3  UNL     1      17.151  23.375  13.997  1.00  0.00     0.165 HD
BRANCH  16  18
HETATM   18  C9  UNL     1      16.147  22.160  15.302  1.00  0.00     0.061 C 
BRANCH  18  19
HETATM   19  C8  UNL     1      14.754  22.771  15.356  1.00  0.00     0.046 C 
BRANCH  19  20
HETATM   20  C7  UNL     1      13.666  21.802  15.537  1.00  0.00     0.025 C 
BRANCH  20  21
HETATM   21  C6  UNL     1      13.887  20.455  16.053  1.00  0.00     0.125 C 
BRANCH  21  22
HETATM   22  N2  UNL     1      13.400  20.063  17.337  1.00  0.00    -0.363 N 
HETATM   23  C5  UNL     1      12.008  19.759  17.550  1.00  0.00     0.152 C 
BRANCH  22  24
HETATM   24  C4  UNL     1      14.354  19.994  18.412  1.00  0.00     0.169 C 
HETATM   25  S1  UNL     1      14.912  21.478  18.954  1.00  0.00    -0.041 SA
BRANCH  24  26
HETATM   26  N1  UNL     1      14.874  18.888  19.059  1.00  0.00    -0.364 N 
ATOM     27  H1  UNL     1      15.488  18.315  18.479  1.00  0.00     0.162 HD
BRANCH  26  28
HETATM   28  C3  UNL     1      14.706  18.404  20.392  1.00  0.00     0.148 C 
BRANCH  28  29
HETATM   29  C2  UNL     1      13.344  18.509  20.944  1.00  0.00    -0.018 C 
HETATM   30  C1  UNL     1      12.353  17.696  20.697  1.00  0.00     0.008 C 
ENDBRANCH  28  29
ENDBRANCH  26  28
ENDBRANCH  24  26
ENDBRANCH  22  24
ENDBRANCH  21  22
ENDBRANCH  20  21
ENDBRANCH  19  20
ENDBRANCH  18  19
ENDBRANCH  16  18
ENDBRANCH   1  16
BRANCH  10  31
HETATM   31  C19 UNL     1      20.413  27.950  15.067  1.00  0.00     0.130 C 
BRANCH  31  32
HETATM   32  C20 UNL     1      21.756  27.889  14.363  1.00  0.00     0.047 C 
BRANCH  32  33
HETATM   33  C21 UNL     1      22.839  28.290  15.342  1.00  0.00     0.180 C 
BRANCH  33  34
HETATM   34  O1  UNL     1      22.586  27.765  16.631  1.00  0.00    -0.322 OA
BRANCH  34  35
HETATM   35  C22 UNL     1      23.292  26.731  17.191  1.00  0.00     0.254 C 
HETATM   36  C23 UNL     1      24.472  26.185  16.459  1.00  0.00     0.126 C 
HETATM   37  O2  UNL     1      22.907  26.293  18.299  1.00  0.00    -0.266 OA
ENDBRANCH  34  35
ENDBRANCH  33  34
ENDBRANCH  32  33
ENDBRANCH  31  32
ENDBRANCH  10  31
BRANCH  13  38
HETATM   38  N6  UNL     1      20.027  23.738  21.233  1.00  0.00    -0.234 N 
ATOM     39  H62 UNL     1      20.795  24.110  21.792  1.00  0.00     0.174 HD
ATOM     40  H61 UNL     1      19.450  23.151  21.835  1.00  0.00     0.174 HD
ENDBRANCH  13  38
TORSDOF 16
ENDMDL
MODEL 5
REMARK VINA RESULT: -7.910763571      4.153      8.784
REMARK  16 active torsions:
REMARK  status: ('A' for Active; 'I' for Inactive)
REMARK    1  A    between atoms: C2_2  and  C3_3 
REMARK    2  A    between atoms: C3_3  and  N1_4 
REMARK    3  A    between atoms: N1_4  and  C4_6 
REMARK    4  A    between atoms: C4_6  and  N2_8 
REMARK    5  A    between atoms: N2_8  and  C6_10 
REMARK    6  A    between atoms: C6_10  and  C7_11 
REMARK    7  A    between atoms: C7_11  and  C8_12 
REMARK    8  A    between atoms: C8_12  and  C9_13 
REMARK    9  A    between atoms: C9_13  and  N3_14 
REMARK   10  A    between atoms: N3_14  and  C10_16 
REMARK   11  A    between atoms: N4_25  and  C19_26 
REMARK   12  A    between atoms: C19_26  and  C20_27 
REMARK   13  A    between atoms: C20_27  and  C21_28 
REMARK   14  A    between atoms: C21_28  and  O1_29 
REMARK   15  A    between atoms: O1_29  and  C22_30 
REMARK   16  A    between atoms: C24_35  and  N6_36 
ROOT
HETATM    1  C10 UNL     1      17.895  23.591  15.536  1.00  0.00     0.046 C 
HETATM    2  C11 UNL     1      18.265  22.976  16.713  1.00  0.00     0.063 C 
HETATM    3  C12 UNL     1      18.789  23.561  17.834  1.00  0.00     0.080 A 
HETATM    4  C13 UNL     1      19.369  24.794  18.054  1.00  0.00     0.079 A 
HETATM    5  C14 UNL     1      19.538  25.751  17.066  1.00  0.00     0.063 C 
HETATM    6  C15 UNL     1      19.220  25.742  15.724  1.00  0.00     0.049 A 
HETATM    7  C16 UNL     1      18.479  24.770  15.058  1.00  0.00     0.019 A 
HETATM    8  C17 UNL     1      18.434  25.208  13.747  1.00  0.00     0.033 A 
HETATM    9  C18 UNL     1      19.123  26.401  13.618  1.00  0.00     0.092 A 
HETATM   10  N4  UNL     1      19.591  26.697  14.849  1.00  0.00    -0.356 N 
HETATM   11  N5  UNL     1      19.739  24.913  19.348  1.00  0.00    -0.190 N 
ATOM     12  H5  UNL     1      20.191  25.716  19.786  1.00  0.00     0.184 HD
HETATM   13  C24 UNL     1      19.386  23.742  19.943  1.00  0.00     0.678 A 
HETATM   14  N7  UNL     1      18.818  22.950  19.014  1.00  0.00    -0.186 N 
HETATM   15  C25 UNL     1      18.335  21.632  19.332  1.00  0.00     0.175 C 
ENDROOT
BRANCH   1  16
HETATM   16  N3  UNL     1      16.999  23.113  14.799  1.00  0.00    -0.369 N 
ATOM     17  H3  UNL     1      16.932  23.559  13.884  1.00  0.00     0.165 HD
BRANCH  16  18
HETATM   18  C9  UNL     1      16.068  22.076  14.999  1.00  0.00     0.061 C 
BRANCH  18  19
HETATM   19  C8  UNL     1      15.375  21.616  13.723  1.00  0.00     0.046 C 
BRANCH  19  20
HETATM   20  C7  UNL     1      13.913  21.751  13.737  1.00  0.00     0.025 C 
BRANCH  20  21
HETATM   21  C6  UNL     1      13.119  21.603  14.952  1.00  0.00     0.125 C 
BRANCH  21  22
HETATM   22  N2  UNL     1      12.708  20.317  15.419  1.00  0.00    -0.363 N 
HETATM   23  C5  UNL     1      12.357  19.263  14.501  1.00  0.00     0.152 C 
BRANCH  22  24
HETATM   24  C4  UNL     1      12.647  20.120  16.842  1.00  0.00     0.169 C 
HETATM   25  S1  UNL     1      11.320  19.248  17.376  1.00  0.00    -0.041 SA
BRANCH  24  26
HETATM   26  N1  UNL     1      13.518  20.544  17.828  1.00  0.00    -0.364 N 
ATOM     27  H1  UNL     1      13.140  21.270  18.437  1.00  0.00     0.162 HD
BRANCH  26  28
HETATM   28  C3  UNL     1      14.853  20.148  18.148  1.00  0.00     0.148 C 
BRANCH  28  29
HETATM   29  C2  UNL     1      14.992  19.236  19.295  1.00  0.00    -0.018 C 
HETATM   30  C1  UNL     1      15.017  19.586  20.553  1.00  0.00     0.008 C 
ENDBRANCH  28  29
ENDBRANCH  26  28
ENDBRANCH  24  26
ENDBRANCH  22  24
ENDBRANCH  21  22
ENDBRANCH  20  21
ENDBRANCH  19  20
ENDBRANCH  18  19
ENDBRANCH  16  18
ENDBRANCH   1  16
BRANCH  10  31
HETATM   31  C19 UNL     1      20.382  27.879  15.172  1.00  0.00     0.130 C 
BRANCH  31  32
HETATM   32  C20 UNL     1      21.738  27.815  14.494  1.00  0.00     0.047 C 
BRANCH  32  33
HETATM   33  C21 UNL     1      22.810  28.125  15.517  1.00  0.00     0.180 C 
BRANCH  33  34
HETATM   34  O1  UNL     1      22.469  27.611  16.790  1.00  0.00    -0.322 OA
BRANCH  34  35
HETATM   35  C22 UNL     1      23.156  26.605  17.422  1.00  0.00     0.254 C 
HETATM   36  C23 UNL     1      24.431  26.116  16.820  1.00  0.00     0.126 C 
HETATM   37  O2  UNL     1      22.674  26.145  18.481  1.00  0.00    -0.266 OA
ENDBRANCH  34  35
ENDBRANCH  33  34
ENDBRANCH  32  33
ENDBRANCH  31  32
ENDBRANCH  10  31
BRANCH  13  38
HETATM   38  N6  UNL     1      19.599  23.519  21.195  1.00  0.00    -0.234 N 
ATOM     39  H62 UNL     1      20.470  23.299  21.678  1.00  0.00     0.174 HD
ATOM     40  H61 UNL     1      18.849  23.544  21.886  1.00  0.00     0.174 HD
ENDBRANCH  13  38
TORSDOF 16
ENDMDL
