MODEL 1
REMARK VINA RESULT: -9.268679093      0.000      0.000
REMARK  13 active torsions:
REMARK  status: ('A' for Active; 'I' for Inactive)
REMARK    1  A    between atoms: C6_8  and  C7_9 
REMARK    2  A    between atoms: C7_9  and  C8_10 
REMARK    3  A    between atoms: C12_14  and  O1_15 
REMARK    4  A    between atoms: O1_15  and  C13_16 
REMARK    5  A    between atoms: C13_16  and  C14_17 
REMARK    6  A    between atoms: C15_20  and  O4_21 
REMARK    7  A    between atoms: O4_21  and  C16_22 
REMARK    8  A    between atoms: C16_22  and  C17_23 
REMARK    9  A    between atoms: C17_23  and  O5_24 
REMARK   10  A    between atoms: O5_24  and  C18_25 
REMARK   11  A    between atoms: C18_25  and  C19_26 
REMARK   12  A    between atoms: C19_26  and  N2_27 
REMARK   13  A    between atoms: C27_37  and  O6_38 
ROOT
HETATM    1  C8  UNL     1      20.922  26.682  16.267  1.00  0.00     0.000 A 
HETATM    2  C9  UNL     1      20.765  25.409  16.750  1.00  0.00     0.028 A 
HETATM    3  C10 UNL     1      19.740  24.599  16.261  1.00  0.00    -0.006 A 
HETATM    4  C11 UNL     1      19.557  23.314  16.732  1.00  0.00     0.055 A 
HETATM    5  C12 UNL     1      18.538  22.528  16.241  1.00  0.00     0.121 A 
HETATM    6  C15 UNL     1      17.666  23.001  15.259  1.00  0.00     0.177 A 
HETATM    7  N3  UNL     1      17.870  24.250  14.823  1.00  0.00    -0.334 N 
ATOM      8  H3  UNL     1      17.246  24.620  14.105  1.00  0.00     0.168 HD
HETATM    9  C25 UNL     1      18.870  25.052  15.290  1.00  0.00     0.047 A 
HETATM   10  C26 UNL     1      19.054  26.337  14.823  1.00  0.00     0.067 A 
HETATM   11  C27 UNL     1      20.068  27.155  15.300  1.00  0.00     0.078 A 
ENDROOT
BRANCH   6  12
HETATM   12  O4  UNL     1      16.648  22.217  14.768  1.00  0.00    -0.332 OA
BRANCH  12  13
HETATM   13  C16 UNL     1      15.292  22.304  15.034  1.00  0.00     0.203 C 
BRANCH  13  14
HETATM   14  C17 UNL     1      14.575  20.998  15.059  1.00  0.00     0.194 C 
BRANCH  14  15
HETATM   15  O5  UNL     1      14.495  20.422  16.238  1.00  0.00    -0.387 OA
BRANCH  15  16
HETATM   16  C18 UNL     1      13.572  20.454  17.167  1.00  0.00     0.198 C 
BRANCH  16  17
HETATM   17  C19 UNL     1      13.913  20.311  18.609  1.00  0.00     0.298 C 
BRANCH  17  18
HETATM   18  N2  UNL     1      13.752  18.873  18.964  1.00  0.00     0.090 N 
HETATM   19  C20 UNL     1      12.490  18.628  19.600  1.00  0.00     0.272 C 
HETATM   20  C21 UNL     1      12.588  17.621  20.721  1.00  0.00     0.030 C 
HETATM   21  C22 UNL     1      13.481  18.067  21.850  1.00  0.00     0.003 C 
HETATM   22  C23 UNL     1      14.507  19.016  21.308  1.00  0.00     0.030 C 
HETATM   23  C24 UNL     1      14.825  18.584  19.893  1.00  0.00     0.272 C 
ENDBRANCH  17  18
ENDBRANCH  16  17
ENDBRANCH  15  16
ENDBRANCH  14  15
ENDBRANCH  13  14
ENDBRANCH  12  13
ENDBRANCH   6  12
BRANCH   5  24
HETATM   24  O1  UNL     1      18.309  21.247  16.674  1.00  0.00    -0.336 OA
BRANCH  24  25
HETATM   25  C13 UNL     1      17.565  20.804  17.749  1.00  0.00     0.288 C 
BRANCH  25  26
HETATM   26  C14 UNL     1      17.965  21.290  19.070  1.00  0.00     0.198 C 
HETATM   27  O2  UNL     1      19.137  21.176  19.521  1.00  0.00    -0.646 OA
HETATM   28  O3  UNL     1      17.056  21.910  19.909  1.00  0.00    -0.646 OA
ENDBRANCH  25  26
ENDBRANCH  24  25
ENDBRANCH   5  24
BRANCH  11  29
HETATM   29  O6  UNL     1      20.242  28.452  14.817  1.00  0.00    -0.360 OA
ATOM     30  H6  UNL     1      19.973  28.655  13.929  1.00  0.00     0.217 HD
ENDBRANCH  11  29
BRANCH   1  31
HETATM   31  C7  UNL     1      21.996  27.541  16.789  1.00  0.00     0.044 C 
BRANCH  31  32
HETATM   32  C6  UNL     1      23.262  27.325  16.450  1.00  0.00     0.042 A 
HETATM   33  C2  UNL     1      24.013  28.092  15.614  1.00  0.00    -0.017 A 
HETATM   34  C1  UNL     1      23.676  29.185  14.969  1.00  0.00     0.026 C 
HETATM   35  C3  UNL     1      25.276  27.492  15.549  1.00  0.00     0.037 A 
HETATM   36  C4  UNL     1      25.221  26.380  16.361  1.00  0.00     0.006 A 
HETATM   37  C5  UNL     1      26.339  25.435  16.598  1.00  0.00     0.068 C 
HETATM   38  N1  UNL     1      23.999  26.307  16.887  1.00  0.00    -0.359 N 
ATOM     39  H1  UNL     1      23.678  25.581  17.528  1.00  0.00     0.166 HD
ENDBRANCH  31  32
ENDBRANCH   1  31
TORSDOF 13
ENDMDL
MODEL 2
REMARK VINA RESULT: -9.105009849      1.088      1.248
REMARK  13 active torsions:
REMARK  status: ('A' for Active; 'I' for Inactive)
REMARK    1  A    between atoms: C6_8  and  C7_9 
REMARK    2  A    between atoms: C7_9  and  C8_10 
REMARK    3  A    between atoms: C12_14  and  O1_15 
REMARK    4  A    between atoms: O1_15  and  C13_16 
REMARK    5  A    between atoms: C13_16  and  C14_17 
REMARK    6  A    between atoms: C15_20  and  O4_21 
REMARK    7  A    between atoms: O4_21  and  C16_22 
REMARK    8  A    between atoms: C16_22  and  C17_23 
REMARK    9  A    between atoms: C17_23  and  O5_24 
REMARK   10  A    between atoms: O5_24  and  C18_25 
REMARK   11  A    between atoms: C18_25  and  C19_26 
REMARK   12  A    between atoms: C19_26  and  N2_27 
REMARK   13  A    between atoms: C27_37  and  O6_38 
ROOT
HETATM    1  C8  UNL     1      20.986  27.391  15.594  1.00  0.00     0.000 A 
HETATM    2  C9  UNL     1      20.472  26.615  16.601  1.00  0.00     0.028 A 
HETATM    3  C10 UNL     1      19.373  25.794  16.354  1.00  0.00    -0.006 A 
HETATM    4  C11 UNL     1      18.833  25.004  17.350  1.00  0.00     0.055 A 
HETATM    5  C12 UNL     1      17.745  24.200  17.091  1.00  0.00     0.121 A 
HETATM    6  C15 UNL     1      17.159  24.157  15.825  1.00  0.00     0.177 A 
HETATM    7  N3  UNL     1      17.705  24.933  14.881  1.00  0.00    -0.334 N 
ATOM      8  H3  UNL     1      17.296  24.921  13.947  1.00  0.00     0.168 HD
HETATM    9  C25 UNL     1      18.783  25.740  15.108  1.00  0.00     0.047 A 
HETATM   10  C26 UNL     1      19.324  26.532  14.116  1.00  0.00     0.067 A 
HETATM   11  C27 UNL     1      20.416  27.355  14.345  1.00  0.00     0.078 A 
ENDROOT
BRANCH   6  12
HETATM   12  O4  UNL     1      16.072  23.355  15.566  1.00  0.00    -0.332 OA
BRANCH  12  13
HETATM   13  C16 UNL     1      16.057  22.071  15.048  1.00  0.00     0.203 C 
BRANCH  13  14
HETATM   14  C17 UNL     1      15.044  21.163  15.658  1.00  0.00     0.194 C 
BRANCH  14  15
HETATM   15  O5  UNL     1      15.197  20.932  16.943  1.00  0.00    -0.387 OA
BRANCH  15  16
HETATM   16  C18 UNL     1      14.431  21.183  17.975  1.00  0.00     0.198 C 
BRANCH  16  17
HETATM   17  C19 UNL     1      14.620  20.482  19.275  1.00  0.00     0.298 C 
BRANCH  17  18
HETATM   18  N2  UNL     1      14.150  19.080  19.097  1.00  0.00     0.090 N 
HETATM   19  C20 UNL     1      12.720  18.992  19.183  1.00  0.00     0.272 C 
HETATM   20  C21 UNL     1      12.256  17.751  19.908  1.00  0.00     0.030 C 
HETATM   21  C22 UNL     1      12.709  17.690  21.343  1.00  0.00     0.003 C 
HETATM   22  C23 UNL     1      13.980  18.473  21.482  1.00  0.00     0.030 C 
HETATM   23  C24 UNL     1      14.746  18.333  20.185  1.00  0.00     0.272 C 
ENDBRANCH  17  18
ENDBRANCH  16  17
ENDBRANCH  15  16
ENDBRANCH  14  15
ENDBRANCH  13  14
ENDBRANCH  12  13
ENDBRANCH   6  12
BRANCH   5  24
HETATM   24  O1  UNL     1      17.166  23.398  18.042  1.00  0.00    -0.336 OA
BRANCH  24  25
HETATM   25  C13 UNL     1      17.732  22.805  19.152  1.00  0.00     0.288 C 
BRANCH  25  26
HETATM   26  C14 UNL     1      18.440  21.543  18.933  1.00  0.00     0.198 C 
HETATM   27  O2  UNL     1      19.188  21.013  19.798  1.00  0.00    -0.646 OA
HETATM   28  O3  UNL     1      18.321  20.855  17.738  1.00  0.00    -0.646 OA
ENDBRANCH  25  26
ENDBRANCH  24  25
ENDBRANCH   5  24
BRANCH  11  29
HETATM   29  O6  UNL     1      20.952  28.150  13.331  1.00  0.00    -0.360 OA
ATOM     30  H6  UNL     1      20.412  28.826  12.939  1.00  0.00     0.217 HD
ENDBRANCH  11  29
BRANCH   1  31
HETATM   31  C7  UNL     1      22.141  28.267  15.855  1.00  0.00     0.044 C 
BRANCH  31  32
HETATM   32  C6  UNL     1      23.372  27.772  15.887  1.00  0.00     0.042 A 
HETATM   33  C2  UNL     1      24.493  28.372  15.401  1.00  0.00    -0.017 A 
HETATM   34  C1  UNL     1      24.615  29.537  14.807  1.00  0.00     0.026 C 
HETATM   35  C3  UNL     1      25.555  27.495  15.651  1.00  0.00     0.037 A 
HETATM   36  C4  UNL     1      25.013  26.398  16.283  1.00  0.00     0.006 A 
HETATM   37  C5  UNL     1      25.774  25.209  16.739  1.00  0.00     0.068 C 
HETATM   38  N1  UNL     1      23.702  26.594  16.411  1.00  0.00    -0.359 N 
ATOM     39  H1  UNL     1      23.049  25.941  16.844  1.00  0.00     0.166 HD
ENDBRANCH  31  32
ENDBRANCH   1  31
TORSDOF 13
ENDMDL
MODEL 3
REMARK VINA RESULT: -9.081994278      2.369      4.953
REMARK  13 active torsions:
REMARK  status: ('A' for Active; 'I' for Inactive)
REMARK    1  A    between atoms: C6_8  and  C7_9 
REMARK    2  A    between atoms: C7_9  and  C8_10 
REMARK    3  A    between atoms: C12_14  and  O1_15 
REMARK    4  A    between atoms: O1_15  and  C13_16 
REMARK    5  A    between atoms: C13_16  and  C14_17 
REMARK    6  A    between atoms: C15_20  and  O4_21 
REMARK    7  A    between atoms: O4_21  and  C16_22 
REMARK    8  A    between atoms: C16_22  and  C17_23 
REMARK    9  A    between atoms: C17_23  and  O5_24 
REMARK   10  A    between atoms: O5_24  and  C18_25 
REMARK   11  A    between atoms: C18_25  and  C19_26 
REMARK   12  A    between atoms: C19_26  and  N2_27 
REMARK   13  A    between atoms: C27_37  and  O6_38 
ROOT
HETATM    1  C8  UNL     1      19.852  25.603  15.249  1.00  0.00     0.000 A 
HETATM    2  C9  UNL     1      19.068  24.630  14.685  1.00  0.00     0.028 A 
HETATM    3  C10 UNL     1      17.957  24.144  15.375  1.00  0.00    -0.006 A 
HETATM    4  C11 UNL     1      17.152  23.163  14.832  1.00  0.00     0.055 A 
HETATM    5  C12 UNL     1      16.060  22.691  15.527  1.00  0.00     0.121 A 
HETATM    6  C15 UNL     1      15.735  23.186  16.790  1.00  0.00     0.177 A 
HETATM    7  N3  UNL     1      16.534  24.137  17.289  1.00  0.00    -0.334 N 
ATOM      8  H3  UNL     1      16.320  24.517  18.211  1.00  0.00     0.168 HD
HETATM    9  C25 UNL     1      17.623  24.624  16.624  1.00  0.00     0.047 A 
HETATM   10  C26 UNL     1      18.431  25.603  17.165  1.00  0.00     0.067 A 
HETATM   11  C27 UNL     1      19.539  26.096  16.492  1.00  0.00     0.078 A 
ENDROOT
BRANCH   6  12
HETATM   12  O4  UNL     1      14.645  22.716  17.485  1.00  0.00    -0.332 OA
BRANCH  12  13
HETATM   13  C16 UNL     1      14.624  22.032  18.689  1.00  0.00     0.203 C 
BRANCH  13  14
HETATM   14  C17 UNL     1      15.524  20.846  18.750  1.00  0.00     0.194 C 
BRANCH  14  15
HETATM   15  O5  UNL     1      16.685  21.049  19.333  1.00  0.00    -0.387 OA
BRANCH  15  16
HETATM   16  C18 UNL     1      17.900  21.152  18.853  1.00  0.00     0.198 C 
BRANCH  16  17
HETATM   17  C19 UNL     1      19.030  21.638  19.691  1.00  0.00     0.298 C 
BRANCH  17  18
HETATM   18  N2  UNL     1      19.261  23.068  19.342  1.00  0.00     0.090 N 
HETATM   19  C20 UNL     1      20.660  23.358  19.217  1.00  0.00     0.272 C 
HETATM   20  C21 UNL     1      21.026  24.714  19.772  1.00  0.00     0.030 C 
HETATM   21  C22 UNL     1      20.758  24.849  21.248  1.00  0.00     0.003 C 
HETATM   22  C23 UNL     1      19.647  23.917  21.626  1.00  0.00     0.030 C 
HETATM   23  C24 UNL     1      18.707  23.827  20.444  1.00  0.00     0.272 C 
ENDBRANCH  17  18
ENDBRANCH  16  17
ENDBRANCH  15  16
ENDBRANCH  14  15
ENDBRANCH  13  14
ENDBRANCH  12  13
ENDBRANCH   6  12
BRANCH   5  24
HETATM   24  O1  UNL     1      15.228  21.716  15.037  1.00  0.00    -0.336 OA
BRANCH  24  25
HETATM   25  C13 UNL     1      14.189  21.821  14.136  1.00  0.00     0.288 C 
BRANCH  25  26
HETATM   26  C14 UNL     1      14.345  21.107  12.868  1.00  0.00     0.198 C 
HETATM   27  O2  UNL     1      14.275  19.852  12.770  1.00  0.00    -0.646 OA
HETATM   28  O3  UNL     1      14.584  21.790  11.688  1.00  0.00    -0.646 OA
ENDBRANCH  25  26
ENDBRANCH  24  25
ENDBRANCH   5  24
BRANCH  11  29
HETATM   29  O6  UNL     1      20.347  27.087  17.052  1.00  0.00    -0.360 OA
ATOM     30  H6  UNL     1      21.215  26.856  17.361  1.00  0.00     0.217 HD
ENDBRANCH  11  29
BRANCH   1  31
HETATM   31  C7  UNL     1      21.030  26.110  14.527  1.00  0.00     0.044 C 
BRANCH  31  32
HETATM   32  C6  UNL     1      22.126  26.466  15.186  1.00  0.00     0.042 A 
HETATM   33  C2  UNL     1      22.723  27.689  15.153  1.00  0.00    -0.017 A 
HETATM   34  C1  UNL     1      22.369  28.764  14.487  1.00  0.00     0.026 C 
HETATM   35  C3  UNL     1      23.840  27.611  15.993  1.00  0.00     0.037 A 
HETATM   36  C4  UNL     1      23.860  26.329  16.496  1.00  0.00     0.006 A 
HETATM   37  C5  UNL     1      24.873  25.791  17.436  1.00  0.00     0.068 C 
HETATM   38  N1  UNL     1      22.819  25.666  15.993  1.00  0.00    -0.359 N 
ATOM     39  H1  UNL     1      22.587  24.694  16.196  1.00  0.00     0.166 HD
ENDBRANCH  31  32
ENDBRANCH   1  31
TORSDOF 13
ENDMDL
MODEL 4
REMARK VINA RESULT: -8.803050472      1.044      1.291
REMARK  13 active torsions:
REMARK  status: ('A' for Active; 'I' for Inactive)
REMARK    1  A    between atoms: C6_8  and  C7_9 
REMARK    2  A    between atoms: C7_9  and  C8_10 
REMARK    3  A    between atoms: C12_14  and  O1_15 
REMARK    4  A    between atoms: O1_15  and  C13_16 
REMARK    5  A    between atoms: C13_16  and  C14_17 
REMARK    6  A    between atoms: C15_20  and  O4_21 
REMARK    7  A    between atoms: O4_21  and  C16_22 
REMARK    8  A    between atoms: C16_22  and  C17_23 
REMARK    9  A    between atoms: C17_23  and  O5_24 
REMARK   10  A    between atoms: O5_24  and  C18_25 
REMARK   11  A    between atoms: C18_25  and  C19_26 
REMARK   12  A    between atoms: C19_26  and  N2_27 
REMARK   13  A    between atoms: C27_37  and  O6_38 
ROOT
HETATM    1  C8  UNL     1      20.506  26.071  15.020  1.00  0.00     0.000 A 
HETATM    2  C9  UNL     1      20.450  24.927  15.773  1.00  0.00     0.028 A 
HETATM    3  C10 UNL     1      19.355  24.071  15.659  1.00  0.00    -0.006 A 
HETATM    4  C11 UNL     1      19.271  22.914  16.407  1.00  0.00     0.055 A 
HETATM    5  C12 UNL     1      18.182  22.080  16.285  1.00  0.00     0.121 A 
HETATM    6  C15 UNL     1      17.137  22.375  15.408  1.00  0.00     0.177 A 
HETATM    7  N3  UNL     1      17.248  23.503  14.696  1.00  0.00    -0.334 N 
ATOM      8  H3  UNL     1      16.498  23.743  14.047  1.00  0.00     0.168 HD
HETATM    9  C25 UNL     1      18.315  24.349  14.796  1.00  0.00     0.047 A 
HETATM   10  C26 UNL     1      18.400  25.507  14.051  1.00  0.00     0.067 A 
HETATM   11  C27 UNL     1      19.482  26.369  14.154  1.00  0.00     0.078 A 
ENDROOT
BRANCH   6  12
HETATM   12  O4  UNL     1      16.048  21.543  15.285  1.00  0.00    -0.332 OA
BRANCH  12  13
HETATM   13  C16 UNL     1      14.990  21.639  14.397  1.00  0.00     0.203 C 
BRANCH  13  14
HETATM   14  C17 UNL     1      13.665  21.255  14.961  1.00  0.00     0.194 C 
BRANCH  14  15
HETATM   15  O5  UNL     1      13.606  21.202  16.274  1.00  0.00    -0.387 OA
BRANCH  15  16
HETATM   16  C18 UNL     1      13.272  20.240  17.097  1.00  0.00     0.198 C 
BRANCH  16  17
HETATM   17  C19 UNL     1      13.841  20.157  18.471  1.00  0.00     0.298 C 
BRANCH  17  18
HETATM   18  N2  UNL     1      13.654  18.758  18.947  1.00  0.00     0.090 N 
HETATM   19  C20 UNL     1      12.447  18.621  19.710  1.00  0.00     0.272 C 
HETATM   20  C21 UNL     1      12.607  17.693  20.891  1.00  0.00     0.030 C 
HETATM   21  C22 UNL     1      13.619  18.174  21.897  1.00  0.00     0.003 C 
HETATM   22  C23 UNL     1      14.630  19.030  21.195  1.00  0.00     0.030 C 
HETATM   23  C24 UNL     1      14.795  18.483  19.794  1.00  0.00     0.272 C 
ENDBRANCH  17  18
ENDBRANCH  16  17
ENDBRANCH  15  16
ENDBRANCH  14  15
ENDBRANCH  13  14
ENDBRANCH  12  13
ENDBRANCH   6  12
BRANCH   5  24
HETATM   24  O1  UNL     1      18.045  20.920  17.004  1.00  0.00    -0.336 OA
BRANCH  24  25
HETATM   25  C13 UNL     1      17.502  20.724  18.258  1.00  0.00     0.288 C 
BRANCH  25  26
HETATM   26  C14 UNL     1      18.133  21.442  19.367  1.00  0.00     0.198 C 
HETATM   27  O2  UNL     1      19.268  21.142  19.825  1.00  0.00    -0.646 OA
HETATM   28  O3  UNL     1      17.499  22.508  19.981  1.00  0.00    -0.646 OA
ENDBRANCH  25  26
ENDBRANCH  24  25
ENDBRANCH   5  24
BRANCH  11  29
HETATM   29  O6  UNL     1      19.555  27.537  13.394  1.00  0.00    -0.360 OA
ATOM     30  H6  UNL     1      18.763  27.880  12.996  1.00  0.00     0.217 HD
ENDBRANCH  11  29
BRANCH   1  31
HETATM   31  C7  UNL     1      21.656  26.981  15.147  1.00  0.00     0.044 C 
BRANCH  31  32
HETATM   32  C6  UNL     1      22.641  26.714  15.995  1.00  0.00     0.042 A 
HETATM   33  C2  UNL     1      22.598  26.851  17.349  1.00  0.00    -0.017 A 
HETATM   34  C1  UNL     1      21.608  27.266  18.105  1.00  0.00     0.026 C 
HETATM   35  C3  UNL     1      23.851  26.456  17.831  1.00  0.00     0.037 A 
HETATM   36  C4  UNL     1      24.595  26.096  16.729  1.00  0.00     0.006 A 
HETATM   37  C5  UNL     1      25.996  25.608  16.762  1.00  0.00     0.068 C 
HETATM   38  N1  UNL     1      23.842  26.261  15.643  1.00  0.00    -0.359 N 
ATOM     39  H1  UNL     1      24.140  26.070  14.686  1.00  0.00     0.166 HD
ENDBRANCH  31  32
ENDBRANCH   1  31
TORSDOF 13
ENDMDL
MODEL 5
REMARK VINA RESULT: -8.792317706      3.103      5.827
REMARK  13 active torsions:
REMARK  status: ('A' for Active; 'I' for Inactive)
REMARK    1  A    between atoms: C6_8  and  C7_9 
REMARK    2  A    between atoms: C7_9  and  C8_10 
REMARK    3  A    between atoms: C12_14  and  O1_15 
REMARK    4  A    between atoms: O1_15  and  C13_16 
REMARK    5  A    between atoms: C13_16  and  C14_17 
REMARK    6  A    between atoms: C15_20  and  O4_21 
REMARK    7  A    between atoms: O4_21  and  C16_22 
REMARK    8  A    between atoms: C16_22  and  C17_23 
REMARK    9  A    between atoms: C17_23  and  O5_24 
REMARK   10  A    between atoms: O5_24  and  C18_25 
REMARK   11  A    between atoms: C18_25  and  C19_26 
REMARK   12  A    between atoms: C19_26  and  N2_27 
REMARK   13  A    between atoms: C27_37  and  O6_38 
ROOT
HETATM    1  C8  UNL     1      17.893  22.604  16.647  1.00  0.00     0.000 A 
HETATM    2  C9  UNL     1      17.674  21.549  17.495  1.00  0.00     0.028 A 
HETATM    3  C10 UNL     1      16.375  21.097  17.723  1.00  0.00    -0.006 A 
HETATM    4  C11 UNL     1      16.125  20.039  18.575  1.00  0.00     0.055 A 
HETATM    5  C12 UNL     1      14.836  19.606  18.792  1.00  0.00     0.121 A 
HETATM    6  C15 UNL     1      13.750  20.217  18.163  1.00  0.00     0.177 A 
HETATM    7  N3  UNL     1      14.024  21.239  17.343  1.00  0.00    -0.334 N 
ATOM      8  H3  UNL     1      13.248  21.703  16.870  1.00  0.00     0.168 HD
HETATM    9  C25 UNL     1      15.291  21.690  17.109  1.00  0.00     0.047 A 
HETATM   10  C26 UNL     1      15.543  22.748  16.260  1.00  0.00     0.067 A 
HETATM   11  C27 UNL     1      16.830  23.210  16.024  1.00  0.00     0.078 A 
ENDROOT
BRANCH   6  12
HETATM   12  O4  UNL     1      12.462  19.785  18.379  1.00  0.00    -0.332 OA
BRANCH  12  13
HETATM   13  C16 UNL     1      11.470  19.538  17.444  1.00  0.00     0.203 C 
BRANCH  13  14
HETATM   14  C17 UNL     1      11.268  18.098  17.115  1.00  0.00     0.194 C 
BRANCH  14  15
HETATM   15  O5  UNL     1      10.950  17.846  15.864  1.00  0.00    -0.387 OA
BRANCH  15  16
HETATM   16  C18 UNL     1      11.685  17.649  14.798  1.00  0.00     0.198 C 
BRANCH  16  17
HETATM   17  C19 UNL     1      11.871  18.712  13.772  1.00  0.00     0.298 C 
BRANCH  17  18
HETATM   18  N2  UNL     1      12.507  19.877  14.448  1.00  0.00     0.090 N 
HETATM   19  C20 UNL     1      11.903  21.113  14.042  1.00  0.00     0.272 C 
HETATM   20  C21 UNL     1      12.909  22.228  13.880  1.00  0.00     0.030 C 
HETATM   21  C22 UNL     1      13.935  21.958  12.812  1.00  0.00     0.003 C 
HETATM   22  C23 UNL     1      14.101  20.475  12.664  1.00  0.00     0.030 C 
HETATM   23  C24 UNL     1      13.893  19.856  14.028  1.00  0.00     0.272 C 
ENDBRANCH  17  18
ENDBRANCH  16  17
ENDBRANCH  15  16
ENDBRANCH  14  15
ENDBRANCH  13  14
ENDBRANCH  12  13
ENDBRANCH   6  12
BRANCH   5  24
HETATM   24  O1  UNL     1      14.530  18.563  19.628  1.00  0.00    -0.336 OA
BRANCH  24  25
HETATM   25  C13 UNL     1      14.403  18.549  21.003  1.00  0.00     0.288 C 
BRANCH  25  26
HETATM   26  C14 UNL     1      13.148  18.022  21.540  1.00  0.00     0.198 C 
HETATM   27  O2  UNL     1      13.099  17.138  22.438  1.00  0.00    -0.646 OA
HETATM   28  O3  UNL     1      11.925  18.477  21.078  1.00  0.00    -0.646 OA
ENDBRANCH  25  26
ENDBRANCH  24  25
ENDBRANCH   5  24
BRANCH  11  29
HETATM   29  O6  UNL     1      17.069  24.282  15.162  1.00  0.00    -0.360 OA
ATOM     30  H6  UNL     1      17.910  24.344  14.725  1.00  0.00     0.217 HD
ENDBRANCH  11  29
BRANCH   1  31
HETATM   31  C7  UNL     1      19.263  23.089  16.413  1.00  0.00     0.044 C 
BRANCH  31  32
HETATM   32  C6  UNL     1      19.876  23.847  17.313  1.00  0.00     0.042 A 
HETATM   33  C2  UNL     1      20.067  25.193  17.237  1.00  0.00    -0.017 A 
HETATM   34  C1  UNL     1      19.704  26.026  16.289  1.00  0.00     0.026 C 
HETATM   35  C3  UNL     1      20.753  25.565  18.399  1.00  0.00     0.037 A 
HETATM   36  C4  UNL     1      20.942  24.411  19.126  1.00  0.00     0.006 A 
HETATM   37  C5  UNL     1      21.629  24.326  20.438  1.00  0.00     0.068 C 
HETATM   38  N1  UNL     1      20.405  23.397  18.448  1.00  0.00    -0.359 N 
ATOM     39  H1  UNL     1      20.400  22.424  18.753  1.00  0.00     0.166 HD
ENDBRANCH  31  32
ENDBRANCH   1  31
TORSDOF 13
ENDMDL
