MODEL 1
REMARK VINA RESULT: -9.056889167      0.000      0.000
REMARK  14 active torsions:
REMARK  status: ('A' for Active; 'I' for Inactive)
REMARK    1  A    between atoms: C2_2  and  C3_3 
REMARK    2  A    between atoms: C3_3  and  C4_4 
REMARK    3  A    between atoms: C4_4  and  C5_5 
REMARK    4  A    between atoms: C8_10  and  N2_11 
REMARK    5  A    between atoms: C9_14  and  C10_15 
REMARK    6  A    between atoms: C10_15  and  O1_16 
REMARK    7  A    between atoms: C10_15  and  N3_18 
REMARK    8  A    between atoms: N3_18  and  C11_20 
REMARK    9  A    between atoms: C11_20  and  C12_21 
REMARK   10  A    between atoms: C12_21  and  C13_22 
REMARK   11  A    between atoms: C13_22  and  N4_23 
REMARK   12  A    between atoms: C18_29  and  S1_30 
REMARK   13  A    between atoms: S1_30  and  C19_31 
REMARK   14  A    between atoms: C19_31  and  C20_32 
REMARK       I    between atoms: C20_32  and  N5_34 
ROOT
HETATM    1  C5  UNL     1      20.675  25.990  16.009  1.00  0.00    -0.035 A 
HETATM    2  C6  UNL     1      20.553  26.133  17.394  1.00  0.00     0.096 A 
HETATM    3  N1  UNL     1      19.464  25.650  18.044  1.00  0.00    -0.362 N 
ATOM      4  H1  UNL     1      19.412  25.774  19.055  1.00  0.00     0.165 HD
HETATM    5  C7  UNL     1      18.453  25.019  17.428  1.00  0.00     0.087 A 
HETATM    6  C8  UNL     1      17.372  24.545  18.136  1.00  0.00     0.072 A 
HETATM    7  C9  UNL     1      16.330  23.884  17.453  1.00  0.00     0.076 A 
HETATM    8  C18 UNL     1      16.422  23.732  16.087  1.00  0.00     0.087 A 
HETATM    9  N6  UNL     1      17.531  24.232  15.459  1.00  0.00    -0.348 N 
ATOM     10  H6  UNL     1      17.593  24.115  14.448  1.00  0.00     0.166 HD
HETATM   11  C23 UNL     1      18.531  24.857  16.064  1.00  0.00     0.069 A 
HETATM   12  C24 UNL     1      19.644  25.345  15.367  1.00  0.00    -0.025 A 
HETATM   13  C25 UNL     1      19.673  25.158  13.913  1.00  0.00     0.051 C 
ENDROOT
BRANCH   7  14
HETATM   14  C10 UNL     1      15.238  23.402  18.245  1.00  0.00     0.151 C 
BRANCH  14  15
HETATM   15  O1  UNL     1      14.294  24.271  18.482  1.00  0.00    -0.346 OA
ATOM     16  H1  UNL     1      14.474  24.885  19.185  1.00  0.00     0.219 HD
ENDBRANCH  14  15
BRANCH  14  17
HETATM   17  N3  UNL     1      14.977  22.164  18.827  1.00  0.00    -0.370 N 
ATOM     18  H3  UNL     1      14.003  21.899  18.978  1.00  0.00     0.161 HD
BRANCH  17  19
HETATM   19  C11 UNL     1      16.015  21.222  19.235  1.00  0.00     0.127 C 
BRANCH  19  20
HETATM   20  C12 UNL     1      15.462  20.102  20.069  1.00  0.00     0.064 C 
BRANCH  20  21
HETATM   21  C13 UNL     1      14.988  18.975  19.178  1.00  0.00     0.065 C 
BRANCH  21  22
HETATM   22  N4  UNL     1      14.200  17.997  19.796  1.00  0.00    -0.370 N 
HETATM   23  C14 UNL     1      13.033  17.527  19.166  1.00  0.00     0.089 C 
HETATM   24  C15 UNL     1      11.758  17.843  19.907  1.00  0.00     0.212 C 
HETATM   25  O2  UNL     1      11.936  18.458  21.111  1.00  0.00    -0.385 OA
HETATM   26  C16 UNL     1      12.951  17.979  21.905  1.00  0.00     0.188 C 
HETATM   27  C17 UNL     1      14.278  17.880  21.203  1.00  0.00     0.153 C 
ENDBRANCH  21  22
ENDBRANCH  20  21
ENDBRANCH  19  20
ENDBRANCH  17  19
ENDBRANCH  14  17
ENDBRANCH   7  14
BRANCH   6  28
HETATM   28  N2  UNL     1      17.275  24.681  19.410  1.00  0.00    -0.396 N 
ATOM     29  H22 UNL     1      18.081  24.436  19.985  1.00  0.00     0.156 HD
ATOM     30  H21 UNL     1      16.425  25.025  19.856  1.00  0.00     0.156 HD
ENDBRANCH   6  28
BRANCH   8  31
HETATM   31  S1  UNL     1      15.155  22.950  15.121  1.00  0.00    -0.102 SA
BRANCH  31  32
HETATM   32  C19 UNL     1      15.198  21.177  15.300  1.00  0.00     0.183 C 
BRANCH  32  33
HETATM   33  C20 UNL     1      13.921  20.500  15.541  1.00  0.00     0.228 C 
HETATM   34  O3  UNL     1      13.350  20.516  16.640  1.00  0.00    -0.273 OA
HETATM   35  N5  UNL     1      13.324  19.802  14.467  1.00  0.00    -0.360 N 
HETATM   36  C21 UNL     1      12.071  19.121  14.662  1.00  0.00     0.152 C 
HETATM   37  C22 UNL     1      13.960  19.777  13.175  1.00  0.00     0.152 C 
ENDBRANCH  32  33
ENDBRANCH  31  32
ENDBRANCH   8  31
BRANCH   1  38
HETATM   38  C4  UNL     1      21.896  26.512  15.352  1.00  0.00     0.040 C 
BRANCH  38  39
HETATM   39  C3  UNL     1      22.182  27.945  15.700  1.00  0.00     0.004 C 
BRANCH  39  40
HETATM   40  C2  UNL     1      22.465  28.851  14.552  1.00  0.00    -0.004 C 
HETATM   41  C1  UNL     1      21.452  28.461  13.456  1.00  0.00     0.005 C 
ENDBRANCH  39  40
ENDBRANCH  38  39
ENDBRANCH   1  38
TORSDOF 14
ENDMDL
MODEL 2
REMARK VINA RESULT: -8.810885885      0.953      1.155
REMARK  14 active torsions:
REMARK  status: ('A' for Active; 'I' for Inactive)
REMARK    1  A    between atoms: C2_2  and  C3_3 
REMARK    2  A    between atoms: C3_3  and  C4_4 
REMARK    3  A    between atoms: C4_4  and  C5_5 
REMARK    4  A    between atoms: C8_10  and  N2_11 
REMARK    5  A    between atoms: C9_14  and  C10_15 
REMARK    6  A    between atoms: C10_15  and  O1_16 
REMARK    7  A    between atoms: C10_15  and  N3_18 
REMARK    8  A    between atoms: N3_18  and  C11_20 
REMARK    9  A    between atoms: C11_20  and  C12_21 
REMARK   10  A    between atoms: C12_21  and  C13_22 
REMARK   11  A    between atoms: C13_22  and  N4_23 
REMARK   12  A    between atoms: C18_29  and  S1_30 
REMARK   13  A    between atoms: S1_30  and  C19_31 
REMARK   14  A    between atoms: C19_31  and  C20_32 
REMARK       I    between atoms: C20_32  and  N5_34 
ROOT
HETATM    1  C5  UNL     1      20.365  26.164  15.583  1.00  0.00    -0.035 A 
HETATM    2  C6  UNL     1      20.397  26.265  16.976  1.00  0.00     0.096 A 
HETATM    3  N1  UNL     1      19.399  25.738  17.729  1.00  0.00    -0.362 N 
ATOM      4  H1  UNL     1      19.458  25.832  18.743  1.00  0.00     0.165 HD
HETATM    5  C7  UNL     1      18.338  25.100  17.211  1.00  0.00     0.087 A 
HETATM    6  C8  UNL     1      17.354  24.580  18.021  1.00  0.00     0.072 A 
HETATM    7  C9  UNL     1      16.256  23.913  17.439  1.00  0.00     0.076 A 
HETATM    8  C18 UNL     1      16.197  23.802  16.068  1.00  0.00     0.087 A 
HETATM    9  N6  UNL     1      17.216  24.347  15.335  1.00  0.00    -0.348 N 
ATOM     10  H6  UNL     1      17.166  24.259  14.320  1.00  0.00     0.166 HD
HETATM   11  C23 UNL     1      18.265  24.979  15.843  1.00  0.00     0.069 A 
HETATM   12  C24 UNL     1      19.282  25.512  15.041  1.00  0.00    -0.025 A 
HETATM   13  C25 UNL     1      19.150  25.367  13.588  1.00  0.00     0.051 C 
ENDROOT
BRANCH   7  14
HETATM   14  C10 UNL     1      15.270  23.383  18.334  1.00  0.00     0.151 C 
BRANCH  14  15
HETATM   15  O1  UNL     1      14.233  24.147  18.538  1.00  0.00    -0.346 OA
ATOM     16  H1  UNL     1      14.327  24.781  19.240  1.00  0.00     0.219 HD
ENDBRANCH  14  15
BRANCH  14  17
HETATM   17  N3  UNL     1      15.197  22.188  19.046  1.00  0.00    -0.370 N 
ATOM     18  H3  UNL     1      14.338  21.986  19.559  1.00  0.00     0.161 HD
BRANCH  17  19
HETATM   19  C11 UNL     1      16.277  21.208  19.104  1.00  0.00     0.127 C 
BRANCH  19  20
HETATM   20  C12 UNL     1      15.856  19.874  18.556  1.00  0.00     0.064 C 
BRANCH  20  21
HETATM   21  C13 UNL     1      14.358  19.706  18.691  1.00  0.00     0.065 C 
BRANCH  21  22
HETATM   22  N4  UNL     1      13.932  18.580  19.405  1.00  0.00    -0.370 N 
HETATM   23  C14 UNL     1      12.762  17.899  19.017  1.00  0.00     0.089 C 
HETATM   24  C15 UNL     1      11.653  17.943  20.038  1.00  0.00     0.212 C 
HETATM   25  O2  UNL     1      11.980  18.558  21.210  1.00  0.00    -0.385 OA
HETATM   26  C16 UNL     1      13.221  18.276  21.731  1.00  0.00     0.188 C 
HETATM   27  C17 UNL     1      14.348  18.455  20.750  1.00  0.00     0.153 C 
ENDBRANCH  21  22
ENDBRANCH  20  21
ENDBRANCH  19  20
ENDBRANCH  17  19
ENDBRANCH  14  17
ENDBRANCH   7  14
BRANCH   6  28
HETATM   28  N2  UNL     1      17.398  24.678  19.301  1.00  0.00    -0.396 N 
ATOM     29  H22 UNL     1      17.610  23.840  19.843  1.00  0.00     0.156 HD
ATOM     30  H21 UNL     1      17.231  25.560  19.785  1.00  0.00     0.156 HD
ENDBRANCH   6  28
BRANCH   8  31
HETATM   31  S1  UNL     1      14.845  23.017  15.226  1.00  0.00    -0.102 SA
BRANCH  31  32
HETATM   32  C19 UNL     1      14.979  21.241  15.292  1.00  0.00     0.183 C 
BRANCH  32  33
HETATM   33  C20 UNL     1      14.445  20.489  14.152  1.00  0.00     0.228 C 
HETATM   34  O3  UNL     1      15.042  20.397  13.071  1.00  0.00    -0.273 OA
HETATM   35  N5  UNL     1      13.196  19.846  14.305  1.00  0.00    -0.360 N 
HETATM   36  C21 UNL     1      12.634  19.099  13.211  1.00  0.00     0.152 C 
HETATM   37  C22 UNL     1      12.486  19.927  15.556  1.00  0.00     0.152 C 
ENDBRANCH  32  33
ENDBRANCH  31  32
ENDBRANCH   8  31
BRANCH   1  38
HETATM   38  C4  UNL     1      21.493  26.734  14.810  1.00  0.00     0.040 C 
BRANCH  38  39
HETATM   39  C3  UNL     1      21.310  28.191  14.492  1.00  0.00     0.004 C 
BRANCH  39  40
HETATM   40  C2  UNL     1      22.554  29.008  14.437  1.00  0.00    -0.004 C 
HETATM   41  C1  UNL     1      23.494  28.404  15.500  1.00  0.00     0.005 C 
ENDBRANCH  39  40
ENDBRANCH  38  39
ENDBRANCH   1  38
TORSDOF 14
ENDMDL
MODEL 3
REMARK VINA RESULT: -8.510282243      2.839     10.091
REMARK  14 active torsions:
REMARK  status: ('A' for Active; 'I' for Inactive)
REMARK    1  A    between atoms: C2_2  and  C3_3 
REMARK    2  A    between atoms: C3_3  and  C4_4 
REMARK    3  A    between atoms: C4_4  and  C5_5 
REMARK    4  A    between atoms: C8_10  and  N2_11 
REMARK    5  A    between atoms: C9_14  and  C10_15 
REMARK    6  A    between atoms: C10_15  and  O1_16 
REMARK    7  A    between atoms: C10_15  and  N3_18 
REMARK    8  A    between atoms: N3_18  and  C11_20 
REMARK    9  A    between atoms: C11_20  and  C12_21 
REMARK   10  A    between atoms: C12_21  and  C13_22 
REMARK   11  A    between atoms: C13_22  and  N4_23 
REMARK   12  A    between atoms: C18_29  and  S1_30 
REMARK   13  A    between atoms: S1_30  and  C19_31 
REMARK   14  A    between atoms: C19_31  and  C20_32 
REMARK       I    between atoms: C20_32  and  N5_34 
ROOT
HETATM    1  C5  UNL     1      13.299  18.926  19.287  1.00  0.00    -0.035 A 
HETATM    2  C6  UNL     1      12.736  19.654  18.235  1.00  0.00     0.096 A 
HETATM    3  N1  UNL     1      13.290  20.825  17.832  1.00  0.00    -0.362 N 
ATOM      4  H1  UNL     1      12.850  21.326  17.059  1.00  0.00     0.165 HD
HETATM    5  C7  UNL     1      14.385  21.359  18.394  1.00  0.00     0.087 A 
HETATM    6  C8  UNL     1      14.909  22.549  17.944  1.00  0.00     0.072 A 
HETATM    7  C9  UNL     1      16.064  23.076  18.558  1.00  0.00     0.076 A 
HETATM    8  C18 UNL     1      16.638  22.383  19.600  1.00  0.00     0.087 A 
HETATM    9  N6  UNL     1      16.054  21.206  19.986  1.00  0.00    -0.348 N 
ATOM     10  H6  UNL     1      16.486  20.697  20.758  1.00  0.00     0.166 HD
HETATM   11  C23 UNL     1      14.972  20.677  19.434  1.00  0.00     0.069 A 
HETATM   12  C24 UNL     1      14.422  19.465  19.871  1.00  0.00    -0.025 A 
HETATM   13  C25 UNL     1      15.077  18.784  20.992  1.00  0.00     0.051 C 
ENDROOT
BRANCH   7  14
HETATM   14  C10 UNL     1      16.570  24.312  18.038  1.00  0.00     0.151 C 
BRANCH  14  15
HETATM   15  O1  UNL     1      16.057  25.390  18.562  1.00  0.00    -0.346 OA
ATOM     16  H1  UNL     1      16.594  25.819  19.218  1.00  0.00     0.219 HD
ENDBRANCH  14  15
BRANCH  14  17
HETATM   17  N3  UNL     1      17.520  24.598  17.060  1.00  0.00    -0.370 N 
ATOM     18  H3  UNL     1      18.505  24.485  17.300  1.00  0.00     0.161 HD
BRANCH  17  19
HETATM   19  C11 UNL     1      17.189  25.052  15.713  1.00  0.00     0.127 C 
BRANCH  19  20
HETATM   20  C12 UNL     1      18.342  24.888  14.765  1.00  0.00     0.064 C 
BRANCH  20  21
HETATM   21  C13 UNL     1      18.769  26.236  14.228  1.00  0.00     0.065 C 
BRANCH  21  22
HETATM   22  N4  UNL     1      20.143  26.502  14.268  1.00  0.00    -0.370 N 
HETATM   23  C14 UNL     1      20.864  26.320  15.463  1.00  0.00     0.089 C 
HETATM   24  C15 UNL     1      21.441  27.590  16.037  1.00  0.00     0.212 C 
HETATM   25  O2  UNL     1      21.251  28.701  15.270  1.00  0.00    -0.385 OA
HETATM   26  C16 UNL     1      21.434  28.555  13.915  1.00  0.00     0.188 C 
HETATM   27  C17 UNL     1      20.667  27.408  13.317  1.00  0.00     0.153 C 
ENDBRANCH  21  22
ENDBRANCH  20  21
ENDBRANCH  19  20
ENDBRANCH  17  19
ENDBRANCH  14  17
ENDBRANCH   7  14
BRANCH   6  28
HETATM   28  N2  UNL     1      14.383  23.205  16.972  1.00  0.00    -0.396 N 
ATOM     29  H22 UNL     1      14.864  23.207  16.073  1.00  0.00     0.156 HD
ATOM     30  H21 UNL     1      13.506  23.717  17.074  1.00  0.00     0.156 HD
ENDBRANCH   6  28
BRANCH   8  31
HETATM   31  S1  UNL     1      18.069  22.970  20.471  1.00  0.00    -0.102 SA
BRANCH  31  32
HETATM   32  C19 UNL     1      19.576  22.469  19.661  1.00  0.00     0.183 C 
BRANCH  32  33
HETATM   33  C20 UNL     1      20.291  23.490  18.891  1.00  0.00     0.228 C 
HETATM   34  O3  UNL     1      20.175  23.609  17.664  1.00  0.00    -0.273 OA
HETATM   35  N5  UNL     1      21.147  24.372  19.589  1.00  0.00    -0.360 N 
HETATM   36  C21 UNL     1      21.869  25.389  18.871  1.00  0.00     0.152 C 
HETATM   37  C22 UNL     1      21.291  24.265  21.018  1.00  0.00     0.152 C 
ENDBRANCH  32  33
ENDBRANCH  31  32
ENDBRANCH   8  31
BRANCH   1  38
HETATM   38  C4  UNL     1      12.670  17.641  19.671  1.00  0.00     0.040 C 
BRANCH  38  39
HETATM   39  C3  UNL     1      11.268  17.497  19.152  1.00  0.00     0.004 C 
BRANCH  39  40
HETATM   40  C2  UNL     1      10.993  16.275  18.345  1.00  0.00    -0.004 C 
HETATM   41  C1  UNL     1      10.850  16.763  16.889  1.00  0.00     0.005 C 
ENDBRANCH  39  40
ENDBRANCH  38  39
ENDBRANCH   1  38
TORSDOF 14
ENDMDL
MODEL 4
REMARK VINA RESULT: -8.481832945      2.140      3.831
REMARK  14 active torsions:
REMARK  status: ('A' for Active; 'I' for Inactive)
REMARK    1  A    between atoms: C2_2  and  C3_3 
REMARK    2  A    between atoms: C3_3  and  C4_4 
REMARK    3  A    between atoms: C4_4  and  C5_5 
REMARK    4  A    between atoms: C8_10  and  N2_11 
REMARK    5  A    between atoms: C9_14  and  C10_15 
REMARK    6  A    between atoms: C10_15  and  O1_16 
REMARK    7  A    between atoms: C10_15  and  N3_18 
REMARK    8  A    between atoms: N3_18  and  C11_20 
REMARK    9  A    between atoms: C11_20  and  C12_21 
REMARK   10  A    between atoms: C12_21  and  C13_22 
REMARK   11  A    between atoms: C13_22  and  N4_23 
REMARK   12  A    between atoms: C18_29  and  S1_30 
REMARK   13  A    between atoms: S1_30  and  C19_31 
REMARK   14  A    between atoms: C19_31  and  C20_32 
REMARK       I    between atoms: C20_32  and  N5_34 
ROOT
HETATM    1  C5  UNL     1      20.273  26.230  15.520  1.00  0.00    -0.035 A 
HETATM    2  C6  UNL     1      20.231  26.402  16.906  1.00  0.00     0.096 A 
HETATM    3  N1  UNL     1      19.212  25.882  17.635  1.00  0.00    -0.362 N 
ATOM      4  H1  UNL     1      19.216  26.029  18.645  1.00  0.00     0.165 HD
HETATM    5  C7  UNL     1      18.198  25.184  17.100  1.00  0.00     0.087 A 
HETATM    6  C8  UNL     1      17.191  24.674  17.885  1.00  0.00     0.072 A 
HETATM    7  C9  UNL     1      16.144  23.943  17.286  1.00  0.00     0.076 A 
HETATM    8  C18 UNL     1      16.159  23.761  15.920  1.00  0.00     0.087 A 
HETATM    9  N6  UNL     1      17.198  24.300  15.212  1.00  0.00    -0.348 N 
ATOM     10  H6  UNL     1      17.203  24.160  14.202  1.00  0.00     0.166 HD
HETATM   11  C23 UNL     1      18.200  24.991  15.738  1.00  0.00     0.069 A 
HETATM   12  C24 UNL     1      19.240  25.517  14.960  1.00  0.00    -0.025 A 
HETATM   13  C25 UNL     1      19.187  25.294  13.512  1.00  0.00     0.051 C 
ENDROOT
BRANCH   7  14
HETATM   14  C10 UNL     1      15.130  23.427  18.156  1.00  0.00     0.151 C 
BRANCH  14  15
HETATM   15  O1  UNL     1      14.192  24.271  18.484  1.00  0.00    -0.346 OA
ATOM     16  H1  UNL     1      14.030  24.359  19.416  1.00  0.00     0.219 HD
ENDBRANCH  14  15
BRANCH  14  17
HETATM   17  N3  UNL     1      14.943  22.175  18.739  1.00  0.00    -0.370 N 
ATOM     18  H3  UNL     1      14.057  21.992  19.210  1.00  0.00     0.161 HD
BRANCH  17  19
HETATM   19  C11 UNL     1      15.941  21.110  18.716  1.00  0.00     0.127 C 
BRANCH  19  20
HETATM   20  C12 UNL     1      17.035  21.342  19.717  1.00  0.00     0.064 C 
BRANCH  20  21
HETATM   21  C13 UNL     1      18.345  21.598  19.005  1.00  0.00     0.065 C 
BRANCH  21  22
HETATM   22  N4  UNL     1      19.391  22.080  19.802  1.00  0.00    -0.370 N 
HETATM   23  C14 UNL     1      19.149  22.441  21.140  1.00  0.00     0.089 C 
HETATM   24  C15 UNL     1      19.353  23.906  21.433  1.00  0.00     0.212 C 
HETATM   25  O2  UNL     1      19.821  24.638  20.383  1.00  0.00    -0.385 OA
HETATM   26  C16 UNL     1      20.815  24.066  19.625  1.00  0.00     0.188 C 
HETATM   27  C17 UNL     1      20.496  22.675  19.151  1.00  0.00     0.153 C 
ENDBRANCH  21  22
ENDBRANCH  20  21
ENDBRANCH  19  20
ENDBRANCH  17  19
ENDBRANCH  14  17
ENDBRANCH   7  14
BRANCH   6  28
HETATM   28  N2  UNL     1      17.166  24.838  19.160  1.00  0.00    -0.396 N 
ATOM     29  H22 UNL     1      16.971  25.771  19.523  1.00  0.00     0.156 HD
ATOM     30  H21 UNL     1      17.332  24.070  19.810  1.00  0.00     0.156 HD
ENDBRANCH   6  28
BRANCH   8  31
HETATM   31  S1  UNL     1      14.876  22.890  15.055  1.00  0.00    -0.102 SA
BRANCH  31  32
HETATM   32  C19 UNL     1      15.041  21.126  15.247  1.00  0.00     0.183 C 
BRANCH  32  33
HETATM   33  C20 UNL     1      13.813  20.363  15.485  1.00  0.00     0.228 C 
HETATM   34  O3  UNL     1      13.252  20.322  16.589  1.00  0.00    -0.273 OA
HETATM   35  N5  UNL     1      13.253  19.646  14.403  1.00  0.00    -0.360 N 
HETATM   36  C21 UNL     1      12.049  18.883  14.595  1.00  0.00     0.152 C 
HETATM   37  C22 UNL     1      13.878  19.686  13.106  1.00  0.00     0.152 C 
ENDBRANCH  32  33
ENDBRANCH  31  32
ENDBRANCH   8  31
BRANCH   1  38
HETATM   38  C4  UNL     1      21.422  26.797  14.775  1.00  0.00     0.040 C 
BRANCH  38  39
HETATM   39  C3  UNL     1      21.279  28.268  14.507  1.00  0.00     0.004 C 
BRANCH  39  40
HETATM   40  C2  UNL     1      22.550  29.028  14.347  1.00  0.00    -0.004 C 
HETATM   41  C1  UNL     1      23.483  28.516  15.464  1.00  0.00     0.005 C 
ENDBRANCH  39  40
ENDBRANCH  38  39
ENDBRANCH   1  38
TORSDOF 14
ENDMDL
MODEL 5
REMARK VINA RESULT: -8.340184207      2.127      7.264
REMARK  14 active torsions:
REMARK  status: ('A' for Active; 'I' for Inactive)
REMARK    1  A    between atoms: C2_2  and  C3_3 
REMARK    2  A    between atoms: C3_3  and  C4_4 
REMARK    3  A    between atoms: C4_4  and  C5_5 
REMARK    4  A    between atoms: C8_10  and  N2_11 
REMARK    5  A    between atoms: C9_14  and  C10_15 
REMARK    6  A    between atoms: C10_15  and  O1_16 
REMARK    7  A    between atoms: C10_15  and  N3_18 
REMARK    8  A    between atoms: N3_18  and  C11_20 
REMARK    9  A    between atoms: C11_20  and  C12_21 
REMARK   10  A    between atoms: C12_21  and  C13_22 
REMARK   11  A    between atoms: C13_22  and  N4_23 
REMARK   12  A    between atoms: C18_29  and  S1_30 
REMARK   13  A    between atoms: S1_30  and  C19_31 
REMARK   14  A    between atoms: C19_31  and  C20_32 
REMARK       I    between atoms: C20_32  and  N5_34 
ROOT
HETATM    1  C5  UNL     1      13.392  20.938  14.129  1.00  0.00    -0.035 A 
HETATM    2  C6  UNL     1      12.763  21.254  15.336  1.00  0.00     0.096 A 
HETATM    3  N1  UNL     1      13.395  22.013  16.266  1.00  0.00    -0.362 N 
ATOM      4  H1  UNL     1      12.902  22.223  17.134  1.00  0.00     0.165 HD
HETATM    5  C7  UNL     1      14.634  22.503  16.105  1.00  0.00     0.087 A 
HETATM    6  C8  UNL     1      15.228  23.272  17.079  1.00  0.00     0.072 A 
HETATM    7  C9  UNL     1      16.530  23.772  16.872  1.00  0.00     0.076 A 
HETATM    8  C18 UNL     1      17.177  23.473  15.693  1.00  0.00     0.087 A 
HETATM    9  N6  UNL     1      16.515  22.702  14.775  1.00  0.00    -0.348 N 
ATOM     10  H6  UNL     1      16.999  22.486  13.904  1.00  0.00     0.166 HD
HETATM   11  C23 UNL     1      15.292  22.215  14.932  1.00  0.00     0.069 A 
HETATM   12  C24 UNL     1      14.663  21.435  13.954  1.00  0.00    -0.025 A 
HETATM   13  C25 UNL     1      15.412  21.146  12.727  1.00  0.00     0.051 C 
ENDROOT
BRANCH   7  14
HETATM   14  C10 UNL     1      17.092  24.576  17.916  1.00  0.00     0.151 C 
BRANCH  14  15
HETATM   15  O1  UNL     1      16.520  25.734  18.098  1.00  0.00    -0.346 OA
ATOM     16  H1  UNL     1      16.766  26.411  17.478  1.00  0.00     0.219 HD
ENDBRANCH  14  15
BRANCH  14  17
HETATM   17  N3  UNL     1      18.152  24.365  18.795  1.00  0.00    -0.370 N 
ATOM     18  H3  UNL     1      18.577  25.179  19.239  1.00  0.00     0.161 HD
BRANCH  17  19
HETATM   19  C11 UNL     1      18.690  23.047  19.119  1.00  0.00     0.127 C 
BRANCH  19  20
HETATM   20  C12 UNL     1      17.738  22.240  19.954  1.00  0.00     0.064 C 
BRANCH  20  21
HETATM   21  C13 UNL     1      17.327  20.989  19.210  1.00  0.00     0.065 C 
BRANCH  21  22
HETATM   22  N4  UNL     1      15.974  20.640  19.302  1.00  0.00    -0.370 N 
HETATM   23  C14 UNL     1      15.284  20.800  20.519  1.00  0.00     0.089 C 
HETATM   24  C15 UNL     1      14.807  19.509  21.135  1.00  0.00     0.212 C 
HETATM   25  O2  UNL     1      15.039  18.397  20.381  1.00  0.00    -0.385 OA
HETATM   26  C16 UNL     1      14.802  18.505  19.031  1.00  0.00     0.188 C 
HETATM   27  C17 UNL     1      15.475  19.686  18.386  1.00  0.00     0.153 C 
ENDBRANCH  21  22
ENDBRANCH  20  21
ENDBRANCH  19  20
ENDBRANCH  17  19
ENDBRANCH  14  17
ENDBRANCH   7  14
BRANCH   6  28
HETATM   28  N2  UNL     1      14.635  23.557  18.183  1.00  0.00    -0.396 N 
ATOM     29  H22 UNL     1      13.968  22.884  18.562  1.00  0.00     0.156 HD
ATOM     30  H21 UNL     1      14.813  24.426  18.687  1.00  0.00     0.156 HD
ENDBRANCH   6  28
BRANCH   8  31
HETATM   31  S1  UNL     1      18.829  24.017  15.340  1.00  0.00    -0.102 SA
BRANCH  31  32
HETATM   32  C19 UNL     1      18.940  25.796  15.320  1.00  0.00     0.183 C 
BRANCH  32  33
HETATM   33  C20 UNL     1      20.010  26.406  16.115  1.00  0.00     0.228 C 
HETATM   34  O3  UNL     1      20.162  26.178  17.323  1.00  0.00    -0.273 OA
HETATM   35  N5  UNL     1      20.900  27.291  15.465  1.00  0.00    -0.360 N 
HETATM   36  C21 UNL     1      21.963  27.913  16.209  1.00  0.00     0.152 C 
HETATM   37  C22 UNL     1      20.754  27.564  14.059  1.00  0.00     0.152 C 
ENDBRANCH  32  33
ENDBRANCH  31  32
ENDBRANCH   8  31
BRANCH   1  38
HETATM   38  C4  UNL     1      12.648  20.127  13.138  1.00  0.00     0.040 C 
BRANCH  38  39
HETATM   39  C3  UNL     1      12.461  18.700  13.568  1.00  0.00     0.004 C 
BRANCH  39  40
HETATM   40  C2  UNL     1      13.359  17.702  12.923  1.00  0.00    -0.004 C 
HETATM   41  C1  UNL     1      12.423  16.680  12.244  1.00  0.00     0.005 C 
ENDBRANCH  39  40
ENDBRANCH  38  39
ENDBRANCH   1  38
TORSDOF 14
ENDMDL
