MODEL 1
REMARK VINA RESULT: -8.461556438      0.000      0.000
REMARK  14 active torsions:
REMARK  status: ('A' for Active; 'I' for Inactive)
REMARK    1  A    between atoms: C2_2  and  C3_3 
REMARK    2  A    between atoms: C3_3  and  C5_5 
REMARK    3  A    between atoms: C3_3  and  C22_30 
REMARK    4  A    between atoms: C6_6  and  C7_7 
REMARK    5  A    between atoms: C9_9  and  C10_10 
REMARK    6  A    between atoms: C10_10  and  C11_11 
REMARK    7  A    between atoms: N1_14  and  C12_15 
REMARK    8  A    between atoms: C12_15  and  C13_16 
REMARK    9  A    between atoms: C13_16  and  C14_17 
REMARK   10  A    between atoms: C17_20  and  C18_21 
REMARK   11  A    between atoms: C18_21  and  O3_22 
REMARK   12  A    between atoms: C21_27  and  O5_28 
REMARK   13  A    between atoms: C22_30  and  C23_31 
REMARK   14  A    between atoms: C23_31  and  N2_32 
ROOT
HETATM    1  C7  UNL     1      18.479  24.737  16.155  1.00  0.00     0.039 C 
HETATM    2  C8  UNL     1      18.533  25.383  17.462  1.00  0.00     0.037 C 
HETATM    3  C9  UNL     1      19.703  25.078  18.381  1.00  0.00     0.095 C 
HETATM    4  N1  UNL     1      20.733  26.116  18.216  1.00  0.00    -0.375 N 
HETATM    5  C17 UNL     1      21.396  25.986  16.983  1.00  0.00     0.177 C 
HETATM    6  C19 UNL     1      20.628  26.896  16.026  1.00  0.00     0.154 C 
HETATM    7  O4  UNL     1      21.307  27.877  15.797  1.00  0.00    -0.296 OA
HETATM    8  C20 UNL     1      19.356  26.957  15.311  1.00  0.00     0.113 C 
HETATM    9  C21 UNL     1      18.768  25.632  14.965  1.00  0.00     0.133 C 
ENDROOT
BRANCH   1  10
HETATM   10  C6  UNL     1      17.193  24.060  15.825  1.00  0.00    -0.023 C 
HETATM   11  C5  UNL     1      16.951  22.781  15.813  1.00  0.00    -0.021 C 
BRANCH  11  12
HETATM   12  C3  UNL     1      15.574  22.308  15.446  1.00  0.00    -0.025 C 
HETATM   13  C4  UNL     1      15.489  21.917  13.985  1.00  0.00     0.019 C 
BRANCH  12  14
HETATM   14  C2  UNL     1      14.585  23.409  15.737  1.00  0.00     0.009 C 
HETATM   15  C1  UNL     1      13.252  23.153  15.068  1.00  0.00     0.006 C 
ENDBRANCH  12  14
BRANCH  12  16
HETATM   16  C22 UNL     1      15.195  21.105  16.285  1.00  0.00     0.043 C 
BRANCH  16  17
HETATM   17  C23 UNL     1      15.280  21.398  17.756  1.00  0.00     0.273 C 
BRANCH  17  18
HETATM   18  N2  UNL     1      14.709  20.319  18.501  1.00  0.00     0.091 N 
HETATM   19  C24 UNL     1      15.223  20.344  19.829  1.00  0.00     0.302 C 
HETATM   20  C25 UNL     1      14.614  19.377  20.784  1.00  0.00     0.302 C 
HETATM   21  N3  UNL     1      13.181  19.232  20.585  1.00  0.00     0.087 N 
HETATM   22  C26 UNL     1      12.757  18.098  21.395  1.00  0.00     0.310 C 
HETATM   23  C27 UNL     1      12.891  18.925  19.212  1.00  0.00     0.302 C 
HETATM   24  C28 UNL     1      13.323  20.093  18.344  1.00  0.00     0.302 C 
ENDBRANCH  17  18
ENDBRANCH  16  17
ENDBRANCH  12  16
ENDBRANCH  11  12
ENDBRANCH   1  10
BRANCH   9  25
HETATM   25  O5  UNL     1      17.584  25.882  14.275  1.00  0.00    -0.394 OA
ATOM     26  H5  UNL     1      17.068  25.085  14.235  1.00  0.00     0.210 HD
ENDBRANCH   9  25
BRANCH   3  27
HETATM   27  C10 UNL     1      20.120  23.675  18.373  1.00  0.00     0.138 C 
BRANCH  27  28
HETATM   28  C11 UNL     1      19.319  22.704  19.154  1.00  0.00     0.174 C 
HETATM   29  O1  UNL     1      19.120  23.061  20.374  1.00  0.00    -0.648 OA
HETATM   30  O2  UNL     1      18.801  21.524  18.703  1.00  0.00    -0.648 OA
ENDBRANCH  27  28
ENDBRANCH   3  27
BRANCH   4  31
HETATM   31  C12 UNL     1      21.412  26.376  19.411  1.00  0.00     0.060 C 
BRANCH  31  32
HETATM   32  C13 UNL     1      20.565  26.271  20.637  1.00  0.00     0.048 C 
BRANCH  32  33
HETATM   33  C14 UNL     1      21.329  25.660  21.804  1.00  0.00    -0.018 C 
HETATM   34  C15 UNL     1      22.578  24.962  21.378  1.00  0.00     0.010 C 
HETATM   35  C16 UNL     1      21.738  26.820  22.706  1.00  0.00     0.010 C 
ENDBRANCH  32  33
ENDBRANCH  31  32
ENDBRANCH   4  31
BRANCH   5  36
HETATM   36  C18 UNL     1      22.841  26.327  16.844  1.00  0.00     0.197 C 
BRANCH  36  37
HETATM   37  O3  UNL     1      23.530  25.653  15.860  1.00  0.00    -0.398 OA
ATOM     38  H3  UNL     1      24.460  25.839  15.800  1.00  0.00     0.209 HD
ENDBRANCH  36  37
ENDBRANCH   5  36
TORSDOF 14
ENDMDL
MODEL 2
REMARK VINA RESULT: -8.196640829      1.699      3.936
REMARK  14 active torsions:
REMARK  status: ('A' for Active; 'I' for Inactive)
REMARK    1  A    between atoms: C2_2  and  C3_3 
REMARK    2  A    between atoms: C3_3  and  C5_5 
REMARK    3  A    between atoms: C3_3  and  C22_30 
REMARK    4  A    between atoms: C6_6  and  C7_7 
REMARK    5  A    between atoms: C9_9  and  C10_10 
REMARK    6  A    between atoms: C10_10  and  C11_11 
REMARK    7  A    between atoms: N1_14  and  C12_15 
REMARK    8  A    between atoms: C12_15  and  C13_16 
REMARK    9  A    between atoms: C13_16  and  C14_17 
REMARK   10  A    between atoms: C17_20  and  C18_21 
REMARK   11  A    between atoms: C18_21  and  O3_22 
REMARK   12  A    between atoms: C21_27  and  O5_28 
REMARK   13  A    between atoms: C22_30  and  C23_31 
REMARK   14  A    between atoms: C23_31  and  N2_32 
ROOT
HETATM    1  C7  UNL     1      18.519  24.137  16.744  1.00  0.00     0.039 C 
HETATM    2  C8  UNL     1      19.727  24.140  15.926  1.00  0.00     0.037 C 
HETATM    3  C9  UNL     1      20.304  25.471  15.477  1.00  0.00     0.095 C 
HETATM    4  N1  UNL     1      21.360  25.883  16.415  1.00  0.00    -0.375 N 
HETATM    5  C17 UNL     1      20.819  26.294  17.646  1.00  0.00     0.177 C 
HETATM    6  C19 UNL     1      20.829  25.040  18.518  1.00  0.00     0.154 C 
HETATM    7  O4  UNL     1      21.702  25.157  19.353  1.00  0.00    -0.296 OA
HETATM    8  C20 UNL     1      20.132  23.765  18.660  1.00  0.00     0.113 C 
HETATM    9  C21 UNL     1      18.713  23.773  18.203  1.00  0.00     0.133 C 
ENDROOT
BRANCH   1  10
HETATM   10  C6  UNL     1      17.422  23.248  16.267  1.00  0.00    -0.023 C 
HETATM   11  C5  UNL     1      16.169  23.557  16.099  1.00  0.00    -0.021 C 
BRANCH  11  12
HETATM   12  C3  UNL     1      15.222  22.499  15.608  1.00  0.00    -0.025 C 
HETATM   13  C4  UNL     1      15.595  22.017  14.222  1.00  0.00     0.019 C 
BRANCH  12  14
HETATM   14  C2  UNL     1      13.824  23.064  15.592  1.00  0.00     0.009 C 
HETATM   15  C1  UNL     1      12.859  22.146  14.873  1.00  0.00     0.006 C 
ENDBRANCH  12  14
BRANCH  12  16
HETATM   16  C22 UNL     1      15.237  21.311  16.547  1.00  0.00     0.043 C 
BRANCH  16  17
HETATM   17  C23 UNL     1      14.689  21.659  17.902  1.00  0.00     0.273 C 
BRANCH  17  18
HETATM   18  N2  UNL     1      14.325  20.466  18.602  1.00  0.00     0.091 N 
HETATM   19  C24 UNL     1      14.907  20.490  19.901  1.00  0.00     0.302 C 
HETATM   20  C25 UNL     1      14.503  19.390  20.820  1.00  0.00     0.302 C 
HETATM   21  N3  UNL     1      13.096  19.045  20.682  1.00  0.00     0.087 N 
HETATM   22  C26 UNL     1      12.890  17.815  21.436  1.00  0.00     0.310 C 
HETATM   23  C27 UNL     1      12.775  18.778  19.308  1.00  0.00     0.302 C 
HETATM   24  C28 UNL     1      12.981  20.045  18.499  1.00  0.00     0.302 C 
ENDBRANCH  17  18
ENDBRANCH  16  17
ENDBRANCH  12  16
ENDBRANCH  11  12
ENDBRANCH   1  10
BRANCH   9  25
HETATM   25  O5  UNL     1      18.206  22.496  18.434  1.00  0.00    -0.394 OA
ATOM     26  H5  UNL     1      17.506  22.545  19.074  1.00  0.00     0.210 HD
ENDBRANCH   9  25
BRANCH   3  27
HETATM   27  C10 UNL     1      19.295  26.457  15.086  1.00  0.00     0.138 C 
BRANCH  27  28
HETATM   28  C11 UNL     1      19.757  27.716  14.455  1.00  0.00     0.174 C 
HETATM   29  O1  UNL     1      19.813  27.659  13.170  1.00  0.00    -0.648 OA
HETATM   30  O2  UNL     1      20.104  28.870  15.095  1.00  0.00    -0.648 OA
ENDBRANCH  27  28
ENDBRANCH   3  27
BRANCH   4  31
HETATM   31  C12 UNL     1      22.387  26.584  15.773  1.00  0.00     0.060 C 
BRANCH  31  32
HETATM   32  C13 UNL     1      23.763  26.113  16.113  1.00  0.00     0.048 C 
BRANCH  32  33
HETATM   33  C14 UNL     1      24.735  27.273  16.278  1.00  0.00    -0.018 C 
HETATM   34  C15 UNL     1      25.976  27.111  15.465  1.00  0.00     0.010 C 
HETATM   35  C16 UNL     1      24.013  28.516  15.767  1.00  0.00     0.010 C 
ENDBRANCH  32  33
ENDBRANCH  31  32
ENDBRANCH   4  31
BRANCH   5  36
HETATM   36  C18 UNL     1      21.453  27.384  18.442  1.00  0.00     0.197 C 
BRANCH  36  37
HETATM   37  O3  UNL     1      20.610  28.104  19.259  1.00  0.00    -0.398 OA
ATOM     38  H3  UNL     1      20.575  29.041  19.102  1.00  0.00     0.209 HD
ENDBRANCH  36  37
ENDBRANCH   5  36
TORSDOF 14
ENDMDL
MODEL 3
REMARK VINA RESULT: -8.168801607      1.739      4.235
REMARK  14 active torsions:
REMARK  status: ('A' for Active; 'I' for Inactive)
REMARK    1  A    between atoms: C2_2  and  C3_3 
REMARK    2  A    between atoms: C3_3  and  C5_5 
REMARK    3  A    between atoms: C3_3  and  C22_30 
REMARK    4  A    between atoms: C6_6  and  C7_7 
REMARK    5  A    between atoms: C9_9  and  C10_10 
REMARK    6  A    between atoms: C10_10  and  C11_11 
REMARK    7  A    between atoms: N1_14  and  C12_15 
REMARK    8  A    between atoms: C12_15  and  C13_16 
REMARK    9  A    between atoms: C13_16  and  C14_17 
REMARK   10  A    between atoms: C17_20  and  C18_21 
REMARK   11  A    between atoms: C18_21  and  O3_22 
REMARK   12  A    between atoms: C21_27  and  O5_28 
REMARK   13  A    between atoms: C22_30  and  C23_31 
REMARK   14  A    between atoms: C23_31  and  N2_32 
ROOT
HETATM    1  C7  UNL     1      18.848  24.443  18.679  1.00  0.00     0.039 C 
HETATM    2  C8  UNL     1      20.187  24.410  18.102  1.00  0.00     0.037 C 
HETATM    3  C9  UNL     1      20.841  25.719  17.694  1.00  0.00     0.095 C 
HETATM    4  N1  UNL     1      21.705  26.191  18.788  1.00  0.00    -0.375 N 
HETATM    5  C17 UNL     1      20.946  26.665  19.871  1.00  0.00     0.177 C 
HETATM    6  C19 UNL     1      20.789  25.461  20.799  1.00  0.00     0.154 C 
HETATM    7  O4  UNL     1      21.492  25.631  21.774  1.00  0.00    -0.296 OA
HETATM    8  C20 UNL     1      20.074  24.190  20.880  1.00  0.00     0.113 C 
HETATM    9  C21 UNL     1      18.766  24.162  20.167  1.00  0.00     0.133 C 
ENDROOT
BRANCH   1  10
HETATM   10  C6  UNL     1      17.857  23.520  18.057  1.00  0.00    -0.023 C 
HETATM   11  C5  UNL     1      16.743  23.838  17.463  1.00  0.00    -0.021 C 
BRANCH  11  12
HETATM   12  C3  UNL     1      15.883  22.742  16.903  1.00  0.00    -0.025 C 
HETATM   13  C4  UNL     1      16.671  21.466  16.696  1.00  0.00     0.019 C 
BRANCH  12  14
HETATM   14  C2  UNL     1      15.300  23.200  15.590  1.00  0.00     0.009 C 
HETATM   15  C1  UNL     1      15.709  22.292  14.450  1.00  0.00     0.006 C 
ENDBRANCH  12  14
BRANCH  12  16
HETATM   16  C22 UNL     1      14.736  22.447  17.847  1.00  0.00     0.043 C 
BRANCH  16  17
HETATM   17  C23 UNL     1      14.203  21.054  17.664  1.00  0.00     0.273 C 
BRANCH  17  18
HETATM   18  N2  UNL     1      13.898  20.478  18.937  1.00  0.00     0.091 N 
HETATM   19  C24 UNL     1      12.809  19.573  18.792  1.00  0.00     0.302 C 
HETATM   20  C25 UNL     1      12.460  18.770  19.997  1.00  0.00     0.302 C 
HETATM   21  N3  UNL     1      13.638  18.344  20.736  1.00  0.00     0.087 N 
HETATM   22  C26 UNL     1      13.165  17.794  21.999  1.00  0.00     0.310 C 
HETATM   23  C27 UNL     1      14.481  19.469  21.033  1.00  0.00     0.302 C 
HETATM   24  C28 UNL     1      14.989  20.061  19.731  1.00  0.00     0.302 C 
ENDBRANCH  17  18
ENDBRANCH  16  17
ENDBRANCH  12  16
ENDBRANCH  11  12
ENDBRANCH   1  10
BRANCH   9  25
HETATM   25  O5  UNL     1      18.221  22.896  20.370  1.00  0.00    -0.394 OA
ATOM     26  H5  UNL     1      18.853  22.349  20.823  1.00  0.00     0.210 HD
ENDBRANCH   9  25
BRANCH   3  27
HETATM   27  C10 UNL     1      19.926  26.674  17.067  1.00  0.00     0.138 C 
BRANCH  27  28
HETATM   28  C11 UNL     1      20.293  27.227  15.743  1.00  0.00     0.174 C 
HETATM   29  O1  UNL     1      20.743  26.344  14.921  1.00  0.00    -0.648 OA
HETATM   30  O2  UNL     1      20.192  28.529  15.346  1.00  0.00    -0.648 OA
ENDBRANCH  27  28
ENDBRANCH   3  27
BRANCH   4  31
HETATM   31  C12 UNL     1      22.836  26.863  18.310  1.00  0.00     0.060 C 
BRANCH  31  32
HETATM   32  C13 UNL     1      23.719  26.038  17.432  1.00  0.00     0.048 C 
BRANCH  32  33
HETATM   33  C14 UNL     1      24.035  26.745  16.121  1.00  0.00    -0.018 C 
HETATM   34  C15 UNL     1      23.830  28.222  16.193  1.00  0.00     0.010 C 
HETATM   35  C16 UNL     1      25.516  26.502  15.846  1.00  0.00     0.010 C 
ENDBRANCH  32  33
ENDBRANCH  31  32
ENDBRANCH   4  31
BRANCH   5  36
HETATM   36  C18 UNL     1      21.422  27.802  20.709  1.00  0.00     0.197 C 
BRANCH  36  37
HETATM   37  O3  UNL     1      20.444  28.558  21.317  1.00  0.00    -0.398 OA
ATOM     38  H3  UNL     1      20.386  29.465  21.042  1.00  0.00     0.209 HD
ENDBRANCH  36  37
ENDBRANCH   5  36
TORSDOF 14
ENDMDL
MODEL 4
REMARK VINA RESULT: -8.046724415      1.719      3.883
REMARK  14 active torsions:
REMARK  status: ('A' for Active; 'I' for Inactive)
REMARK    1  A    between atoms: C2_2  and  C3_3 
REMARK    2  A    between atoms: C3_3  and  C5_5 
REMARK    3  A    between atoms: C3_3  and  C22_30 
REMARK    4  A    between atoms: C6_6  and  C7_7 
REMARK    5  A    between atoms: C9_9  and  C10_10 
REMARK    6  A    between atoms: C10_10  and  C11_11 
REMARK    7  A    between atoms: N1_14  and  C12_15 
REMARK    8  A    between atoms: C12_15  and  C13_16 
REMARK    9  A    between atoms: C13_16  and  C14_17 
REMARK   10  A    between atoms: C17_20  and  C18_21 
REMARK   11  A    between atoms: C18_21  and  O3_22 
REMARK   12  A    between atoms: C21_27  and  O5_28 
REMARK   13  A    between atoms: C22_30  and  C23_31 
REMARK   14  A    between atoms: C23_31  and  N2_32 
ROOT
HETATM    1  C7  UNL     1      18.420  24.646  18.487  1.00  0.00     0.039 C 
HETATM    2  C8  UNL     1      19.725  24.390  17.888  1.00  0.00     0.037 C 
HETATM    3  C9  UNL     1      20.581  25.572  17.465  1.00  0.00     0.095 C 
HETATM    4  N1  UNL     1      21.529  25.895  18.543  1.00  0.00    -0.375 N 
HETATM    5  C17 UNL     1      20.877  26.489  19.637  1.00  0.00     0.177 C 
HETATM    6  C19 UNL     1      20.538  25.329  20.571  1.00  0.00     0.154 C 
HETATM    7  O4  UNL     1      21.275  25.382  21.535  1.00  0.00    -0.296 OA
HETATM    8  C20 UNL     1      19.623  24.195  20.668  1.00  0.00     0.113 C 
HETATM    9  C21 UNL     1      18.316  24.384  19.977  1.00  0.00     0.133 C 
ENDROOT
BRANCH   1  10
HETATM   10  C6  UNL     1      17.279  23.899  17.884  1.00  0.00    -0.023 C 
HETATM   11  C5  UNL     1      17.282  23.201  16.786  1.00  0.00    -0.021 C 
BRANCH  11  12
HETATM   12  C3  UNL     1      16.012  22.526  16.353  1.00  0.00    -0.025 C 
HETATM   13  C4  UNL     1      16.066  22.117  14.896  1.00  0.00     0.019 C 
BRANCH  12  14
HETATM   14  C2  UNL     1      14.857  23.470  16.575  1.00  0.00     0.009 C 
HETATM   15  C1  UNL     1      13.806  23.330  15.495  1.00  0.00     0.006 C 
ENDBRANCH  12  14
BRANCH  12  16
HETATM   16  C22 UNL     1      15.770  21.286  17.189  1.00  0.00     0.043 C 
BRANCH  16  17
HETATM   17  C23 UNL     1      14.889  21.570  18.372  1.00  0.00     0.273 C 
BRANCH  17  18
HETATM   18  N2  UNL     1      14.470  20.342  18.973  1.00  0.00     0.091 N 
HETATM   19  C24 UNL     1      14.946  20.290  20.314  1.00  0.00     0.302 C 
HETATM   20  C25 UNL     1      14.469  19.143  21.134  1.00  0.00     0.302 C 
HETATM   21  N3  UNL     1      13.078  18.813  20.867  1.00  0.00     0.087 N 
HETATM   22  C26 UNL     1      12.811  17.545  21.532  1.00  0.00     0.310 C 
HETATM   23  C27 UNL     1      12.867  18.626  19.458  1.00  0.00     0.302 C 
HETATM   24  C28 UNL     1      13.138  19.935  18.740  1.00  0.00     0.302 C 
ENDBRANCH  17  18
ENDBRANCH  16  17
ENDBRANCH  12  16
ENDBRANCH  11  12
ENDBRANCH   1  10
BRANCH   9  25
HETATM   25  O5  UNL     1      17.573  23.226  20.193  1.00  0.00    -0.394 OA
ATOM     26  H5  UNL     1      17.413  23.122  21.124  1.00  0.00     0.210 HD
ENDBRANCH   9  25
BRANCH   3  27
HETATM   27  C10 UNL     1      19.826  26.665  16.850  1.00  0.00     0.138 C 
BRANCH  27  28
HETATM   28  C11 UNL     1      20.381  27.295  15.629  1.00  0.00     0.174 C 
HETATM   29  O1  UNL     1      21.043  26.482  14.883  1.00  0.00    -0.648 OA
HETATM   30  O2  UNL     1      20.249  28.601  15.253  1.00  0.00    -0.648 OA
ENDBRANCH  27  28
ENDBRANCH   3  27
BRANCH   4  31
HETATM   31  C12 UNL     1      22.747  26.370  18.045  1.00  0.00     0.060 C 
BRANCH  31  32
HETATM   32  C13 UNL     1      23.946  25.623  18.531  1.00  0.00     0.048 C 
BRANCH  32  33
HETATM   33  C14 UNL     1      25.154  25.841  17.630  1.00  0.00    -0.018 C 
HETATM   34  C15 UNL     1      25.995  24.617  17.480  1.00  0.00     0.010 C 
HETATM   35  C16 UNL     1      24.604  26.192  16.251  1.00  0.00     0.010 C 
ENDBRANCH  32  33
ENDBRANCH  31  32
ENDBRANCH   4  31
BRANCH   5  36
HETATM   36  C18 UNL     1      21.549  27.532  20.463  1.00  0.00     0.197 C 
BRANCH  36  37
HETATM   37  O3  UNL     1      20.717  28.405  21.130  1.00  0.00    -0.398 OA
ATOM     38  H3  UNL     1      20.020  28.793  20.615  1.00  0.00     0.209 HD
ENDBRANCH  36  37
ENDBRANCH   5  36
TORSDOF 14
ENDMDL
MODEL 5
REMARK VINA RESULT: -7.849440267      2.363      5.103
REMARK  14 active torsions:
REMARK  status: ('A' for Active; 'I' for Inactive)
REMARK    1  A    between atoms: C2_2  and  C3_3 
REMARK    2  A    between atoms: C3_3  and  C5_5 
REMARK    3  A    between atoms: C3_3  and  C22_30 
REMARK    4  A    between atoms: C6_6  and  C7_7 
REMARK    5  A    between atoms: C9_9  and  C10_10 
REMARK    6  A    between atoms: C10_10  and  C11_11 
REMARK    7  A    between atoms: N1_14  and  C12_15 
REMARK    8  A    between atoms: C12_15  and  C13_16 
REMARK    9  A    between atoms: C13_16  and  C14_17 
REMARK   10  A    between atoms: C17_20  and  C18_21 
REMARK   11  A    between atoms: C18_21  and  O3_22 
REMARK   12  A    between atoms: C21_27  and  O5_28 
REMARK   13  A    between atoms: C22_30  and  C23_31 
REMARK   14  A    between atoms: C23_31  and  N2_32 
ROOT
HETATM    1  C7  UNL     1      18.874  24.466  18.730  1.00  0.00     0.039 C 
HETATM    2  C8  UNL     1      20.192  24.409  18.106  1.00  0.00     0.037 C 
HETATM    3  C9  UNL     1      20.845  25.704  17.657  1.00  0.00     0.095 C 
HETATM    4  N1  UNL     1      21.753  26.182  18.712  1.00  0.00    -0.375 N 
HETATM    5  C17 UNL     1      21.037  26.681  19.814  1.00  0.00     0.177 C 
HETATM    6  C19 UNL     1      20.901  25.492  20.765  1.00  0.00     0.154 C 
HETATM    7  O4  UNL     1      21.639  25.669  21.712  1.00  0.00    -0.296 OA
HETATM    8  C20 UNL     1      20.175  24.231  20.890  1.00  0.00     0.113 C 
HETATM    9  C21 UNL     1      18.841  24.208  20.224  1.00  0.00     0.133 C 
ENDROOT
BRANCH   1  10
HETATM   10  C6  UNL     1      17.851  23.546  18.157  1.00  0.00    -0.023 C 
HETATM   11  C5  UNL     1      16.732  23.869  17.576  1.00  0.00    -0.021 C 
BRANCH  11  12
HETATM   12  C3  UNL     1      15.838  22.775  17.068  1.00  0.00    -0.025 C 
HETATM   13  C4  UNL     1      14.600  22.623  17.927  1.00  0.00     0.019 C 
BRANCH  12  14
HETATM   14  C2  UNL     1      16.610  21.479  17.053  1.00  0.00     0.009 C 
HETATM   15  C1  UNL     1      15.939  20.419  17.899  1.00  0.00     0.006 C 
ENDBRANCH  12  14
BRANCH  12  16
HETATM   16  C22 UNL     1      15.401  23.075  15.649  1.00  0.00     0.043 C 
BRANCH  16  17
HETATM   17  C23 UNL     1      13.906  23.165  15.530  1.00  0.00     0.273 C 
BRANCH  17  18
HETATM   18  N2  UNL     1      13.421  22.117  14.687  1.00  0.00     0.091 N 
HETATM   19  C24 UNL     1      14.517  21.530  13.992  1.00  0.00     0.302 C 
HETATM   20  C25 UNL     1      14.206  20.318  13.184  1.00  0.00     0.302 C 
HETATM   21  N3  UNL     1      13.240  19.451  13.839  1.00  0.00     0.087 N 
HETATM   22  C26 UNL     1      12.840  18.452  12.857  1.00  0.00     0.310 C 
HETATM   23  C27 UNL     1      12.069  20.194  14.213  1.00  0.00     0.302 C 
HETATM   24  C28 UNL     1      12.458  21.243  15.238  1.00  0.00     0.302 C 
ENDBRANCH  17  18
ENDBRANCH  16  17
ENDBRANCH  12  16
ENDBRANCH  11  12
ENDBRANCH   1  10
BRANCH   9  25
HETATM   25  O5  UNL     1      18.291  22.951  20.465  1.00  0.00    -0.394 OA
ATOM     26  H5  UNL     1      18.965  22.368  20.793  1.00  0.00     0.210 HD
ENDBRANCH   9  25
BRANCH   3  27
HETATM   27  C10 UNL     1      19.919  26.661  17.048  1.00  0.00     0.138 C 
BRANCH  27  28
HETATM   28  C11 UNL     1      20.267  27.224  15.723  1.00  0.00     0.174 C 
HETATM   29  O1  UNL     1      20.618  26.336  14.860  1.00  0.00    -0.648 OA
HETATM   30  O2  UNL     1      20.243  28.541  15.365  1.00  0.00    -0.648 OA
ENDBRANCH  27  28
ENDBRANCH   3  27
BRANCH   4  31
HETATM   31  C12 UNL     1      22.873  26.834  18.185  1.00  0.00     0.060 C 
BRANCH  31  32
HETATM   32  C13 UNL     1      23.691  26.001  17.253  1.00  0.00     0.048 C 
BRANCH  32  33
HETATM   33  C14 UNL     1      24.039  26.754  15.976  1.00  0.00    -0.018 C 
HETATM   34  C15 UNL     1      23.814  28.225  16.090  1.00  0.00     0.010 C 
HETATM   35  C16 UNL     1      25.531  26.535  15.741  1.00  0.00     0.010 C 
ENDBRANCH  32  33
ENDBRANCH  31  32
ENDBRANCH   4  31
BRANCH   5  36
HETATM   36  C18 UNL     1      21.556  27.824  20.618  1.00  0.00     0.197 C 
BRANCH  36  37
HETATM   37  O3  UNL     1      20.611  28.572  21.286  1.00  0.00    -0.398 OA
ATOM     38  H3  UNL     1      20.927  29.079  22.026  1.00  0.00     0.209 HD
ENDBRANCH  36  37
ENDBRANCH   5  36
TORSDOF 14
ENDMDL
