MODEL 1
REMARK VINA RESULT: -8.616047607      0.000      0.000
REMARK  14 active torsions:
REMARK  status: ('A' for Active; 'I' for Inactive)
REMARK    1  A    between atoms: C2_2  and  C3_3 
REMARK    2  A    between atoms: C3_3  and  C4_4 
REMARK    3  A    between atoms: C4_4  and  C5_5 
REMARK    4  A    between atoms: C5_5  and  O1_6 
REMARK    5  A    between atoms: C5_5  and  C6_8 
REMARK       I    between atoms: C6_8  and  N1_10 
REMARK    6  A    between atoms: N1_10  and  C7_12 
REMARK    7  A    between atoms: C8_17  and  C9_18 
REMARK    8  A    between atoms: C9_18  and  C10_19 
REMARK    9  A    between atoms: C10_19  and  C11_20 
REMARK   10  A    between atoms: C11_20  and  C12_21 
REMARK   11  A    between atoms: C12_21  and  C13_22 
REMARK   12  A    between atoms: C14_24  and  N4_25 
REMARK       I    between atoms: N4_25  and  C15_27 
REMARK   13  A    between atoms: C15_27  and  C16_29 
REMARK   14  A    between atoms: C16_29  and  C17_30 
ROOT
HETATM    1  C10 UNL     1      18.571  25.530  13.666  1.00  0.00     0.007 C 
ENDROOT
BRANCH   1   2
HETATM    2  C9  UNL     1      17.611  26.241  14.596  1.00  0.00     0.066 C 
BRANCH   2   3
HETATM    3  C8  UNL     1      17.158  25.271  15.647  1.00  0.00     0.069 A 
HETATM    4  N3  UNL     1      16.700  25.515  16.866  1.00  0.00    -0.296 N 
HETATM    5  N2  UNL     1      16.362  24.562  17.625  1.00  0.00    -0.279 N 
ATOM      6  H3  UNL     1      16.621  26.477  17.195  1.00  0.00     0.187 HD
HETATM    7  C7  UNL     1      16.469  23.309  17.186  1.00  0.00     0.167 A 
ATOM      8  H2  UNL     1      16.010  24.751  18.563  1.00  0.00     0.189 HD
HETATM    9  S2  UNL     1      17.090  23.555  15.605  1.00  0.00    -0.038 SA
BRANCH   7  10
HETATM   10  N1  UNL     1      16.165  22.204  17.827  1.00  0.00    -0.304 N 
HETATM   11  C6  UNL     1      14.932  22.115  18.503  1.00  0.00     0.256 C 
HETATM   12  O2  UNL     1      14.214  23.096  18.773  1.00  0.00    -0.270 OA
ATOM     13  H1  UNL     1      16.814  21.417  17.834  1.00  0.00     0.171 HD
BRANCH  11  14
HETATM   14  C5  UNL     1      14.463  20.734  18.921  1.00  0.00     0.233 C 
BRANCH  14  15
HETATM   15  C4  UNL     1      15.195  20.398  20.157  1.00  0.00     0.010 C 
BRANCH  15  16
HETATM   16  C3  UNL     1      14.659  19.580  21.229  1.00  0.00    -0.028 C 
BRANCH  16  17
HETATM   17  C2  UNL     1      14.234  18.186  21.095  1.00  0.00     0.022 C 
HETATM   18  C1  UNL     1      12.873  17.796  21.548  1.00  0.00     0.009 C 
ENDBRANCH  16  17
ENDBRANCH  15  16
ENDBRANCH  14  15
BRANCH  14  19
HETATM   19  O1  UNL     1      14.559  19.884  17.854  1.00  0.00    -0.382 OA
ATOM     20  H1  UNL     1      15.237  20.042  17.207  1.00  0.00     0.211 HD
ENDBRANCH  14  19
ENDBRANCH  11  14
ENDBRANCH   7  10
ENDBRANCH   2   3
ENDBRANCH   1   2
BRANCH   1  21
HETATM   21  C11 UNL     1      19.957  25.866  14.169  1.00  0.00     0.006 C 
BRANCH  21  22
HETATM   22  C12 UNL     1      20.193  27.348  14.333  1.00  0.00     0.048 C 
BRANCH  22  23
HETATM   23  C13 UNL     1      20.862  27.487  15.681  1.00  0.00     0.008 A 
HETATM   24  S1  UNL     1      20.334  26.902  17.192  1.00  0.00    -0.057 SA
HETATM   25  C14 UNL     1      21.616  27.487  18.155  1.00  0.00     0.151 A 
HETATM   26  N6  UNL     1      22.392  28.106  17.263  1.00  0.00    -0.339 N 
HETATM   27  C22 UNL     1      22.032  28.118  16.009  1.00  0.00     0.020 A 
ATOM     28  H6  UNL     1      23.255  28.564  17.558  1.00  0.00     0.168 HD
HETATM   29  C23 UNL     1      22.844  28.788  14.905  1.00  0.00     0.069 C 
BRANCH  25  30
HETATM   30  N4  UNL     1      21.832  27.393  19.447  1.00  0.00    -0.307 N 
HETATM   31  C15 UNL     1      22.565  26.304  19.940  1.00  0.00     0.229 C 
HETATM   32  O3  UNL     1      23.582  26.614  20.663  1.00  0.00    -0.273 OA
ATOM     33  H4  UNL     1      21.471  28.103  20.084  1.00  0.00     0.171 HD
BRANCH  31  34
HETATM   34  C16 UNL     1      22.308  24.879  19.735  1.00  0.00     0.160 C 
BRANCH  34  35
HETATM   35  C17 UNL     1      20.943  24.495  20.233  1.00  0.00     0.019 A 
HETATM   36  C18 UNL     1      20.425  24.648  21.495  1.00  0.00     0.027 A 
HETATM   37  C19 UNL     1      19.133  24.154  21.526  1.00  0.00     0.019 A 
HETATM   38  C20 UNL     1      18.884  23.700  20.251  1.00  0.00     0.090 A 
HETATM   39  N5  UNL     1      19.974  23.906  19.477  1.00  0.00    -0.364 N 
HETATM   40  C21 UNL     1      20.105  23.564  18.087  1.00  0.00     0.155 C 
ENDBRANCH  34  35
ENDBRANCH  31  34
ENDBRANCH  25  30
ENDBRANCH  22  23
ENDBRANCH  21  22
ENDBRANCH   1  21
TORSDOF 14
ENDMDL
MODEL 2
REMARK VINA RESULT: -8.562063143      2.680      5.255
REMARK  14 active torsions:
REMARK  status: ('A' for Active; 'I' for Inactive)
REMARK    1  A    between atoms: C2_2  and  C3_3 
REMARK    2  A    between atoms: C3_3  and  C4_4 
REMARK    3  A    between atoms: C4_4  and  C5_5 
REMARK    4  A    between atoms: C5_5  and  O1_6 
REMARK    5  A    between atoms: C5_5  and  C6_8 
REMARK       I    between atoms: C6_8  and  N1_10 
REMARK    6  A    between atoms: N1_10  and  C7_12 
REMARK    7  A    between atoms: C8_17  and  C9_18 
REMARK    8  A    between atoms: C9_18  and  C10_19 
REMARK    9  A    between atoms: C10_19  and  C11_20 
REMARK   10  A    between atoms: C11_20  and  C12_21 
REMARK   11  A    between atoms: C12_21  and  C13_22 
REMARK   12  A    between atoms: C14_24  and  N4_25 
REMARK       I    between atoms: N4_25  and  C15_27 
REMARK   13  A    between atoms: C15_27  and  C16_29 
REMARK   14  A    between atoms: C16_29  and  C17_30 
ROOT
HETATM    1  C10 UNL     1      20.452  25.194  21.461  1.00  0.00     0.007 C 
ENDROOT
BRANCH   1   2
HETATM    2  C9  UNL     1      19.488  24.060  21.734  1.00  0.00     0.066 C 
BRANCH   2   3
HETATM    3  C8  UNL     1      18.547  23.943  20.570  1.00  0.00     0.069 A 
HETATM    4  N3  UNL     1      17.690  24.837  20.097  1.00  0.00    -0.296 N 
HETATM    5  N2  UNL     1      16.969  24.562  19.097  1.00  0.00    -0.279 N 
ATOM      6  H3  UNL     1      17.613  25.750  20.543  1.00  0.00     0.187 HD
HETATM    7  C7  UNL     1      17.078  23.366  18.522  1.00  0.00     0.167 A 
ATOM      8  H2  UNL     1      16.309  25.250  18.733  1.00  0.00     0.189 HD
HETATM    9  S2  UNL     1      18.285  22.630  19.495  1.00  0.00    -0.038 SA
BRANCH   7  10
HETATM   10  N1  UNL     1      16.418  22.910  17.482  1.00  0.00    -0.304 N 
HETATM   11  C6  UNL     1      15.016  22.791  17.552  1.00  0.00     0.256 C 
HETATM   12  O2  UNL     1      14.366  22.829  18.615  1.00  0.00    -0.270 OA
ATOM     13  H1  UNL     1      16.915  22.645  16.631  1.00  0.00     0.171 HD
BRANCH  11  14
HETATM   14  C5  UNL     1      14.264  22.607  16.248  1.00  0.00     0.233 C 
BRANCH  14  15
HETATM   15  C4  UNL     1      15.250  22.128  15.259  1.00  0.00     0.010 C 
BRANCH  15  16
HETATM   16  C3  UNL     1      14.997  22.025  13.834  1.00  0.00    -0.028 C 
BRANCH  16  17
HETATM   17  C2  UNL     1      14.592  20.804  13.135  1.00  0.00     0.022 C 
HETATM   18  C1  UNL     1      13.493  19.976  13.698  1.00  0.00     0.009 C 
ENDBRANCH  16  17
ENDBRANCH  15  16
ENDBRANCH  14  15
BRANCH  14  19
HETATM   19  O1  UNL     1      13.561  23.746  15.968  1.00  0.00    -0.382 OA
ATOM     20  H1  UNL     1      12.616  23.686  15.886  1.00  0.00     0.211 HD
ENDBRANCH  14  19
ENDBRANCH  11  14
ENDBRANCH   7  10
ENDBRANCH   2   3
ENDBRANCH   1   2
BRANCH   1  21
HETATM   21  C11 UNL     1      21.600  24.583  20.687  1.00  0.00     0.006 C 
BRANCH  21  22
HETATM   22  C12 UNL     1      22.885  25.367  20.802  1.00  0.00     0.048 C 
BRANCH  22  23
HETATM   23  C13 UNL     1      23.031  26.067  19.471  1.00  0.00     0.008 A 
HETATM   24  S1  UNL     1      22.014  27.244  18.774  1.00  0.00    -0.057 SA
HETATM   25  C14 UNL     1      22.861  27.480  17.311  1.00  0.00     0.151 A 
HETATM   26  N6  UNL     1      23.889  26.639  17.430  1.00  0.00    -0.339 N 
HETATM   27  C22 UNL     1      23.997  25.916  18.511  1.00  0.00     0.020 A 
ATOM     28  H6  UNL     1      24.582  26.561  16.685  1.00  0.00     0.168 HD
HETATM   29  C23 UNL     1      25.133  24.929  18.756  1.00  0.00     0.069 C 
BRANCH  25  30
HETATM   30  N4  UNL     1      22.607  28.266  16.290  1.00  0.00    -0.307 N 
HETATM   31  C15 UNL     1      21.553  27.944  15.423  1.00  0.00     0.229 C 
HETATM   32  O3  UNL     1      20.682  28.874  15.254  1.00  0.00    -0.273 OA
ATOM     33  H4  UNL     1      23.171  29.101  16.129  1.00  0.00     0.171 HD
BRANCH  31  34
HETATM   34  C16 UNL     1      21.335  26.693  14.697  1.00  0.00     0.160 C 
BRANCH  34  35
HETATM   35  C17 UNL     1      19.887  26.290  14.734  1.00  0.00     0.019 A 
HETATM   36  C18 UNL     1      18.886  26.635  13.861  1.00  0.00     0.027 A 
HETATM   37  C19 UNL     1      17.699  26.052  14.267  1.00  0.00     0.019 A 
HETATM   38  C20 UNL     1      18.009  25.346  15.407  1.00  0.00     0.090 A 
HETATM   39  N5  UNL     1      19.325  25.491  15.685  1.00  0.00    -0.364 N 
HETATM   40  C21 UNL     1      20.026  24.909  16.796  1.00  0.00     0.155 C 
ENDBRANCH  34  35
ENDBRANCH  31  34
ENDBRANCH  25  30
ENDBRANCH  22  23
ENDBRANCH  21  22
ENDBRANCH   1  21
TORSDOF 14
ENDMDL
MODEL 3
REMARK VINA RESULT: -8.376086438      2.476      4.735
REMARK  14 active torsions:
REMARK  status: ('A' for Active; 'I' for Inactive)
REMARK    1  A    between atoms: C2_2  and  C3_3 
REMARK    2  A    between atoms: C3_3  and  C4_4 
REMARK    3  A    between atoms: C4_4  and  C5_5 
REMARK    4  A    between atoms: C5_5  and  O1_6 
REMARK    5  A    between atoms: C5_5  and  C6_8 
REMARK       I    between atoms: C6_8  and  N1_10 
REMARK    6  A    between atoms: N1_10  and  C7_12 
REMARK    7  A    between atoms: C8_17  and  C9_18 
REMARK    8  A    between atoms: C9_18  and  C10_19 
REMARK    9  A    between atoms: C10_19  and  C11_20 
REMARK   10  A    between atoms: C11_20  and  C12_21 
REMARK   11  A    between atoms: C12_21  and  C13_22 
REMARK   12  A    between atoms: C14_24  and  N4_25 
REMARK       I    between atoms: N4_25  and  C15_27 
REMARK   13  A    between atoms: C15_27  and  C16_29 
REMARK   14  A    between atoms: C16_29  and  C17_30 
ROOT
HETATM    1  C10 UNL     1      16.873  23.037  15.563  1.00  0.00     0.007 C 
ENDROOT
BRANCH   1   2
HETATM    2  C9  UNL     1      15.527  22.870  14.891  1.00  0.00     0.066 C 
BRANCH   2   3
HETATM    3  C8  UNL     1      14.733  21.853  15.659  1.00  0.00     0.069 A 
HETATM    4  N3  UNL     1      13.832  20.989  15.214  1.00  0.00    -0.296 N 
HETATM    5  N2  UNL     1      13.257  20.197  16.014  1.00  0.00    -0.279 N 
ATOM      6  H3  UNL     1      13.602  20.963  14.221  1.00  0.00     0.187 HD
HETATM    7  C7  UNL     1      13.565  20.240  17.309  1.00  0.00     0.167 A 
ATOM      8  H2  UNL     1      12.563  19.533  15.672  1.00  0.00     0.189 HD
HETATM    9  S2  UNL     1      14.742  21.489  17.337  1.00  0.00    -0.038 SA
BRANCH   7  10
HETATM   10  N1  UNL     1      13.077  19.499  18.278  1.00  0.00    -0.304 N 
HETATM   11  C6  UNL     1      11.697  19.216  18.300  1.00  0.00     0.256 C 
HETATM   12  O2  UNL     1      10.849  19.830  17.625  1.00  0.00    -0.270 OA
ATOM     13  H1  UNL     1      13.690  19.132  19.006  1.00  0.00     0.171 HD
BRANCH  11  14
HETATM   14  C5  UNL     1      11.230  18.091  19.204  1.00  0.00     0.233 C 
BRANCH  14  15
HETATM   15  C4  UNL     1      12.439  17.542  19.850  1.00  0.00     0.010 C 
BRANCH  15  16
HETATM   16  C3  UNL     1      12.716  17.626  21.272  1.00  0.00    -0.028 C 
BRANCH  16  17
HETATM   17  C2  UNL     1      13.541  18.651  21.912  1.00  0.00     0.022 C 
HETATM   18  C1  UNL     1      14.777  19.117  21.232  1.00  0.00     0.009 C 
ENDBRANCH  16  17
ENDBRANCH  15  16
ENDBRANCH  14  15
BRANCH  14  19
HETATM   19  O1  UNL     1      10.430  17.242  18.491  1.00  0.00    -0.382 OA
ATOM     20  H1  UNL     1       9.487  17.325  18.580  1.00  0.00     0.211 HD
ENDBRANCH  14  19
ENDBRANCH  11  14
ENDBRANCH   7  10
ENDBRANCH   2   3
ENDBRANCH   1   2
BRANCH   1  21
HETATM   21  C11 UNL     1      16.888  24.446  16.112  1.00  0.00     0.006 C 
BRANCH  21  22
HETATM   22  C12 UNL     1      17.009  24.501  17.616  1.00  0.00     0.048 C 
BRANCH  22  23
HETATM   23  C13 UNL     1      18.495  24.572  17.882  1.00  0.00     0.008 A 
HETATM   24  S1  UNL     1      19.529  25.923  17.772  1.00  0.00    -0.057 SA
HETATM   25  C14 UNL     1      20.993  25.160  18.204  1.00  0.00     0.151 A 
HETATM   26  N6  UNL     1      20.614  23.898  18.414  1.00  0.00    -0.339 N 
HETATM   27  C22 UNL     1      19.359  23.578  18.258  1.00  0.00     0.020 A 
ATOM     28  H6  UNL     1      21.297  23.193  18.692  1.00  0.00     0.168 HD
HETATM   29  C23 UNL     1      18.814  22.170  18.477  1.00  0.00     0.069 C 
BRANCH  25  30
HETATM   30  N4  UNL     1      22.212  25.638  18.310  1.00  0.00    -0.307 N 
HETATM   31  C15 UNL     1      22.731  26.426  17.274  1.00  0.00     0.229 C 
HETATM   32  O3  UNL     1      23.169  27.580  17.632  1.00  0.00    -0.273 OA
ATOM     33  H4  UNL     1      22.774  25.438  19.138  1.00  0.00     0.171 HD
BRANCH  31  34
HETATM   34  C16 UNL     1      22.833  26.092  15.853  1.00  0.00     0.160 C 
BRANCH  34  35
HETATM   35  C17 UNL     1      21.674  26.654  15.078  1.00  0.00     0.019 A 
HETATM   36  C18 UNL     1      21.382  27.971  14.822  1.00  0.00     0.027 A 
HETATM   37  C19 UNL     1      20.219  28.048  14.078  1.00  0.00     0.019 A 
HETATM   38  C20 UNL     1      19.816  26.745  13.890  1.00  0.00     0.090 A 
HETATM   39  N5  UNL     1      20.693  25.910  14.493  1.00  0.00    -0.364 N 
HETATM   40  C21 UNL     1      20.615  24.476  14.523  1.00  0.00     0.155 C 
ENDBRANCH  34  35
ENDBRANCH  31  34
ENDBRANCH  25  30
ENDBRANCH  22  23
ENDBRANCH  21  22
ENDBRANCH   1  21
TORSDOF 14
ENDMDL
MODEL 4
REMARK VINA RESULT: -8.340607076      1.443      1.856
REMARK  14 active torsions:
REMARK  status: ('A' for Active; 'I' for Inactive)
REMARK    1  A    between atoms: C2_2  and  C3_3 
REMARK    2  A    between atoms: C3_3  and  C4_4 
REMARK    3  A    between atoms: C4_4  and  C5_5 
REMARK    4  A    between atoms: C5_5  and  O1_6 
REMARK    5  A    between atoms: C5_5  and  C6_8 
REMARK       I    between atoms: C6_8  and  N1_10 
REMARK    6  A    between atoms: N1_10  and  C7_12 
REMARK    7  A    between atoms: C8_17  and  C9_18 
REMARK    8  A    between atoms: C9_18  and  C10_19 
REMARK    9  A    between atoms: C10_19  and  C11_20 
REMARK   10  A    between atoms: C11_20  and  C12_21 
REMARK   11  A    between atoms: C12_21  and  C13_22 
REMARK   12  A    between atoms: C14_24  and  N4_25 
REMARK       I    between atoms: N4_25  and  C15_27 
REMARK   13  A    between atoms: C15_27  and  C16_29 
REMARK   14  A    between atoms: C16_29  and  C17_30 
ROOT
HETATM    1  C10 UNL     1      18.273  24.993  14.868  1.00  0.00     0.007 C 
ENDROOT
BRANCH   1   2
HETATM    2  C9  UNL     1      18.220  25.707  16.202  1.00  0.00     0.066 C 
BRANCH   2   3
HETATM    3  C8  UNL     1      17.230  25.002  17.082  1.00  0.00     0.069 A 
HETATM    4  N3  UNL     1      16.306  25.519  17.879  1.00  0.00    -0.296 N 
HETATM    5  N2  UNL     1      15.550  24.764  18.555  1.00  0.00    -0.279 N 
ATOM      6  H3  UNL     1      16.203  26.531  17.947  1.00  0.00     0.187 HD
HETATM    7  C7  UNL     1      15.692  23.443  18.458  1.00  0.00     0.167 A 
ATOM      8  H2  UNL     1      14.839  25.162  19.168  1.00  0.00     0.189 HD
HETATM    9  S2  UNL     1      16.983  23.322  17.333  1.00  0.00    -0.038 SA
BRANCH   7  10
HETATM   10  N1  UNL     1      15.002  22.512  19.077  1.00  0.00    -0.304 N 
HETATM   11  C6  UNL     1      14.339  21.527  18.320  1.00  0.00     0.256 C 
HETATM   12  O2  UNL     1      14.127  21.615  17.095  1.00  0.00    -0.270 OA
ATOM     13  H1  UNL     1      14.947  22.503  20.096  1.00  0.00     0.171 HD
BRANCH  11  14
HETATM   14  C5  UNL     1      13.860  20.288  19.052  1.00  0.00     0.233 C 
BRANCH  14  15
HETATM   15  C4  UNL     1      14.944  19.902  19.977  1.00  0.00     0.010 C 
BRANCH  15  16
HETATM   16  C3  UNL     1      14.767  19.043  21.132  1.00  0.00    -0.028 C 
BRANCH  16  17
HETATM   17  C2  UNL     1      13.481  18.714  21.751  1.00  0.00     0.022 C 
HETATM   18  C1  UNL     1      12.715  17.542  21.252  1.00  0.00     0.009 C 
ENDBRANCH  16  17
ENDBRANCH  15  16
ENDBRANCH  14  15
BRANCH  14  19
HETATM   19  O1  UNL     1      13.421  19.368  18.142  1.00  0.00    -0.382 OA
ATOM     20  H1  UNL     1      12.839  19.657  17.448  1.00  0.00     0.211 HD
ENDBRANCH  14  19
ENDBRANCH  11  14
ENDBRANCH   7  10
ENDBRANCH   2   3
ENDBRANCH   1   2
BRANCH   1  21
HETATM   21  C11 UNL     1      19.741  24.853  14.532  1.00  0.00     0.006 C 
BRANCH  21  22
HETATM   22  C12 UNL     1      20.306  26.050  13.806  1.00  0.00     0.048 C 
BRANCH  22  23
HETATM   23  C13 UNL     1      21.250  26.693  14.797  1.00  0.00     0.008 A 
HETATM   24  S1  UNL     1      21.881  26.038  16.238  1.00  0.00    -0.057 SA
HETATM   25  C14 UNL     1      22.810  27.378  16.743  1.00  0.00     0.151 A 
HETATM   26  N6  UNL     1      22.588  28.268  15.774  1.00  0.00    -0.339 N 
HETATM   27  C22 UNL     1      21.805  27.945  14.782  1.00  0.00     0.020 A 
ATOM     28  H6  UNL     1      23.025  29.189  15.809  1.00  0.00     0.168 HD
HETATM   29  C23 UNL     1      21.487  28.879  13.619  1.00  0.00     0.069 C 
BRANCH  25  30
HETATM   30  N4  UNL     1      23.561  27.551  17.806  1.00  0.00    -0.307 N 
HETATM   31  C15 UNL     1      23.098  27.104  19.052  1.00  0.00     0.229 C 
HETATM   32  O3  UNL     1      23.892  26.309  19.677  1.00  0.00    -0.273 OA
ATOM     33  H4  UNL     1      24.471  28.005  17.727  1.00  0.00     0.171 HD
BRANCH  31  34
HETATM   34  C16 UNL     1      21.836  27.434  19.714  1.00  0.00     0.160 C 
BRANCH  34  35
HETATM   35  C17 UNL     1      21.122  26.193  20.172  1.00  0.00     0.019 A 
HETATM   36  C18 UNL     1      20.408  25.296  19.417  1.00  0.00     0.027 A 
HETATM   37  C19 UNL     1      19.908  24.300  20.237  1.00  0.00     0.019 A 
HETATM   38  C20 UNL     1      20.338  24.618  21.505  1.00  0.00     0.090 A 
HETATM   39  N5  UNL     1      21.067  25.757  21.462  1.00  0.00    -0.364 N 
HETATM   40  C21 UNL     1      21.684  26.411  22.583  1.00  0.00     0.155 C 
ENDBRANCH  34  35
ENDBRANCH  31  34
ENDBRANCH  25  30
ENDBRANCH  22  23
ENDBRANCH  21  22
ENDBRANCH   1  21
TORSDOF 14
ENDMDL
MODEL 5
REMARK VINA RESULT: -8.311518499      1.967      4.360
REMARK  14 active torsions:
REMARK  status: ('A' for Active; 'I' for Inactive)
REMARK    1  A    between atoms: C2_2  and  C3_3 
REMARK    2  A    between atoms: C3_3  and  C4_4 
REMARK    3  A    between atoms: C4_4  and  C5_5 
REMARK    4  A    between atoms: C5_5  and  O1_6 
REMARK    5  A    between atoms: C5_5  and  C6_8 
REMARK       I    between atoms: C6_8  and  N1_10 
REMARK    6  A    between atoms: N1_10  and  C7_12 
REMARK    7  A    between atoms: C8_17  and  C9_18 
REMARK    8  A    between atoms: C9_18  and  C10_19 
REMARK    9  A    between atoms: C10_19  and  C11_20 
REMARK   10  A    between atoms: C11_20  and  C12_21 
REMARK   11  A    between atoms: C12_21  and  C13_22 
REMARK   12  A    between atoms: C14_24  and  N4_25 
REMARK       I    between atoms: N4_25  and  C15_27 
REMARK   13  A    between atoms: C15_27  and  C16_29 
REMARK   14  A    between atoms: C16_29  and  C17_30 
ROOT
HETATM    1  C10 UNL     1      18.631  24.260  20.399  1.00  0.00     0.007 C 
ENDROOT
BRANCH   1   2
HETATM    2  C9  UNL     1      18.163  24.800  19.064  1.00  0.00     0.066 C 
BRANCH   2   3
HETATM    3  C8  UNL     1      16.839  24.177  18.735  1.00  0.00     0.069 A 
HETATM    4  N3  UNL     1      15.637  24.735  18.709  1.00  0.00    -0.296 N 
HETATM    5  N2  UNL     1      14.620  24.048  18.406  1.00  0.00    -0.279 N 
ATOM      6  H3  UNL     1      15.533  25.724  18.935  1.00  0.00     0.187 HD
HETATM    7  C7  UNL     1      14.768  22.758  18.112  1.00  0.00     0.167 A 
ATOM      8  H2  UNL     1      13.696  24.478  18.386  1.00  0.00     0.189 HD
HETATM    9  S2  UNL     1      16.464  22.561  18.291  1.00  0.00    -0.038 SA
BRANCH   7  10
HETATM   10  N1  UNL     1      13.835  21.897  17.774  1.00  0.00    -0.304 N 
HETATM   11  C6  UNL     1      13.788  20.643  18.415  1.00  0.00     0.256 C 
HETATM   12  O2  UNL     1      14.723  20.171  19.090  1.00  0.00    -0.270 OA
ATOM     13  H1  UNL     1      13.150  22.134  17.056  1.00  0.00     0.171 HD
BRANCH  11  14
HETATM   14  C5  UNL     1      12.516  19.831  18.267  1.00  0.00     0.233 C 
BRANCH  14  15
HETATM   15  C4  UNL     1      12.716  18.593  19.045  1.00  0.00     0.010 C 
BRANCH  15  16
HETATM   16  C3  UNL     1      12.068  18.309  20.312  1.00  0.00    -0.028 C 
BRANCH  16  17
HETATM   17  C2  UNL     1      12.760  17.950  21.551  1.00  0.00     0.022 C 
HETATM   18  C1  UNL     1      13.928  18.757  21.991  1.00  0.00     0.009 C 
ENDBRANCH  16  17
ENDBRANCH  15  16
ENDBRANCH  14  15
BRANCH  14  19
HETATM   19  O1  UNL     1      12.201  19.724  16.940  1.00  0.00    -0.382 OA
ATOM     20  H1  UNL     1      11.469  20.229  16.606  1.00  0.00     0.211 HD
ENDBRANCH  14  19
ENDBRANCH  11  14
ENDBRANCH   7  10
ENDBRANCH   2   3
ENDBRANCH   1   2
BRANCH   1  21
HETATM   21  C11 UNL     1      20.130  24.099  20.276  1.00  0.00     0.006 C 
BRANCH  21  22
HETATM   22  C12 UNL     1      20.908  25.226  20.910  1.00  0.00     0.048 C 
BRANCH  22  23
HETATM   23  C13 UNL     1      21.599  25.916  19.756  1.00  0.00     0.008 A 
HETATM   24  S1  UNL     1      21.027  27.199  18.791  1.00  0.00    -0.057 SA
HETATM   25  C14 UNL     1      22.370  27.352  17.748  1.00  0.00     0.151 A 
HETATM   26  N6  UNL     1      23.197  26.406  18.195  1.00  0.00    -0.339 N 
HETATM   27  C22 UNL     1      22.830  25.669  19.208  1.00  0.00     0.020 A 
ATOM     28  H6  UNL     1      24.104  26.260  17.751  1.00  0.00     0.168 HD
HETATM   29  C23 UNL     1      23.696  24.565  19.805  1.00  0.00     0.069 C 
BRANCH  25  30
HETATM   30  N4  UNL     1      22.586  28.167  16.741  1.00  0.00    -0.307 N 
HETATM   31  C15 UNL     1      21.814  28.037  15.578  1.00  0.00     0.229 C 
HETATM   32  O3  UNL     1      21.213  29.109  15.199  1.00  0.00    -0.273 OA
ATOM     33  H4  UNL     1      23.307  28.886  16.804  1.00  0.00     0.171 HD
BRANCH  31  34
HETATM   34  C16 UNL     1      21.620  26.844  14.755  1.00  0.00     0.160 C 
BRANCH  34  35
HETATM   35  C17 UNL     1      20.168  26.458  14.691  1.00  0.00     0.019 A 
HETATM   36  C18 UNL     1      19.160  27.062  13.982  1.00  0.00     0.027 A 
HETATM   37  C19 UNL     1      17.971  26.391  14.210  1.00  0.00     0.019 A 
HETATM   38  C20 UNL     1      18.288  25.368  15.074  1.00  0.00     0.090 A 
HETATM   39  N5  UNL     1      19.609  25.412  15.361  1.00  0.00    -0.364 N 
HETATM   40  C21 UNL     1      20.319  24.513  16.230  1.00  0.00     0.155 C 
ENDBRANCH  34  35
ENDBRANCH  31  34
ENDBRANCH  25  30
ENDBRANCH  22  23
ENDBRANCH  21  22
ENDBRANCH   1  21
TORSDOF 14
ENDMDL
