MODEL 1
REMARK VINA RESULT: -7.389957316      0.000      0.000
REMARK  14 active torsions:
REMARK  status: ('A' for Active; 'I' for Inactive)
REMARK    1  A    between atoms: O1_2  and  C2_3 
REMARK    2  A    between atoms: C2_3  and  C3_4 
REMARK    3  A    between atoms: C3_4  and  C4_5 
REMARK    4  A    between atoms: C4_5  and  N1_6 
REMARK    5  A    between atoms: N1_6  and  C5_8 
REMARK    6  A    between atoms: C6_11  and  N3_12 
REMARK    7  A    between atoms: N3_12  and  C7_13 
REMARK    8  A    between atoms: C7_13  and  N4_15 
REMARK    9  A    between atoms: N4_15  and  C8_17 
REMARK   10  A    between atoms: C8_17  and  C9_18 
REMARK   11  A    between atoms: C9_18  and  C10_19 
REMARK   12  A    between atoms: C10_19  and  N5_20 
REMARK   13  A    between atoms: C20_31  and  S2_32 
REMARK   14  A    between atoms: C23_35  and  C24_36 
ROOT
HETATM    1  N3  UNL     1      15.710  21.139  18.137  1.00  0.00    -0.357 NA
ENDROOT
BRANCH   1   2
HETATM    2  C6  UNL     1      14.394  20.801  17.933  1.00  0.00     0.200 A 
HETATM    3  N2  UNL     1      13.631  21.026  16.870  1.00  0.00    -0.316 N 
HETATM    4  C5  UNL     1      12.384  20.503  16.661  1.00  0.00     0.116 A 
ATOM      5  H2  UNL     1      14.006  21.642  16.148  1.00  0.00     0.170 HD
HETATM    6  C23 UNL     1      11.831  19.654  17.641  1.00  0.00     0.047 A 
HETATM    7  C22 UNL     1      12.570  19.395  18.753  1.00  0.00     0.041 A 
HETATM    8  C20 UNL     1      13.797  19.937  18.906  1.00  0.00     0.059 A 
BRANCH   4   9
HETATM    9  N1  UNL     1      11.671  20.704  15.680  1.00  0.00    -0.375 N 
ATOM     10  H1  UNL     1      10.742  20.783  16.094  1.00  0.00     0.161 HD
BRANCH   9  11
HETATM   11  C4  UNL     1      11.423  20.879  14.364  1.00  0.00     0.123 C 
BRANCH  11  12
HETATM   12  C3  UNL     1      11.877  19.671  13.529  1.00  0.00     0.046 C 
BRANCH  12  13
HETATM   13  C2  UNL     1      13.331  19.767  13.149  1.00  0.00     0.168 C 
BRANCH  13  14
HETATM   14  O1  UNL     1      14.084  20.648  13.860  1.00  0.00    -0.396 OA
HETATM   15  C1  UNL     1      14.890  21.492  13.140  1.00  0.00     0.201 C 
ENDBRANCH  13  14
ENDBRANCH  12  13
ENDBRANCH  11  12
ENDBRANCH   9  11
ENDBRANCH   4   9
BRANCH   6  16
HETATM   16  C24 UNL     1      10.548  19.021  17.411  1.00  0.00     0.273 C 
HETATM   17  O2  UNL     1      10.433  18.129  16.528  1.00  0.00    -0.301 OA
ENDBRANCH   6  16
BRANCH   8  18
HETATM   18  S2  UNL     1      14.742  19.632  20.370  1.00  0.00    -0.130 SA
HETATM   19  C21 UNL     1      13.753  18.651  21.519  1.00  0.00     0.095 C 
ENDBRANCH   8  18
ENDBRANCH   1   2
BRANCH   1  20
HETATM   20  C7  UNL     1      16.970  21.463  18.332  1.00  0.00     0.247 C 
HETATM   21  S1  UNL     1      17.873  21.507  16.857  1.00  0.00    -0.025 SA
BRANCH  20  22
HETATM   22  N4  UNL     1      17.770  21.825  19.386  1.00  0.00    -0.356 N 
ATOM     23  H4  UNL     1      17.441  21.455  20.278  1.00  0.00     0.162 HD
BRANCH  22  24
HETATM   24  C8  UNL     1      18.973  22.611  19.518  1.00  0.00     0.125 C 
BRANCH  24  25
HETATM   25  C9  UNL     1      18.490  24.056  19.415  1.00  0.00     0.039 C 
BRANCH  25  26
HETATM   26  C10 UNL     1      19.429  24.986  18.724  1.00  0.00     0.124 C 
BRANCH  26  27
HETATM   27  N5  UNL     1      18.817  25.330  17.440  1.00  0.00    -0.380 N 
HETATM   28  C11 UNL     1      17.436  25.020  17.232  1.00  0.00     0.150 A 
HETATM   29  C12 UNL     1      16.975  25.229  15.848  1.00  0.00    -0.007 A 
HETATM   30  C13 UNL     1      17.747  25.713  14.891  1.00  0.00     0.008 A 
HETATM   31  C14 UNL     1      19.144  26.061  15.191  1.00  0.00    -0.008 A 
HETATM   32  C15 UNL     1      19.637  25.883  16.395  1.00  0.00     0.017 A 
HETATM   33  C19 UNL     1      19.927  26.559  14.027  1.00  0.00     0.312 C 
HETATM   34  C16 UNL     1      21.014  26.262  16.703  1.00  0.00     0.087 C 
HETATM   35  C17 UNL     1      21.816  26.409  15.446  1.00  0.00     0.278 C 
HETATM   36  N6  UNL     1      21.187  27.105  14.381  1.00  0.00     0.088 N 
HETATM   37  C18 UNL     1      21.210  28.536  14.451  1.00  0.00     0.310 C 
ENDBRANCH  26  27
ENDBRANCH  25  26
ENDBRANCH  24  25
ENDBRANCH  22  24
ENDBRANCH  20  22
ENDBRANCH   1  20
TORSDOF 14
ENDMDL
MODEL 2
REMARK VINA RESULT: -7.230937169      4.404      9.990
REMARK  14 active torsions:
REMARK  status: ('A' for Active; 'I' for Inactive)
REMARK    1  A    between atoms: O1_2  and  C2_3 
REMARK    2  A    between atoms: C2_3  and  C3_4 
REMARK    3  A    between atoms: C3_4  and  C4_5 
REMARK    4  A    between atoms: C4_5  and  N1_6 
REMARK    5  A    between atoms: N1_6  and  C5_8 
REMARK    6  A    between atoms: C6_11  and  N3_12 
REMARK    7  A    between atoms: N3_12  and  C7_13 
REMARK    8  A    between atoms: C7_13  and  N4_15 
REMARK    9  A    between atoms: N4_15  and  C8_17 
REMARK   10  A    between atoms: C8_17  and  C9_18 
REMARK   11  A    between atoms: C9_18  and  C10_19 
REMARK   12  A    between atoms: C10_19  and  N5_20 
REMARK   13  A    between atoms: C20_31  and  S2_32 
REMARK   14  A    between atoms: C23_35  and  C24_36 
ROOT
HETATM    1  N3  UNL     1      20.162  25.313  18.127  1.00  0.00    -0.357 NA
ENDROOT
BRANCH   1   2
HETATM    2  C6  UNL     1      21.209  24.979  18.951  1.00  0.00     0.200 A 
HETATM    3  N2  UNL     1      22.513  25.104  18.734  1.00  0.00    -0.316 N 
HETATM    4  C5  UNL     1      23.496  24.921  19.668  1.00  0.00     0.116 A 
ATOM      5  H2  UNL     1      22.807  25.357  17.791  1.00  0.00     0.170 HD
HETATM    6  C23 UNL     1      23.127  24.562  20.981  1.00  0.00     0.047 A 
HETATM    7  C22 UNL     1      21.803  24.415  21.255  1.00  0.00     0.041 A 
HETATM    8  C20 UNL     1      20.874  24.611  20.294  1.00  0.00     0.059 A 
BRANCH   4   9
HETATM    9  N1  UNL     1      24.705  25.035  19.478  1.00  0.00    -0.375 N 
ATOM     10  H1  UNL     1      25.087  24.248  20.001  1.00  0.00     0.161 HD
BRANCH   9  11
HETATM   11  C4  UNL     1      25.812  25.616  18.968  1.00  0.00     0.123 C 
BRANCH  11  12
HETATM   12  C3  UNL     1      26.123  25.112  17.549  1.00  0.00     0.046 C 
BRANCH  12  13
HETATM   13  C2  UNL     1      25.553  26.022  16.493  1.00  0.00     0.168 C 
BRANCH  13  14
HETATM   14  O1  UNL     1      24.202  25.996  16.340  1.00  0.00    -0.396 OA
HETATM   15  C1  UNL     1      23.625  27.103  15.772  1.00  0.00     0.201 C 
ENDBRANCH  13  14
ENDBRANCH  12  13
ENDBRANCH  11  12
ENDBRANCH   9  11
ENDBRANCH   4   9
BRANCH   6  16
HETATM   16  C24 UNL     1      24.139  24.441  22.011  1.00  0.00     0.273 C 
HETATM   17  O2  UNL     1      24.723  25.469  22.446  1.00  0.00    -0.301 OA
ENDBRANCH   6  16
BRANCH   8  18
HETATM   18  S2  UNL     1      19.155  24.382  20.640  1.00  0.00    -0.130 SA
HETATM   19  C21 UNL     1      18.662  22.724  20.121  1.00  0.00     0.095 C 
ENDBRANCH   8  18
ENDBRANCH   1   2
BRANCH   1  20
HETATM   20  C7  UNL     1      19.159  25.633  17.338  1.00  0.00     0.247 C 
HETATM   21  S1  UNL     1      19.693  26.327  15.846  1.00  0.00    -0.025 SA
BRANCH  20  22
HETATM   22  N4  UNL     1      17.791  25.528  17.347  1.00  0.00    -0.356 N 
ATOM     23  H4  UNL     1      17.325  26.434  17.286  1.00  0.00     0.162 HD
BRANCH  22  24
HETATM   24  C8  UNL     1      16.862  24.427  17.423  1.00  0.00     0.125 C 
BRANCH  24  25
HETATM   25  C9  UNL     1      17.221  23.551  16.224  1.00  0.00     0.039 C 
BRANCH  25  26
HETATM   26  C10 UNL     1      17.262  22.087  16.505  1.00  0.00     0.124 C 
BRANCH  26  27
HETATM   27  N5  UNL     1      15.897  21.584  16.333  1.00  0.00    -0.380 N 
HETATM   28  C11 UNL     1      15.216  21.852  15.104  1.00  0.00     0.150 A 
HETATM   29  C12 UNL     1      13.792  21.474  15.112  1.00  0.00    -0.007 A 
HETATM   30  C13 UNL     1      13.202  20.888  16.138  1.00  0.00     0.008 A 
HETATM   31  C14 UNL     1      13.979  20.593  17.352  1.00  0.00    -0.008 A 
HETATM   32  C15 UNL     1      15.248  20.920  17.432  1.00  0.00     0.017 A 
HETATM   33  C19 UNL     1      13.200  19.968  18.455  1.00  0.00     0.312 C 
HETATM   34  C16 UNL     1      16.030  20.595  18.622  1.00  0.00     0.087 C 
HETATM   35  C17 UNL     1      15.129  20.308  19.784  1.00  0.00     0.278 C 
HETATM   36  N6  UNL     1      14.006  19.482  19.515  1.00  0.00     0.088 N 
HETATM   37  C18 UNL     1      14.246  18.071  19.474  1.00  0.00     0.310 C 
ENDBRANCH  26  27
ENDBRANCH  25  26
ENDBRANCH  24  25
ENDBRANCH  22  24
ENDBRANCH  20  22
ENDBRANCH   1  20
TORSDOF 14
ENDMDL
MODEL 3
REMARK VINA RESULT: -7.207355912      4.234      9.860
REMARK  14 active torsions:
REMARK  status: ('A' for Active; 'I' for Inactive)
REMARK    1  A    between atoms: O1_2  and  C2_3 
REMARK    2  A    between atoms: C2_3  and  C3_4 
REMARK    3  A    between atoms: C3_4  and  C4_5 
REMARK    4  A    between atoms: C4_5  and  N1_6 
REMARK    5  A    between atoms: N1_6  and  C5_8 
REMARK    6  A    between atoms: C6_11  and  N3_12 
REMARK    7  A    between atoms: N3_12  and  C7_13 
REMARK    8  A    between atoms: C7_13  and  N4_15 
REMARK    9  A    between atoms: N4_15  and  C8_17 
REMARK   10  A    between atoms: C8_17  and  C9_18 
REMARK   11  A    between atoms: C9_18  and  C10_19 
REMARK   12  A    between atoms: C10_19  and  N5_20 
REMARK   13  A    between atoms: C20_31  and  S2_32 
REMARK   14  A    between atoms: C23_35  and  C24_36 
ROOT
HETATM    1  N3  UNL     1      20.551  25.747  18.723  1.00  0.00    -0.357 NA
ENDROOT
BRANCH   1   2
HETATM    2  C6  UNL     1      20.887  26.549  17.659  1.00  0.00     0.200 A 
HETATM    3  N2  UNL     1      21.993  27.258  17.466  1.00  0.00    -0.316 N 
HETATM    4  C5  UNL     1      22.340  27.890  16.304  1.00  0.00     0.116 A 
ATOM      5  H2  UNL     1      22.639  27.338  18.252  1.00  0.00     0.170 HD
HETATM    6  C23 UNL     1      21.468  27.806  15.199  1.00  0.00     0.047 A 
HETATM    7  C22 UNL     1      20.317  27.097  15.345  1.00  0.00     0.041 A 
HETATM    8  C20 UNL     1      20.026  26.490  16.517  1.00  0.00     0.059 A 
BRANCH   4   9
HETATM    9  N1  UNL     1      23.361  28.547  16.115  1.00  0.00    -0.375 N 
ATOM     10  H1  UNL     1      23.014  29.354  15.598  1.00  0.00     0.161 HD
BRANCH   9  11
HETATM   11  C4  UNL     1      24.685  28.802  16.205  1.00  0.00     0.123 C 
BRANCH  11  12
HETATM   12  C3  UNL     1      25.496  27.997  15.177  1.00  0.00     0.046 C 
BRANCH  12  13
HETATM   13  C2  UNL     1      25.898  26.648  15.713  1.00  0.00     0.168 C 
BRANCH  13  14
HETATM   14  O1  UNL     1      24.919  25.920  16.312  1.00  0.00    -0.396 OA
HETATM   15  C1  UNL     1      25.189  25.439  17.568  1.00  0.00     0.201 C 
ENDBRANCH  13  14
ENDBRANCH  12  13
ENDBRANCH  11  12
ENDBRANCH   9  11
ENDBRANCH   4   9
BRANCH   6  16
HETATM   16  C24 UNL     1      21.846  28.397  13.931  1.00  0.00     0.273 C 
HETATM   17  O2  UNL     1      22.016  29.642  13.840  1.00  0.00    -0.301 OA
ENDBRANCH   6  16
BRANCH   8  18
HETATM   18  S2  UNL     1      18.511  25.600  16.720  1.00  0.00    -0.130 SA
HETATM   19  C21 UNL     1      17.662  25.505  15.129  1.00  0.00     0.095 C 
ENDBRANCH   8  18
ENDBRANCH   1   2
BRANCH   1  20
HETATM   20  C7  UNL     1      20.229  24.977  19.740  1.00  0.00     0.247 C 
HETATM   21  S1  UNL     1      21.616  24.440  20.623  1.00  0.00    -0.025 SA
BRANCH  20  22
HETATM   22  N4  UNL     1      19.083  24.511  20.333  1.00  0.00    -0.356 N 
ATOM     23  H4  UNL     1      19.084  24.634  21.346  1.00  0.00     0.162 HD
BRANCH  22  24
HETATM   24  C8  UNL     1      17.876  23.886  19.848  1.00  0.00     0.125 C 
BRANCH  24  25
HETATM   25  C9  UNL     1      18.292  22.446  19.553  1.00  0.00     0.039 C 
BRANCH  25  26
HETATM   26  C10 UNL     1      17.962  21.965  18.181  1.00  0.00     0.124 C 
BRANCH  26  27
HETATM   27  N5  UNL     1      16.612  21.403  18.242  1.00  0.00    -0.380 N 
HETATM   28  C11 UNL     1      16.227  20.665  19.407  1.00  0.00     0.150 A 
HETATM   29  C12 UNL     1      14.927  19.983  19.283  1.00  0.00    -0.007 A 
HETATM   30  C13 UNL     1      14.153  20.083  18.217  1.00  0.00     0.008 A 
HETATM   31  C14 UNL     1      14.589  20.903  17.077  1.00  0.00    -0.008 A 
HETATM   32  C15 UNL     1      15.745  21.525  17.100  1.00  0.00     0.017 A 
HETATM   33  C19 UNL     1      13.654  20.909  15.918  1.00  0.00     0.312 C 
HETATM   34  C16 UNL     1      16.164  22.369  15.984  1.00  0.00     0.087 C 
HETATM   35  C17 UNL     1      15.372  22.048  14.753  1.00  0.00     0.278 C 
HETATM   36  N6  UNL     1      13.975  21.879  14.935  1.00  0.00     0.088 N 
HETATM   37  C18 UNL     1      13.191  23.076  15.012  1.00  0.00     0.310 C 
ENDBRANCH  26  27
ENDBRANCH  25  26
ENDBRANCH  24  25
ENDBRANCH  22  24
ENDBRANCH  20  22
ENDBRANCH   1  20
TORSDOF 14
ENDMDL
MODEL 4
REMARK VINA RESULT: -7.190116060      0.883      1.934
REMARK  14 active torsions:
REMARK  status: ('A' for Active; 'I' for Inactive)
REMARK    1  A    between atoms: O1_2  and  C2_3 
REMARK    2  A    between atoms: C2_3  and  C3_4 
REMARK    3  A    between atoms: C3_4  and  C4_5 
REMARK    4  A    between atoms: C4_5  and  N1_6 
REMARK    5  A    between atoms: N1_6  and  C5_8 
REMARK    6  A    between atoms: C6_11  and  N3_12 
REMARK    7  A    between atoms: N3_12  and  C7_13 
REMARK    8  A    between atoms: C7_13  and  N4_15 
REMARK    9  A    between atoms: N4_15  and  C8_17 
REMARK   10  A    between atoms: C8_17  and  C9_18 
REMARK   11  A    between atoms: C9_18  and  C10_19 
REMARK   12  A    between atoms: C10_19  and  N5_20 
REMARK   13  A    between atoms: C20_31  and  S2_32 
REMARK   14  A    between atoms: C23_35  and  C24_36 
ROOT
HETATM    1  N3  UNL     1      15.597  21.206  18.174  1.00  0.00    -0.357 NA
ENDROOT
BRANCH   1   2
HETATM    2  C6  UNL     1      14.294  20.830  17.950  1.00  0.00     0.200 A 
HETATM    3  N2  UNL     1      13.543  21.026  16.873  1.00  0.00    -0.316 N 
HETATM    4  C5  UNL     1      12.315  20.467  16.648  1.00  0.00     0.116 A 
ATOM      5  H2  UNL     1      13.913  21.646  16.153  1.00  0.00     0.170 HD
HETATM    6  C23 UNL     1      11.769  19.610  17.626  1.00  0.00     0.047 A 
HETATM    7  C22 UNL     1      12.496  19.380  18.752  1.00  0.00     0.041 A 
HETATM    8  C20 UNL     1      13.705  19.957  18.921  1.00  0.00     0.059 A 
BRANCH   4   9
HETATM    9  N1  UNL     1      11.613  20.640  15.655  1.00  0.00    -0.375 N 
ATOM     10  H1  UNL     1      10.671  20.644  16.046  1.00  0.00     0.161 HD
BRANCH   9  11
HETATM   11  C4  UNL     1      11.384  20.828  14.337  1.00  0.00     0.123 C 
BRANCH  11  12
HETATM   12  C3  UNL     1      11.892  19.649  13.491  1.00  0.00     0.046 C 
BRANCH  12  13
HETATM   13  C2  UNL     1      13.356  19.784  13.163  1.00  0.00     0.168 C 
BRANCH  13  14
HETATM   14  O1  UNL     1      14.043  20.736  13.848  1.00  0.00    -0.396 OA
HETATM   15  C1  UNL     1      14.913  21.511  13.123  1.00  0.00     0.201 C 
ENDBRANCH  13  14
ENDBRANCH  12  13
ENDBRANCH  11  12
ENDBRANCH   9  11
ENDBRANCH   4   9
BRANCH   6  16
HETATM   16  C24 UNL     1      10.508  18.940  17.380  1.00  0.00     0.273 C 
HETATM   17  O2  UNL     1      10.437  18.025  16.516  1.00  0.00    -0.301 OA
ENDBRANCH   6  16
BRANCH   8  18
HETATM   18  S2  UNL     1      14.634  19.690  20.403  1.00  0.00    -0.130 SA
HETATM   19  C21 UNL     1      13.720  18.563  21.478  1.00  0.00     0.095 C 
ENDBRANCH   8  18
ENDBRANCH   1   2
BRANCH   1  20
HETATM   20  C7  UNL     1      16.844  21.566  18.387  1.00  0.00     0.247 C 
HETATM   21  S1  UNL     1      17.825  21.405  16.972  1.00  0.00    -0.025 SA
BRANCH  20  22
HETATM   22  N4  UNL     1      17.585  22.085  19.419  1.00  0.00    -0.356 N 
ATOM     23  H4  UNL     1      17.059  22.746  19.990  1.00  0.00     0.162 HD
BRANCH  22  24
HETATM   24  C8  UNL     1      18.941  21.906  19.878  1.00  0.00     0.125 C 
BRANCH  24  25
HETATM   25  C9  UNL     1      19.504  23.325  19.944  1.00  0.00     0.039 C 
BRANCH  25  26
HETATM   26  C10 UNL     1      18.661  24.367  19.292  1.00  0.00     0.124 C 
BRANCH  26  27
HETATM   27  N5  UNL     1      19.552  25.171  18.454  1.00  0.00    -0.380 N 
HETATM   28  C11 UNL     1      20.776  25.653  19.018  1.00  0.00     0.150 A 
HETATM   29  C12 UNL     1      21.500  26.607  18.159  1.00  0.00    -0.007 A 
HETATM   30  C13 UNL     1      21.091  26.949  16.951  1.00  0.00     0.008 A 
HETATM   31  C14 UNL     1      19.849  26.372  16.413  1.00  0.00    -0.008 A 
HETATM   32  C15 UNL     1      19.135  25.532  17.125  1.00  0.00     0.017 A 
HETATM   33  C19 UNL     1      19.469  26.862  15.059  1.00  0.00     0.312 C 
HETATM   34  C16 UNL     1      17.922  24.931  16.579  1.00  0.00     0.087 C 
HETATM   35  C17 UNL     1      17.426  25.717  15.403  1.00  0.00     0.278 C 
HETATM   36  N6  UNL     1      18.410  26.129  14.467  1.00  0.00     0.088 N 
HETATM   37  C18 UNL     1      18.834  25.148  13.512  1.00  0.00     0.310 C 
ENDBRANCH  26  27
ENDBRANCH  25  26
ENDBRANCH  24  25
ENDBRANCH  22  24
ENDBRANCH  20  22
ENDBRANCH   1  20
TORSDOF 14
ENDMDL
MODEL 5
REMARK VINA RESULT: -7.109744895      4.289     10.423
REMARK  14 active torsions:
REMARK  status: ('A' for Active; 'I' for Inactive)
REMARK    1  A    between atoms: O1_2  and  C2_3 
REMARK    2  A    between atoms: C2_3  and  C3_4 
REMARK    3  A    between atoms: C3_4  and  C4_5 
REMARK    4  A    between atoms: C4_5  and  N1_6 
REMARK    5  A    between atoms: N1_6  and  C5_8 
REMARK    6  A    between atoms: C6_11  and  N3_12 
REMARK    7  A    between atoms: N3_12  and  C7_13 
REMARK    8  A    between atoms: C7_13  and  N4_15 
REMARK    9  A    between atoms: N4_15  and  C8_17 
REMARK   10  A    between atoms: C8_17  and  C9_18 
REMARK   11  A    between atoms: C9_18  and  C10_19 
REMARK   12  A    between atoms: C10_19  and  N5_20 
REMARK   13  A    between atoms: C20_31  and  S2_32 
REMARK   14  A    between atoms: C23_35  and  C24_36 
ROOT
HETATM    1  N3  UNL     1      20.661  25.245  18.683  1.00  0.00    -0.357 NA
ENDROOT
BRANCH   1   2
HETATM    2  C6  UNL     1      20.963  26.189  17.732  1.00  0.00     0.200 A 
HETATM    3  N2  UNL     1      22.087  26.878  17.570  1.00  0.00    -0.316 N 
HETATM    4  C5  UNL     1      22.385  27.670  16.495  1.00  0.00     0.116 A 
ATOM      5  H2  UNL     1      22.786  26.812  18.309  1.00  0.00     0.170 HD
HETATM    6  C23 UNL     1      21.439  27.791  15.457  1.00  0.00     0.047 A 
HETATM    7  C22 UNL     1      20.268  27.110  15.577  1.00  0.00     0.041 A 
HETATM    8  C20 UNL     1      20.027  26.340  16.660  1.00  0.00     0.059 A 
BRANCH   4   9
HETATM    9  N1  UNL     1      23.422  28.310  16.334  1.00  0.00    -0.375 N 
ATOM     10  H1  UNL     1      23.082  29.187  15.938  1.00  0.00     0.161 HD
BRANCH   9  11
HETATM   11  C4  UNL     1      24.757  28.507  16.384  1.00  0.00     0.123 C 
BRANCH  11  12
HETATM   12  C3  UNL     1      25.512  27.581  15.417  1.00  0.00     0.046 C 
BRANCH  12  13
HETATM   13  C2  UNL     1      25.989  26.327  16.100  1.00  0.00     0.168 C 
BRANCH  13  14
HETATM   14  O1  UNL     1      25.035  25.564  16.696  1.00  0.00    -0.396 OA
HETATM   15  C1  UNL     1      25.304  25.122  17.966  1.00  0.00     0.201 C 
ENDBRANCH  13  14
ENDBRANCH  12  13
ENDBRANCH  11  12
ENDBRANCH   9  11
ENDBRANCH   4   9
BRANCH   6  16
HETATM   16  C24 UNL     1      21.759  28.556  14.269  1.00  0.00     0.273 C 
HETATM   17  O2  UNL     1      22.064  29.775  14.367  1.00  0.00    -0.301 OA
ENDBRANCH   6  16
BRANCH   8  18
HETATM   18  S2  UNL     1      18.488  25.485  16.836  1.00  0.00    -0.130 SA
HETATM   19  C21 UNL     1      18.491  24.035  15.760  1.00  0.00     0.095 C 
ENDBRANCH   8  18
ENDBRANCH   1   2
BRANCH   1  20
HETATM   20  C7  UNL     1      20.373  24.340  19.594  1.00  0.00     0.247 C 
HETATM   21  S1  UNL     1      21.166  24.647  21.099  1.00  0.00    -0.025 SA
BRANCH  20  22
HETATM   22  N4  UNL     1      19.572  23.231  19.700  1.00  0.00    -0.356 N 
ATOM     23  H4  UNL     1      20.024  22.383  19.359  1.00  0.00     0.162 HD
BRANCH  22  24
HETATM   24  C8  UNL     1      18.234  22.993  20.186  1.00  0.00     0.125 C 
BRANCH  24  25
HETATM   25  C9  UNL     1      17.482  22.461  18.968  1.00  0.00     0.039 C 
BRANCH  25  26
HETATM   26  C10 UNL     1      17.089  21.024  19.049  1.00  0.00     0.124 C 
BRANCH  26  27
HETATM   27  N5  UNL     1      15.912  20.858  18.194  1.00  0.00    -0.380 N 
HETATM   28  C11 UNL     1      15.925  21.438  16.886  1.00  0.00     0.150 A 
HETATM   29  C12 UNL     1      14.628  21.379  16.190  1.00  0.00    -0.007 A 
HETATM   30  C13 UNL     1      13.558  20.794  16.698  1.00  0.00     0.008 A 
HETATM   31  C14 UNL     1      13.633  20.170  18.027  1.00  0.00    -0.008 A 
HETATM   32  C15 UNL     1      14.746  20.200  18.722  1.00  0.00     0.017 A 
HETATM   33  C19 UNL     1      12.355  19.578  18.511  1.00  0.00     0.312 C 
HETATM   34  C16 UNL     1      14.833  19.549  20.026  1.00  0.00     0.087 C 
HETATM   35  C17 UNL     1      13.464  19.301  20.585  1.00  0.00     0.278 C 
HETATM   36  N6  UNL     1      12.503  18.784  19.677  1.00  0.00     0.088 N 
HETATM   37  C18 UNL     1      12.553  17.374  19.427  1.00  0.00     0.310 C 
ENDBRANCH  26  27
ENDBRANCH  25  26
ENDBRANCH  24  25
ENDBRANCH  22  24
ENDBRANCH  20  22
ENDBRANCH   1  20
TORSDOF 14
ENDMDL
