MODEL 1
REMARK VINA RESULT: -9.188221240      0.000      0.000
REMARK  13 active torsions:
REMARK  status: ('A' for Active; 'I' for Inactive)
REMARK    1  A    between atoms: O1_2  and  C2_3 
REMARK    2  A    between atoms: C6_7  and  N1_8 
REMARK    3  A    between atoms: N2_11  and  C9_12 
REMARK    4  A    between atoms: C9_12  and  C10_13 
REMARK    5  A    between atoms: C10_13  and  C11_14 
REMARK    6  A    between atoms: C11_14  and  C12_15 
REMARK    7  A    between atoms: C12_15  and  C13_16 
REMARK    8  A    between atoms: N3_18  and  C15_19 
REMARK    9  A    between atoms: C15_19  and  C16_20 
REMARK   10  A    between atoms: C16_20  and  O2_21 
REMARK   11  A    between atoms: C16_20  and  C17_23 
REMARK   12  A    between atoms: C17_23  and  O3_24 
REMARK   13  A    between atoms: N4_28  and  C20_29 
ROOT
HETATM    1  C10 UNL     1      17.678  21.716  19.572  1.00  0.00     0.020 C 
ENDROOT
BRANCH   1   2
HETATM    2  C9  UNL     1      18.593  22.473  18.686  1.00  0.00     0.117 C 
BRANCH   2   3
HETATM    3  N2  UNL     1      17.972  23.218  17.653  1.00  0.00    -0.409 N 
HETATM    4  C8  UNL     1      17.790  24.597  17.977  1.00  0.00     0.136 C 
HETATM    5  C7  UNL     1      17.628  25.469  16.740  1.00  0.00     0.142 C 
HETATM    6  N1  UNL     1      18.787  25.288  15.861  1.00  0.00    -0.376 N 
HETATM    7  C25 UNL     1      19.466  23.990  15.942  1.00  0.00     0.142 C 
HETATM    8  C24 UNL     1      18.349  23.010  16.324  1.00  0.00     0.136 C 
BRANCH   6   9
HETATM    9  C6  UNL     1      19.233  26.294  14.996  1.00  0.00     0.058 A 
HETATM   10  C5  UNL     1      20.382  27.040  15.131  1.00  0.00     0.019 A 
HETATM   11  C4  UNL     1      21.399  27.064  16.061  1.00  0.00     0.019 A 
HETATM   12  C27 UNL     1      20.394  27.901  14.037  1.00  0.00     0.047 A 
HETATM   13  C3  UNL     1      22.423  27.973  15.863  1.00  0.00     0.038 A 
HETATM   14  C2  UNL     1      22.467  28.840  14.793  1.00  0.00     0.070 A 
HETATM   15  C28 UNL     1      21.441  28.791  13.885  1.00  0.00     0.067 A 
HETATM   16  N5  UNL     1      19.305  27.695  13.271  1.00  0.00    -0.363 N 
HETATM   17  C26 UNL     1      18.586  26.719  13.840  1.00  0.00     0.118 A 
ATOM     18  H5  UNL     1      19.071  28.192  12.412  1.00  0.00     0.165 HD
BRANCH  14  19
HETATM   19  O1  UNL     1      23.506  29.731  14.631  1.00  0.00    -0.356 OA
HETATM   20  C1  UNL     1      24.660  29.583  15.431  1.00  0.00     0.210 C 
ENDBRANCH  14  19
ENDBRANCH   6   9
ENDBRANCH   2   3
ENDBRANCH   1   2
BRANCH   1  21
HETATM   21  C11 UNL     1      16.606  20.914  18.866  1.00  0.00     0.007 C 
BRANCH  21  22
HETATM   22  C12 UNL     1      15.231  21.337  19.313  1.00  0.00     0.054 C 
BRANCH  22  23
HETATM   23  C13 UNL     1      14.103  20.690  18.591  1.00  0.00     0.013 C 
HETATM   24  C14 UNL     1      14.546  20.458  17.138  1.00  0.00     0.324 C 
HETATM   25  N3  UNL     1      13.370  20.589  16.301  1.00  0.00     0.097 N 
HETATM   26  C18 UNL     1      12.150  20.481  17.019  1.00  0.00     0.292 C 
HETATM   27  C19 UNL     1      12.191  19.492  18.182  1.00  0.00     0.153 C 
HETATM   28  N4  UNL     1      13.254  19.782  19.133  1.00  0.00    -0.376 N 
BRANCH  25  29
HETATM   29  C15 UNL     1      13.417  21.738  15.471  1.00  0.00     0.306 C 
BRANCH  29  30
HETATM   30  C16 UNL     1      14.710  22.454  15.427  1.00  0.00     0.170 C 
BRANCH  30  31
HETATM   31  O2  UNL     1      14.671  23.792  15.766  1.00  0.00    -0.392 OA
ATOM     32  H2  UNL     1      15.497  24.178  16.031  1.00  0.00     0.210 HD
ENDBRANCH  30  31
BRANCH  30  33
HETATM   33  C17 UNL     1      15.408  22.302  14.077  1.00  0.00     0.197 C 
BRANCH  33  34
HETATM   34  O3  UNL     1      14.973  21.165  13.399  1.00  0.00    -0.398 OA
ATOM     35  H3  UNL     1      15.686  20.558  13.242  1.00  0.00     0.209 HD
ENDBRANCH  33  34
ENDBRANCH  30  33
ENDBRANCH  29  30
ENDBRANCH  25  29
BRANCH  28  36
HETATM   36  C20 UNL     1      13.385  18.884  20.157  1.00  0.00     0.021 C 
HETATM   37  C21 UNL     1      14.340  17.776  19.605  1.00  0.00     0.037 C 
HETATM   38  C22 UNL     1      14.127  19.326  21.400  1.00  0.00     0.037 C 
HETATM   39  C23 UNL     1      12.181  18.094  20.603  1.00  0.00     0.037 C 
ENDBRANCH  28  36
ENDBRANCH  22  23
ENDBRANCH  21  22
ENDBRANCH   1  21
TORSDOF 13
ENDMDL
MODEL 2
REMARK VINA RESULT: -8.988407860      1.963      3.832
REMARK  13 active torsions:
REMARK  status: ('A' for Active; 'I' for Inactive)
REMARK    1  A    between atoms: O1_2  and  C2_3 
REMARK    2  A    between atoms: C6_7  and  N1_8 
REMARK    3  A    between atoms: N2_11  and  C9_12 
REMARK    4  A    between atoms: C9_12  and  C10_13 
REMARK    5  A    between atoms: C10_13  and  C11_14 
REMARK    6  A    between atoms: C11_14  and  C12_15 
REMARK    7  A    between atoms: C12_15  and  C13_16 
REMARK    8  A    between atoms: N3_18  and  C15_19 
REMARK    9  A    between atoms: C15_19  and  C16_20 
REMARK   10  A    between atoms: C16_20  and  O2_21 
REMARK   11  A    between atoms: C16_20  and  C17_23 
REMARK   12  A    between atoms: C17_23  and  O3_24 
REMARK   13  A    between atoms: N4_28  and  C20_29 
ROOT
HETATM    1  C10 UNL     1      17.500  21.525  19.268  1.00  0.00     0.020 C 
ENDROOT
BRANCH   1   2
HETATM    2  C9  UNL     1      17.678  22.946  18.888  1.00  0.00     0.117 C 
BRANCH   2   3
HETATM    3  N2  UNL     1      18.781  23.223  18.043  1.00  0.00    -0.409 N 
HETATM    4  C8  UNL     1      18.484  23.073  16.655  1.00  0.00     0.136 C 
HETATM    5  C7  UNL     1      19.447  23.847  15.766  1.00  0.00     0.142 C 
HETATM    6  N1  UNL     1      19.436  25.262  16.153  1.00  0.00    -0.376 N 
HETATM    7  C25 UNL     1      19.102  25.549  17.551  1.00  0.00     0.142 C 
HETATM    8  C24 UNL     1      19.605  24.318  18.314  1.00  0.00     0.136 C 
BRANCH   6   9
HETATM    9  C6  UNL     1      19.720  26.287  15.242  1.00  0.00     0.058 A 
HETATM   10  C5  UNL     1      20.844  27.082  15.230  1.00  0.00     0.019 A 
HETATM   11  C4  UNL     1      21.970  27.152  16.021  1.00  0.00     0.019 A 
HETATM   12  C27 UNL     1      20.675  27.942  14.149  1.00  0.00     0.047 A 
HETATM   13  C3  UNL     1      22.919  28.106  15.696  1.00  0.00     0.038 A 
HETATM   14  C2  UNL     1      22.785  28.973  14.634  1.00  0.00     0.070 A 
HETATM   15  C28 UNL     1      21.653  28.878  13.866  1.00  0.00     0.067 A 
HETATM   16  N5  UNL     1      19.506  27.687  13.529  1.00  0.00    -0.363 N 
HETATM   17  C26 UNL     1      18.911  26.681  14.182  1.00  0.00     0.118 A 
ATOM     18  H5  UNL     1      19.140  28.173  12.710  1.00  0.00     0.165 HD
BRANCH  14  19
HETATM   19  O1  UNL     1      23.754  29.910  14.343  1.00  0.00    -0.356 OA
HETATM   20  C1  UNL     1      24.900  29.980  15.164  1.00  0.00     0.210 C 
ENDBRANCH  14  19
ENDBRANCH   6   9
ENDBRANCH   2   3
ENDBRANCH   1   2
BRANCH   1  21
HETATM   21  C11 UNL     1      16.106  20.970  19.072  1.00  0.00     0.007 C 
BRANCH  21  22
HETATM   22  C12 UNL     1      15.888  20.548  17.642  1.00  0.00     0.054 C 
BRANCH  22  23
HETATM   23  C13 UNL     1      14.485  20.649  17.158  1.00  0.00     0.013 C 
HETATM   24  C14 UNL     1      13.564  20.675  18.388  1.00  0.00     0.324 C 
HETATM   25  N3  UNL     1      12.329  20.015  18.017  1.00  0.00     0.097 N 
HETATM   26  C18 UNL     1      12.144  19.907  16.614  1.00  0.00     0.292 C 
HETATM   27  C19 UNL     1      12.679  21.094  15.818  1.00  0.00     0.153 C 
HETATM   28  N4  UNL     1      14.088  21.357  16.071  1.00  0.00    -0.376 N 
BRANCH  25  29
HETATM   29  C15 UNL     1      12.149  18.779  18.690  1.00  0.00     0.306 C 
BRANCH  29  30
HETATM   30  C16 UNL     1      13.283  18.321  19.522  1.00  0.00     0.170 C 
BRANCH  30  31
HETATM   31  O2  UNL     1      13.989  17.238  19.038  1.00  0.00    -0.392 OA
ATOM     32  H2  UNL     1      14.288  16.614  19.687  1.00  0.00     0.210 HD
ENDBRANCH  30  31
BRANCH  30  33
HETATM   33  C17 UNL     1      12.863  18.039  20.963  1.00  0.00     0.197 C 
BRANCH  33  34
HETATM   34  O3  UNL     1      11.724  18.759  21.317  1.00  0.00    -0.398 OA
ATOM     35  H3  UNL     1      11.024  18.186  21.606  1.00  0.00     0.209 HD
ENDBRANCH  33  34
ENDBRANCH  30  33
ENDBRANCH  29  30
ENDBRANCH  25  29
BRANCH  28  36
HETATM   36  C20 UNL     1      14.603  22.456  15.440  1.00  0.00     0.021 C 
HETATM   37  C21 UNL     1      13.370  23.162  14.786  1.00  0.00     0.037 C 
HETATM   38  C22 UNL     1      15.167  23.569  16.296  1.00  0.00     0.037 C 
HETATM   39  C23 UNL     1      15.535  22.265  14.271  1.00  0.00     0.037 C 
ENDBRANCH  28  36
ENDBRANCH  22  23
ENDBRANCH  21  22
ENDBRANCH   1  21
TORSDOF 13
ENDMDL
MODEL 3
REMARK VINA RESULT: -8.825743291      2.100      3.921
REMARK  13 active torsions:
REMARK  status: ('A' for Active; 'I' for Inactive)
REMARK    1  A    between atoms: O1_2  and  C2_3 
REMARK    2  A    between atoms: C6_7  and  N1_8 
REMARK    3  A    between atoms: N2_11  and  C9_12 
REMARK    4  A    between atoms: C9_12  and  C10_13 
REMARK    5  A    between atoms: C10_13  and  C11_14 
REMARK    6  A    between atoms: C11_14  and  C12_15 
REMARK    7  A    between atoms: C12_15  and  C13_16 
REMARK    8  A    between atoms: N3_18  and  C15_19 
REMARK    9  A    between atoms: C15_19  and  C16_20 
REMARK   10  A    between atoms: C16_20  and  O2_21 
REMARK   11  A    between atoms: C16_20  and  C17_23 
REMARK   12  A    between atoms: C17_23  and  O3_24 
REMARK   13  A    between atoms: N4_28  and  C20_29 
ROOT
HETATM    1  C10 UNL     1      18.075  22.149  19.095  1.00  0.00     0.020 C 
ENDROOT
BRANCH   1   2
HETATM    2  C9  UNL     1      18.015  23.352  18.232  1.00  0.00     0.117 C 
BRANCH   2   3
HETATM    3  N2  UNL     1      19.207  23.667  17.534  1.00  0.00    -0.409 N 
HETATM    4  C8  UNL     1      19.059  23.633  16.114  1.00  0.00     0.136 C 
HETATM    5  C7  UNL     1      20.125  24.451  15.398  1.00  0.00     0.142 C 
HETATM    6  N1  UNL     1      20.094  25.831  15.893  1.00  0.00    -0.376 N 
HETATM    7  C25 UNL     1      19.616  26.016  17.266  1.00  0.00     0.142 C 
HETATM    8  C24 UNL     1      20.014  24.717  17.977  1.00  0.00     0.136 C 
BRANCH   6   9
HETATM    9  C6  UNL     1      20.491  26.916  15.102  1.00  0.00     0.058 A 
HETATM   10  C5  UNL     1      21.668  27.622  15.213  1.00  0.00     0.019 A 
HETATM   11  C4  UNL     1      22.761  27.527  16.047  1.00  0.00     0.019 A 
HETATM   12  C27 UNL     1      21.609  28.595  14.219  1.00  0.00     0.047 A 
HETATM   13  C3  UNL     1      23.789  28.433  15.856  1.00  0.00     0.038 A 
HETATM   14  C2  UNL     1      23.765  29.409  14.883  1.00  0.00     0.070 A 
HETATM   15  C28 UNL     1      22.663  29.477  14.069  1.00  0.00     0.067 A 
HETATM   16  N5  UNL     1      20.453  28.492  13.535  1.00  0.00    -0.363 N 
HETATM   17  C26 UNL     1      19.759  27.474  14.060  1.00  0.00     0.118 A 
ATOM     18  H5  UNL     1      20.159  29.083  12.757  1.00  0.00     0.165 HD
BRANCH  14  19
HETATM   19  O1  UNL     1      24.810  30.294  14.725  1.00  0.00    -0.356 OA
HETATM   20  C1  UNL     1      25.812  30.348  15.718  1.00  0.00     0.210 C 
ENDBRANCH  14  19
ENDBRANCH   6   9
ENDBRANCH   2   3
ENDBRANCH   1   2
BRANCH   1  21
HETATM   21  C11 UNL     1      17.075  21.062  18.763  1.00  0.00     0.007 C 
BRANCH  21  22
HETATM   22  C12 UNL     1      16.597  21.183  17.339  1.00  0.00     0.054 C 
BRANCH  22  23
HETATM   23  C13 UNL     1      15.128  21.051  17.151  1.00  0.00     0.013 C 
HETATM   24  C14 UNL     1      14.455  21.292  18.510  1.00  0.00     0.324 C 
HETATM   25  N3  UNL     1      13.267  20.463  18.559  1.00  0.00     0.097 N 
HETATM   26  C18 UNL     1      12.841  20.011  17.283  1.00  0.00     0.292 C 
HETATM   27  C19 UNL     1      13.062  21.015  16.155  1.00  0.00     0.153 C 
HETATM   28  N4  UNL     1      14.449  21.445  16.044  1.00  0.00    -0.376 N 
BRANCH  25  29
HETATM   29  C15 UNL     1      13.375  19.412  19.505  1.00  0.00     0.306 C 
BRANCH  29  30
HETATM   30  C16 UNL     1      12.118  18.707  19.838  1.00  0.00     0.170 C 
BRANCH  30  31
HETATM   31  O2  UNL     1      11.709  18.793  21.154  1.00  0.00    -0.392 OA
ATOM     32  H2  UNL     1      12.160  18.226  21.767  1.00  0.00     0.210 HD
ENDBRANCH  30  31
BRANCH  30  33
HETATM   33  C17 UNL     1      12.153  17.238  19.422  1.00  0.00     0.197 C 
BRANCH  33  34
HETATM   34  O3  UNL     1      13.370  16.899  18.834  1.00  0.00    -0.398 OA
ATOM     35  H3  UNL     1      13.329  16.050  18.409  1.00  0.00     0.209 HD
ENDBRANCH  33  34
ENDBRANCH  30  33
ENDBRANCH  29  30
ENDBRANCH  25  29
BRANCH  28  36
HETATM   36  C20 UNL     1      14.693  22.401  15.097  1.00  0.00     0.021 C 
HETATM   37  C21 UNL     1      13.308  23.081  14.842  1.00  0.00     0.037 C 
HETATM   38  C22 UNL     1      15.542  23.591  15.489  1.00  0.00     0.037 C 
HETATM   39  C23 UNL     1      15.115  21.977  13.714  1.00  0.00     0.037 C 
ENDBRANCH  28  36
ENDBRANCH  22  23
ENDBRANCH  21  22
ENDBRANCH   1  21
TORSDOF 13
ENDMDL
MODEL 4
REMARK VINA RESULT: -8.814662594      1.414      1.668
REMARK  13 active torsions:
REMARK  status: ('A' for Active; 'I' for Inactive)
REMARK    1  A    between atoms: O1_2  and  C2_3 
REMARK    2  A    between atoms: C6_7  and  N1_8 
REMARK    3  A    between atoms: N2_11  and  C9_12 
REMARK    4  A    between atoms: C9_12  and  C10_13 
REMARK    5  A    between atoms: C10_13  and  C11_14 
REMARK    6  A    between atoms: C11_14  and  C12_15 
REMARK    7  A    between atoms: C12_15  and  C13_16 
REMARK    8  A    between atoms: N3_18  and  C15_19 
REMARK    9  A    between atoms: C15_19  and  C16_20 
REMARK   10  A    between atoms: C16_20  and  O2_21 
REMARK   11  A    between atoms: C16_20  and  C17_23 
REMARK   12  A    between atoms: C17_23  and  O3_24 
REMARK   13  A    between atoms: N4_28  and  C20_29 
ROOT
HETATM    1  C10 UNL     1      17.337  21.654  19.355  1.00  0.00     0.020 C 
ENDROOT
BRANCH   1   2
HETATM    2  C9  UNL     1      18.307  22.369  18.492  1.00  0.00     0.117 C 
BRANCH   2   3
HETATM    3  N2  UNL     1      17.744  23.179  17.475  1.00  0.00    -0.409 N 
HETATM    4  C8  UNL     1      17.617  24.551  17.846  1.00  0.00     0.136 C 
HETATM    5  C7  UNL     1      17.524  25.475  16.640  1.00  0.00     0.142 C 
HETATM    6  N1  UNL     1      18.695  25.273  15.781  1.00  0.00    -0.376 N 
HETATM    7  C25 UNL     1      19.312  23.944  15.828  1.00  0.00     0.142 C 
HETATM    8  C24 UNL     1      18.144  23.003  16.148  1.00  0.00     0.136 C 
BRANCH   6   9
HETATM    9  C6  UNL     1      19.205  26.290  14.964  1.00  0.00     0.058 A 
HETATM   10  C5  UNL     1      20.354  27.016  15.184  1.00  0.00     0.019 A 
HETATM   11  C4  UNL     1      21.311  27.008  16.175  1.00  0.00     0.019 A 
HETATM   12  C27 UNL     1      20.443  27.898  14.110  1.00  0.00     0.047 A 
HETATM   13  C3  UNL     1      22.357  27.906  16.058  1.00  0.00     0.038 A 
HETATM   14  C2  UNL     1      22.478  28.793  15.010  1.00  0.00     0.070 A 
HETATM   15  C28 UNL     1      21.509  28.775  14.040  1.00  0.00     0.067 A 
HETATM   16  N5  UNL     1      19.401  27.721  13.275  1.00  0.00    -0.363 N 
HETATM   17  C26 UNL     1      18.636  26.745  13.780  1.00  0.00     0.118 A 
ATOM     18  H5  UNL     1      19.227  28.238  12.413  1.00  0.00     0.165 HD
BRANCH  14  19
HETATM   19  O1  UNL     1      23.536  29.673  14.930  1.00  0.00    -0.356 OA
HETATM   20  C1  UNL     1      24.675  29.443  15.733  1.00  0.00     0.210 C 
ENDBRANCH  14  19
ENDBRANCH   6   9
ENDBRANCH   2   3
ENDBRANCH   1   2
BRANCH   1  21
HETATM   21  C11 UNL     1      16.262  20.882  18.622  1.00  0.00     0.007 C 
BRANCH  21  22
HETATM   22  C12 UNL     1      14.898  21.462  18.893  1.00  0.00     0.054 C 
BRANCH  22  23
HETATM   23  C13 UNL     1      13.754  20.649  18.402  1.00  0.00     0.013 C 
HETATM   24  C14 UNL     1      13.936  20.447  16.889  1.00  0.00     0.324 C 
HETATM   25  N3  UNL     1      12.614  20.395  16.297  1.00  0.00     0.097 N 
HETATM   26  C18 UNL     1      11.583  20.136  17.239  1.00  0.00     0.292 C 
HETATM   27  C19 UNL     1      11.986  19.189  18.366  1.00  0.00     0.153 C 
HETATM   28  N4  UNL     1      13.162  19.644  19.094  1.00  0.00    -0.376 N 
BRANCH  25  29
HETATM   29  C15 UNL     1      12.338  21.521  15.480  1.00  0.00     0.306 C 
BRANCH  29  30
HETATM   30  C16 UNL     1      11.678  21.239  14.187  1.00  0.00     0.170 C 
BRANCH  30  31
HETATM   31  O2  UNL     1      10.331  21.534  14.121  1.00  0.00    -0.392 OA
ATOM     32  H2  UNL     1       9.804  20.950  13.589  1.00  0.00     0.210 HD
ENDBRANCH  30  31
BRANCH  30  33
HETATM   33  C17 UNL     1      11.896  19.798  13.730  1.00  0.00     0.197 C 
BRANCH  33  34
HETATM   34  O3  UNL     1      10.706  19.207  13.309  1.00  0.00    -0.398 OA
ATOM     35  H3  UNL     1      10.392  18.567  13.937  1.00  0.00     0.209 HD
ENDBRANCH  33  34
ENDBRANCH  30  33
ENDBRANCH  29  30
ENDBRANCH  25  29
BRANCH  28  36
HETATM   36  C20 UNL     1      13.612  18.796  20.069  1.00  0.00     0.021 C 
HETATM   37  C21 UNL     1      12.378  17.909  20.436  1.00  0.00     0.037 C 
HETATM   38  C22 UNL     1      14.632  17.747  19.683  1.00  0.00     0.037 C 
HETATM   39  C23 UNL     1      14.024  19.362  21.404  1.00  0.00     0.037 C 
ENDBRANCH  28  36
ENDBRANCH  22  23
ENDBRANCH  21  22
ENDBRANCH   1  21
TORSDOF 13
ENDMDL
MODEL 5
REMARK VINA RESULT: -8.738212351      1.118      1.636
REMARK  13 active torsions:
REMARK  status: ('A' for Active; 'I' for Inactive)
REMARK    1  A    between atoms: O1_2  and  C2_3 
REMARK    2  A    between atoms: C6_7  and  N1_8 
REMARK    3  A    between atoms: N2_11  and  C9_12 
REMARK    4  A    between atoms: C9_12  and  C10_13 
REMARK    5  A    between atoms: C10_13  and  C11_14 
REMARK    6  A    between atoms: C11_14  and  C12_15 
REMARK    7  A    between atoms: C12_15  and  C13_16 
REMARK    8  A    between atoms: N3_18  and  C15_19 
REMARK    9  A    between atoms: C15_19  and  C16_20 
REMARK   10  A    between atoms: C16_20  and  O2_21 
REMARK   11  A    between atoms: C16_20  and  C17_23 
REMARK   12  A    between atoms: C17_23  and  O3_24 
REMARK   13  A    between atoms: N4_28  and  C20_29 
ROOT
HETATM    1  C10 UNL     1      17.921  22.146  19.346  1.00  0.00     0.020 C 
ENDROOT
BRANCH   1   2
HETATM    2  C9  UNL     1      17.877  23.383  18.531  1.00  0.00     0.117 C 
BRANCH   2   3
HETATM    3  N2  UNL     1      19.005  23.617  17.708  1.00  0.00    -0.409 N 
HETATM    4  C8  UNL     1      18.698  23.637  16.314  1.00  0.00     0.136 C 
HETATM    5  C7  UNL     1      19.743  24.383  15.497  1.00  0.00     0.142 C 
HETATM    6  N1  UNL     1      19.887  25.746  16.019  1.00  0.00    -0.376 N 
HETATM    7  C25 UNL     1      19.582  25.931  17.441  1.00  0.00     0.142 C 
HETATM    8  C24 UNL     1      19.945  24.583  18.077  1.00  0.00     0.136 C 
BRANCH   6   9
HETATM    9  C6  UNL     1      20.285  26.817  15.209  1.00  0.00     0.058 A 
HETATM   10  C5  UNL     1      21.466  27.518  15.303  1.00  0.00     0.019 A 
HETATM   11  C4  UNL     1      22.563  27.431  16.133  1.00  0.00     0.019 A 
HETATM   12  C27 UNL     1      21.406  28.476  14.295  1.00  0.00     0.047 A 
HETATM   13  C3  UNL     1      23.594  28.329  15.922  1.00  0.00     0.038 A 
HETATM   14  C2  UNL     1      23.569  29.289  14.935  1.00  0.00     0.070 A 
HETATM   15  C28 UNL     1      22.464  29.350  14.126  1.00  0.00     0.067 A 
HETATM   16  N5  UNL     1      20.247  28.368  13.618  1.00  0.00    -0.363 N 
HETATM   17  C26 UNL     1      19.550  27.362  14.162  1.00  0.00     0.118 A 
ATOM     18  H5  UNL     1      19.952  28.948  12.832  1.00  0.00     0.165 HD
BRANCH  14  19
HETATM   19  O1  UNL     1      24.618  30.167  14.757  1.00  0.00    -0.356 OA
HETATM   20  C1  UNL     1      25.586  30.285  15.779  1.00  0.00     0.210 C 
ENDBRANCH  14  19
ENDBRANCH   6   9
ENDBRANCH   2   3
ENDBRANCH   1   2
BRANCH   1  21
HETATM   21  C11 UNL     1      17.020  21.025  18.875  1.00  0.00     0.007 C 
BRANCH  21  22
HETATM   22  C12 UNL     1      15.679  21.086  19.558  1.00  0.00     0.054 C 
BRANCH  22  23
HETATM   23  C13 UNL     1      14.528  20.622  18.738  1.00  0.00     0.013 C 
HETATM   24  C14 UNL     1      15.045  20.336  17.320  1.00  0.00     0.324 C 
HETATM   25  N3  UNL     1      13.973  20.649  16.396  1.00  0.00     0.097 N 
HETATM   26  C18 UNL     1      12.697  20.721  17.015  1.00  0.00     0.292 C 
HETATM   27  C19 UNL     1      12.497  19.729  18.158  1.00  0.00     0.153 C 
HETATM   28  N4  UNL     1      13.512  19.847  19.195  1.00  0.00    -0.376 N 
BRANCH  25  29
HETATM   29  C15 UNL     1      14.258  21.784  15.595  1.00  0.00     0.306 C 
BRANCH  29  30
HETATM   30  C16 UNL     1      13.796  23.085  16.124  1.00  0.00     0.170 C 
BRANCH  30  31
HETATM   31  O2  UNL     1      13.353  23.995  15.186  1.00  0.00    -0.392 OA
ATOM     32  H2  UNL     1      12.574  24.486  15.419  1.00  0.00     0.210 HD
ENDBRANCH  30  31
BRANCH  30  33
HETATM   33  C17 UNL     1      14.845  23.753  17.011  1.00  0.00     0.197 C 
BRANCH  33  34
HETATM   34  O3  UNL     1      14.321  24.101  18.254  1.00  0.00    -0.398 OA
ATOM     35  H3  UNL     1      14.814  23.707  18.964  1.00  0.00     0.209 HD
ENDBRANCH  33  34
ENDBRANCH  30  33
ENDBRANCH  29  30
ENDBRANCH  25  29
BRANCH  28  36
HETATM   36  C20 UNL     1      13.424  18.933  20.208  1.00  0.00     0.021 C 
HETATM   37  C21 UNL     1      14.264  17.707  19.721  1.00  0.00     0.037 C 
HETATM   38  C22 UNL     1      14.103  19.259  21.521  1.00  0.00     0.037 C 
HETATM   39  C23 UNL     1      12.088  18.314  20.529  1.00  0.00     0.037 C 
ENDBRANCH  28  36
ENDBRANCH  22  23
ENDBRANCH  21  22
ENDBRANCH   1  21
TORSDOF 13
ENDMDL
