MODEL 1
REMARK VINA RESULT: -9.279412230      0.000      0.000
REMARK  11 active torsions:
REMARK  status: ('A' for Active; 'I' for Inactive)
REMARK    1  A    between atoms: C2_2  and  C3_3 
REMARK    2  A    between atoms: N2_7  and  C5_9 
REMARK    3  A    between atoms: C5_9  and  C6_10 
REMARK    4  A    between atoms: C6_10  and  N3_11 
REMARK    5  A    between atoms: N3_11  and  C7_12 
REMARK       I    between atoms: N3_11  and  C13_21 
REMARK    6  A    between atoms: C7_12  and  C8_13 
REMARK    7  A    between atoms: C8_13  and  C9_14 
REMARK       I    between atoms: C9_14  and  N4_16 
REMARK    8  A    between atoms: N4_16  and  C10_18 
REMARK       I    between atoms: C13_21  and  N5_23 
REMARK    9  A    between atoms: N5_23  and  C14_25 
REMARK   10  A    between atoms: C20_33  and  N7_34 
REMARK   11  A    between atoms: C24_38  and  N8_39 
ROOT
HETATM    1  C6  UNL     1     -14.657 -20.080 -15.269  1.00  0.00     0.147 C 
ENDROOT
BRANCH   1   2
HETATM    2  C5  UNL     1     -16.136 -20.364 -15.131  1.00  0.00     0.158 C 
BRANCH   2   3
HETATM    3  N2  UNL     1     -16.850 -20.339 -16.367  1.00  0.00    -0.224 N 
HETATM    4  C4  UNL     1     -17.747 -19.461 -16.616  1.00  0.00     0.680 A 
HETATM    5  N1  UNL     1     -18.093 -18.508 -15.763  1.00  0.00    -0.193 N 
HETATM    6  N6  UNL     1     -18.394 -19.498 -17.826  1.00  0.00    -0.174 N 
HETATM    7  C3  UNL     1     -19.053 -17.558 -16.006  1.00  0.00     0.063 A 
ATOM      8  H1  UNL     1     -17.613 -18.478 -14.864  1.00  0.00     0.184 HD
HETATM    9  C24 UNL     1     -19.680 -17.627 -17.231  1.00  0.00     0.170 A 
HETATM   10  C20 UNL     1     -19.335 -18.623 -18.153  1.00  0.00     0.154 A 
ATOM     11  H6  UNL     1     -18.144 -20.225 -18.496  1.00  0.00     0.186 HD
ATOM     12  H2  UNL     1     -16.638 -21.043 -17.074  1.00  0.00     0.177 HD
BRANCH   7  13
HETATM   13  C2  UNL     1     -19.360 -16.531 -14.982  1.00  0.00     0.056 C 
HETATM   14  C1  UNL     1     -18.448 -16.571 -13.797  1.00  0.00     0.011 C 
ENDBRANCH   7  13
BRANCH   9  15
HETATM   15  N8  UNL     1     -20.685 -16.687 -17.505  1.00  0.00    -0.110 N 
HETATM   16  O3  UNL     1     -21.880 -16.888 -17.245  1.00  0.00    -0.532 OA
HETATM   17  O4  UNL     1     -20.410 -15.453 -18.095  1.00  0.00    -0.532 OA
ENDBRANCH   9  15
BRANCH  10  18
HETATM   18  N7  UNL     1     -20.013 -18.639 -19.396  1.00  0.00    -0.365 N 
HETATM   19  C21 UNL     1     -19.775 -18.037 -20.678  1.00  0.00     0.126 C 
HETATM   20  C22 UNL     1     -21.280 -18.088 -20.946  1.00  0.00     0.040 C 
HETATM   21  C23 UNL     1     -21.221 -19.238 -19.965  1.00  0.00     0.126 C 
ENDBRANCH  10  18
ENDBRANCH   2   3
ENDBRANCH   1   2
BRANCH   1  22
HETATM   22  N3  UNL     1     -14.031 -21.372 -15.616  1.00  0.00    -0.332 N 
HETATM   23  C13 UNL     1     -13.786 -21.727 -16.954  1.00  0.00     0.318 C 
HETATM   24  O2  UNL     1     -14.086 -20.943 -17.880  1.00  0.00    -0.247 OA
HETATM   25  N5  UNL     1     -13.204 -22.961 -17.288  1.00  0.00    -0.338 N 
ATOM     26  H5  UNL     1     -12.959 -23.602 -16.533  1.00  0.00     0.164 HD
BRANCH  22  27
HETATM   27  C7  UNL     1     -13.654 -22.276 -14.544  1.00  0.00     0.136 C 
BRANCH  27  28
HETATM   28  C8  UNL     1     -12.207 -22.078 -14.180  1.00  0.00     0.122 C 
BRANCH  28  29
HETATM   29  C9  UNL     1     -11.709 -23.134 -13.279  1.00  0.00     0.219 C 
HETATM   30  O1  UNL     1     -10.610 -23.033 -12.655  1.00  0.00    -0.274 OA
HETATM   31  N4  UNL     1     -12.467 -24.314 -13.089  1.00  0.00    -0.356 N 
ATOM     32  H4  UNL     1     -13.354 -24.415 -13.583  1.00  0.00     0.162 HD
BRANCH  31  33
HETATM   33  C10 UNL     1     -12.023 -25.391 -12.211  1.00  0.00     0.084 A 
HETATM   34  C11 UNL     1     -13.037 -26.481 -11.928  1.00  0.00     0.027 A 
HETATM   35  C12 UNL     1     -11.804 -26.747 -12.756  1.00  0.00     0.027 A 
ENDBRANCH  31  33
ENDBRANCH  28  29
ENDBRANCH  27  28
ENDBRANCH  22  27
BRANCH  25  36
HETATM   36  C14 UNL     1     -12.934 -23.366 -18.660  1.00  0.00     0.086 C 
HETATM   37  C15 UNL     1     -11.712 -24.275 -18.722  1.00  0.00     0.025 C 
HETATM   38  C16 UNL     1     -11.398 -24.508 -20.193  1.00  0.00     0.002 C 
HETATM   39  C17 UNL     1     -12.556 -25.281 -20.786  1.00  0.00     0.000 C 
HETATM   40  C18 UNL     1     -13.868 -24.558 -20.595  1.00  0.00     0.002 C 
HETATM   41  C19 UNL     1     -14.111 -24.175 -19.172  1.00  0.00     0.025 C 
ENDBRANCH  25  36
ENDBRANCH   1  22
TORSDOF 11
ENDMDL
MODEL 2
REMARK VINA RESULT: -9.068366532      1.147      2.709
REMARK  11 active torsions:
REMARK  status: ('A' for Active; 'I' for Inactive)
REMARK    1  A    between atoms: C2_2  and  C3_3 
REMARK    2  A    between atoms: N2_7  and  C5_9 
REMARK    3  A    between atoms: C5_9  and  C6_10 
REMARK    4  A    between atoms: C6_10  and  N3_11 
REMARK    5  A    between atoms: N3_11  and  C7_12 
REMARK       I    between atoms: N3_11  and  C13_21 
REMARK    6  A    between atoms: C7_12  and  C8_13 
REMARK    7  A    between atoms: C8_13  and  C9_14 
REMARK       I    between atoms: C9_14  and  N4_16 
REMARK    8  A    between atoms: N4_16  and  C10_18 
REMARK       I    between atoms: C13_21  and  N5_23 
REMARK    9  A    between atoms: N5_23  and  C14_25 
REMARK   10  A    between atoms: C20_33  and  N7_34 
REMARK   11  A    between atoms: C24_38  and  N8_39 
ROOT
HETATM    1  C6  UNL     1     -14.956 -19.909 -15.747  1.00  0.00     0.147 C 
ENDROOT
BRANCH   1   2
HETATM    2  C5  UNL     1     -16.428 -20.246 -15.821  1.00  0.00     0.158 C 
BRANCH   2   3
HETATM    3  N2  UNL     1     -17.280 -19.250 -15.252  1.00  0.00    -0.224 N 
HETATM    4  C4  UNL     1     -18.137 -18.607 -15.953  1.00  0.00     0.680 A 
HETATM    5  N1  UNL     1     -18.311 -18.801 -17.252  1.00  0.00    -0.193 N 
HETATM    6  N6  UNL     1     -18.921 -17.663 -15.340  1.00  0.00    -0.174 N 
HETATM    7  C3  UNL     1     -19.219 -18.123 -18.024  1.00  0.00     0.063 A 
ATOM      8  H1  UNL     1     -17.729 -19.503 -17.710  1.00  0.00     0.184 HD
HETATM    9  C24 UNL     1     -19.990 -17.183 -17.373  1.00  0.00     0.170 A 
HETATM   10  C20 UNL     1     -19.828 -16.957 -16.001  1.00  0.00     0.154 A 
ATOM     11  H6  UNL     1     -18.802 -17.498 -14.340  1.00  0.00     0.186 HD
ATOM     12  H2  UNL     1     -17.203 -19.045 -14.256  1.00  0.00     0.177 HD
BRANCH   7  13
HETATM   13  C2  UNL     1     -19.337 -18.421 -19.472  1.00  0.00     0.056 C 
HETATM   14  C1  UNL     1     -18.090 -18.990 -20.072  1.00  0.00     0.011 C 
ENDBRANCH   7  13
BRANCH   9  15
HETATM   15  N8  UNL     1     -20.913 -16.452 -18.136  1.00  0.00    -0.110 N 
HETATM   16  O3  UNL     1     -22.002 -16.919 -18.499  1.00  0.00    -0.532 OA
HETATM   17  O4  UNL     1     -20.669 -15.140 -18.543  1.00  0.00    -0.532 OA
ENDBRANCH   9  15
BRANCH  10  18
HETATM   18  N7  UNL     1     -20.651 -15.982 -15.388  1.00  0.00    -0.365 N 
HETATM   19  C21 UNL     1     -22.063 -15.865 -15.148  1.00  0.00     0.126 C 
HETATM   20  C22 UNL     1     -21.906 -14.343 -15.150  1.00  0.00     0.040 C 
HETATM   21  C23 UNL     1     -20.491 -14.682 -14.734  1.00  0.00     0.126 C 
ENDBRANCH  10  18
ENDBRANCH   2   3
ENDBRANCH   1   2
BRANCH   1  22
HETATM   22  N3  UNL     1     -14.242 -21.188 -15.944  1.00  0.00    -0.332 N 
HETATM   23  C13 UNL     1     -13.900 -21.641 -17.229  1.00  0.00     0.318 C 
HETATM   24  O2  UNL     1     -14.187 -20.958 -18.236  1.00  0.00    -0.247 OA
HETATM   25  N5  UNL     1     -13.234 -22.863 -17.420  1.00  0.00    -0.338 N 
ATOM     26  H5  UNL     1     -13.000 -23.422 -16.599  1.00  0.00     0.164 HD
BRANCH  22  27
HETATM   27  C7  UNL     1     -13.881 -21.973 -14.776  1.00  0.00     0.136 C 
BRANCH  27  28
HETATM   28  C8  UNL     1     -12.456 -21.694 -14.382  1.00  0.00     0.122 C 
BRANCH  28  29
HETATM   29  C9  UNL     1     -11.902 -22.747 -13.510  1.00  0.00     0.219 C 
HETATM   30  O1  UNL     1     -10.740 -22.674 -13.010  1.00  0.00    -0.274 OA
HETATM   31  N4  UNL     1     -12.678 -23.891 -13.208  1.00  0.00    -0.356 N 
ATOM     32  H4  UNL     1     -13.616 -23.969 -13.601  1.00  0.00     0.162 HD
BRANCH  31  33
HETATM   33  C10 UNL     1     -12.182 -24.965 -12.353  1.00  0.00     0.084 A 
HETATM   34  C11 UNL     1     -13.128 -26.125 -12.122  1.00  0.00     0.027 A 
HETATM   35  C12 UNL     1     -11.866 -26.286 -12.933  1.00  0.00     0.027 A 
ENDBRANCH  31  33
ENDBRANCH  28  29
ENDBRANCH  27  28
ENDBRANCH  22  27
BRANCH  25  36
HETATM   36  C14 UNL     1     -12.862 -23.368 -18.734  1.00  0.00     0.086 C 
HETATM   37  C15 UNL     1     -11.675 -24.318 -18.629  1.00  0.00     0.025 C 
HETATM   38  C16 UNL     1     -11.244 -24.658 -20.049  1.00  0.00     0.002 C 
HETATM   39  C17 UNL     1     -12.376 -25.432 -20.692  1.00  0.00     0.000 C 
HETATM   40  C18 UNL     1     -13.671 -24.656 -20.664  1.00  0.00     0.002 C 
HETATM   41  C19 UNL     1     -14.021 -24.171 -19.295  1.00  0.00     0.025 C 
ENDBRANCH  25  36
ENDBRANCH   1  22
TORSDOF 11
ENDMDL
MODEL 3
REMARK VINA RESULT: -9.030074387      1.442      2.468
REMARK  11 active torsions:
REMARK  status: ('A' for Active; 'I' for Inactive)
REMARK    1  A    between atoms: C2_2  and  C3_3 
REMARK    2  A    between atoms: N2_7  and  C5_9 
REMARK    3  A    between atoms: C5_9  and  C6_10 
REMARK    4  A    between atoms: C6_10  and  N3_11 
REMARK    5  A    between atoms: N3_11  and  C7_12 
REMARK       I    between atoms: N3_11  and  C13_21 
REMARK    6  A    between atoms: C7_12  and  C8_13 
REMARK    7  A    between atoms: C8_13  and  C9_14 
REMARK       I    between atoms: C9_14  and  N4_16 
REMARK    8  A    between atoms: N4_16  and  C10_18 
REMARK       I    between atoms: C13_21  and  N5_23 
REMARK    9  A    between atoms: N5_23  and  C14_25 
REMARK   10  A    between atoms: C20_33  and  N7_34 
REMARK   11  A    between atoms: C24_38  and  N8_39 
ROOT
HETATM    1  C6  UNL     1     -14.655 -20.104 -15.201  1.00  0.00     0.147 C 
ENDROOT
BRANCH   1   2
HETATM    2  C5  UNL     1     -16.043 -20.454 -14.715  1.00  0.00     0.158 C 
BRANCH   2   3
HETATM    3  N2  UNL     1     -16.991 -19.396 -14.857  1.00  0.00    -0.224 N 
HETATM    4  C4  UNL     1     -17.708 -19.262 -15.909  1.00  0.00     0.680 A 
HETATM    5  N1  UNL     1     -17.638 -20.080 -16.949  1.00  0.00    -0.193 N 
HETATM    6  N6  UNL     1     -18.598 -18.220 -15.978  1.00  0.00    -0.174 N 
HETATM    7  C3  UNL     1     -18.393 -19.956 -18.088  1.00  0.00     0.063 A 
ATOM      8  H1  UNL     1     -16.977 -20.855 -16.900  1.00  0.00     0.184 HD
HETATM    9  C24 UNL     1     -19.276 -18.898 -18.120  1.00  0.00     0.170 A 
HETATM   10  C20 UNL     1     -19.372 -18.018 -17.035  1.00  0.00     0.154 A 
ATOM     11  H6  UNL     1     -18.667 -17.578 -15.188  1.00  0.00     0.186 HD
ATOM     12  H2  UNL     1     -17.101 -18.724 -14.097  1.00  0.00     0.177 HD
BRANCH   7  13
HETATM   13  C2  UNL     1     -18.239 -20.932 -19.194  1.00  0.00     0.056 C 
HETATM   14  C1  UNL     1     -16.957 -20.787 -19.950  1.00  0.00     0.011 C 
ENDBRANCH   7  13
BRANCH   9  15
HETATM   15  N8  UNL     1     -20.047 -18.725 -19.279  1.00  0.00    -0.110 N 
HETATM   16  O3  UNL     1     -21.198 -19.171 -19.392  1.00  0.00    -0.532 OA
HETATM   17  O4  UNL     1     -19.571 -18.035 -20.394  1.00  0.00    -0.532 OA
ENDBRANCH   9  15
BRANCH  10  18
HETATM   18  N7  UNL     1     -20.301 -16.953 -17.126  1.00  0.00    -0.365 N 
HETATM   19  C21 UNL     1     -21.429 -16.533 -16.342  1.00  0.00     0.126 C 
HETATM   20  C22 UNL     1     -22.018 -15.883 -17.594  1.00  0.00     0.040 C 
HETATM   21  C23 UNL     1     -20.564 -15.816 -18.009  1.00  0.00     0.126 C 
ENDBRANCH  10  18
ENDBRANCH   2   3
ENDBRANCH   1   2
BRANCH   1  22
HETATM   22  N3  UNL     1     -14.022 -21.388 -15.567  1.00  0.00    -0.332 N 
HETATM   23  C13 UNL     1     -13.790 -21.729 -16.911  1.00  0.00     0.318 C 
HETATM   24  O2  UNL     1     -14.106 -20.939 -17.826  1.00  0.00    -0.247 OA
HETATM   25  N5  UNL     1     -13.202 -22.955 -17.262  1.00  0.00    -0.338 N 
ATOM     26  H5  UNL     1     -12.943 -23.601 -16.516  1.00  0.00     0.164 HD
BRANCH  22  27
HETATM   27  C7  UNL     1     -13.626 -22.298 -14.507  1.00  0.00     0.136 C 
BRANCH  27  28
HETATM   28  C8  UNL     1     -12.168 -22.115 -14.181  1.00  0.00     0.122 C 
BRANCH  28  29
HETATM   29  C9  UNL     1     -11.662 -23.166 -13.278  1.00  0.00     0.219 C 
HETATM   30  O1  UNL     1     -10.587 -23.038 -12.620  1.00  0.00    -0.274 OA
HETATM   31  N4  UNL     1     -12.387 -24.372 -13.125  1.00  0.00    -0.356 N 
ATOM     32  H4  UNL     1     -13.256 -24.496 -13.646  1.00  0.00     0.162 HD
BRANCH  31  33
HETATM   33  C10 UNL     1     -11.934 -25.446 -12.247  1.00  0.00     0.084 A 
HETATM   34  C11 UNL     1     -12.950 -26.526 -11.937  1.00  0.00     0.027 A 
HETATM   35  C12 UNL     1     -11.735 -26.807 -12.785  1.00  0.00     0.027 A 
ENDBRANCH  31  33
ENDBRANCH  28  29
ENDBRANCH  27  28
ENDBRANCH  22  27
BRANCH  25  36
HETATM   36  C14 UNL     1     -12.944 -23.346 -18.641  1.00  0.00     0.086 C 
HETATM   37  C15 UNL     1     -11.725 -24.258 -18.722  1.00  0.00     0.025 C 
HETATM   38  C16 UNL     1     -11.424 -24.475 -20.199  1.00  0.00     0.002 C 
HETATM   39  C17 UNL     1     -12.589 -25.238 -20.791  1.00  0.00     0.000 C 
HETATM   40  C18 UNL     1     -13.898 -24.513 -20.581  1.00  0.00     0.002 C 
HETATM   41  C19 UNL     1     -14.128 -24.146 -19.152  1.00  0.00     0.025 C 
ENDBRANCH  25  36
ENDBRANCH   1  22
TORSDOF 11
ENDMDL
MODEL 4
REMARK VINA RESULT: -8.946457891      2.474     10.624
REMARK  11 active torsions:
REMARK  status: ('A' for Active; 'I' for Inactive)
REMARK    1  A    between atoms: C2_2  and  C3_3 
REMARK    2  A    between atoms: N2_7  and  C5_9 
REMARK    3  A    between atoms: C5_9  and  C6_10 
REMARK    4  A    between atoms: C6_10  and  N3_11 
REMARK    5  A    between atoms: N3_11  and  C7_12 
REMARK       I    between atoms: N3_11  and  C13_21 
REMARK    6  A    between atoms: C7_12  and  C8_13 
REMARK    7  A    between atoms: C8_13  and  C9_14 
REMARK       I    between atoms: C9_14  and  N4_16 
REMARK    8  A    between atoms: N4_16  and  C10_18 
REMARK       I    between atoms: C13_21  and  N5_23 
REMARK    9  A    between atoms: N5_23  and  C14_25 
REMARK   10  A    between atoms: C20_33  and  N7_34 
REMARK   11  A    between atoms: C24_38  and  N8_39 
ROOT
HETATM    1  C6  UNL     1     -18.163 -20.337 -16.877  1.00  0.00     0.147 C 
ENDROOT
BRANCH   1   2
HETATM    2  C5  UNL     1     -16.683 -20.100 -17.073  1.00  0.00     0.158 C 
BRANCH   2   3
HETATM    3  N2  UNL     1     -16.040 -21.086 -17.882  1.00  0.00    -0.224 N 
HETATM    4  C4  UNL     1     -14.894 -21.571 -17.580  1.00  0.00     0.680 A 
HETATM    5  N1  UNL     1     -14.207 -21.208 -16.507  1.00  0.00    -0.193 N 
HETATM    6  N6  UNL     1     -14.335 -22.515 -18.405  1.00  0.00    -0.174 N 
HETATM    7  C3  UNL     1     -12.978 -21.711 -16.165  1.00  0.00     0.063 A 
ATOM      8  H1  UNL     1     -14.621 -20.507 -15.893  1.00  0.00     0.184 HD
HETATM    9  C24 UNL     1     -12.449 -22.657 -17.016  1.00  0.00     0.170 A 
HETATM   10  C20 UNL     1     -13.153 -23.060 -18.158  1.00  0.00     0.154 A 
ATOM     11  H6  UNL     1     -14.848 -22.806 -19.237  1.00  0.00     0.186 HD
ATOM     12  H2  UNL     1     -16.508 -21.415 -18.726  1.00  0.00     0.177 HD
BRANCH   7  13
HETATM   13  C2  UNL     1     -12.296 -21.238 -14.936  1.00  0.00     0.056 C 
HETATM   14  C1  UNL     1     -12.852 -19.961 -14.392  1.00  0.00     0.011 C 
ENDBRANCH   7  13
BRANCH   9  15
HETATM   15  N8  UNL     1     -11.181 -23.175 -16.712  1.00  0.00    -0.110 N 
HETATM   16  O3  UNL     1     -10.137 -22.732 -17.212  1.00  0.00    -0.532 OA
HETATM   17  O4  UNL     1     -11.004 -24.233 -15.820  1.00  0.00    -0.532 OA
ENDBRANCH   9  15
BRANCH  10  18
HETATM   18  N7  UNL     1     -12.558 -24.038 -18.991  1.00  0.00    -0.365 N 
HETATM   19  C21 UNL     1     -11.915 -24.007 -20.276  1.00  0.00     0.126 C 
HETATM   20  C22 UNL     1     -12.326 -25.466 -20.481  1.00  0.00     0.040 C 
HETATM   21  C23 UNL     1     -12.315 -25.481 -18.968  1.00  0.00     0.126 C 
ENDBRANCH  10  18
ENDBRANCH   2   3
ENDBRANCH   1   2
BRANCH   1  22
HETATM   22  N3  UNL     1     -18.825 -19.065 -17.235  1.00  0.00    -0.332 N 
HETATM   23  C13 UNL     1     -19.556 -18.332 -16.285  1.00  0.00     0.318 C 
HETATM   24  O2  UNL     1     -19.649 -18.740 -15.108  1.00  0.00    -0.247 OA
HETATM   25  N5  UNL     1     -20.198 -17.130 -16.627  1.00  0.00    -0.338 N 
ATOM     26  H5  UNL     1     -20.123 -16.795 -17.588  1.00  0.00     0.164 HD
BRANCH  22  27
HETATM   27  C7  UNL     1     -18.697 -18.570 -18.594  1.00  0.00     0.136 C 
BRANCH  27  28
HETATM   28  C8  UNL     1     -19.656 -19.291 -19.503  1.00  0.00     0.122 C 
BRANCH  28  29
HETATM   29  C9  UNL     1     -20.908 -18.537 -19.704  1.00  0.00     0.219 C 
HETATM   30  O1  UNL     1     -20.962 -17.274 -19.619  1.00  0.00    -0.274 OA
HETATM   31  N4  UNL     1     -22.106 -19.229 -20.002  1.00  0.00    -0.356 N 
ATOM     32  H4  UNL     1     -22.084 -20.246 -20.074  1.00  0.00     0.162 HD
BRANCH  31  33
HETATM   33  C10 UNL     1     -23.374 -18.535 -20.209  1.00  0.00     0.084 A 
HETATM   34  C11 UNL     1     -24.073 -18.806 -21.525  1.00  0.00     0.027 A 
HETATM   35  C12 UNL     1     -24.640 -19.295 -20.215  1.00  0.00     0.027 A 
ENDBRANCH  31  33
ENDBRANCH  28  29
ENDBRANCH  27  28
ENDBRANCH  22  27
BRANCH  25  36
HETATM   36  C14 UNL     1     -20.965 -16.340 -15.673  1.00  0.00     0.086 C 
HETATM   37  C15 UNL     1     -20.080 -15.292 -15.009  1.00  0.00     0.025 C 
HETATM   38  C16 UNL     1     -20.908 -14.635 -13.912  1.00  0.00     0.002 C 
HETATM   39  C17 UNL     1     -22.044 -13.894 -14.585  1.00  0.00     0.000 C 
HETATM   40  C18 UNL     1     -22.876 -14.813 -15.449  1.00  0.00     0.002 C 
HETATM   41  C19 UNL     1     -22.051 -15.591 -16.421  1.00  0.00     0.025 C 
ENDBRANCH  25  36
ENDBRANCH   1  22
TORSDOF 11
ENDMDL
MODEL 5
REMARK VINA RESULT: -8.943318620      2.197     10.528
REMARK  11 active torsions:
REMARK  status: ('A' for Active; 'I' for Inactive)
REMARK    1  A    between atoms: C2_2  and  C3_3 
REMARK    2  A    between atoms: N2_7  and  C5_9 
REMARK    3  A    between atoms: C5_9  and  C6_10 
REMARK    4  A    between atoms: C6_10  and  N3_11 
REMARK    5  A    between atoms: N3_11  and  C7_12 
REMARK       I    between atoms: N3_11  and  C13_21 
REMARK    6  A    between atoms: C7_12  and  C8_13 
REMARK    7  A    between atoms: C8_13  and  C9_14 
REMARK       I    between atoms: C9_14  and  N4_16 
REMARK    8  A    between atoms: N4_16  and  C10_18 
REMARK       I    between atoms: C13_21  and  N5_23 
REMARK    9  A    between atoms: N5_23  and  C14_25 
REMARK   10  A    between atoms: C20_33  and  N7_34 
REMARK   11  A    between atoms: C24_38  and  N8_39 
ROOT
HETATM    1  C6  UNL     1     -18.154 -21.094 -19.476  1.00  0.00     0.147 C 
ENDROOT
BRANCH   1   2
HETATM    2  C5  UNL     1     -16.650 -21.234 -19.523  1.00  0.00     0.158 C 
BRANCH   2   3
HETATM    3  N2  UNL     1     -16.023 -21.196 -18.240  1.00  0.00    -0.224 N 
HETATM    4  C4  UNL     1     -14.890 -21.750 -18.020  1.00  0.00     0.680 A 
HETATM    5  N1  UNL     1     -14.203 -22.401 -18.946  1.00  0.00    -0.193 N 
HETATM    6  N6  UNL     1     -14.349 -21.675 -16.761  1.00  0.00    -0.174 N 
HETATM    7  C3  UNL     1     -12.990 -23.005 -18.733  1.00  0.00     0.063 A 
ATOM      8  H1  UNL     1     -14.604 -22.458 -19.882  1.00  0.00     0.184 HD
HETATM    9  C24 UNL     1     -12.478 -22.908 -17.458  1.00  0.00     0.170 A 
HETATM   10  C20 UNL     1     -13.181 -22.225 -16.458  1.00  0.00     0.154 A 
ATOM     11  H6  UNL     1     -14.863 -21.178 -16.033  1.00  0.00     0.186 HD
ATOM     12  H2  UNL     1     -16.493 -20.712 -17.474  1.00  0.00     0.177 HD
BRANCH   7  13
HETATM   13  C2  UNL     1     -12.302 -23.706 -19.844  1.00  0.00     0.056 C 
HETATM   14  C1  UNL     1     -13.230 -24.431 -20.765  1.00  0.00     0.011 C 
ENDBRANCH   7  13
BRANCH   9  15
HETATM   15  N8  UNL     1     -11.250 -23.535 -17.196  1.00  0.00    -0.110 N 
HETATM   16  O3  UNL     1     -10.166 -22.935 -17.248  1.00  0.00    -0.532 OA
HETATM   17  O4  UNL     1     -11.161 -24.885 -16.860  1.00  0.00    -0.532 OA
ENDBRANCH   9  15
BRANCH  10  18
HETATM   18  N7  UNL     1     -12.601 -22.156 -15.168  1.00  0.00    -0.365 N 
HETATM   19  C21 UNL     1     -11.669 -21.267 -14.532  1.00  0.00     0.126 C 
HETATM   20  C22 UNL     1     -11.256 -22.413 -13.606  1.00  0.00     0.040 C 
HETATM   21  C23 UNL     1     -12.653 -22.908 -13.914  1.00  0.00     0.126 C 
ENDBRANCH  10  18
ENDBRANCH   2   3
ENDBRANCH   1   2
BRANCH   1  22
HETATM   22  N3  UNL     1     -18.415 -19.686 -19.109  1.00  0.00    -0.332 N 
HETATM   23  C13 UNL     1     -18.710 -19.322 -17.784  1.00  0.00     0.318 C 
HETATM   24  O2  UNL     1     -18.745 -20.188 -16.884  1.00  0.00    -0.247 OA
HETATM   25  N5  UNL     1     -18.973 -17.987 -17.435  1.00  0.00    -0.338 N 
ATOM     26  H5  UNL     1     -18.945 -17.279 -18.169  1.00  0.00     0.164 HD
BRANCH  22  27
HETATM   27  C7  UNL     1     -18.348 -18.671 -20.145  1.00  0.00     0.136 C 
BRANCH  27  28
HETATM   28  C8  UNL     1     -19.481 -18.847 -21.120  1.00  0.00     0.122 C 
BRANCH  28  29
HETATM   29  C9  UNL     1     -20.749 -18.297 -20.606  1.00  0.00     0.219 C 
HETATM   30  O1  UNL     1     -20.798 -17.251 -19.892  1.00  0.00    -0.274 OA
HETATM   31  N4  UNL     1     -21.971 -18.947 -20.905  1.00  0.00    -0.356 N 
ATOM     32  H4  UNL     1     -21.953 -19.791 -21.478  1.00  0.00     0.162 HD
BRANCH  31  33
HETATM   33  C10 UNL     1     -23.255 -18.450 -20.423  1.00  0.00     0.084 A 
HETATM   34  C11 UNL     1     -24.454 -18.739 -21.302  1.00  0.00     0.027 A 
HETATM   35  C12 UNL     1     -24.287 -19.398 -19.956  1.00  0.00     0.027 A 
ENDBRANCH  31  33
ENDBRANCH  28  29
ENDBRANCH  27  28
ENDBRANCH  22  27
BRANCH  25  36
HETATM   36  C14 UNL     1     -19.282 -17.567 -16.076  1.00  0.00     0.086 C 
HETATM   37  C15 UNL     1     -18.004 -17.283 -15.296  1.00  0.00     0.025 C 
HETATM   38  C16 UNL     1     -18.406 -17.024 -13.851  1.00  0.00     0.002 C 
HETATM   39  C17 UNL     1     -19.229 -15.754 -13.831  1.00  0.00     0.000 C 
HETATM   40  C18 UNL     1     -20.429 -15.850 -14.744  1.00  0.00     0.002 C 
HETATM   41  C19 UNL     1     -20.063 -16.268 -16.131  1.00  0.00     0.025 C 
ENDBRANCH  25  36
ENDBRANCH   1  22
TORSDOF 11
ENDMDL
