MODEL 1
REMARK VINA RESULT: -9.398930125      0.000      0.000
REMARK  12 active torsions:
REMARK  status: ('A' for Active; 'I' for Inactive)
REMARK    1  A    between atoms: C2_2  and  C3_3 
REMARK       I    between atoms: C3_3  and  N1_5 
REMARK    2  A    between atoms: N1_5  and  C4_7 
REMARK    3  A    between atoms: C4_7  and  C5_8 
REMARK    4  A    between atoms: C5_8  and  N2_9 
REMARK    5  A    between atoms: N2_9  and  C6_11 
REMARK    6  A    between atoms: C6_11  and  C7_12 
REMARK    7  A    between atoms: C7_12  and  N3_15 
REMARK    8  A    between atoms: C14_22  and  N5_23 
REMARK    9  A    between atoms: C19_30  and  N7_31 
REMARK   10  A    between atoms: N7_31  and  C20_33 
REMARK   11  A    between atoms: C20_33  and  C21_34 
REMARK   12  A    between atoms: C24_37  and  O2_38 
ROOT
HETATM    1  N3  UNL     1     -15.483 -20.717 -16.319  1.00  0.00    -0.353 N 
HETATM    2  C10 UNL     1     -15.586 -20.743 -14.853  1.00  0.00     0.130 C 
HETATM    3  C11 UNL     1     -15.705 -19.227 -14.554  1.00  0.00     0.066 C 
HETATM    4  C12 UNL     1     -16.592 -18.803 -15.662  1.00  0.00     0.032 A 
HETATM    5  C13 UNL     1     -16.450 -19.711 -16.696  1.00  0.00     0.130 A 
HETATM    6  N4  UNL     1     -17.192 -19.511 -17.792  1.00  0.00    -0.176 N 
ATOM      7  H4  UNL     1     -17.096 -20.175 -18.560  1.00  0.00     0.186 HD
HETATM    8  C14 UNL     1     -18.063 -18.486 -17.947  1.00  0.00     0.683 A 
HETATM    9  N6  UNL     1     -18.183 -17.619 -16.935  1.00  0.00    -0.176 N 
ATOM     10  H6  UNL     1     -18.831 -16.837 -17.027  1.00  0.00     0.186 HD
HETATM   11  C19 UNL     1     -17.475 -17.750 -15.802  1.00  0.00     0.127 A 
ENDROOT
BRANCH   1  12
HETATM   12  C7  UNL     1     -14.681 -21.516 -17.212  1.00  0.00     0.058 C 
HETATM   13  C8  UNL     1     -14.162 -20.729 -18.397  1.00  0.00     0.044 C 
HETATM   14  C9  UNL     1     -15.568 -22.623 -17.734  1.00  0.00     0.044 C 
BRANCH  12  15
HETATM   15  C6  UNL     1     -13.495 -22.025 -16.464  1.00  0.00     0.086 C 
BRANCH  15  16
HETATM   16  N2  UNL     1     -12.355 -22.437 -17.127  1.00  0.00    -0.398 N 
ATOM     17  H2  UNL     1     -12.340 -22.308 -18.139  1.00  0.00     0.158 HD
BRANCH  16  18
HETATM   18  C5  UNL     1     -11.232 -23.007 -16.557  1.00  0.00     0.138 C 
BRANCH  18  19
HETATM   19  C4  UNL     1     -10.791 -24.192 -17.430  1.00  0.00     0.142 C 
BRANCH  19  20
HETATM   20  N1  UNL     1     -11.904 -24.667 -18.230  1.00  0.00    -0.360 N 
HETATM   21  C3  UNL     1     -11.760 -24.760 -19.658  1.00  0.00     0.217 C 
HETATM   22  O1  UNL     1     -10.683 -24.436 -20.223  1.00  0.00    -0.274 OA
ATOM     23  H1  UNL     1     -12.781 -24.932 -17.783  1.00  0.00     0.162 HD
BRANCH  21  24
HETATM   24  C2  UNL     1     -12.879 -25.241 -20.502  1.00  0.00     0.098 C 
HETATM   25  C1  UNL     1     -14.056 -24.306 -20.395  1.00  0.00     0.014 C 
ENDBRANCH  21  24
ENDBRANCH  19  20
ENDBRANCH  18  19
ENDBRANCH  16  18
ENDBRANCH  15  16
ENDBRANCH  12  15
ENDBRANCH   1  12
BRANCH  11  26
HETATM   26  N7  UNL     1     -17.584 -16.922 -14.825  1.00  0.00    -0.371 N 
ATOM     27  H7  UNL     1     -16.922 -16.151 -14.741  1.00  0.00     0.161 HD
BRANCH  26  28
HETATM   28  C20 UNL     1     -18.639 -17.074 -13.840  1.00  0.00     0.160 C 
BRANCH  28  29
HETATM   29  C21 UNL     1     -19.835 -16.351 -14.363  1.00  0.00    -0.034 A 
HETATM   30  C22 UNL     1     -19.889 -14.975 -14.418  1.00  0.00     0.012 A 
HETATM   31  C23 UNL     1     -20.986 -14.297 -14.897  1.00  0.00     0.037 A 
HETATM   32  C24 UNL     1     -22.084 -15.015 -15.343  1.00  0.00     0.068 A 
HETATM   33  C26 UNL     1     -22.048 -16.393 -15.296  1.00  0.00     0.044 A 
HETATM   34  C27 UNL     1     -20.931 -17.039 -14.809  1.00  0.00    -0.051 A 
HETATM   35  C28 UNL     1     -20.901 -18.516 -14.761  1.00  0.00     0.049 C 
BRANCH  32  36
HETATM   36  O2  UNL     1     -23.214 -14.388 -15.835  1.00  0.00    -0.356 OA
HETATM   37  C25 UNL     1     -23.939 -13.522 -15.013  1.00  0.00     0.210 C 
ENDBRANCH  32  36
ENDBRANCH  28  29
ENDBRANCH  26  28
ENDBRANCH  11  26
BRANCH   8  38
HETATM   38  N5  UNL     1     -18.814 -18.348 -19.150  1.00  0.00    -0.217 N 
HETATM   39  C15 UNL     1     -20.173 -17.848 -19.194  1.00  0.00     0.141 C 
HETATM   40  C16 UNL     1     -20.817 -18.889 -20.116  1.00  0.00     0.022 C 
HETATM   41  C17 UNL     1     -19.745 -18.985 -21.208  1.00  0.00     0.022 C 
HETATM   42  C18 UNL     1     -18.446 -18.645 -20.499  1.00  0.00     0.141 C 
ENDBRANCH   8  38
TORSDOF 12
ENDMDL
MODEL 2
REMARK VINA RESULT: -9.139122026      1.416      1.996
REMARK  12 active torsions:
REMARK  status: ('A' for Active; 'I' for Inactive)
REMARK    1  A    between atoms: C2_2  and  C3_3 
REMARK       I    between atoms: C3_3  and  N1_5 
REMARK    2  A    between atoms: N1_5  and  C4_7 
REMARK    3  A    between atoms: C4_7  and  C5_8 
REMARK    4  A    between atoms: C5_8  and  N2_9 
REMARK    5  A    between atoms: N2_9  and  C6_11 
REMARK    6  A    between atoms: C6_11  and  C7_12 
REMARK    7  A    between atoms: C7_12  and  N3_15 
REMARK    8  A    between atoms: C14_22  and  N5_23 
REMARK    9  A    between atoms: C19_30  and  N7_31 
REMARK   10  A    between atoms: N7_31  and  C20_33 
REMARK   11  A    between atoms: C20_33  and  C21_34 
REMARK   12  A    between atoms: C24_37  and  O2_38 
ROOT
HETATM    1  N3  UNL     1     -15.853 -19.856 -15.797  1.00  0.00    -0.353 N 
HETATM    2  C10 UNL     1     -16.398 -19.907 -14.432  1.00  0.00     0.130 C 
HETATM    3  C11 UNL     1     -17.425 -18.749 -14.497  1.00  0.00     0.066 C 
HETATM    4  C12 UNL     1     -17.977 -18.954 -15.857  1.00  0.00     0.032 A 
HETATM    5  C13 UNL     1     -17.028 -19.624 -16.608  1.00  0.00     0.130 A 
HETATM    6  N4  UNL     1     -17.349 -19.925 -17.872  1.00  0.00    -0.176 N 
ATOM      7  H4  UNL     1     -16.656 -20.420 -18.435  1.00  0.00     0.186 HD
HETATM    8  C14 UNL     1     -18.532 -19.615 -18.453  1.00  0.00     0.683 A 
HETATM    9  N6  UNL     1     -19.434 -18.967 -17.709  1.00  0.00    -0.176 N 
ATOM     10  H6  UNL     1     -20.333 -18.720 -18.123  1.00  0.00     0.186 HD
HETATM   11  C19 UNL     1     -19.190 -18.630 -16.432  1.00  0.00     0.127 A 
ENDROOT
BRANCH   1  12
HETATM   12  C7  UNL     1     -14.505 -20.045 -16.271  1.00  0.00     0.058 C 
HETATM   13  C8  UNL     1     -13.467 -19.465 -15.335  1.00  0.00     0.044 C 
HETATM   14  C9  UNL     1     -14.397 -19.329 -17.598  1.00  0.00     0.044 C 
BRANCH  12  15
HETATM   15  C6  UNL     1     -14.237 -21.509 -16.379  1.00  0.00     0.086 C 
BRANCH  15  16
HETATM   16  N2  UNL     1     -13.088 -21.983 -16.983  1.00  0.00    -0.398 N 
ATOM     17  H2  UNL     1     -12.998 -21.823 -17.987  1.00  0.00     0.158 HD
BRANCH  16  18
HETATM   18  C5  UNL     1     -12.049 -22.652 -16.364  1.00  0.00     0.138 C 
BRANCH  18  19
HETATM   19  C4  UNL     1     -11.397 -23.592 -17.390  1.00  0.00     0.142 C 
BRANCH  19  20
HETATM   20  N1  UNL     1     -12.363 -23.980 -18.400  1.00  0.00    -0.360 N 
HETATM   21  C3  UNL     1     -11.901 -24.405 -19.695  1.00  0.00     0.217 C 
HETATM   22  O1  UNL     1     -10.672 -24.445 -19.963  1.00  0.00    -0.274 OA
ATOM     23  H1  UNL     1     -13.361 -23.952 -18.194  1.00  0.00     0.162 HD
BRANCH  21  24
HETATM   24  C2  UNL     1     -12.863 -24.806 -20.747  1.00  0.00     0.098 C 
HETATM   25  C1  UNL     1     -14.262 -24.398 -20.363  1.00  0.00     0.014 C 
ENDBRANCH  21  24
ENDBRANCH  19  20
ENDBRANCH  18  19
ENDBRANCH  16  18
ENDBRANCH  15  16
ENDBRANCH  12  15
ENDBRANCH   1  12
BRANCH  11  26
HETATM   26  N7  UNL     1     -20.051 -18.006 -15.710  1.00  0.00    -0.371 N 
ATOM     27  H7  UNL     1     -20.845 -18.514 -15.321  1.00  0.00     0.161 HD
BRANCH  26  28
HETATM   28  C20 UNL     1     -19.905 -16.587 -15.444  1.00  0.00     0.160 C 
BRANCH  28  29
HETATM   29  C21 UNL     1     -21.237 -15.957 -15.682  1.00  0.00    -0.034 A 
HETATM   30  C22 UNL     1     -22.028 -16.306 -16.755  1.00  0.00     0.012 A 
HETATM   31  C23 UNL     1     -23.257 -15.731 -16.984  1.00  0.00     0.037 A 
HETATM   32  C24 UNL     1     -23.727 -14.765 -16.109  1.00  0.00     0.068 A 
HETATM   33  C26 UNL     1     -22.949 -14.404 -15.029  1.00  0.00     0.044 A 
HETATM   34  C27 UNL     1     -21.722 -15.000 -14.831  1.00  0.00    -0.051 A 
HETATM   35  C28 UNL     1     -20.895 -14.607 -13.671  1.00  0.00     0.049 C 
BRANCH  32  36
HETATM   36  O2  UNL     1     -24.954 -14.154 -16.290  1.00  0.00    -0.356 OA
HETATM   37  C25 UNL     1     -25.173 -12.874 -15.775  1.00  0.00     0.210 C 
ENDBRANCH  32  36
ENDBRANCH  28  29
ENDBRANCH  26  28
ENDBRANCH  11  26
BRANCH   8  38
HETATM   38  N5  UNL     1     -18.789 -19.974 -19.808  1.00  0.00    -0.217 N 
HETATM   39  C15 UNL     1     -19.712 -19.257 -20.665  1.00  0.00     0.141 C 
HETATM   40  C16 UNL     1     -20.483 -20.431 -21.278  1.00  0.00     0.022 C 
HETATM   41  C17 UNL     1     -19.321 -21.372 -21.616  1.00  0.00     0.022 C 
HETATM   42  C18 UNL     1     -18.250 -21.039 -20.593  1.00  0.00     0.141 C 
ENDBRANCH   8  38
TORSDOF 12
ENDMDL
MODEL 3
REMARK VINA RESULT: -9.120686034      2.609      8.985
REMARK  12 active torsions:
REMARK  status: ('A' for Active; 'I' for Inactive)
REMARK    1  A    between atoms: C2_2  and  C3_3 
REMARK       I    between atoms: C3_3  and  N1_5 
REMARK    2  A    between atoms: N1_5  and  C4_7 
REMARK    3  A    between atoms: C4_7  and  C5_8 
REMARK    4  A    between atoms: C5_8  and  N2_9 
REMARK    5  A    between atoms: N2_9  and  C6_11 
REMARK    6  A    between atoms: C6_11  and  C7_12 
REMARK    7  A    between atoms: C7_12  and  N3_15 
REMARK    8  A    between atoms: C14_22  and  N5_23 
REMARK    9  A    between atoms: C19_30  and  N7_31 
REMARK   10  A    between atoms: N7_31  and  C20_33 
REMARK   11  A    between atoms: C20_33  and  C21_34 
REMARK   12  A    between atoms: C24_37  and  O2_38 
ROOT
HETATM    1  N3  UNL     1     -17.345 -20.541 -19.328  1.00  0.00    -0.353 N 
HETATM    2  C10 UNL     1     -16.417 -21.680 -19.252  1.00  0.00     0.130 C 
HETATM    3  C11 UNL     1     -15.122 -20.956 -18.806  1.00  0.00     0.066 C 
HETATM    4  C12 UNL     1     -15.677 -19.987 -17.832  1.00  0.00     0.032 A 
HETATM    5  C13 UNL     1     -17.004 -19.764 -18.157  1.00  0.00     0.130 A 
HETATM    6  N4  UNL     1     -17.693 -18.926 -17.375  1.00  0.00    -0.176 N 
ATOM      7  H4  UNL     1     -18.673 -18.755 -17.605  1.00  0.00     0.186 HD
HETATM    8  C14 UNL     1     -17.177 -18.289 -16.297  1.00  0.00     0.683 A 
HETATM    9  N6  UNL     1     -15.893 -18.517 -16.002  1.00  0.00    -0.176 N 
ATOM     10  H6  UNL     1     -15.479 -18.049 -15.196  1.00  0.00     0.186 HD
HETATM   11  C19 UNL     1     -15.133 -19.346 -16.737  1.00  0.00     0.127 A 
ENDROOT
BRANCH   1  12
HETATM   12  C7  UNL     1     -18.394 -20.254 -20.274  1.00  0.00     0.058 C 
HETATM   13  C8  UNL     1     -18.610 -21.374 -21.270  1.00  0.00     0.044 C 
HETATM   14  C9  UNL     1     -17.975 -19.019 -21.039  1.00  0.00     0.044 C 
BRANCH  12  15
HETATM   15  C6  UNL     1     -19.673 -20.069 -19.529  1.00  0.00     0.086 C 
BRANCH  15  16
HETATM   16  N2  UNL     1     -20.853 -19.795 -20.193  1.00  0.00    -0.398 N 
ATOM     17  H2  UNL     1     -21.353 -20.590 -20.590  1.00  0.00     0.158 HD
BRANCH  16  18
HETATM   18  C5  UNL     1     -21.426 -18.549 -20.373  1.00  0.00     0.138 C 
BRANCH  18  19
HETATM   19  C4  UNL     1     -20.909 -17.613 -19.269  1.00  0.00     0.142 C 
BRANCH  19  20
HETATM   20  N1  UNL     1     -21.964 -17.330 -18.316  1.00  0.00    -0.360 N 
HETATM   21  C3  UNL     1     -22.055 -16.019 -17.729  1.00  0.00     0.217 C 
HETATM   22  O1  UNL     1     -21.233 -15.116 -18.032  1.00  0.00    -0.274 OA
ATOM     23  H1  UNL     1     -22.636 -18.054 -18.063  1.00  0.00     0.162 HD
BRANCH  21  24
HETATM   24  C2  UNL     1     -23.121 -15.699 -16.752  1.00  0.00     0.098 C 
HETATM   25  C1  UNL     1     -22.655 -14.630 -15.797  1.00  0.00     0.014 C 
ENDBRANCH  21  24
ENDBRANCH  19  20
ENDBRANCH  18  19
ENDBRANCH  16  18
ENDBRANCH  15  16
ENDBRANCH  12  15
ENDBRANCH   1  12
BRANCH  11  26
HETATM   26  N7  UNL     1     -13.898 -19.571 -16.460  1.00  0.00    -0.371 N 
ATOM     27  H7  UNL     1     -13.260 -19.860 -17.202  1.00  0.00     0.161 HD
BRANCH  26  28
HETATM   28  C20 UNL     1     -13.403 -19.417 -15.105  1.00  0.00     0.160 C 
BRANCH  28  29
HETATM   29  C21 UNL     1     -13.061 -20.782 -14.606  1.00  0.00    -0.034 A 
HETATM   30  C22 UNL     1     -11.875 -21.402 -14.933  1.00  0.00     0.012 A 
HETATM   31  C23 UNL     1     -11.550 -22.660 -14.478  1.00  0.00     0.037 A 
HETATM   32  C24 UNL     1     -12.441 -23.337 -13.661  1.00  0.00     0.068 A 
HETATM   33  C26 UNL     1     -13.633 -22.731 -13.324  1.00  0.00     0.044 A 
HETATM   34  C27 UNL     1     -13.926 -21.470 -13.797  1.00  0.00    -0.051 A 
HETATM   35  C28 UNL     1     -15.206 -20.827 -13.431  1.00  0.00     0.049 C 
BRANCH  32  36
HETATM   36  O2  UNL     1     -12.167 -24.602 -13.175  1.00  0.00    -0.356 OA
HETATM   37  C25 UNL     1     -13.130 -25.278 -12.422  1.00  0.00     0.210 C 
ENDBRANCH  32  36
ENDBRANCH  28  29
ENDBRANCH  26  28
ENDBRANCH  11  26
BRANCH   8  38
HETATM   38  N5  UNL     1     -17.984 -17.411 -15.519  1.00  0.00    -0.217 N 
HETATM   39  C15 UNL     1     -17.569 -16.856 -14.247  1.00  0.00     0.141 C 
HETATM   40  C16 UNL     1     -18.833 -17.104 -13.415  1.00  0.00     0.022 C 
HETATM   41  C17 UNL     1     -19.906 -16.646 -14.409  1.00  0.00     0.022 C 
HETATM   42  C18 UNL     1     -19.295 -16.901 -15.775  1.00  0.00     0.141 C 
ENDBRANCH   8  38
TORSDOF 12
ENDMDL
MODEL 4
REMARK VINA RESULT: -9.088601368      1.153      1.657
REMARK  12 active torsions:
REMARK  status: ('A' for Active; 'I' for Inactive)
REMARK    1  A    between atoms: C2_2  and  C3_3 
REMARK       I    between atoms: C3_3  and  N1_5 
REMARK    2  A    between atoms: N1_5  and  C4_7 
REMARK    3  A    between atoms: C4_7  and  C5_8 
REMARK    4  A    between atoms: C5_8  and  N2_9 
REMARK    5  A    between atoms: N2_9  and  C6_11 
REMARK    6  A    between atoms: C6_11  and  C7_12 
REMARK    7  A    between atoms: C7_12  and  N3_15 
REMARK    8  A    between atoms: C14_22  and  N5_23 
REMARK    9  A    between atoms: C19_30  and  N7_31 
REMARK   10  A    between atoms: N7_31  and  C20_33 
REMARK   11  A    between atoms: C20_33  and  C21_34 
REMARK   12  A    between atoms: C24_37  and  O2_38 
ROOT
HETATM    1  N3  UNL     1     -16.278 -20.274 -16.440  1.00  0.00    -0.353 N 
HETATM    2  C10 UNL     1     -16.508 -20.123 -14.996  1.00  0.00     0.130 C 
HETATM    3  C11 UNL     1     -16.909 -18.628 -14.931  1.00  0.00     0.066 C 
HETATM    4  C12 UNL     1     -17.752 -18.522 -16.145  1.00  0.00     0.032 A 
HETATM    5  C13 UNL     1     -17.364 -19.519 -17.024  1.00  0.00     0.130 A 
HETATM    6  N4  UNL     1     -18.027 -19.604 -18.183  1.00  0.00    -0.176 N 
ATOM      7  H4  UNL     1     -17.749 -20.336 -18.838  1.00  0.00     0.186 HD
HETATM    8  C14 UNL     1     -19.042 -18.784 -18.544  1.00  0.00     0.683 A 
HETATM    9  N6  UNL     1     -19.399 -17.827 -17.681  1.00  0.00    -0.176 N 
ATOM     10  H6  UNL     1     -20.159 -17.195 -17.929  1.00  0.00     0.186 HD
HETATM   11  C19 UNL     1     -18.785 -17.675 -16.497  1.00  0.00     0.127 A 
ENDROOT
BRANCH   1  12
HETATM   12  C7  UNL     1     -15.274 -21.025 -17.152  1.00  0.00     0.058 C 
HETATM   13  C8  UNL     1     -14.560 -20.202 -18.203  1.00  0.00     0.044 C 
HETATM   14  C9  UNL     1     -15.983 -22.165 -17.847  1.00  0.00     0.044 C 
BRANCH  12  15
HETATM   15  C6  UNL     1     -14.245 -21.490 -16.178  1.00  0.00     0.086 C 
BRANCH  15  16
HETATM   16  N2  UNL     1     -13.410 -22.551 -16.472  1.00  0.00    -0.398 N 
ATOM     17  H2  UNL     1     -13.846 -23.381 -16.872  1.00  0.00     0.158 HD
BRANCH  16  18
HETATM   18  C5  UNL     1     -12.041 -22.601 -16.277  1.00  0.00     0.138 C 
BRANCH  18  19
HETATM   19  C4  UNL     1     -11.407 -23.328 -17.472  1.00  0.00     0.142 C 
BRANCH  19  20
HETATM   20  N1  UNL     1     -12.376 -23.479 -18.540  1.00  0.00    -0.360 N 
HETATM   21  C3  UNL     1     -11.967 -24.061 -19.790  1.00  0.00     0.217 C 
HETATM   22  O1  UNL     1     -10.780 -24.442 -19.970  1.00  0.00    -0.274 OA
ATOM     23  H1  UNL     1     -13.340 -23.175 -18.406  1.00  0.00     0.162 HD
BRANCH  21  24
HETATM   24  C2  UNL     1     -12.933 -24.228 -20.900  1.00  0.00     0.098 C 
HETATM   25  C1  UNL     1     -14.326 -24.424 -20.359  1.00  0.00     0.014 C 
ENDBRANCH  21  24
ENDBRANCH  19  20
ENDBRANCH  18  19
ENDBRANCH  16  18
ENDBRANCH  15  16
ENDBRANCH  12  15
ENDBRANCH   1  12
BRANCH  11  26
HETATM   26  N7  UNL     1     -19.121 -16.759 -15.661  1.00  0.00    -0.371 N 
ATOM     27  H7  UNL     1     -18.653 -15.853 -15.690  1.00  0.00     0.161 HD
BRANCH  26  28
HETATM   28  C20 UNL     1     -20.161 -16.999 -14.678  1.00  0.00     0.160 C 
BRANCH  28  29
HETATM   29  C21 UNL     1     -21.356 -16.212 -15.100  1.00  0.00    -0.034 A 
HETATM   30  C22 UNL     1     -22.260 -16.696 -16.021  1.00  0.00     0.012 A 
HETATM   31  C23 UNL     1     -23.365 -15.979 -16.419  1.00  0.00     0.037 A 
HETATM   32  C24 UNL     1     -23.587 -14.722 -15.880  1.00  0.00     0.068 A 
HETATM   33  C26 UNL     1     -22.693 -14.221 -14.957  1.00  0.00     0.044 A 
HETATM   34  C27 UNL     1     -21.596 -14.968 -14.582  1.00  0.00    -0.051 A 
HETATM   35  C28 UNL     1     -20.643 -14.424 -13.592  1.00  0.00     0.049 C 
BRANCH  32  36
HETATM   36  O2  UNL     1     -24.680 -13.957 -16.242  1.00  0.00    -0.356 OA
HETATM   37  C25 UNL     1     -25.010 -12.823 -15.496  1.00  0.00     0.210 C 
ENDBRANCH  32  36
ENDBRANCH  28  29
ENDBRANCH  26  28
ENDBRANCH  11  26
BRANCH   8  38
HETATM   38  N5  UNL     1     -19.692 -18.946 -19.801  1.00  0.00    -0.217 N 
HETATM   39  C15 UNL     1     -20.196 -17.841 -20.591  1.00  0.00     0.141 C 
HETATM   40  C16 UNL     1     -21.585 -18.378 -20.957  1.00  0.00     0.022 C 
HETATM   41  C17 UNL     1     -21.225 -19.815 -21.352  1.00  0.00     0.022 C 
HETATM   42  C18 UNL     1     -19.987 -20.137 -20.534  1.00  0.00     0.141 C 
ENDBRANCH   8  38
TORSDOF 12
ENDMDL
MODEL 5
REMARK VINA RESULT: -9.003062121      1.967     10.701
REMARK  12 active torsions:
REMARK  status: ('A' for Active; 'I' for Inactive)
REMARK    1  A    between atoms: C2_2  and  C3_3 
REMARK       I    between atoms: C3_3  and  N1_5 
REMARK    2  A    between atoms: N1_5  and  C4_7 
REMARK    3  A    between atoms: C4_7  and  C5_8 
REMARK    4  A    between atoms: C5_8  and  N2_9 
REMARK    5  A    between atoms: N2_9  and  C6_11 
REMARK    6  A    between atoms: C6_11  and  C7_12 
REMARK    7  A    between atoms: C7_12  and  N3_15 
REMARK    8  A    between atoms: C14_22  and  N5_23 
REMARK    9  A    between atoms: C19_30  and  N7_31 
REMARK   10  A    between atoms: N7_31  and  C20_33 
REMARK   11  A    between atoms: C20_33  and  C21_34 
REMARK   12  A    between atoms: C24_37  and  O2_38 
ROOT
HETATM    1  N3  UNL     1     -17.856 -20.126 -18.142  1.00  0.00    -0.353 N 
HETATM    2  C10 UNL     1     -18.227 -21.043 -19.229  1.00  0.00     0.130 C 
HETATM    3  C11 UNL     1     -16.824 -21.454 -19.740  1.00  0.00     0.066 C 
HETATM    4  C12 UNL     1     -16.098 -21.588 -18.456  1.00  0.00     0.032 A 
HETATM    5  C13 UNL     1     -16.737 -20.797 -17.518  1.00  0.00     0.130 A 
HETATM    6  N4  UNL     1     -16.240 -20.798 -16.275  1.00  0.00    -0.176 N 
ATOM      7  H4  UNL     1     -16.704 -20.218 -15.576  1.00  0.00     0.186 HD
HETATM    8  C14 UNL     1     -15.161 -21.518 -15.886  1.00  0.00     0.683 A 
HETATM    9  N6  UNL     1     -14.558 -22.274 -16.809  1.00  0.00    -0.176 N 
ATOM     10  H6  UNL     1     -13.743 -22.825 -16.542  1.00  0.00     0.186 HD
HETATM   11  C19 UNL     1     -14.996 -22.329 -18.077  1.00  0.00     0.127 A 
ENDROOT
BRANCH   1  12
HETATM   12  C7  UNL     1     -18.459 -18.887 -17.719  1.00  0.00     0.058 C 
HETATM   13  C8  UNL     1     -17.442 -17.791 -17.478  1.00  0.00     0.044 C 
HETATM   14  C9  UNL     1     -19.173 -19.163 -16.416  1.00  0.00     0.044 C 
BRANCH  12  15
HETATM   15  C6  UNL     1     -19.377 -18.411 -18.794  1.00  0.00     0.086 C 
BRANCH  15  16
HETATM   16  N2  UNL     1     -19.873 -17.121 -18.792  1.00  0.00    -0.398 N 
ATOM     17  H2  UNL     1     -19.234 -16.383 -19.089  1.00  0.00     0.158 HD
BRANCH  16  18
HETATM   18  C5  UNL     1     -21.147 -16.729 -18.425  1.00  0.00     0.138 C 
BRANCH  18  19
HETATM   19  C4  UNL     1     -21.030 -15.580 -17.412  1.00  0.00     0.142 C 
BRANCH  19  20
HETATM   20  N1  UNL     1     -20.412 -16.052 -16.188  1.00  0.00    -0.360 N 
HETATM   21  C3  UNL     1     -20.280 -15.155 -15.070  1.00  0.00     0.217 C 
HETATM   22  O1  UNL     1     -20.693 -13.968 -15.141  1.00  0.00    -0.274 OA
ATOM     23  H1  UNL     1     -20.074 -17.011 -16.119  1.00  0.00     0.162 HD
BRANCH  21  24
HETATM   24  C2  UNL     1     -19.652 -15.606 -13.807  1.00  0.00     0.098 C 
HETATM   25  C1  UNL     1     -18.449 -16.467 -14.097  1.00  0.00     0.014 C 
ENDBRANCH  21  24
ENDBRANCH  19  20
ENDBRANCH  18  19
ENDBRANCH  16  18
ENDBRANCH  15  16
ENDBRANCH  12  15
ENDBRANCH   1  12
BRANCH  11  26
HETATM   26  N7  UNL     1     -14.422 -23.054 -18.970  1.00  0.00    -0.371 N 
ATOM     27  H7  UNL     1     -14.913 -23.860 -19.357  1.00  0.00     0.161 HD
BRANCH  26  28
HETATM   28  C20 UNL     1     -13.084 -22.737 -19.434  1.00  0.00     0.160 C 
BRANCH  28  29
HETATM   29  C21 UNL     1     -12.167 -23.767 -18.864  1.00  0.00    -0.034 A 
HETATM   30  C22 UNL     1     -11.538 -23.592 -17.651  1.00  0.00     0.012 A 
HETATM   31  C23 UNL     1     -10.689 -24.535 -17.116  1.00  0.00     0.037 A 
HETATM   32  C24 UNL     1     -10.451 -25.707 -17.816  1.00  0.00     0.068 A 
HETATM   33  C26 UNL     1     -11.073 -25.899 -19.032  1.00  0.00     0.044 A 
HETATM   34  C27 UNL     1     -11.917 -24.933 -19.537  1.00  0.00    -0.051 A 
HETATM   35  C28 UNL     1     -12.578 -25.146 -20.841  1.00  0.00     0.049 C 
BRANCH  32  36
HETATM   36  O2  UNL     1      -9.610 -26.688 -17.327  1.00  0.00    -0.356 OA
HETATM   37  C25 UNL     1      -9.688 -27.986 -17.839  1.00  0.00     0.210 C 
ENDBRANCH  32  36
ENDBRANCH  28  29
ENDBRANCH  26  28
ENDBRANCH  11  26
BRANCH   8  38
HETATM   38  N5  UNL     1     -14.698 -21.458 -14.540  1.00  0.00    -0.217 N 
HETATM   39  C15 UNL     1     -13.389 -21.917 -14.122  1.00  0.00     0.141 C 
HETATM   40  C16 UNL     1     -13.769 -22.729 -12.877  1.00  0.00     0.022 C 
HETATM   41  C17 UNL     1     -14.755 -21.761 -12.213  1.00  0.00     0.022 C 
HETATM   42  C18 UNL     1     -15.353 -20.974 -13.366  1.00  0.00     0.141 C 
ENDBRANCH   8  38
TORSDOF 12
ENDMDL
