MODEL 1
REMARK VINA RESULT: -9.554902095      0.000      0.000
REMARK  12 active torsions:
REMARK  status: ('A' for Active; 'I' for Inactive)
REMARK    1  A    between atoms: C1_2  and  C2_4 
REMARK    2  A    between atoms: C2_4  and  C3_5 
REMARK    3  A    between atoms: C3_5  and  C4_6 
REMARK       I    between atoms: C4_6  and  N2_8 
REMARK    4  A    between atoms: C11_15  and  N3_16 
REMARK    5  A    between atoms: N3_16  and  C12_18 
REMARK    6  A    between atoms: C14_20  and  N4_21 
REMARK    7  A    between atoms: N4_21  and  C15_23 
REMARK    8  A    between atoms: C15_23  and  C16_24 
REMARK    9  A    between atoms: C16_24  and  C17_25 
REMARK   10  A    between atoms: C17_25  and  C18_26 
REMARK   11  A    between atoms: C18_26  and  C19_27 
REMARK   12  A    between atoms: C19_27  and  N5_28 
ROOT
HETATM    1  C12 UNL     1     -14.590 -19.450 -16.475  1.00  0.00     0.125 A 
HETATM    2  C13 UNL     1     -14.691 -20.729 -17.014  1.00  0.00     0.099 A 
HETATM    3  C14 UNL     1     -13.760 -21.684 -16.700  1.00  0.00     0.120 A 
HETATM    4  N6  UNL     1     -12.718 -21.424 -15.864  1.00  0.00    -0.271 N 
ATOM      5  H6  UNL     1     -12.025 -22.136 -15.631  1.00  0.00     0.190 HD
HETATM    6  N7  UNL     1     -12.654 -20.204 -15.374  1.00  0.00    -0.240 N 
ATOM      7  H7  UNL     1     -11.885 -19.975 -14.744  1.00  0.00     0.208 HD
HETATM    8  N8  UNL     1     -13.553 -19.243 -15.663  1.00  0.00    -0.271 N 
ATOM      9  H8  UNL     1     -13.435 -18.321 -15.243  1.00  0.00     0.190 HD
ENDROOT
BRANCH   1  10
HETATM   10  N3  UNL     1     -15.523 -18.452 -16.815  1.00  0.00    -0.341 N 
ATOM     11  H3  UNL     1     -15.218 -17.790 -17.530  1.00  0.00     0.167 HD
BRANCH  10  12
HETATM   12  C11 UNL     1     -16.819 -18.240 -16.306  1.00  0.00     0.035 A 
HETATM   13  C10 UNL     1     -17.182 -18.207 -14.982  1.00  0.00     0.030 A 
HETATM   14  C9  UNL     1     -18.484 -17.963 -14.546  1.00  0.00     0.012 A 
HETATM   15  C8  UNL     1     -19.486 -17.742 -15.461  1.00  0.00    -0.031 A 
HETATM   16  C7  UNL     1     -20.887 -17.475 -15.114  1.00  0.00     0.042 C 
HETATM   17  C25 UNL     1     -19.145 -17.772 -16.800  1.00  0.00     0.045 A 
HETATM   18  C6  UNL     1     -21.572 -16.498 -15.998  1.00  0.00     0.025 C 
HETATM   19  C5  UNL     1     -21.199 -16.531 -17.440  1.00  0.00     0.132 C 
HETATM   20  N2  UNL     1     -20.180 -17.536 -17.752  1.00  0.00    -0.317 N 
HETATM   21  C4  UNL     1     -20.193 -18.276 -18.943  1.00  0.00     0.224 C 
HETATM   22  O1  UNL     1     -19.390 -19.177 -19.188  1.00  0.00    -0.273 OA
HETATM   23  C24 UNL     1     -17.858 -18.012 -17.225  1.00  0.00     0.059 A 
BRANCH  21  24
HETATM   24  C3  UNL     1     -21.227 -17.955 -19.957  1.00  0.00     0.110 C 
BRANCH  24  25
HETATM   25  C2  UNL     1     -22.020 -19.187 -20.344  1.00  0.00     0.076 C 
BRANCH  25  26
HETATM   26  C1  UNL     1     -23.395 -18.838 -20.778  1.00  0.00     0.091 C 
HETATM   27  N1  UNL     1     -23.561 -18.116 -21.975  1.00  0.00    -0.095 NA
HETATM   28  S1  UNL     1     -24.719 -19.258 -19.923  1.00  0.00    -0.069 SA
ENDBRANCH  25  26
ENDBRANCH  24  25
ENDBRANCH  21  24
ENDBRANCH  10  12
ENDBRANCH   1  10
BRANCH   3  29
HETATM   29  N4  UNL     1     -13.838 -22.876 -17.184  1.00  0.00    -0.375 N 
ATOM     30  H4  UNL     1     -13.276 -23.598 -16.733  1.00  0.00     0.161 HD
BRANCH  29  31
HETATM   31  C15 UNL     1     -14.643 -23.275 -18.299  1.00  0.00     0.121 C 
BRANCH  31  32
HETATM   32  C16 UNL     1     -13.881 -23.165 -19.605  1.00  0.00     0.020 C 
BRANCH  32  33
HETATM   33  C17 UNL     1     -13.986 -24.410 -20.426  1.00  0.00     0.003 C 
BRANCH  33  34
HETATM   34  C18 UNL     1     -12.673 -24.956 -20.877  1.00  0.00     0.020 C 
BRANCH  34  35
HETATM   35  C19 UNL     1     -11.510 -24.322 -20.141  1.00  0.00     0.125 C 
BRANCH  35  36
HETATM   36  N5  UNL     1     -11.270 -24.901 -18.857  1.00  0.00    -0.352 N 
HETATM   37  C20 UNL     1     -11.556 -26.287 -18.479  1.00  0.00     0.126 C 
HETATM   38  C21 UNL     1     -10.504 -26.570 -17.408  1.00  0.00     0.029 C 
HETATM   39  C22 UNL     1     -10.170 -25.244 -16.793  1.00  0.00     0.104 C 
HETATM   40  C23 UNL     1     -10.712 -24.219 -17.738  1.00  0.00     0.219 C 
HETATM   41  O2  UNL     1     -10.649 -22.987 -17.511  1.00  0.00    -0.273 OA
ENDBRANCH  35  36
ENDBRANCH  34  35
ENDBRANCH  33  34
ENDBRANCH  32  33
ENDBRANCH  31  32
ENDBRANCH  29  31
ENDBRANCH   3  29
TORSDOF 12
ENDMDL
MODEL 2
REMARK VINA RESULT: -9.176320050      2.155      3.534
REMARK  12 active torsions:
REMARK  status: ('A' for Active; 'I' for Inactive)
REMARK    1  A    between atoms: C1_2  and  C2_4 
REMARK    2  A    between atoms: C2_4  and  C3_5 
REMARK    3  A    between atoms: C3_5  and  C4_6 
REMARK       I    between atoms: C4_6  and  N2_8 
REMARK    4  A    between atoms: C11_15  and  N3_16 
REMARK    5  A    between atoms: N3_16  and  C12_18 
REMARK    6  A    between atoms: C14_20  and  N4_21 
REMARK    7  A    between atoms: N4_21  and  C15_23 
REMARK    8  A    between atoms: C15_23  and  C16_24 
REMARK    9  A    between atoms: C16_24  and  C17_25 
REMARK   10  A    between atoms: C17_25  and  C18_26 
REMARK   11  A    between atoms: C18_26  and  C19_27 
REMARK   12  A    between atoms: C19_27  and  N5_28 
ROOT
HETATM    1  C12 UNL     1     -15.324 -19.395 -15.453  1.00  0.00     0.125 A 
HETATM    2  C13 UNL     1     -13.994 -19.693 -15.738  1.00  0.00     0.099 A 
HETATM    3  C14 UNL     1     -13.396 -20.785 -15.167  1.00  0.00     0.120 A 
HETATM    4  N6  UNL     1     -14.065 -21.608 -14.315  1.00  0.00    -0.271 N 
ATOM      5  H6  UNL     1     -13.620 -22.422 -13.891  1.00  0.00     0.190 HD
HETATM    6  N7  UNL     1     -15.321 -21.296 -14.068  1.00  0.00    -0.240 N 
ATOM      7  H7  UNL     1     -15.853 -21.892 -13.433  1.00  0.00     0.208 HD
HETATM    8  N8  UNL     1     -15.938 -20.229 -14.613  1.00  0.00    -0.271 N 
ATOM      9  H8  UNL     1     -16.913 -20.053 -14.373  1.00  0.00     0.190 HD
ENDROOT
BRANCH   1  10
HETATM   10  N3  UNL     1     -15.939 -18.257 -16.008  1.00  0.00    -0.341 N 
ATOM     11  H3  UNL     1     -15.397 -17.769 -16.722  1.00  0.00     0.167 HD
BRANCH  10  12
HETATM   12  C11 UNL     1     -17.199 -17.701 -15.715  1.00  0.00     0.035 A 
HETATM   13  C10 UNL     1     -17.638 -17.268 -14.487  1.00  0.00     0.030 A 
HETATM   14  C9  UNL     1     -18.892 -16.699 -14.273  1.00  0.00     0.012 A 
HETATM   15  C8  UNL     1     -19.766 -16.545 -15.323  1.00  0.00    -0.031 A 
HETATM   16  C7  UNL     1     -21.107 -15.959 -15.212  1.00  0.00     0.042 C 
HETATM   17  C25 UNL     1     -19.348 -16.974 -16.569  1.00  0.00     0.045 A 
HETATM   18  C6  UNL     1     -21.525 -15.135 -16.375  1.00  0.00     0.025 C 
HETATM   19  C5  UNL     1     -21.069 -15.598 -17.715  1.00  0.00     0.132 C 
HETATM   20  N2  UNL     1     -20.249 -16.811 -17.662  1.00  0.00    -0.317 N 
HETATM   21  C4  UNL     1     -20.328 -17.815 -18.637  1.00  0.00     0.224 C 
HETATM   22  O1  UNL     1     -19.704 -18.875 -18.569  1.00  0.00    -0.273 OA
HETATM   23  C24 UNL     1     -18.108 -17.535 -16.775  1.00  0.00     0.059 A 
BRANCH  21  24
HETATM   24  C3  UNL     1     -21.208 -17.587 -19.810  1.00  0.00     0.110 C 
BRANCH  24  25
HETATM   25  C2  UNL     1     -21.748 -18.893 -20.356  1.00  0.00     0.076 C 
BRANCH  25  26
HETATM   26  C1  UNL     1     -23.136 -18.743 -20.857  1.00  0.00     0.091 C 
HETATM   27  N1  UNL     1     -23.333 -18.249 -22.160  1.00  0.00    -0.095 NA
HETATM   28  S1  UNL     1     -24.441 -19.130 -19.958  1.00  0.00    -0.069 SA
ENDBRANCH  25  26
ENDBRANCH  24  25
ENDBRANCH  21  24
ENDBRANCH  10  12
ENDBRANCH   1  10
BRANCH   3  29
HETATM   29  N4  UNL     1     -12.168 -21.082 -15.421  1.00  0.00    -0.375 N 
ATOM     30  H4  UNL     1     -11.510 -20.308 -15.506  1.00  0.00     0.161 HD
BRANCH  29  31
HETATM   31  C15 UNL     1     -11.646 -22.406 -15.593  1.00  0.00     0.121 C 
BRANCH  31  32
HETATM   32  C16 UNL     1     -11.247 -22.663 -17.033  1.00  0.00     0.020 C 
BRANCH  32  33
HETATM   33  C17 UNL     1     -12.256 -23.496 -17.757  1.00  0.00     0.003 C 
BRANCH  33  34
HETATM   34  C18 UNL     1     -13.331 -22.706 -18.427  1.00  0.00     0.020 C 
BRANCH  34  35
HETATM   35  C19 UNL     1     -14.670 -22.870 -17.739  1.00  0.00     0.125 C 
BRANCH  35  36
HETATM   36  N5  UNL     1     -15.652 -21.931 -18.184  1.00  0.00    -0.352 N 
HETATM   37  C20 UNL     1     -15.473 -20.955 -19.261  1.00  0.00     0.126 C 
HETATM   38  C21 UNL     1     -16.890 -20.787 -19.806  1.00  0.00     0.029 C 
HETATM   39  C22 UNL     1     -17.813 -21.103 -18.667  1.00  0.00     0.104 C 
HETATM   40  C23 UNL     1     -16.965 -21.798 -17.649  1.00  0.00     0.219 C 
HETATM   41  O2  UNL     1     -17.409 -22.169 -16.536  1.00  0.00    -0.273 OA
ENDBRANCH  35  36
ENDBRANCH  34  35
ENDBRANCH  33  34
ENDBRANCH  32  33
ENDBRANCH  31  32
ENDBRANCH  29  31
ENDBRANCH   3  29
TORSDOF 12
ENDMDL
MODEL 3
REMARK VINA RESULT: -9.168388098      1.443      1.676
REMARK  12 active torsions:
REMARK  status: ('A' for Active; 'I' for Inactive)
REMARK    1  A    between atoms: C1_2  and  C2_4 
REMARK    2  A    between atoms: C2_4  and  C3_5 
REMARK    3  A    between atoms: C3_5  and  C4_6 
REMARK       I    between atoms: C4_6  and  N2_8 
REMARK    4  A    between atoms: C11_15  and  N3_16 
REMARK    5  A    between atoms: N3_16  and  C12_18 
REMARK    6  A    between atoms: C14_20  and  N4_21 
REMARK    7  A    between atoms: N4_21  and  C15_23 
REMARK    8  A    between atoms: C15_23  and  C16_24 
REMARK    9  A    between atoms: C16_24  and  C17_25 
REMARK   10  A    between atoms: C17_25  and  C18_26 
REMARK   11  A    between atoms: C18_26  and  C19_27 
REMARK   12  A    between atoms: C19_27  and  N5_28 
ROOT
HETATM    1  C12 UNL     1     -15.751 -19.595 -16.622  1.00  0.00     0.125 A 
HETATM    2  C13 UNL     1     -15.774 -20.865 -17.191  1.00  0.00     0.099 A 
HETATM    3  C14 UNL     1     -15.011 -21.138 -18.294  1.00  0.00     0.120 A 
HETATM    4  N6  UNL     1     -14.214 -20.196 -18.869  1.00  0.00    -0.271 N 
ATOM      5  H6  UNL     1     -13.645 -20.401 -19.691  1.00  0.00     0.190 HD
HETATM    6  N7  UNL     1     -14.218 -19.007 -18.304  1.00  0.00    -0.240 N 
ATOM      7  H7  UNL     1     -13.631 -18.276 -18.709  1.00  0.00     0.208 HD
HETATM    8  N8  UNL     1     -14.956 -18.706 -17.219  1.00  0.00    -0.271 N 
ATOM      9  H8  UNL     1     -14.906 -17.760 -16.839  1.00  0.00     0.190 HD
ENDROOT
BRANCH   1  10
HETATM   10  N3  UNL     1     -16.556 -19.293 -15.506  1.00  0.00    -0.341 N 
ATOM     11  H3  UNL     1     -16.209 -19.634 -14.609  1.00  0.00     0.167 HD
BRANCH  10  12
HETATM   12  C11 UNL     1     -17.772 -18.586 -15.457  1.00  0.00     0.035 A 
HETATM   13  C10 UNL     1     -18.388 -18.093 -14.332  1.00  0.00     0.030 A 
HETATM   14  C9  UNL     1     -19.583 -17.374 -14.359  1.00  0.00     0.012 A 
HETATM   15  C8  UNL     1     -20.209 -17.125 -15.558  1.00  0.00    -0.031 A 
HETATM   16  C7  UNL     1     -21.465 -16.380 -15.702  1.00  0.00     0.042 C 
HETATM   17  C25 UNL     1     -19.608 -17.611 -16.704  1.00  0.00     0.045 A 
HETATM   18  C6  UNL     1     -21.544 -15.521 -16.911  1.00  0.00     0.025 C 
HETATM   19  C5  UNL     1     -20.892 -16.047 -18.143  1.00  0.00     0.132 C 
HETATM   20  N2  UNL     1     -20.251 -17.350 -17.949  1.00  0.00    -0.317 N 
HETATM   21  C4  UNL     1     -20.257 -18.345 -18.937  1.00  0.00     0.224 C 
HETATM   22  O1  UNL     1     -19.791 -19.472 -18.764  1.00  0.00    -0.273 OA
HETATM   23  C24 UNL     1     -18.429 -18.320 -16.672  1.00  0.00     0.059 A 
BRANCH  21  24
HETATM   24  C3  UNL     1     -20.855 -18.022 -20.256  1.00  0.00     0.110 C 
BRANCH  24  25
HETATM   25  C2  UNL     1     -21.645 -19.193 -20.804  1.00  0.00     0.076 C 
BRANCH  25  26
HETATM   26  C1  UNL     1     -23.056 -18.822 -21.073  1.00  0.00     0.091 C 
HETATM   27  N1  UNL     1     -23.352 -18.105 -22.247  1.00  0.00    -0.095 NA
HETATM   28  S1  UNL     1     -24.275 -19.213 -20.063  1.00  0.00    -0.069 SA
ENDBRANCH  25  26
ENDBRANCH  24  25
ENDBRANCH  21  24
ENDBRANCH  10  12
ENDBRANCH   1  10
BRANCH   3  29
HETATM   29  N4  UNL     1     -15.013 -22.309 -18.834  1.00  0.00    -0.375 N 
ATOM     30  H4  UNL     1     -15.456 -22.398 -19.749  1.00  0.00     0.161 HD
BRANCH  29  31
HETATM   31  C15 UNL     1     -14.449 -23.494 -18.262  1.00  0.00     0.121 C 
BRANCH  31  32
HETATM   32  C16 UNL     1     -14.212 -24.561 -19.313  1.00  0.00     0.020 C 
BRANCH  32  33
HETATM   33  C17 UNL     1     -13.564 -24.007 -20.542  1.00  0.00     0.003 C 
BRANCH  33  34
HETATM   34  C18 UNL     1     -12.101 -24.286 -20.638  1.00  0.00     0.020 C 
BRANCH  34  35
HETATM   35  C19 UNL     1     -11.712 -25.548 -19.895  1.00  0.00     0.125 C 
BRANCH  35  36
HETATM   36  N5  UNL     1     -11.041 -25.291 -18.659  1.00  0.00    -0.352 N 
HETATM   37  C20 UNL     1     -10.746 -23.966 -18.108  1.00  0.00     0.126 C 
HETATM   38  C21 UNL     1     -10.755 -24.217 -16.601  1.00  0.00     0.029 C 
HETATM   39  C22 UNL     1     -10.389 -25.659 -16.417  1.00  0.00     0.104 C 
HETATM   40  C23 UNL     1     -10.554 -26.287 -17.765  1.00  0.00     0.219 C 
HETATM   41  O2  UNL     1     -10.287 -27.492 -17.990  1.00  0.00    -0.273 OA
ENDBRANCH  35  36
ENDBRANCH  34  35
ENDBRANCH  33  34
ENDBRANCH  32  33
ENDBRANCH  31  32
ENDBRANCH  29  31
ENDBRANCH   3  29
TORSDOF 12
ENDMDL
MODEL 4
REMARK VINA RESULT: -9.162568686      3.190      4.534
REMARK  12 active torsions:
REMARK  status: ('A' for Active; 'I' for Inactive)
REMARK    1  A    between atoms: C1_2  and  C2_4 
REMARK    2  A    between atoms: C2_4  and  C3_5 
REMARK    3  A    between atoms: C3_5  and  C4_6 
REMARK       I    between atoms: C4_6  and  N2_8 
REMARK    4  A    between atoms: C11_15  and  N3_16 
REMARK    5  A    between atoms: N3_16  and  C12_18 
REMARK    6  A    between atoms: C14_20  and  N4_21 
REMARK    7  A    between atoms: N4_21  and  C15_23 
REMARK    8  A    between atoms: C15_23  and  C16_24 
REMARK    9  A    between atoms: C16_24  and  C17_25 
REMARK   10  A    between atoms: C17_25  and  C18_26 
REMARK   11  A    between atoms: C18_26  and  C19_27 
REMARK   12  A    between atoms: C19_27  and  N5_28 
ROOT
HETATM    1  C12 UNL     1     -16.867 -18.424 -18.264  1.00  0.00     0.125 A 
HETATM    2  C13 UNL     1     -16.796 -19.777 -18.579  1.00  0.00     0.099 A 
HETATM    3  C14 UNL     1     -15.579 -20.376 -18.771  1.00  0.00     0.120 A 
HETATM    4  N6  UNL     1     -14.412 -19.684 -18.665  1.00  0.00    -0.271 N 
ATOM      5  H6  UNL     1     -13.506 -20.130 -18.808  1.00  0.00     0.190 HD
HETATM    6  N7  UNL     1     -14.518 -18.406 -18.366  1.00  0.00    -0.240 N 
ATOM      7  H7  UNL     1     -13.663 -17.856 -18.278  1.00  0.00     0.208 HD
HETATM    8  N8  UNL     1     -15.699 -17.787 -18.171  1.00  0.00    -0.271 N 
ATOM      9  H8  UNL     1     -15.699 -16.793 -17.942  1.00  0.00     0.190 HD
ENDROOT
BRANCH   1  10
HETATM   10  N3  UNL     1     -18.114 -17.791 -18.096  1.00  0.00    -0.341 N 
ATOM     11  H3  UNL     1     -18.684 -17.712 -18.938  1.00  0.00     0.167 HD
BRANCH  10  12
HETATM   12  C11 UNL     1     -18.681 -17.250 -16.925  1.00  0.00     0.035 A 
HETATM   13  C10 UNL     1     -18.128 -17.260 -15.668  1.00  0.00     0.030 A 
HETATM   14  C9  UNL     1     -18.735 -16.679 -14.555  1.00  0.00     0.012 A 
HETATM   15  C8  UNL     1     -19.953 -16.055 -14.682  1.00  0.00    -0.031 A 
HETATM   16  C7  UNL     1     -20.678 -15.412 -13.581  1.00  0.00     0.042 C 
HETATM   17  C25 UNL     1     -20.530 -16.034 -15.938  1.00  0.00     0.045 A 
HETATM   18  C6  UNL     1     -21.412 -14.176 -13.956  1.00  0.00     0.025 C 
HETATM   19  C5  UNL     1     -22.029 -14.155 -15.311  1.00  0.00     0.132 C 
HETATM   20  N2  UNL     1     -21.791 -15.382 -16.076  1.00  0.00    -0.317 N 
HETATM   21  C4  UNL     1     -22.758 -15.938 -16.925  1.00  0.00     0.224 C 
HETATM   22  O1  UNL     1     -22.604 -17.008 -17.515  1.00  0.00    -0.273 OA
HETATM   23  C24 UNL     1     -19.927 -16.608 -17.034  1.00  0.00     0.059 A 
BRANCH  21  24
HETATM   24  C3  UNL     1     -24.029 -15.199 -17.121  1.00  0.00     0.110 C 
BRANCH  24  25
HETATM   25  C2  UNL     1     -25.169 -16.142 -17.447  1.00  0.00     0.076 C 
BRANCH  25  26
HETATM   26  C1  UNL     1     -26.072 -16.332 -16.285  1.00  0.00     0.091 C 
HETATM   27  N1  UNL     1     -26.679 -17.588 -16.102  1.00  0.00    -0.095 NA
HETATM   28  S1  UNL     1     -26.386 -15.143 -15.214  1.00  0.00    -0.069 SA
ENDBRANCH  25  26
ENDBRANCH  24  25
ENDBRANCH  21  24
ENDBRANCH  10  12
ENDBRANCH   1  10
BRANCH   3  29
HETATM   29  N4  UNL     1     -15.489 -21.629 -19.058  1.00  0.00    -0.375 N 
ATOM     30  H4  UNL     1     -16.336 -22.093 -19.389  1.00  0.00     0.161 HD
BRANCH  29  31
HETATM   31  C15 UNL     1     -14.305 -22.428 -18.953  1.00  0.00     0.121 C 
BRANCH  31  32
HETATM   32  C16 UNL     1     -13.995 -22.778 -17.511  1.00  0.00     0.020 C 
BRANCH  32  33
HETATM   33  C17 UNL     1     -12.575 -22.475 -17.150  1.00  0.00     0.003 C 
BRANCH  33  34
HETATM   34  C18 UNL     1     -12.209 -22.850 -15.753  1.00  0.00     0.020 C 
BRANCH  34  35
HETATM   35  C19 UNL     1     -12.024 -21.634 -14.868  1.00  0.00     0.125 C 
BRANCH  35  36
HETATM   36  N5  UNL     1     -13.250 -20.966 -14.561  1.00  0.00    -0.352 N 
HETATM   37  C20 UNL     1     -13.653 -19.650 -15.063  1.00  0.00     0.126 C 
HETATM   38  C21 UNL     1     -15.177 -19.751 -15.093  1.00  0.00     0.029 C 
HETATM   39  C22 UNL     1     -15.548 -20.759 -14.046  1.00  0.00     0.104 C 
HETATM   40  C23 UNL     1     -14.278 -21.479 -13.719  1.00  0.00     0.219 C 
HETATM   41  O2  UNL     1     -14.211 -22.369 -12.838  1.00  0.00    -0.273 OA
ENDBRANCH  35  36
ENDBRANCH  34  35
ENDBRANCH  33  34
ENDBRANCH  32  33
ENDBRANCH  31  32
ENDBRANCH  29  31
ENDBRANCH   3  29
TORSDOF 12
ENDMDL
MODEL 5
REMARK VINA RESULT: -9.149384010      1.282      2.424
REMARK  12 active torsions:
REMARK  status: ('A' for Active; 'I' for Inactive)
REMARK    1  A    between atoms: C1_2  and  C2_4 
REMARK    2  A    between atoms: C2_4  and  C3_5 
REMARK    3  A    between atoms: C3_5  and  C4_6 
REMARK       I    between atoms: C4_6  and  N2_8 
REMARK    4  A    between atoms: C11_15  and  N3_16 
REMARK    5  A    between atoms: N3_16  and  C12_18 
REMARK    6  A    between atoms: C14_20  and  N4_21 
REMARK    7  A    between atoms: N4_21  and  C15_23 
REMARK    8  A    between atoms: C15_23  and  C16_24 
REMARK    9  A    between atoms: C16_24  and  C17_25 
REMARK   10  A    between atoms: C17_25  and  C18_26 
REMARK   11  A    between atoms: C18_26  and  C19_27 
REMARK   12  A    between atoms: C19_27  and  N5_28 
ROOT
HETATM    1  C12 UNL     1     -15.206 -18.979 -16.487  1.00  0.00     0.125 A 
HETATM    2  C13 UNL     1     -14.770 -20.186 -15.950  1.00  0.00     0.099 A 
HETATM    3  C14 UNL     1     -14.156 -21.113 -16.750  1.00  0.00     0.120 A 
HETATM    4  N6  UNL     1     -13.952 -20.896 -18.078  1.00  0.00    -0.271 N 
ATOM      5  H6  UNL     1     -13.494 -21.587 -18.673  1.00  0.00     0.190 HD
HETATM    6  N7  UNL     1     -14.378 -19.743 -18.551  1.00  0.00    -0.240 N 
ATOM      7  H7  UNL     1     -14.242 -19.547 -19.543  1.00  0.00     0.208 HD
HETATM    8  N8  UNL     1     -14.985 -18.811 -17.792  1.00  0.00    -0.271 N 
ATOM      9  H8  UNL     1     -15.288 -17.942 -18.232  1.00  0.00     0.190 HD
ENDROOT
BRANCH   1  10
HETATM   10  N3  UNL     1     -15.867 -18.032 -15.682  1.00  0.00    -0.341 N 
ATOM     11  H3  UNL     1     -15.260 -17.411 -15.146  1.00  0.00     0.167 HD
BRANCH  10  12
HETATM   12  C11 UNL     1     -17.249 -17.822 -15.514  1.00  0.00     0.035 A 
HETATM   13  C10 UNL     1     -17.914 -17.661 -14.323  1.00  0.00     0.030 A 
HETATM   14  C9  UNL     1     -19.285 -17.428 -14.230  1.00  0.00     0.012 A 
HETATM   15  C8  UNL     1     -20.048 -17.351 -15.371  1.00  0.00    -0.031 A 
HETATM   16  C7  UNL     1     -21.496 -17.109 -15.390  1.00  0.00     0.042 C 
HETATM   17  C25 UNL     1     -19.402 -17.511 -16.583  1.00  0.00     0.045 A 
HETATM   18  C6  UNL     1     -21.971 -16.265 -16.516  1.00  0.00     0.025 C 
HETATM   19  C5  UNL     1     -21.270 -16.438 -17.818  1.00  0.00     0.132 C 
HETATM   20  N2  UNL     1     -20.189 -17.426 -17.768  1.00  0.00    -0.317 N 
HETATM   21  C4  UNL     1     -19.911 -18.291 -18.836  1.00  0.00     0.224 C 
HETATM   22  O1  UNL     1     -19.058 -19.178 -18.783  1.00  0.00    -0.273 OA
HETATM   23  C24 UNL     1     -18.048 -17.740 -16.668  1.00  0.00     0.059 A 
BRANCH  21  24
HETATM   24  C3  UNL     1     -20.684 -18.127 -20.092  1.00  0.00     0.110 C 
BRANCH  24  25
HETATM   25  C2  UNL     1     -21.599 -19.310 -20.334  1.00  0.00     0.076 C 
BRANCH  25  26
HETATM   26  C1  UNL     1     -22.942 -18.878 -20.791  1.00  0.00     0.091 C 
HETATM   27  N1  UNL     1     -23.045 -18.165 -22.000  1.00  0.00    -0.095 NA
HETATM   28  S1  UNL     1     -24.302 -19.197 -19.949  1.00  0.00    -0.069 SA
ENDBRANCH  25  26
ENDBRANCH  24  25
ENDBRANCH  21  24
ENDBRANCH  10  12
ENDBRANCH   1  10
BRANCH   3  29
HETATM   29  N4  UNL     1     -13.739 -22.236 -16.272  1.00  0.00    -0.375 N 
ATOM     30  H4  UNL     1     -13.948 -23.077 -16.810  1.00  0.00     0.161 HD
BRANCH  29  31
HETATM   31  C15 UNL     1     -13.008 -22.405 -15.052  1.00  0.00     0.121 C 
BRANCH  31  32
HETATM   32  C16 UNL     1     -11.652 -23.038 -15.298  1.00  0.00     0.020 C 
BRANCH  32  33
HETATM   33  C17 UNL     1     -11.242 -22.950 -16.734  1.00  0.00     0.003 C 
BRANCH  33  34
HETATM   34  C18 UNL     1     -10.626 -24.200 -17.268  1.00  0.00     0.020 C 
BRANCH  34  35
HETATM   35  C19 UNL     1     -11.665 -25.159 -17.813  1.00  0.00     0.125 C 
BRANCH  35  36
HETATM   36  N5  UNL     1     -12.245 -24.724 -19.045  1.00  0.00    -0.352 N 
HETATM   37  C20 UNL     1     -11.528 -24.554 -20.311  1.00  0.00     0.126 C 
HETATM   38  C21 UNL     1     -12.613 -24.828 -21.352  1.00  0.00     0.029 C 
HETATM   39  C22 UNL     1     -13.915 -24.476 -20.698  1.00  0.00     0.104 C 
HETATM   40  C23 UNL     1     -13.615 -24.388 -19.236  1.00  0.00     0.219 C 
HETATM   41  O2  UNL     1     -14.478 -24.064 -18.384  1.00  0.00    -0.273 OA
ENDBRANCH  35  36
ENDBRANCH  34  35
ENDBRANCH  33  34
ENDBRANCH  32  33
ENDBRANCH  31  32
ENDBRANCH  29  31
ENDBRANCH   3  29
TORSDOF 12
ENDMDL
