MODEL 1
REMARK VINA RESULT: -7.410124773      0.000      0.000
REMARK  12 active torsions:
REMARK  status: ('A' for Active; 'I' for Inactive)
REMARK    1  A    between atoms: O1_2  and  C2_3 
REMARK    2  A    between atoms: C4_5  and  C5_6 
REMARK    3  A    between atoms: C5_6  and  C6_7 
REMARK    4  A    between atoms: C10_16  and  O3_17 
REMARK    5  A    between atoms: O3_17  and  C11_18 
REMARK    6  A    between atoms: C11_18  and  C12_19 
REMARK    7  A    between atoms: C11_18  and  C19_30 
REMARK       I    between atoms: C12_19  and  N3_21 
REMARK    8  A    between atoms: N3_21  and  C13_23 
REMARK    9  A    between atoms: C13_23  and  C14_24 
REMARK   10  A    between atoms: C14_24  and  N4_25 
REMARK   11  A    between atoms: C23_34  and  O5_35 
REMARK   12  A    between atoms: C25_37  and  O6_38 
ROOT
HETATM    1  C2  UNL     1     -10.873 -24.242 -17.332  1.00  0.00     0.105 A 
HETATM    2  C3  UNL     1     -10.929 -23.800 -16.030  1.00  0.00     0.050 A 
HETATM    3  C4  UNL     1     -11.861 -22.837 -15.598  1.00  0.00    -0.013 A 
HETATM    4  C10 UNL     1     -12.766 -22.298 -16.483  1.00  0.00     0.113 A 
HETATM    5  C23 UNL     1     -12.705 -22.743 -17.795  1.00  0.00     0.138 A 
HETATM    6  C25 UNL     1     -11.770 -23.703 -18.211  1.00  0.00     0.138 A 
ENDROOT
BRANCH   4   7
HETATM    7  O3  UNL     1     -13.692 -21.362 -16.122  1.00  0.00    -0.332 OA
BRANCH   7   8
HETATM    8  C11 UNL     1     -14.955 -21.477 -15.582  1.00  0.00     0.228 C 
BRANCH   8   9
HETATM    9  C12 UNL     1     -16.119 -21.147 -16.479  1.00  0.00     0.251 C 
HETATM   10  O4  UNL     1     -17.157 -21.805 -16.550  1.00  0.00    -0.270 OA
HETATM   11  N3  UNL     1     -16.044 -19.986 -17.316  1.00  0.00    -0.334 N 
ATOM     12  H3  UNL     1     -15.161 -19.478 -17.258  1.00  0.00     0.168 HD
BRANCH  11  13
HETATM   13  C13 UNL     1     -16.969 -19.435 -18.192  1.00  0.00     0.102 C 
BRANCH  13  14
HETATM   14  C14 UNL     1     -17.748 -18.212 -17.967  1.00  0.00     0.076 C 
BRANCH  14  15
HETATM   15  N4  UNL     1     -19.088 -18.217 -17.550  1.00  0.00    -0.291 NA
HETATM   16  C15 UNL     1     -19.307 -19.055 -16.417  1.00  0.00     0.095 C 
HETATM   17  C16 UNL     1     -19.697 -18.145 -15.259  1.00  0.00     0.016 C 
HETATM   18  C17 UNL     1     -19.462 -16.747 -15.753  1.00  0.00     0.016 C 
HETATM   19  C18 UNL     1     -19.634 -16.923 -17.246  1.00  0.00     0.095 C 
ENDBRANCH  14  15
ENDBRANCH  13  14
ENDBRANCH  11  13
ENDBRANCH   8   9
BRANCH   8  20
HETATM   20  C19 UNL     1     -15.023 -20.567 -14.372  1.00  0.00    -0.016 C 
HETATM   21  C20 UNL     1     -16.287 -19.722 -14.392  1.00  0.00     0.018 C 
HETATM   22  C21 UNL     1     -13.890 -19.578 -14.431  1.00  0.00     0.018 C 
HETATM   23  C22 UNL     1     -14.947 -21.243 -13.050  1.00  0.00     0.018 C 
ENDBRANCH   8  20
ENDBRANCH   7   8
ENDBRANCH   4   7
BRANCH   3  24
HETATM   24  C5  UNL     1     -11.698 -22.461 -14.176  1.00  0.00     0.101 C 
BRANCH  24  25
HETATM   25  C6  UNL     1     -12.076 -23.619 -13.286  1.00  0.00     0.040 A 
HETATM   26  N1  UNL     1     -13.134 -24.444 -13.392  1.00  0.00    -0.310 N 
HETATM   27  C7  UNL     1     -13.111 -25.346 -12.384  1.00  0.00     0.324 A 
ATOM     28  H1  UNL     1     -13.844 -24.397 -14.123  1.00  0.00     0.170 HD
HETATM   29  O2  UNL     1     -13.923 -26.275 -12.141  1.00  0.00    -0.247 OA
HETATM   30  N2  UNL     1     -12.033 -25.090 -11.635  1.00  0.00    -0.311 N 
HETATM   31  C8  UNL     1     -11.388 -24.037 -12.173  1.00  0.00     0.033 A 
ATOM     32  H2  UNL     1     -11.749 -25.603 -10.801  1.00  0.00     0.170 HD
HETATM   33  C9  UNL     1     -10.142 -23.413 -11.669  1.00  0.00     0.070 C 
ENDBRANCH  24  25
ENDBRANCH   3  24
BRANCH   5  34
HETATM   34  O5  UNL     1     -13.520 -22.306 -18.825  1.00  0.00    -0.351 OA
HETATM   35  C24 UNL     1     -14.759 -22.967 -19.003  1.00  0.00     0.210 C 
ENDBRANCH   5  34
BRANCH   6  36
HETATM   36  O6  UNL     1     -11.727 -24.135 -19.527  1.00  0.00    -0.351 OA
HETATM   37  C26 UNL     1     -12.363 -25.365 -19.846  1.00  0.00     0.210 C 
ENDBRANCH   6  36
BRANCH   1  38
HETATM   38  O1  UNL     1      -9.964 -25.185 -17.765  1.00  0.00    -0.353 OA
HETATM   39  C1  UNL     1      -9.993 -26.520 -17.333  1.00  0.00     0.210 C 
ENDBRANCH   1  38
TORSDOF 12
ENDMDL
MODEL 2
REMARK VINA RESULT: -7.401974021      1.486      2.112
REMARK  12 active torsions:
REMARK  status: ('A' for Active; 'I' for Inactive)
REMARK    1  A    between atoms: O1_2  and  C2_3 
REMARK    2  A    between atoms: C4_5  and  C5_6 
REMARK    3  A    between atoms: C5_6  and  C6_7 
REMARK    4  A    between atoms: C10_16  and  O3_17 
REMARK    5  A    between atoms: O3_17  and  C11_18 
REMARK    6  A    between atoms: C11_18  and  C12_19 
REMARK    7  A    between atoms: C11_18  and  C19_30 
REMARK       I    between atoms: C12_19  and  N3_21 
REMARK    8  A    between atoms: N3_21  and  C13_23 
REMARK    9  A    between atoms: C13_23  and  C14_24 
REMARK   10  A    between atoms: C14_24  and  N4_25 
REMARK   11  A    between atoms: C23_34  and  O5_35 
REMARK   12  A    between atoms: C25_37  and  O6_38 
ROOT
HETATM    1  C2  UNL     1     -11.223 -24.006 -17.740  1.00  0.00     0.105 A 
HETATM    2  C3  UNL     1     -11.148 -23.529 -16.452  1.00  0.00     0.050 A 
HETATM    3  C4  UNL     1     -12.079 -22.611 -15.930  1.00  0.00    -0.013 A 
HETATM    4  C10 UNL     1     -13.118 -22.155 -16.708  1.00  0.00     0.113 A 
HETATM    5  C23 UNL     1     -13.189 -22.636 -18.008  1.00  0.00     0.138 A 
HETATM    6  C25 UNL     1     -12.253 -23.551 -18.514  1.00  0.00     0.138 A 
ENDROOT
BRANCH   4   7
HETATM    7  O3  UNL     1     -14.051 -21.266 -16.257  1.00  0.00    -0.332 OA
BRANCH   7   8
HETATM    8  C11 UNL     1     -15.264 -21.445 -15.628  1.00  0.00     0.228 C 
BRANCH   8   9
HETATM    9  C12 UNL     1     -16.504 -21.292 -16.468  1.00  0.00     0.251 C 
HETATM   10  O4  UNL     1     -17.357 -22.166 -16.623  1.00  0.00    -0.270 OA
HETATM   11  N3  UNL     1     -16.738 -20.049 -17.143  1.00  0.00    -0.334 N 
ATOM     12  H3  UNL     1     -16.000 -19.356 -17.021  1.00  0.00     0.168 HD
BRANCH  11  13
HETATM   13  C13 UNL     1     -17.798 -19.629 -17.934  1.00  0.00     0.102 C 
BRANCH  13  14
HETATM   14  C14 UNL     1     -17.691 -18.891 -19.198  1.00  0.00     0.076 C 
BRANCH  14  15
HETATM   15  N4  UNL     1     -17.928 -19.474 -20.453  1.00  0.00    -0.291 NA
HETATM   16  C15 UNL     1     -17.930 -20.899 -20.405  1.00  0.00     0.095 C 
HETATM   17  C16 UNL     1     -19.350 -21.352 -20.725  1.00  0.00     0.016 C 
HETATM   18  C17 UNL     1     -20.178 -20.101 -20.729  1.00  0.00     0.016 C 
HETATM   19  C18 UNL     1     -19.145 -19.057 -21.095  1.00  0.00     0.095 C 
ENDBRANCH  14  15
ENDBRANCH  13  14
ENDBRANCH  11  13
ENDBRANCH   8   9
BRANCH   8  20
HETATM   20  C19 UNL     1     -15.344 -20.447 -14.490  1.00  0.00    -0.016 C 
HETATM   21  C20 UNL     1     -14.221 -19.426 -14.577  1.00  0.00     0.018 C 
HETATM   22  C21 UNL     1     -15.120 -21.165 -13.185  1.00  0.00     0.018 C 
HETATM   23  C22 UNL     1     -16.626 -19.706 -14.369  1.00  0.00     0.018 C 
ENDBRANCH   8  20
ENDBRANCH   7   8
ENDBRANCH   4   7
BRANCH   3  24
HETATM   24  C5  UNL     1     -11.768 -22.182 -14.549  1.00  0.00     0.101 C 
BRANCH  24  25
HETATM   25  C6  UNL     1     -12.118 -23.278 -13.573  1.00  0.00     0.040 A 
HETATM   26  N1  UNL     1     -13.143 -24.149 -13.626  1.00  0.00    -0.310 N 
HETATM   27  C7  UNL     1     -13.104 -24.965 -12.548  1.00  0.00     0.324 A 
ATOM     28  H1  UNL     1     -13.843 -24.187 -14.368  1.00  0.00     0.170 HD
HETATM   29  O2  UNL     1     -13.885 -25.902 -12.242  1.00  0.00    -0.247 OA
HETATM   30  N2  UNL     1     -12.048 -24.609 -11.808  1.00  0.00    -0.311 N 
HETATM   31  C8  UNL     1     -11.433 -23.579 -12.420  1.00  0.00     0.033 A 
ATOM     32  H2  UNL     1     -11.759 -25.043 -10.931  1.00  0.00     0.170 HD
HETATM   33  C9  UNL     1     -10.220 -22.870 -11.952  1.00  0.00     0.070 C 
ENDBRANCH  24  25
ENDBRANCH   3  24
BRANCH   5  34
HETATM   34  O5  UNL     1     -14.151 -22.282 -18.938  1.00  0.00    -0.351 OA
HETATM   35  C24 UNL     1     -14.265 -20.910 -19.269  1.00  0.00     0.210 C 
ENDBRANCH   5  34
BRANCH   6  36
HETATM   36  O6  UNL     1     -12.344 -24.020 -19.814  1.00  0.00    -0.351 OA
HETATM   37  C26 UNL     1     -13.193 -25.132 -20.063  1.00  0.00     0.210 C 
ENDBRANCH   6  36
BRANCH   1  38
HETATM   38  O1  UNL     1     -10.316 -24.907 -18.260  1.00  0.00    -0.353 OA
HETATM   39  C1  UNL     1     -10.326 -26.271 -17.930  1.00  0.00     0.210 C 
ENDBRANCH   1  38
TORSDOF 12
ENDMDL
MODEL 3
REMARK VINA RESULT: -7.394044473      3.082      7.842
REMARK  12 active torsions:
REMARK  status: ('A' for Active; 'I' for Inactive)
REMARK    1  A    between atoms: O1_2  and  C2_3 
REMARK    2  A    between atoms: C4_5  and  C5_6 
REMARK    3  A    between atoms: C5_6  and  C6_7 
REMARK    4  A    between atoms: C10_16  and  O3_17 
REMARK    5  A    between atoms: O3_17  and  C11_18 
REMARK    6  A    between atoms: C11_18  and  C12_19 
REMARK    7  A    between atoms: C11_18  and  C19_30 
REMARK       I    between atoms: C12_19  and  N3_21 
REMARK    8  A    between atoms: N3_21  and  C13_23 
REMARK    9  A    between atoms: C13_23  and  C14_24 
REMARK   10  A    between atoms: C14_24  and  N4_25 
REMARK   11  A    between atoms: C23_34  and  O5_35 
REMARK   12  A    between atoms: C25_37  and  O6_38 
ROOT
HETATM    1  C2  UNL     1     -19.316 -20.109 -20.405  1.00  0.00     0.105 A 
HETATM    2  C3  UNL     1     -18.511 -20.723 -19.473  1.00  0.00     0.050 A 
HETATM    3  C4  UNL     1     -18.459 -20.309 -18.129  1.00  0.00    -0.013 A 
HETATM    4  C10 UNL     1     -19.230 -19.255 -17.694  1.00  0.00     0.113 A 
HETATM    5  C23 UNL     1     -20.038 -18.636 -18.637  1.00  0.00     0.138 A 
HETATM    6  C25 UNL     1     -20.079 -19.060 -19.974  1.00  0.00     0.138 A 
ENDROOT
BRANCH   4   7
HETATM    7  O3  UNL     1     -19.221 -18.809 -16.404  1.00  0.00    -0.332 OA
BRANCH   7   8
HETATM    8  C11 UNL     1     -18.538 -17.783 -15.789  1.00  0.00     0.228 C 
BRANCH   8   9
HETATM    9  C12 UNL     1     -17.180 -18.103 -15.220  1.00  0.00     0.251 C 
HETATM   10  O4  UNL     1     -16.256 -17.297 -15.117  1.00  0.00    -0.270 OA
HETATM   11  N3  UNL     1     -16.918 -19.432 -14.752  1.00  0.00    -0.334 N 
ATOM     12  H3  UNL     1     -17.692 -20.086 -14.879  1.00  0.00     0.168 HD
BRANCH  11  13
HETATM   13  C13 UNL     1     -15.792 -19.982 -14.156  1.00  0.00     0.102 C 
BRANCH  13  14
HETATM   14  C14 UNL     1     -15.014 -21.117 -14.665  1.00  0.00     0.076 C 
BRANCH  14  15
HETATM   15  N4  UNL     1     -13.838 -20.971 -15.416  1.00  0.00    -0.291 NA
HETATM   16  C15 UNL     1     -12.864 -20.164 -14.759  1.00  0.00     0.095 C 
HETATM   17  C16 UNL     1     -11.686 -21.072 -14.423  1.00  0.00     0.016 C 
HETATM   18  C17 UNL     1     -12.156 -22.464 -14.728  1.00  0.00     0.016 C 
HETATM   19  C18 UNL     1     -13.201 -22.203 -15.792  1.00  0.00     0.095 C 
ENDBRANCH  14  15
ENDBRANCH  13  14
ENDBRANCH  11  13
ENDBRANCH   8   9
BRANCH   8  20
HETATM   20  C19 UNL     1     -19.406 -17.261 -14.662  1.00  0.00    -0.016 C 
HETATM   21  C20 UNL     1     -20.715 -18.030 -14.577  1.00  0.00     0.018 C 
HETATM   22  C21 UNL     1     -19.805 -15.840 -14.960  1.00  0.00     0.018 C 
HETATM   23  C22 UNL     1     -18.785 -17.267 -13.311  1.00  0.00     0.018 C 
ENDBRANCH   8  20
ENDBRANCH   7   8
ENDBRANCH   4   7
BRANCH   3  24
HETATM   24  C5  UNL     1     -17.478 -21.066 -17.320  1.00  0.00     0.101 C 
BRANCH  24  25
HETATM   25  C6  UNL     1     -16.197 -21.251 -18.096  1.00  0.00     0.040 A 
HETATM   26  N1  UNL     1     -15.670 -22.392 -18.576  1.00  0.00    -0.310 N 
HETATM   27  C7  UNL     1     -14.502 -22.124 -19.205  1.00  0.00     0.324 A 
ATOM     28  H1  UNL     1     -16.087 -23.318 -18.481  1.00  0.00     0.170 HD
HETATM   29  O2  UNL     1     -13.717 -22.921 -19.781  1.00  0.00    -0.247 OA
HETATM   30  N2  UNL     1     -14.290 -20.806 -19.122  1.00  0.00    -0.311 N 
HETATM   31  C8  UNL     1     -15.317 -20.256 -18.447  1.00  0.00     0.033 A 
ATOM     32  H2  UNL     1     -13.488 -20.305 -19.504  1.00  0.00     0.170 HD
HETATM   33  C9  UNL     1     -15.495 -18.822 -18.123  1.00  0.00     0.070 C 
ENDBRANCH  24  25
ENDBRANCH   3  24
BRANCH   5  34
HETATM   34  O5  UNL     1     -20.867 -17.556 -18.390  1.00  0.00    -0.351 OA
HETATM   35  C24 UNL     1     -20.311 -16.260 -18.523  1.00  0.00     0.210 C 
ENDBRANCH   5  34
BRANCH   6  36
HETATM   36  O6  UNL     1     -20.894 -18.429 -20.898  1.00  0.00    -0.351 OA
HETATM   37  C26 UNL     1     -22.227 -18.900 -21.044  1.00  0.00     0.210 C 
ENDBRANCH   6  36
BRANCH   1  38
HETATM   38  O1  UNL     1     -19.374 -20.508 -21.724  1.00  0.00    -0.353 OA
HETATM   39  C1  UNL     1     -19.085 -21.819 -22.133  1.00  0.00     0.210 C 
ENDBRANCH   1  38
TORSDOF 12
ENDMDL
MODEL 4
REMARK VINA RESULT: -7.337193062      1.578      2.208
REMARK  12 active torsions:
REMARK  status: ('A' for Active; 'I' for Inactive)
REMARK    1  A    between atoms: O1_2  and  C2_3 
REMARK    2  A    between atoms: C4_5  and  C5_6 
REMARK    3  A    between atoms: C5_6  and  C6_7 
REMARK    4  A    between atoms: C10_16  and  O3_17 
REMARK    5  A    between atoms: O3_17  and  C11_18 
REMARK    6  A    between atoms: C11_18  and  C12_19 
REMARK    7  A    between atoms: C11_18  and  C19_30 
REMARK       I    between atoms: C12_19  and  N3_21 
REMARK    8  A    between atoms: N3_21  and  C13_23 
REMARK    9  A    between atoms: C13_23  and  C14_24 
REMARK   10  A    between atoms: C14_24  and  N4_25 
REMARK   11  A    between atoms: C23_34  and  O5_35 
REMARK   12  A    between atoms: C25_37  and  O6_38 
ROOT
HETATM    1  C2  UNL     1     -11.160 -24.024 -17.537  1.00  0.00     0.105 A 
HETATM    2  C3  UNL     1     -11.404 -23.445 -16.313  1.00  0.00     0.050 A 
HETATM    3  C4  UNL     1     -12.415 -22.485 -16.120  1.00  0.00    -0.013 A 
HETATM    4  C10 UNL     1     -13.211 -22.089 -17.170  1.00  0.00     0.113 A 
HETATM    5  C23 UNL     1     -12.961 -22.673 -18.403  1.00  0.00     0.138 A 
HETATM    6  C25 UNL     1     -11.949 -23.629 -18.581  1.00  0.00     0.138 A 
ENDROOT
BRANCH   4   7
HETATM    7  O3  UNL     1     -14.206 -21.164 -17.042  1.00  0.00    -0.332 OA
BRANCH   7   8
HETATM    8  C11 UNL     1     -15.437 -21.215 -16.424  1.00  0.00     0.228 C 
BRANCH   8   9
HETATM    9  C12 UNL     1     -16.619 -21.599 -17.275  1.00  0.00     0.251 C 
HETATM   10  O4  UNL     1     -17.591 -22.240 -16.875  1.00  0.00    -0.270 OA
HETATM   11  N3  UNL     1     -16.645 -21.199 -18.651  1.00  0.00    -0.334 N 
ATOM     12  H3  UNL     1     -15.813 -20.696 -18.961  1.00  0.00     0.168 HD
BRANCH  11  13
HETATM   13  C13 UNL     1     -17.609 -21.378 -19.633  1.00  0.00     0.102 C 
BRANCH  13  14
HETATM   14  C14 UNL     1     -18.817 -20.566 -19.813  1.00  0.00     0.076 C 
BRANCH  14  15
HETATM   15  N4  UNL     1     -18.840 -19.172 -19.652  1.00  0.00    -0.291 NA
HETATM   16  C15 UNL     1     -18.877 -18.476 -20.896  1.00  0.00     0.095 C 
HETATM   17  C16 UNL     1     -20.227 -17.771 -20.972  1.00  0.00     0.016 C 
HETATM   18  C17 UNL     1     -21.017 -18.297 -19.809  1.00  0.00     0.016 C 
HETATM   19  C18 UNL     1     -19.916 -18.672 -18.841  1.00  0.00     0.095 C 
ENDBRANCH  14  15
ENDBRANCH  13  14
ENDBRANCH  11  13
ENDBRANCH   8   9
BRANCH   8  20
HETATM   20  C19 UNL     1     -15.711 -19.847 -15.831  1.00  0.00    -0.016 C 
HETATM   21  C20 UNL     1     -16.150 -18.863 -16.904  1.00  0.00     0.018 C 
HETATM   22  C21 UNL     1     -14.430 -19.280 -15.279  1.00  0.00     0.018 C 
HETATM   23  C22 UNL     1     -16.717 -19.807 -14.737  1.00  0.00     0.018 C 
ENDBRANCH   8  20
ENDBRANCH   7   8
ENDBRANCH   4   7
BRANCH   3  24
HETATM   24  C5  UNL     1     -12.456 -21.947 -14.741  1.00  0.00     0.101 C 
BRANCH  24  25
HETATM   25  C6  UNL     1     -12.843 -23.034 -13.770  1.00  0.00     0.040 A 
HETATM   26  N1  UNL     1     -12.307 -24.261 -13.632  1.00  0.00    -0.310 N 
HETATM   27  C7  UNL     1     -12.952 -24.931 -12.649  1.00  0.00     0.324 A 
ATOM     28  H1  UNL     1     -11.532 -24.629 -14.184  1.00  0.00     0.170 HD
HETATM   29  O2  UNL     1     -12.744 -26.097 -12.226  1.00  0.00    -0.247 OA
HETATM   30  N2  UNL     1     -13.901 -24.124 -12.163  1.00  0.00    -0.311 N 
HETATM   31  C8  UNL     1     -13.848 -22.959 -12.836  1.00  0.00     0.033 A 
ATOM     32  H2  UNL     1     -14.552 -24.353 -11.412  1.00  0.00     0.170 HD
HETATM   33  C9  UNL     1     -14.717 -21.778 -12.627  1.00  0.00     0.070 C 
ENDBRANCH  24  25
ENDBRANCH   3  24
BRANCH   5  34
HETATM   34  O5  UNL     1     -13.645 -22.391 -19.573  1.00  0.00    -0.351 OA
HETATM   35  C24 UNL     1     -14.609 -23.332 -20.009  1.00  0.00     0.210 C 
ENDBRANCH   5  34
BRANCH   6  36
HETATM   36  O6  UNL     1     -11.717 -24.201 -19.821  1.00  0.00    -0.351 OA
HETATM   37  C26 UNL     1     -12.165 -25.533 -20.035  1.00  0.00     0.210 C 
ENDBRANCH   6  36
BRANCH   1  38
HETATM   38  O1  UNL     1     -10.173 -24.966 -17.737  1.00  0.00    -0.353 OA
HETATM   39  C1  UNL     1     -10.145 -26.193 -17.055  1.00  0.00     0.210 C 
ENDBRANCH   1  38
TORSDOF 12
ENDMDL
MODEL 5
REMARK VINA RESULT: -7.273139585      4.960      8.550
REMARK  12 active torsions:
REMARK  status: ('A' for Active; 'I' for Inactive)
REMARK    1  A    between atoms: O1_2  and  C2_3 
REMARK    2  A    between atoms: C4_5  and  C5_6 
REMARK    3  A    between atoms: C5_6  and  C6_7 
REMARK    4  A    between atoms: C10_16  and  O3_17 
REMARK    5  A    between atoms: O3_17  and  C11_18 
REMARK    6  A    between atoms: C11_18  and  C12_19 
REMARK    7  A    between atoms: C11_18  and  C19_30 
REMARK       I    between atoms: C12_19  and  N3_21 
REMARK    8  A    between atoms: N3_21  and  C13_23 
REMARK    9  A    between atoms: C13_23  and  C14_24 
REMARK   10  A    between atoms: C14_24  and  N4_25 
REMARK   11  A    between atoms: C23_34  and  O5_35 
REMARK   12  A    between atoms: C25_37  and  O6_38 
ROOT
HETATM    1  C2  UNL     1     -16.251 -19.156 -16.128  1.00  0.00     0.105 A 
HETATM    2  C3  UNL     1     -17.420 -18.953 -15.430  1.00  0.00     0.050 A 
HETATM    3  C4  UNL     1     -18.660 -18.770 -16.071  1.00  0.00    -0.013 A 
HETATM    4  C10 UNL     1     -18.744 -18.791 -17.444  1.00  0.00     0.113 A 
HETATM    5  C23 UNL     1     -17.563 -18.992 -18.144  1.00  0.00     0.138 A 
HETATM    6  C25 UNL     1     -16.334 -19.173 -17.492  1.00  0.00     0.138 A 
ENDROOT
BRANCH   4   7
HETATM    7  O3  UNL     1     -19.918 -18.619 -18.120  1.00  0.00    -0.332 OA
BRANCH   7   8
HETATM    8  C11 UNL     1     -20.332 -17.658 -19.017  1.00  0.00     0.228 C 
BRANCH   8   9
HETATM    9  C12 UNL     1     -21.204 -16.551 -18.485  1.00  0.00     0.251 C 
HETATM   10  O4  UNL     1     -20.902 -15.358 -18.491  1.00  0.00    -0.270 OA
HETATM   11  N3  UNL     1     -22.484 -16.879 -17.931  1.00  0.00    -0.334 N 
ATOM     12  H3  UNL     1     -22.693 -17.878 -17.912  1.00  0.00     0.168 HD
BRANCH  11  13
HETATM   13  C13 UNL     1     -23.488 -16.070 -17.417  1.00  0.00     0.102 C 
BRANCH  13  14
HETATM   14  C14 UNL     1     -24.547 -16.492 -16.494  1.00  0.00     0.076 C 
BRANCH  14  15
HETATM   15  N4  UNL     1     -25.065 -15.664 -15.485  1.00  0.00    -0.291 NA
HETATM   16  C15 UNL     1     -24.522 -14.347 -15.523  1.00  0.00     0.095 C 
HETATM   17  C16 UNL     1     -25.663 -13.405 -15.890  1.00  0.00     0.016 C 
HETATM   18  C17 UNL     1     -26.808 -14.296 -16.271  1.00  0.00     0.016 C 
HETATM   19  C18 UNL     1     -26.497 -15.545 -15.475  1.00  0.00     0.095 C 
ENDBRANCH  14  15
ENDBRANCH  13  14
ENDBRANCH  11  13
ENDBRANCH   8   9
BRANCH   8  20
HETATM   20  C19 UNL     1     -21.090 -18.359 -20.126  1.00  0.00    -0.016 C 
HETATM   21  C20 UNL     1     -20.764 -19.843 -20.161  1.00  0.00     0.018 C 
HETATM   22  C21 UNL     1     -20.627 -17.825 -21.456  1.00  0.00     0.018 C 
HETATM   23  C22 UNL     1     -22.569 -18.217 -20.088  1.00  0.00     0.018 C 
ENDBRANCH   8  20
ENDBRANCH   7   8
ENDBRANCH   4   7
BRANCH   3  24
HETATM   24  C5  UNL     1     -19.771 -18.501 -15.132  1.00  0.00     0.101 C 
BRANCH  24  25
HETATM   25  C6  UNL     1     -19.867 -17.022 -14.849  1.00  0.00     0.040 A 
HETATM   26  N1  UNL     1     -20.705 -16.120 -15.393  1.00  0.00    -0.310 N 
HETATM   27  C7  UNL     1     -20.456 -14.896 -14.872  1.00  0.00     0.324 A 
ATOM     28  H1  UNL     1     -21.418 -16.328 -16.091  1.00  0.00     0.170 HD
HETATM   29  O2  UNL     1     -21.025 -13.804 -15.125  1.00  0.00    -0.247 OA
HETATM   30  N2  UNL     1     -19.456 -15.025 -13.994  1.00  0.00    -0.311 N 
HETATM   31  C8  UNL     1     -19.084 -16.319 -13.966  1.00  0.00     0.033 A 
ATOM     32  H2  UNL     1     -19.046 -14.272 -13.441  1.00  0.00     0.170 HD
HETATM   33  C9  UNL     1     -18.012 -16.912 -13.133  1.00  0.00     0.070 C 
ENDBRANCH  24  25
ENDBRANCH   3  24
BRANCH   5  34
HETATM   34  O5  UNL     1     -17.450 -19.030 -19.523  1.00  0.00    -0.351 OA
HETATM   35  C24 UNL     1     -17.662 -20.275 -20.163  1.00  0.00     0.210 C 
ENDBRANCH   5  34
BRANCH   6  36
HETATM   36  O6  UNL     1     -15.167 -19.375 -18.210  1.00  0.00    -0.351 OA
HETATM   37  C26 UNL     1     -14.701 -20.708 -18.363  1.00  0.00     0.210 C 
ENDBRANCH   6  36
BRANCH   1  38
HETATM   38  O1  UNL     1     -15.031 -19.337 -15.509  1.00  0.00    -0.353 OA
HETATM   39  C1  UNL     1     -14.761 -20.430 -14.671  1.00  0.00     0.210 C 
ENDBRANCH   1  38
TORSDOF 12
ENDMDL
