MODEL 1
REMARK VINA RESULT: -8.342678625      0.000      0.000
REMARK  13 active torsions:
REMARK  status: ('A' for Active; 'I' for Inactive)
REMARK    1  A    between atoms: C1_2  and  N1_3 
REMARK    2  A    between atoms: C2_5  and  C3_6 
REMARK    3  A    between atoms: C2_5  and  N6_28 
REMARK    4  A    between atoms: C3_6  and  S1_7 
REMARK    5  A    between atoms: S1_7  and  C4_8 
REMARK       I    between atoms: N4_14  and  C6_16 
REMARK       I    between atoms: C6_16  and  N5_18 
REMARK    6  A    between atoms: N5_18  and  C7_20 
REMARK    7  A    between atoms: C7_20  and  C8_21 
REMARK    8  A    between atoms: N6_28  and  C13_30 
REMARK    9  A    between atoms: C13_30  and  C14_31 
REMARK   10  A    between atoms: C14_31  and  C15_32 
REMARK   11  A    between atoms: C15_32  and  O4_33 
REMARK   12  A    between atoms: O4_33  and  C16_34 
REMARK   13  A    between atoms: C16_34  and  C17_35 
ROOT
HETATM    1  C4  UNL     1      15.427  22.172  14.213  1.00  0.00     0.130 A 
HETATM    2  N2  UNL     1      14.113  22.204  14.071  1.00  0.00    -0.286 N 
ATOM      3  H2  UNL     1      13.645  23.086  13.865  1.00  0.00     0.188 HD
HETATM    4  N3  UNL     1      13.428  21.135  14.190  1.00  0.00    -0.278 N 
ATOM      5  H3  UNL     1      12.414  21.148  14.082  1.00  0.00     0.189 HD
HETATM    6  C5  UNL     1      14.074  19.996  14.461  1.00  0.00     0.169 A 
HETATM    7  N4  UNL     1      13.595  18.791  14.631  1.00  0.00    -0.288 N 
ATOM      8  H4  UNL     1      14.222  18.013  14.836  1.00  0.00     0.172 HD
HETATM    9  C6  UNL     1      12.220  18.578  14.532  1.00  0.00     0.322 C 
HETATM   10  O2  UNL     1      11.774  18.096  13.461  1.00  0.00    -0.247 OA
HETATM   11  N5  UNL     1      11.334  18.885  15.588  1.00  0.00    -0.342 N 
ATOM     12  H5  UNL     1      11.746  19.278  16.434  1.00  0.00     0.164 HD
HETATM   13  S2  UNL     1      15.695  20.517  14.537  1.00  0.00    -0.026 SA
ENDROOT
BRANCH   1  14
HETATM   14  S1  UNL     1      16.612  23.533  14.094  1.00  0.00    -0.096 SA
BRANCH  14  15
HETATM   15  C3  UNL     1      17.897  23.220  15.347  1.00  0.00     0.157 C 
BRANCH  15  16
HETATM   16  C2  UNL     1      17.649  24.107  16.499  1.00  0.00     0.088 C 
HETATM   17  N1  UNL     1      18.652  24.816  16.995  1.00  0.00    -0.324 N 
ATOM     18  H1  UNL     1      19.577  24.737  16.572  1.00  0.00     0.169 HD
BRANCH  17  19
HETATM   19  C1  UNL     1      18.465  25.678  18.096  1.00  0.00     0.354 C 
HETATM   20  O1  UNL     1      18.391  25.212  19.250  1.00  0.00    -0.283 OA
ENDBRANCH  17  19
BRANCH  16  21
HETATM   21  N6  UNL     1      16.401  24.251  17.126  1.00  0.00    -0.379 N 
ATOM     22  H6  UNL     1      15.952  25.161  17.023  1.00  0.00     0.160 HD
BRANCH  21  23
HETATM   23  C13 UNL     1      15.673  23.273  17.897  1.00  0.00     0.123 C 
BRANCH  23  24
HETATM   24  C14 UNL     1      14.264  23.602  18.181  1.00  0.00     0.046 C 
BRANCH  24  25
HETATM   25  C15 UNL     1      13.223  23.188  17.214  1.00  0.00     0.169 C 
BRANCH  25  26
HETATM   26  O4  UNL     1      12.820  21.948  17.161  1.00  0.00    -0.391 OA
BRANCH  26  27
HETATM   27  C16 UNL     1      12.743  21.037  18.124  1.00  0.00     0.172 C 
BRANCH  27  28
HETATM   28  C17 UNL     1      11.260  20.817  18.574  1.00  0.00     0.009 C 
HETATM   29  C18 UNL     1      11.176  19.531  19.329  1.00  0.00     0.007 C 
HETATM   30  C19 UNL     1       9.795  19.322  19.861  1.00  0.00     0.000 C 
HETATM   31  C20 UNL     1       8.937  20.553  19.873  1.00  0.00     0.000 C 
HETATM   32  C21 UNL     1       9.698  21.801  20.281  1.00  0.00     0.000 C 
HETATM   33  C22 UNL     1      10.985  21.945  19.528  1.00  0.00     0.007 C 
ENDBRANCH  27  28
ENDBRANCH  26  27
ENDBRANCH  25  26
ENDBRANCH  24  25
ENDBRANCH  23  24
ENDBRANCH  21  23
ENDBRANCH  16  21
ENDBRANCH  15  16
ENDBRANCH  14  15
ENDBRANCH   1  14
BRANCH  11  34
HETATM   34  C7  UNL     1       9.910  18.697  15.587  1.00  0.00     0.129 C 
BRANCH  34  35
HETATM   35  C8  UNL     1       9.552  17.378  16.186  1.00  0.00     0.007 C 
HETATM   36  C9  UNL     1       8.352  17.562  17.124  1.00  0.00     0.032 C 
HETATM   37  C10 UNL     1       8.057  16.208  17.722  1.00  0.00     0.168 C 
HETATM   38  O3  UNL     1       7.723  15.249  16.784  1.00  0.00    -0.391 OA
HETATM   39  C11 UNL     1       7.781  15.733  15.481  1.00  0.00     0.168 C 
HETATM   40  C12 UNL     1       9.092  16.376  15.139  1.00  0.00     0.032 C 
ENDBRANCH  34  35
ENDBRANCH  11  34
TORSDOF 13
ENDMDL
MODEL 2
REMARK VINA RESULT: -8.313091539      2.403      4.582
REMARK  13 active torsions:
REMARK  status: ('A' for Active; 'I' for Inactive)
REMARK    1  A    between atoms: C1_2  and  N1_3 
REMARK    2  A    between atoms: C2_5  and  C3_6 
REMARK    3  A    between atoms: C2_5  and  N6_28 
REMARK    4  A    between atoms: C3_6  and  S1_7 
REMARK    5  A    between atoms: S1_7  and  C4_8 
REMARK       I    between atoms: N4_14  and  C6_16 
REMARK       I    between atoms: C6_16  and  N5_18 
REMARK    6  A    between atoms: N5_18  and  C7_20 
REMARK    7  A    between atoms: C7_20  and  C8_21 
REMARK    8  A    between atoms: N6_28  and  C13_30 
REMARK    9  A    between atoms: C13_30  and  C14_31 
REMARK   10  A    between atoms: C14_31  and  C15_32 
REMARK   11  A    between atoms: C15_32  and  O4_33 
REMARK   12  A    between atoms: O4_33  and  C16_34 
REMARK   13  A    between atoms: C16_34  and  C17_35 
ROOT
HETATM    1  C4  UNL     1      12.854  20.320  18.306  1.00  0.00     0.130 A 
HETATM    2  N2  UNL     1      12.488  19.062  18.129  1.00  0.00    -0.286 N 
ATOM      3  H2  UNL     1      13.182  18.362  17.865  1.00  0.00     0.188 HD
HETATM    4  N3  UNL     1      11.271  18.719  18.289  1.00  0.00    -0.278 N 
ATOM      5  H3  UNL     1      10.977  17.751  18.157  1.00  0.00     0.189 HD
HETATM    6  C5  UNL     1      10.388  19.661  18.636  1.00  0.00     0.169 A 
HETATM    7  N4  UNL     1       9.102  19.555  18.849  1.00  0.00    -0.288 N 
ATOM      8  H4  UNL     1       8.555  20.376  19.110  1.00  0.00     0.172 HD
HETATM    9  C6  UNL     1       8.483  18.311  18.718  1.00  0.00     0.322 C 
HETATM   10  O2  UNL     1       8.235  17.663  19.764  1.00  0.00    -0.247 OA
HETATM   11  N5  UNL     1       8.137  17.776  17.458  1.00  0.00    -0.342 N 
ATOM     12  H5  UNL     1       8.364  18.340  16.639  1.00  0.00     0.164 HD
HETATM   13  S2  UNL     1      11.369  21.052  18.723  1.00  0.00    -0.026 SA
ENDROOT
BRANCH   1  14
HETATM   14  S1  UNL     1      14.499  21.054  18.142  1.00  0.00    -0.096 SA
BRANCH  14  15
HETATM   15  C3  UNL     1      14.265  22.860  18.095  1.00  0.00     0.157 C 
BRANCH  15  16
HETATM   16  C2  UNL     1      15.590  23.502  18.161  1.00  0.00     0.088 C 
HETATM   17  N1  UNL     1      15.800  24.460  19.050  1.00  0.00    -0.324 N 
ATOM     18  H1  UNL     1      15.042  24.738  19.675  1.00  0.00     0.169 HD
BRANCH  17  19
HETATM   19  C1  UNL     1      17.051  25.106  19.152  1.00  0.00     0.354 C 
HETATM   20  O1  UNL     1      17.889  24.717  19.988  1.00  0.00    -0.283 OA
ENDBRANCH  17  19
BRANCH  16  21
HETATM   21  N6  UNL     1      16.667  23.169  17.324  1.00  0.00    -0.379 N 
ATOM     22  H6  UNL     1      17.444  22.679  17.769  1.00  0.00     0.160 HD
BRANCH  21  23
HETATM   23  C13 UNL     1      16.814  23.431  15.912  1.00  0.00     0.123 C 
BRANCH  23  24
HETATM   24  C14 UNL     1      16.300  22.384  15.010  1.00  0.00     0.046 C 
BRANCH  24  25
HETATM   25  C15 UNL     1      14.968  22.564  14.390  1.00  0.00     0.169 C 
BRANCH  25  26
HETATM   26  O4  UNL     1      14.090  21.599  14.409  1.00  0.00    -0.391 OA
BRANCH  26  27
HETATM   27  C16 UNL     1      14.255  20.296  14.212  1.00  0.00     0.172 C 
BRANCH  27  28
HETATM   28  C17 UNL     1      12.929  19.513  14.491  1.00  0.00     0.009 C 
HETATM   29  C18 UNL     1      11.855  20.496  14.828  1.00  0.00     0.007 C 
HETATM   30  C19 UNL     1      10.544  19.802  15.010  1.00  0.00     0.000 C 
HETATM   31  C20 UNL     1      10.492  18.407  14.460  1.00  0.00     0.000 C 
HETATM   32  C21 UNL     1      11.217  18.268  13.134  1.00  0.00     0.000 C 
HETATM   33  C22 UNL     1      12.587  18.873  13.175  1.00  0.00     0.007 C 
ENDBRANCH  27  28
ENDBRANCH  26  27
ENDBRANCH  25  26
ENDBRANCH  24  25
ENDBRANCH  23  24
ENDBRANCH  21  23
ENDBRANCH  16  21
ENDBRANCH  15  16
ENDBRANCH  14  15
ENDBRANCH   1  14
BRANCH  11  34
HETATM   34  C7  UNL     1       7.495  16.513  17.217  1.00  0.00     0.129 C 
BRANCH  34  35
HETATM   35  C8  UNL     1       7.317  16.284  15.753  1.00  0.00     0.007 C 
HETATM   36  C9  UNL     1       8.559  15.568  15.204  1.00  0.00     0.032 C 
HETATM   37  C10 UNL     1       8.338  15.392  13.721  1.00  0.00     0.168 C 
HETATM   38  O3  UNL     1       7.230  14.625  13.413  1.00  0.00    -0.391 OA
HETATM   39  C11 UNL     1       6.529  14.220  14.544  1.00  0.00     0.168 C 
HETATM   40  C12 UNL     1       6.154  15.354  15.452  1.00  0.00     0.032 C 
ENDBRANCH  34  35
ENDBRANCH  11  34
TORSDOF 13
ENDMDL
MODEL 3
REMARK VINA RESULT: -8.298244540      2.630      4.749
REMARK  13 active torsions:
REMARK  status: ('A' for Active; 'I' for Inactive)
REMARK    1  A    between atoms: C1_2  and  N1_3 
REMARK    2  A    between atoms: C2_5  and  C3_6 
REMARK    3  A    between atoms: C2_5  and  N6_28 
REMARK    4  A    between atoms: C3_6  and  S1_7 
REMARK    5  A    between atoms: S1_7  and  C4_8 
REMARK       I    between atoms: N4_14  and  C6_16 
REMARK       I    between atoms: C6_16  and  N5_18 
REMARK    6  A    between atoms: N5_18  and  C7_20 
REMARK    7  A    between atoms: C7_20  and  C8_21 
REMARK    8  A    between atoms: N6_28  and  C13_30 
REMARK    9  A    between atoms: C13_30  and  C14_31 
REMARK   10  A    between atoms: C14_31  and  C15_32 
REMARK   11  A    between atoms: C15_32  and  O4_33 
REMARK   12  A    between atoms: O4_33  and  C16_34 
REMARK   13  A    between atoms: C16_34  and  C17_35 
ROOT
HETATM    1  C4  UNL     1      11.998  21.021  19.225  1.00  0.00     0.130 A 
HETATM    2  N2  UNL     1      11.932  19.716  19.016  1.00  0.00    -0.286 N 
ATOM      3  H2  UNL     1      12.790  19.171  18.929  1.00  0.00     0.188 HD
HETATM    4  N3  UNL     1      10.800  19.138  18.925  1.00  0.00    -0.278 N 
ATOM      5  H3  UNL     1      10.737  18.132  18.765  1.00  0.00     0.189 HD
HETATM    6  C5  UNL     1       9.697  19.883  19.043  1.00  0.00     0.169 A 
HETATM    7  N4  UNL     1       8.441  19.522  18.981  1.00  0.00    -0.288 N 
ATOM      8  H4  UNL     1       7.701  20.215  19.092  1.00  0.00     0.172 HD
HETATM    9  C6  UNL     1       8.121  18.181  18.763  1.00  0.00     0.322 C 
HETATM   10  O2  UNL     1       7.785  17.486  19.753  1.00  0.00    -0.247 OA
HETATM   11  N5  UNL     1       8.166  17.600  17.477  1.00  0.00    -0.342 N 
ATOM     12  H5  UNL     1       8.449  18.206  16.707  1.00  0.00     0.164 HD
HETATM   13  S2  UNL     1      10.344  21.439  19.291  1.00  0.00    -0.026 SA
ENDROOT
BRANCH   1  14
HETATM   14  S1  UNL     1      13.464  22.067  19.390  1.00  0.00    -0.096 SA
BRANCH  14  15
HETATM   15  C3  UNL     1      14.429  21.863  17.859  1.00  0.00     0.157 C 
BRANCH  15  16
HETATM   16  C2  UNL     1      15.536  22.838  17.873  1.00  0.00     0.088 C 
HETATM   17  N1  UNL     1      15.563  23.769  18.814  1.00  0.00    -0.324 N 
ATOM     18  H1  UNL     1      14.821  23.796  19.513  1.00  0.00     0.169 HD
BRANCH  17  19
HETATM   19  C1  UNL     1      16.601  24.724  18.870  1.00  0.00     0.354 C 
HETATM   20  O1  UNL     1      17.603  24.518  19.582  1.00  0.00    -0.283 OA
ENDBRANCH  17  19
BRANCH  16  21
HETATM   21  N6  UNL     1      16.580  22.854  16.935  1.00  0.00    -0.379 N 
ATOM     22  H6  UNL     1      17.472  22.477  17.254  1.00  0.00     0.160 HD
BRANCH  21  23
HETATM   23  C13 UNL     1      16.550  23.338  15.576  1.00  0.00     0.123 C 
BRANCH  23  24
HETATM   24  C14 UNL     1      16.077  22.376  14.564  1.00  0.00     0.046 C 
BRANCH  24  25
HETATM   25  C15 UNL     1      14.770  22.608  13.909  1.00  0.00     0.169 C 
BRANCH  25  26
HETATM   26  O4  UNL     1      13.739  21.865  14.201  1.00  0.00    -0.391 OA
BRANCH  26  27
HETATM   27  C16 UNL     1      13.671  20.561  14.444  1.00  0.00     0.172 C 
BRANCH  27  28
HETATM   28  C17 UNL     1      12.261  19.992  14.075  1.00  0.00     0.009 C 
HETATM   29  C18 UNL     1      12.393  18.529  13.803  1.00  0.00     0.007 C 
HETATM   30  C19 UNL     1      11.054  17.920  13.538  1.00  0.00     0.000 C 
HETATM   31  C20 UNL     1       9.888  18.762  13.966  1.00  0.00     0.000 C 
HETATM   32  C21 UNL     1      10.123  19.467  15.289  1.00  0.00     0.000 C 
HETATM   33  C22 UNL     1      11.446  20.169  15.325  1.00  0.00     0.007 C 
ENDBRANCH  27  28
ENDBRANCH  26  27
ENDBRANCH  25  26
ENDBRANCH  24  25
ENDBRANCH  23  24
ENDBRANCH  21  23
ENDBRANCH  16  21
ENDBRANCH  15  16
ENDBRANCH  14  15
ENDBRANCH   1  14
BRANCH  11  34
HETATM   34  C7  UNL     1       7.850  16.237  17.147  1.00  0.00     0.129 C 
BRANCH  34  35
HETATM   35  C8  UNL     1       7.503  16.113  15.701  1.00  0.00     0.007 C 
HETATM   36  C9  UNL     1       8.639  15.380  14.974  1.00  0.00     0.032 C 
HETATM   37  C10 UNL     1       8.249  15.312  13.518  1.00  0.00     0.168 C 
HETATM   38  O3  UNL     1       7.076  14.616  13.290  1.00  0.00    -0.391 OA
HETATM   39  C11 UNL     1       6.482  14.171  14.466  1.00  0.00     0.168 C 
HETATM   40  C12 UNL     1       6.267  15.258  15.477  1.00  0.00     0.032 C 
ENDBRANCH  34  35
ENDBRANCH  11  34
TORSDOF 13
ENDMDL
MODEL 4
REMARK VINA RESULT: -8.115759899      2.473      4.658
REMARK  13 active torsions:
REMARK  status: ('A' for Active; 'I' for Inactive)
REMARK    1  A    between atoms: C1_2  and  N1_3 
REMARK    2  A    between atoms: C2_5  and  C3_6 
REMARK    3  A    between atoms: C2_5  and  N6_28 
REMARK    4  A    between atoms: C3_6  and  S1_7 
REMARK    5  A    between atoms: S1_7  and  C4_8 
REMARK       I    between atoms: N4_14  and  C6_16 
REMARK       I    between atoms: C6_16  and  N5_18 
REMARK    6  A    between atoms: N5_18  and  C7_20 
REMARK    7  A    between atoms: C7_20  and  C8_21 
REMARK    8  A    between atoms: N6_28  and  C13_30 
REMARK    9  A    between atoms: C13_30  and  C14_31 
REMARK   10  A    between atoms: C14_31  and  C15_32 
REMARK   11  A    between atoms: C15_32  and  O4_33 
REMARK   12  A    between atoms: O4_33  and  C16_34 
REMARK   13  A    between atoms: C16_34  and  C17_35 
ROOT
HETATM    1  C4  UNL     1      13.178  20.377  18.064  1.00  0.00     0.130 A 
HETATM    2  N2  UNL     1      12.889  19.115  18.335  1.00  0.00    -0.286 N 
ATOM      3  H2  UNL     1      13.628  18.413  18.337  1.00  0.00     0.188 HD
HETATM    4  N3  UNL     1      11.688  18.774  18.593  1.00  0.00    -0.278 N 
ATOM      5  H3  UNL     1      11.453  17.804  18.805  1.00  0.00     0.189 HD
HETATM    6  C5  UNL     1      10.744  19.720  18.580  1.00  0.00     0.169 A 
HETATM    7  N4  UNL     1       9.460  19.614  18.806  1.00  0.00    -0.288 N 
ATOM      8  H4  UNL     1       8.860  20.438  18.758  1.00  0.00     0.172 HD
HETATM    9  C6  UNL     1       8.916  18.366  19.111  1.00  0.00     0.322 C 
HETATM   10  O2  UNL     1       8.672  18.108  20.316  1.00  0.00    -0.247 OA
HETATM   11  N5  UNL     1       8.639  17.405  18.115  1.00  0.00    -0.342 N 
ATOM     12  H5  UNL     1       8.859  17.661  17.153  1.00  0.00     0.164 HD
HETATM   13  S2  UNL     1      11.643  21.113  18.185  1.00  0.00    -0.026 SA
ENDROOT
BRANCH   1  14
HETATM   14  S1  UNL     1      14.784  21.109  17.669  1.00  0.00    -0.096 SA
BRANCH  14  15
HETATM   15  C3  UNL     1      14.448  22.740  16.928  1.00  0.00     0.157 C 
BRANCH  15  16
HETATM   16  C2  UNL     1      15.606  23.121  16.099  1.00  0.00     0.088 C 
HETATM   17  N1  UNL     1      16.814  23.122  16.638  1.00  0.00    -0.324 N 
ATOM     18  H1  UNL     1      16.925  22.858  17.618  1.00  0.00     0.169 HD
BRANCH  17  19
HETATM   19  C1  UNL     1      17.953  23.479  15.886  1.00  0.00     0.354 C 
HETATM   20  O1  UNL     1      18.181  24.678  15.628  1.00  0.00    -0.283 OA
ENDBRANCH  17  19
BRANCH  16  21
HETATM   21  N6  UNL     1      15.514  23.500  14.749  1.00  0.00    -0.379 N 
ATOM     22  H6  UNL     1      15.529  24.503  14.566  1.00  0.00     0.160 HD
BRANCH  21  23
HETATM   23  C13 UNL     1      15.401  22.648  13.590  1.00  0.00     0.123 C 
BRANCH  23  24
HETATM   24  C14 UNL     1      14.212  21.779  13.547  1.00  0.00     0.046 C 
BRANCH  24  25
HETATM   25  C15 UNL     1      14.346  20.361  13.951  1.00  0.00     0.169 C 
BRANCH  25  26
HETATM   26  O4  UNL     1      13.314  19.694  14.391  1.00  0.00    -0.391 OA
BRANCH  26  27
HETATM   27  C16 UNL     1      12.776  18.567  13.941  1.00  0.00     0.172 C 
BRANCH  27  28
HETATM   28  C17 UNL     1      11.233  18.725  13.733  1.00  0.00     0.009 C 
HETATM   29  C18 UNL     1      10.617  17.364  13.675  1.00  0.00     0.007 C 
HETATM   30  C19 UNL     1       9.130  17.464  13.571  1.00  0.00     0.000 C 
HETATM   31  C20 UNL     1       8.566  18.807  13.927  1.00  0.00     0.000 C 
HETATM   32  C21 UNL     1       9.261  19.444  15.116  1.00  0.00     0.000 C 
HETATM   33  C22 UNL     1      10.752  19.409  14.980  1.00  0.00     0.007 C 
ENDBRANCH  27  28
ENDBRANCH  26  27
ENDBRANCH  25  26
ENDBRANCH  24  25
ENDBRANCH  23  24
ENDBRANCH  21  23
ENDBRANCH  16  21
ENDBRANCH  15  16
ENDBRANCH  14  15
ENDBRANCH   1  14
BRANCH  11  34
HETATM   34  C7  UNL     1       8.076  16.099  18.325  1.00  0.00     0.129 C 
BRANCH  34  35
HETATM   35  C8  UNL     1       6.736  15.993  17.675  1.00  0.00     0.007 C 
HETATM   36  C9  UNL     1       5.913  17.243  18.018  1.00  0.00     0.032 C 
HETATM   37  C10 UNL     1       4.564  17.066  17.364  1.00  0.00     0.168 C 
HETATM   38  O3  UNL     1       4.625  16.959  15.988  1.00  0.00    -0.391 OA
HETATM   39  C11 UNL     1       5.930  16.987  15.507  1.00  0.00     0.168 C 
HETATM   40  C12 UNL     1       6.830  15.979  16.159  1.00  0.00     0.032 C 
ENDBRANCH  34  35
ENDBRANCH  11  34
TORSDOF 13
ENDMDL
MODEL 5
REMARK VINA RESULT: -8.067264876      2.661      4.884
REMARK  13 active torsions:
REMARK  status: ('A' for Active; 'I' for Inactive)
REMARK    1  A    between atoms: C1_2  and  N1_3 
REMARK    2  A    between atoms: C2_5  and  C3_6 
REMARK    3  A    between atoms: C2_5  and  N6_28 
REMARK    4  A    between atoms: C3_6  and  S1_7 
REMARK    5  A    between atoms: S1_7  and  C4_8 
REMARK       I    between atoms: N4_14  and  C6_16 
REMARK       I    between atoms: C6_16  and  N5_18 
REMARK    6  A    between atoms: N5_18  and  C7_20 
REMARK    7  A    between atoms: C7_20  and  C8_21 
REMARK    8  A    between atoms: N6_28  and  C13_30 
REMARK    9  A    between atoms: C13_30  and  C14_31 
REMARK   10  A    between atoms: C14_31  and  C15_32 
REMARK   11  A    between atoms: C15_32  and  O4_33 
REMARK   12  A    between atoms: O4_33  and  C16_34 
REMARK   13  A    between atoms: C16_34  and  C17_35 
ROOT
HETATM    1  C4  UNL     1      12.511  21.725  19.644  1.00  0.00     0.130 A 
HETATM    2  N2  UNL     1      12.425  20.485  19.193  1.00  0.00    -0.286 N 
ATOM      3  H2  UNL     1      13.265  19.998  18.881  1.00  0.00     0.188 HD
HETATM    4  N3  UNL     1      11.295  19.896  19.147  1.00  0.00    -0.278 N 
ATOM      5  H3  UNL     1      11.217  18.939  18.801  1.00  0.00     0.189 HD
HETATM    6  C5  UNL     1      10.215  20.565  19.563  1.00  0.00     0.169 A 
HETATM    7  N4  UNL     1       8.966  20.179  19.607  1.00  0.00    -0.288 N 
ATOM      8  H4  UNL     1       8.245  20.811  19.954  1.00  0.00     0.172 HD
HETATM    9  C6  UNL     1       8.627  18.897  19.173  1.00  0.00     0.322 C 
HETATM   10  O2  UNL     1       8.441  18.010  20.043  1.00  0.00    -0.247 OA
HETATM   11  N5  UNL     1       8.491  18.580  17.804  1.00  0.00    -0.342 N 
ATOM     12  H5  UNL     1       8.657  19.334  17.138  1.00  0.00     0.164 HD
HETATM   13  S2  UNL     1      10.881  22.064  20.022  1.00  0.00    -0.026 SA
ENDROOT
BRANCH   1  14
HETATM   14  S1  UNL     1      13.978  22.770  19.808  1.00  0.00    -0.096 SA
BRANCH  14  15
HETATM   15  C3  UNL     1      14.676  22.960  18.137  1.00  0.00     0.157 C 
BRANCH  15  16
HETATM   16  C2  UNL     1      15.778  23.937  18.201  1.00  0.00     0.088 C 
HETATM   17  N1  UNL     1      16.034  24.546  19.348  1.00  0.00    -0.324 N 
ATOM     18  H1  UNL     1      15.467  24.330  20.167  1.00  0.00     0.169 HD
BRANCH  17  19
HETATM   19  C1  UNL     1      17.078  25.490  19.460  1.00  0.00     0.354 C 
HETATM   20  O1  UNL     1      18.241  25.110  19.694  1.00  0.00    -0.283 OA
ENDBRANCH  17  19
BRANCH  16  21
HETATM   21  N6  UNL     1      16.587  24.282  17.106  1.00  0.00    -0.379 N 
ATOM     22  H6  UNL     1      16.327  25.134  16.610  1.00  0.00     0.160 HD
BRANCH  21  23
HETATM   23  C13 UNL     1      17.741  23.582  16.594  1.00  0.00     0.123 C 
BRANCH  23  24
HETATM   24  C14 UNL     1      17.755  23.350  15.139  1.00  0.00     0.046 C 
BRANCH  24  25
HETATM   25  C15 UNL     1      16.740  22.450  14.547  1.00  0.00     0.169 C 
BRANCH  25  26
HETATM   26  O4  UNL     1      15.487  22.811  14.481  1.00  0.00    -0.391 OA
BRANCH  26  27
HETATM   27  C16 UNL     1      14.511  22.354  13.707  1.00  0.00     0.172 C 
BRANCH  27  28
HETATM   28  C17 UNL     1      13.968  20.984  14.234  1.00  0.00     0.009 C 
HETATM   29  C18 UNL     1      12.844  21.250  15.183  1.00  0.00     0.007 C 
HETATM   30  C19 UNL     1      12.229  19.967  15.642  1.00  0.00     0.000 C 
HETATM   31  C20 UNL     1      12.577  18.771  14.806  1.00  0.00     0.000 C 
HETATM   32  C21 UNL     1      12.607  19.078  13.320  1.00  0.00     0.000 C 
HETATM   33  C22 UNL     1      13.408  20.307  13.016  1.00  0.00     0.007 C 
ENDBRANCH  27  28
ENDBRANCH  26  27
ENDBRANCH  25  26
ENDBRANCH  24  25
ENDBRANCH  23  24
ENDBRANCH  21  23
ENDBRANCH  16  21
ENDBRANCH  15  16
ENDBRANCH  14  15
ENDBRANCH   1  14
BRANCH  11  34
HETATM   34  C7  UNL     1       8.141  17.297  17.258  1.00  0.00     0.129 C 
BRANCH  34  35
HETATM   35  C8  UNL     1       8.093  17.356  15.767  1.00  0.00     0.007 C 
HETATM   36  C9  UNL     1       8.873  18.588  15.289  1.00  0.00     0.032 C 
HETATM   37  C10 UNL     1       8.764  18.613  13.784  1.00  0.00     0.168 C 
HETATM   38  O3  UNL     1       9.306  17.499  13.170  1.00  0.00    -0.391 OA
HETATM   39  C11 UNL     1       9.792  16.569  14.084  1.00  0.00     0.168 C 
HETATM   40  C12 UNL     1       8.786  16.167  15.121  1.00  0.00     0.032 C 
ENDBRANCH  34  35
ENDBRANCH  11  34
TORSDOF 13
ENDMDL
