MODEL 1
REMARK VINA RESULT: -8.205904659      0.000      0.000
REMARK  12 active torsions:
REMARK  status: ('A' for Active; 'I' for Inactive)
REMARK    1  A    between atoms: O1_2  and  C2_3 
REMARK    2  A    between atoms: C5_8  and  C6_9 
REMARK    3  A    between atoms: C6_9  and  N2_11 
REMARK    4  A    between atoms: N2_11  and  C7_13 
REMARK    5  A    between atoms: C7_13  and  C8_14 
REMARK    6  A    between atoms: C8_14  and  C9_15 
REMARK    7  A    between atoms: C9_15  and  C10_16 
REMARK    8  A    between atoms: C10_16  and  C11_17 
REMARK    9  A    between atoms: C11_17  and  C12_18 
REMARK   10  A    between atoms: C12_18  and  S2_19 
REMARK   11  A    between atoms: S2_19  and  N3_22 
REMARK   12  A    between atoms: C19_31  and  C20_32 
ROOT
HETATM    1  C2  UNL     1      16.748  22.473  14.116  1.00  0.00     0.084 A 
HETATM    2  C3  UNL     1      16.342  21.291  14.660  1.00  0.00     0.069 A 
HETATM    3  C4  UNL     1      15.103  20.748  14.324  1.00  0.00     0.063 A 
HETATM    4  N1  UNL     1      14.470  19.621  14.706  1.00  0.00    -0.338 N 
ATOM      5  H1  UNL     1      14.844  18.936  15.362  1.00  0.00     0.167 HD
HETATM    6  C5  UNL     1      13.263  19.530  14.092  1.00  0.00     0.144 A 
HETATM    7  N4  UNL     1      13.150  20.626  13.314  1.00  0.00    -0.338 N 
ATOM      8  H4  UNL     1      12.348  20.846  12.723  1.00  0.00     0.167 HD
HETATM    9  C17 UNL     1      14.255  21.381  13.437  1.00  0.00     0.061 A 
HETATM   10  C18 UNL     1      14.681  22.577  12.896  1.00  0.00     0.050 A 
HETATM   11  C19 UNL     1      15.915  23.121  13.229  1.00  0.00     0.043 A 
ENDROOT
BRANCH   6  12
HETATM   12  C6  UNL     1      12.318  18.441  14.273  1.00  0.00     0.141 C 
HETATM   13  S1  UNL     1      11.228  18.150  13.102  1.00  0.00    -0.057 SA
BRANCH  12  14
HETATM   14  N2  UNL     1      12.327  17.657  15.443  1.00  0.00    -0.378 N 
ATOM     15  H2  UNL     1      12.759  16.734  15.405  1.00  0.00     0.160 HD
BRANCH  14  16
HETATM   16  C7  UNL     1      11.748  18.099  16.706  1.00  0.00     0.121 C 
BRANCH  16  17
HETATM   17  C8  UNL     1      10.254  18.034  16.688  1.00  0.00     0.020 C 
BRANCH  17  18
HETATM   18  C9  UNL     1       9.683  19.407  17.090  1.00  0.00     0.005 C 
BRANCH  18  19
HETATM   19  C10 UNL     1       9.099  19.424  18.438  1.00  0.00     0.028 C 
BRANCH  19  20
HETATM   20  C11 UNL     1       9.840  19.929  19.571  1.00  0.00    -0.014 C 
BRANCH  20  21
HETATM   21  C12 UNL     1      11.244  20.157  19.766  1.00  0.00     0.122 C 
BRANCH  21  22
HETATM   22  S2  UNL     1      12.150  21.469  19.107  1.00  0.00     0.233 S 
HETATM   23  O2  UNL     1      11.175  22.587  18.683  1.00  0.00    -0.207 OA
HETATM   24  O3  UNL     1      12.975  22.147  20.204  1.00  0.00    -0.207 OA
BRANCH  22  25
HETATM   25  N3  UNL     1      13.133  21.178  17.757  1.00  0.00    -0.207 NA
HETATM   26  C13 UNL     1      14.540  21.090  18.086  1.00  0.00     0.107 C 
HETATM   27  C14 UNL     1      15.106  22.470  17.955  1.00  0.00     0.017 C 
HETATM   28  C15 UNL     1      14.163  23.192  17.055  1.00  0.00     0.017 C 
HETATM   29  C16 UNL     1      12.997  22.290  16.840  1.00  0.00     0.107 C 
ENDBRANCH  22  25
ENDBRANCH  21  22
ENDBRANCH  20  21
ENDBRANCH  19  20
ENDBRANCH  18  19
ENDBRANCH  17  18
ENDBRANCH  16  17
ENDBRANCH  14  16
ENDBRANCH  12  14
ENDBRANCH   6  12
BRANCH   1  30
HETATM   30  O1  UNL     1      17.974  23.074  14.409  1.00  0.00    -0.355 OA
HETATM   31  C1  UNL     1      18.130  23.580  15.732  1.00  0.00     0.210 C 
ENDBRANCH   1  30
BRANCH  11  32
HETATM   32  C20 UNL     1      16.343  24.404  12.636  1.00  0.00     0.110 C 
HETATM   33  N5  UNL     1      15.582  25.416  12.438  1.00  0.00    -0.374 N 
HETATM   34  C21 UNL     1      16.263  26.537  11.844  1.00  0.00     0.141 C 
ATOM     35  H5  UNL     1      14.590  25.427  12.679  1.00  0.00     0.161 HD
HETATM   36  C22 UNL     1      17.708  26.203  11.994  1.00  0.00     0.141 C 
HETATM   37  N6  UNL     1      17.642  24.750  12.188  1.00  0.00    -0.374 N 
ATOM     38  H6  UNL     1      18.407  24.095  12.026  1.00  0.00     0.161 HD
ENDBRANCH  11  32
TORSDOF 12
ENDMDL
MODEL 2
REMARK VINA RESULT: -8.117041698      2.568      6.377
REMARK  12 active torsions:
REMARK  status: ('A' for Active; 'I' for Inactive)
REMARK    1  A    between atoms: O1_2  and  C2_3 
REMARK    2  A    between atoms: C5_8  and  C6_9 
REMARK    3  A    between atoms: C6_9  and  N2_11 
REMARK    4  A    between atoms: N2_11  and  C7_13 
REMARK    5  A    between atoms: C7_13  and  C8_14 
REMARK    6  A    between atoms: C8_14  and  C9_15 
REMARK    7  A    between atoms: C9_15  and  C10_16 
REMARK    8  A    between atoms: C10_16  and  C11_17 
REMARK    9  A    between atoms: C11_17  and  C12_18 
REMARK   10  A    between atoms: C12_18  and  S2_19 
REMARK   11  A    between atoms: S2_19  and  N3_22 
REMARK   12  A    between atoms: C19_31  and  C20_32 
ROOT
HETATM    1  C2  UNL     1      10.515  21.253  18.884  1.00  0.00     0.084 A 
HETATM    2  C3  UNL     1       9.397  20.525  18.606  1.00  0.00     0.069 A 
HETATM    3  C4  UNL     1       9.491  19.330  17.893  1.00  0.00     0.063 A 
HETATM    4  N1  UNL     1       8.568  18.435  17.491  1.00  0.00    -0.338 N 
ATOM      5  H1  UNL     1       7.566  18.511  17.668  1.00  0.00     0.167 HD
HETATM    6  C5  UNL     1       9.162  17.419  16.817  1.00  0.00     0.144 A 
HETATM    7  N4  UNL     1      10.482  17.693  16.803  1.00  0.00    -0.338 N 
ATOM      8  H4  UNL     1      11.199  17.113  16.368  1.00  0.00     0.167 HD
HETATM    9  C17 UNL     1      10.708  18.849  17.451  1.00  0.00     0.061 A 
HETATM   10  C18 UNL     1      11.829  19.599  17.741  1.00  0.00     0.050 A 
HETATM   11  C19 UNL     1      11.738  20.789  18.451  1.00  0.00     0.043 A 
ENDROOT
BRANCH   6  12
HETATM   12  C6  UNL     1       8.463  16.280  16.244  1.00  0.00     0.141 C 
HETATM   13  S1  UNL     1       7.183  15.668  17.038  1.00  0.00    -0.057 SA
BRANCH  12  14
HETATM   14  N2  UNL     1       8.888  15.700  15.033  1.00  0.00    -0.378 N 
ATOM     15  H2  UNL     1       9.125  14.708  15.027  1.00  0.00     0.160 HD
BRANCH  14  16
HETATM   16  C7  UNL     1       9.006  16.448  13.787  1.00  0.00     0.121 C 
BRANCH  16  17
HETATM   17  C8  UNL     1      10.433  16.727  13.437  1.00  0.00     0.020 C 
BRANCH  17  18
HETATM   18  C9  UNL     1      10.648  18.251  13.364  1.00  0.00     0.005 C 
BRANCH  18  19
HETATM   19  C10 UNL     1      12.038  18.631  13.083  1.00  0.00     0.028 C 
BRANCH  19  20
HETATM   20  C11 UNL     1      12.975  18.899  14.150  1.00  0.00    -0.014 C 
BRANCH  20  21
HETATM   21  C12 UNL     1      14.042  19.853  14.264  1.00  0.00     0.122 C 
BRANCH  21  22
HETATM   22  S2  UNL     1      13.860  21.569  14.258  1.00  0.00     0.233 S 
HETATM   23  O2  UNL     1      13.653  22.044  12.804  1.00  0.00    -0.207 OA
HETATM   24  O3  UNL     1      12.541  21.964  14.927  1.00  0.00    -0.207 OA
BRANCH  22  25
HETATM   25  N3  UNL     1      15.118  22.520  14.879  1.00  0.00    -0.207 NA
HETATM   26  C13 UNL     1      15.598  23.512  13.939  1.00  0.00     0.107 C 
HETATM   27  C14 UNL     1      16.718  22.880  13.172  1.00  0.00     0.017 C 
HETATM   28  C15 UNL     1      17.198  21.764  14.036  1.00  0.00     0.017 C 
HETATM   29  C16 UNL     1      16.244  21.660  15.174  1.00  0.00     0.107 C 
ENDBRANCH  22  25
ENDBRANCH  21  22
ENDBRANCH  20  21
ENDBRANCH  19  20
ENDBRANCH  18  19
ENDBRANCH  17  18
ENDBRANCH  16  17
ENDBRANCH  14  16
ENDBRANCH  12  14
ENDBRANCH   6  12
BRANCH   1  30
HETATM   30  O1  UNL     1      10.492  22.457  19.592  1.00  0.00    -0.355 OA
HETATM   31  C1  UNL     1       9.990  22.397  20.925  1.00  0.00     0.210 C 
ENDBRANCH   1  30
BRANCH  11  32
HETATM   32  C20 UNL     1      12.956  21.572  18.744  1.00  0.00     0.110 C 
HETATM   33  N5  UNL     1      13.757  22.048  17.863  1.00  0.00    -0.374 N 
HETATM   34  C21 UNL     1      14.866  22.770  18.431  1.00  0.00     0.141 C 
ATOM     35  H5  UNL     1      13.622  21.926  16.860  1.00  0.00     0.161 HD
HETATM   36  C22 UNL     1      14.472  22.981  19.852  1.00  0.00     0.141 C 
HETATM   37  N6  UNL     1      13.454  21.937  20.019  1.00  0.00    -0.374 N 
ATOM     38  H6  UNL     1      13.153  21.540  20.909  1.00  0.00     0.161 HD
ENDBRANCH  11  32
TORSDOF 12
ENDMDL
MODEL 3
REMARK VINA RESULT: -7.968650206      3.532      9.341
REMARK  12 active torsions:
REMARK  status: ('A' for Active; 'I' for Inactive)
REMARK    1  A    between atoms: O1_2  and  C2_3 
REMARK    2  A    between atoms: C5_8  and  C6_9 
REMARK    3  A    between atoms: C6_9  and  N2_11 
REMARK    4  A    between atoms: N2_11  and  C7_13 
REMARK    5  A    between atoms: C7_13  and  C8_14 
REMARK    6  A    between atoms: C8_14  and  C9_15 
REMARK    7  A    between atoms: C9_15  and  C10_16 
REMARK    8  A    between atoms: C10_16  and  C11_17 
REMARK    9  A    between atoms: C11_17  and  C12_18 
REMARK   10  A    between atoms: C12_18  and  S2_19 
REMARK   11  A    between atoms: S2_19  and  N3_22 
REMARK   12  A    between atoms: C19_31  and  C20_32 
ROOT
HETATM    1  C2  UNL     1       8.326  18.125  20.179  1.00  0.00     0.084 A 
HETATM    2  C3  UNL     1       9.675  18.158  19.992  1.00  0.00     0.069 A 
HETATM    3  C4  UNL     1      10.299  19.329  19.563  1.00  0.00     0.063 A 
HETATM    4  N1  UNL     1      11.587  19.631  19.305  1.00  0.00    -0.338 N 
ATOM      5  H1  UNL     1      12.368  18.981  19.393  1.00  0.00     0.167 HD
HETATM    6  C5  UNL     1      11.694  20.925  18.908  1.00  0.00     0.144 A 
HETATM    7  N4  UNL     1      10.445  21.431  18.923  1.00  0.00    -0.338 N 
ATOM      8  H4  UNL     1      10.196  22.388  18.674  1.00  0.00     0.167 HD
HETATM    9  C17 UNL     1       9.579  20.482  19.319  1.00  0.00     0.061 A 
HETATM   10  C18 UNL     1       8.214  20.430  19.513  1.00  0.00     0.050 A 
HETATM   11  C19 UNL     1       7.589  19.265  19.939  1.00  0.00     0.043 A 
ENDROOT
BRANCH   6  12
HETATM   12  C6  UNL     1      12.940  21.585  18.551  1.00  0.00     0.141 C 
HETATM   13  S1  UNL     1      13.770  22.366  19.710  1.00  0.00    -0.057 SA
BRANCH  12  14
HETATM   14  N2  UNL     1      13.418  21.567  17.227  1.00  0.00    -0.378 N 
ATOM     15  H2  UNL     1      12.941  22.139  16.531  1.00  0.00     0.160 HD
BRANCH  14  16
HETATM   16  C7  UNL     1      14.563  20.771  16.801  1.00  0.00     0.121 C 
BRANCH  16  17
HETATM   17  C8  UNL     1      15.055  21.179  15.450  1.00  0.00     0.020 C 
BRANCH  17  18
HETATM   18  C9  UNL     1      13.858  21.622  14.587  1.00  0.00     0.005 C 
BRANCH  18  19
HETATM   19  C10 UNL     1      13.661  20.792  13.392  1.00  0.00     0.028 C 
BRANCH  19  20
HETATM   20  C11 UNL     1      12.803  19.630  13.416  1.00  0.00    -0.014 C 
BRANCH  20  21
HETATM   21  C12 UNL     1      12.673  18.561  14.367  1.00  0.00     0.122 C 
BRANCH  21  22
HETATM   22  S2  UNL     1      11.522  18.492  15.650  1.00  0.00     0.233 S 
HETATM   23  O2  UNL     1      12.214  17.941  16.914  1.00  0.00    -0.207 OA
HETATM   24  O3  UNL     1      11.124  19.907  16.081  1.00  0.00    -0.207 OA
BRANCH  22  25
HETATM   25  N3  UNL     1      10.129  17.550  15.440  1.00  0.00    -0.207 NA
HETATM   26  C13 UNL     1      10.027  16.974  14.115  1.00  0.00     0.107 C 
HETATM   27  C14 UNL     1       9.259  17.946  13.274  1.00  0.00     0.017 C 
HETATM   28  C15 UNL     1       8.493  18.778  14.245  1.00  0.00     0.017 C 
HETATM   29  C16 UNL     1       8.968  18.400  15.605  1.00  0.00     0.107 C 
ENDBRANCH  22  25
ENDBRANCH  21  22
ENDBRANCH  20  21
ENDBRANCH  19  20
ENDBRANCH  18  19
ENDBRANCH  17  18
ENDBRANCH  16  17
ENDBRANCH  14  16
ENDBRANCH  12  14
ENDBRANCH   6  12
BRANCH   1  30
HETATM   30  O1  UNL     1       7.636  16.987  20.606  1.00  0.00    -0.355 OA
HETATM   31  C1  UNL     1       7.707  15.849  19.751  1.00  0.00     0.210 C 
ENDBRANCH   1  30
BRANCH  11  32
HETATM   32  C20 UNL     1       6.126  19.239  20.136  1.00  0.00     0.110 C 
HETATM   33  N5  UNL     1       5.255  19.469  19.224  1.00  0.00    -0.374 N 
HETATM   34  C21 UNL     1       3.897  19.377  19.695  1.00  0.00     0.141 C 
ATOM     35  H5  UNL     1       5.499  19.695  18.260  1.00  0.00     0.161 HD
HETATM   36  C22 UNL     1       4.018  18.704  21.019  1.00  0.00     0.141 C 
HETATM   37  N6  UNL     1       5.428  18.959  21.337  1.00  0.00    -0.374 N 
ATOM     38  H6  UNL     1       5.838  18.938  22.270  1.00  0.00     0.161 HD
ENDBRANCH  11  32
TORSDOF 12
ENDMDL
MODEL 4
REMARK VINA RESULT: -7.925240190      1.507      1.912
REMARK  12 active torsions:
REMARK  status: ('A' for Active; 'I' for Inactive)
REMARK    1  A    between atoms: O1_2  and  C2_3 
REMARK    2  A    between atoms: C5_8  and  C6_9 
REMARK    3  A    between atoms: C6_9  and  N2_11 
REMARK    4  A    between atoms: N2_11  and  C7_13 
REMARK    5  A    between atoms: C7_13  and  C8_14 
REMARK    6  A    between atoms: C8_14  and  C9_15 
REMARK    7  A    between atoms: C9_15  and  C10_16 
REMARK    8  A    between atoms: C10_16  and  C11_17 
REMARK    9  A    between atoms: C11_17  and  C12_18 
REMARK   10  A    between atoms: C12_18  and  S2_19 
REMARK   11  A    between atoms: S2_19  and  N3_22 
REMARK   12  A    between atoms: C19_31  and  C20_32 
ROOT
HETATM    1  C2  UNL     1      16.728  22.966  14.284  1.00  0.00     0.084 A 
HETATM    2  C3  UNL     1      16.348  21.836  14.944  1.00  0.00     0.069 A 
HETATM    3  C4  UNL     1      15.161  21.186  14.605  1.00  0.00     0.063 A 
HETATM    4  N1  UNL     1      14.562  20.078  15.084  1.00  0.00    -0.338 N 
ATOM      5  H1  UNL     1      14.927  19.498  15.839  1.00  0.00     0.167 HD
HETATM    6  C5  UNL     1      13.403  19.847  14.417  1.00  0.00     0.144 A 
HETATM    7  N4  UNL     1      13.285  20.834  13.506  1.00  0.00    -0.338 N 
ATOM      8  H4  UNL     1      12.514  20.937  12.848  1.00  0.00     0.167 HD
HETATM    9  C17 UNL     1      14.342  21.660  13.600  1.00  0.00     0.061 A 
HETATM   10  C18 UNL     1      14.742  22.806  12.943  1.00  0.00     0.050 A 
HETATM   11  C19 UNL     1      15.923  23.456  13.278  1.00  0.00     0.043 A 
ENDROOT
BRANCH   6  12
HETATM   12  C6  UNL     1      12.503  18.734  14.674  1.00  0.00     0.141 C 
HETATM   13  S1  UNL     1      11.494  18.257  13.492  1.00  0.00    -0.057 SA
BRANCH  12  14
HETATM   14  N2  UNL     1      12.488  18.085  15.924  1.00  0.00    -0.378 N 
ATOM     15  H2  UNL     1      13.235  17.424  16.136  1.00  0.00     0.160 HD
BRANCH  14  16
HETATM   16  C7  UNL     1      11.456  18.310  16.928  1.00  0.00     0.121 C 
BRANCH  16  17
HETATM   17  C8  UNL     1      11.988  19.039  18.121  1.00  0.00     0.020 C 
BRANCH  17  18
HETATM   18  C9  UNL     1      10.905  19.995  18.655  1.00  0.00     0.005 C 
BRANCH  18  19
HETATM   19  C10 UNL     1      11.255  20.614  19.941  1.00  0.00     0.028 C 
BRANCH  19  20
HETATM   20  C11 UNL     1      12.002  21.849  20.002  1.00  0.00    -0.014 C 
BRANCH  20  21
HETATM   21  C12 UNL     1      13.405  22.122  19.868  1.00  0.00     0.122 C 
BRANCH  21  22
HETATM   22  S2  UNL     1      14.280  22.179  18.382  1.00  0.00     0.233 S 
HETATM   23  O2  UNL     1      14.971  20.818  18.156  1.00  0.00    -0.207 OA
HETATM   24  O3  UNL     1      13.311  22.259  17.199  1.00  0.00    -0.207 OA
BRANCH  22  25
HETATM   25  N3  UNL     1      15.494  23.348  18.200  1.00  0.00    -0.207 NA
HETATM   26  C13 UNL     1      15.888  23.958  19.453  1.00  0.00     0.107 C 
HETATM   27  C14 UNL     1      15.025  25.167  19.640  1.00  0.00     0.017 C 
HETATM   28  C15 UNL     1      14.547  25.518  18.272  1.00  0.00     0.017 C 
HETATM   29  C16 UNL     1      14.984  24.417  17.369  1.00  0.00     0.107 C 
ENDBRANCH  22  25
ENDBRANCH  21  22
ENDBRANCH  20  21
ENDBRANCH  19  20
ENDBRANCH  18  19
ENDBRANCH  17  18
ENDBRANCH  16  17
ENDBRANCH  14  16
ENDBRANCH  12  14
ENDBRANCH   6  12
BRANCH   1  30
HETATM   30  O1  UNL     1      17.902  23.667  14.572  1.00  0.00    -0.355 OA
HETATM   31  C1  UNL     1      18.297  23.701  15.941  1.00  0.00     0.210 C 
ENDBRANCH   1  30
BRANCH  11  32
HETATM   32  C20 UNL     1      16.324  24.682  12.559  1.00  0.00     0.110 C 
HETATM   33  N5  UNL     1      15.538  25.646  12.250  1.00  0.00    -0.374 N 
HETATM   34  C21 UNL     1      16.197  26.718  11.549  1.00  0.00     0.141 C 
ATOM     35  H5  UNL     1      14.544  25.654  12.479  1.00  0.00     0.161 HD
HETATM   36  C22 UNL     1      17.648  26.442  11.748  1.00  0.00     0.141 C 
HETATM   37  N6  UNL     1      17.618  25.016  12.091  1.00  0.00    -0.374 N 
ATOM     38  H6  UNL     1      18.402  24.369  12.005  1.00  0.00     0.161 HD
ENDBRANCH  11  32
TORSDOF 12
ENDMDL
MODEL 5
REMARK VINA RESULT: -7.774790750      3.998      6.890
REMARK  12 active torsions:
REMARK  status: ('A' for Active; 'I' for Inactive)
REMARK    1  A    between atoms: O1_2  and  C2_3 
REMARK    2  A    between atoms: C5_8  and  C6_9 
REMARK    3  A    between atoms: C6_9  and  N2_11 
REMARK    4  A    between atoms: N2_11  and  C7_13 
REMARK    5  A    between atoms: C7_13  and  C8_14 
REMARK    6  A    between atoms: C8_14  and  C9_15 
REMARK    7  A    between atoms: C9_15  and  C10_16 
REMARK    8  A    between atoms: C10_16  and  C11_17 
REMARK    9  A    between atoms: C11_17  and  C12_18 
REMARK   10  A    between atoms: C12_18  and  S2_19 
REMARK   11  A    between atoms: S2_19  and  N3_22 
REMARK   12  A    between atoms: C19_31  and  C20_32 
ROOT
HETATM    1  C2  UNL     1      13.357  20.634  17.875  1.00  0.00     0.084 A 
HETATM    2  C3  UNL     1      12.550  19.553  17.683  1.00  0.00     0.069 A 
HETATM    3  C4  UNL     1      11.347  19.437  18.378  1.00  0.00     0.063 A 
HETATM    4  N1  UNL     1      10.384  18.495  18.378  1.00  0.00    -0.338 N 
ATOM      5  H1  UNL     1      10.398  17.645  17.813  1.00  0.00     0.167 HD
HETATM    6  C5  UNL     1       9.393  18.838  19.238  1.00  0.00     0.144 A 
HETATM    7  N4  UNL     1       9.752  20.018  19.781  1.00  0.00    -0.338 N 
ATOM      8  H4  UNL     1       9.210  20.538  20.470  1.00  0.00     0.167 HD
HETATM    9  C17 UNL     1      10.937  20.404  19.274  1.00  0.00     0.061 A 
HETATM   10  C18 UNL     1      11.765  21.492  19.457  1.00  0.00     0.050 A 
HETATM   11  C19 UNL     1      12.964  21.610  18.766  1.00  0.00     0.043 A 
ENDROOT
BRANCH   6  12
HETATM   12  C6  UNL     1       8.196  18.049  19.486  1.00  0.00     0.141 C 
HETATM   13  S1  UNL     1       8.166  17.062  20.777  1.00  0.00    -0.057 SA
BRANCH  12  14
HETATM   14  N2  UNL     1       7.086  18.121  18.623  1.00  0.00    -0.378 N 
ATOM     15  H2  UNL     1       7.253  18.296  17.632  1.00  0.00     0.160 HD
BRANCH  14  16
HETATM   16  C7  UNL     1       5.710  17.957  19.075  1.00  0.00     0.121 C 
BRANCH  16  17
HETATM   17  C8  UNL     1       5.082  16.721  18.515  1.00  0.00     0.020 C 
BRANCH  17  18
HETATM   18  C9  UNL     1       4.017  17.120  17.476  1.00  0.00     0.005 C 
BRANCH  18  19
HETATM   19  C10 UNL     1       4.168  16.427  16.190  1.00  0.00     0.028 C 
BRANCH  19  20
HETATM   20  C11 UNL     1       5.420  15.817  15.806  1.00  0.00    -0.014 C 
BRANCH  20  21
HETATM   21  C12 UNL     1       6.591  16.360  15.176  1.00  0.00     0.122 C 
BRANCH  21  22
HETATM   22  S2  UNL     1       8.221  16.052  15.649  1.00  0.00     0.233 S 
HETATM   23  O2  UNL     1       8.231  15.547  17.108  1.00  0.00    -0.207 OA
HETATM   24  O3  UNL     1       8.778  14.851  14.879  1.00  0.00    -0.207 OA
BRANCH  22  25
HETATM   25  N3  UNL     1       9.336  17.327  15.596  1.00  0.00    -0.207 NA
HETATM   26  C13 UNL     1       8.727  18.601  15.277  1.00  0.00     0.107 C 
HETATM   27  C14 UNL     1       8.782  18.751  13.788  1.00  0.00     0.017 C 
HETATM   28  C15 UNL     1       9.875  17.839  13.347  1.00  0.00     0.017 C 
HETATM   29  C16 UNL     1      10.294  17.058  14.544  1.00  0.00     0.107 C 
ENDBRANCH  22  25
ENDBRANCH  21  22
ENDBRANCH  20  21
ENDBRANCH  19  20
ENDBRANCH  18  19
ENDBRANCH  17  18
ENDBRANCH  16  17
ENDBRANCH  14  16
ENDBRANCH  12  14
ENDBRANCH   6  12
BRANCH   1  30
HETATM   30  O1  UNL     1      14.574  20.814  17.213  1.00  0.00    -0.355 OA
HETATM   31  C1  UNL     1      14.541  20.713  15.792  1.00  0.00     0.210 C 
ENDBRANCH   1  30
BRANCH  11  32
HETATM   32  C20 UNL     1      13.832  22.785  18.985  1.00  0.00     0.110 C 
HETATM   33  N5  UNL     1      14.396  23.090  20.095  1.00  0.00    -0.374 N 
HETATM   34  C21 UNL     1      15.187  24.291  20.023  1.00  0.00     0.141 C 
ATOM     35  H5  UNL     1      14.294  22.535  20.945  1.00  0.00     0.161 HD
HETATM   36  C22 UNL     1      15.324  24.548  18.562  1.00  0.00     0.141 C 
HETATM   37  N6  UNL     1      14.198  23.769  18.033  1.00  0.00    -0.374 N 
ATOM     38  H6  UNL     1      13.751  23.913  17.128  1.00  0.00     0.161 HD
ENDBRANCH  11  32
TORSDOF 12
ENDMDL
