MODEL 1
REMARK VINA RESULT: -9.128231238      0.000      0.000
REMARK  13 active torsions:
REMARK  status: ('A' for Active; 'I' for Inactive)
REMARK    1  A    between atoms: C2_2  and  N1_3 
REMARK    2  A    between atoms: N1_3  and  C3_4 
REMARK    3  A    between atoms: N1_3  and  C5_6 
REMARK    4  A    between atoms: C5_6  and  C6_7 
REMARK    5  A    between atoms: C6_7  and  N2_8 
REMARK       I    between atoms: N2_8  and  C7_10 
REMARK    6  A    between atoms: C7_10  and  C8_12 
REMARK    7  A    between atoms: C8_12  and  C9_13 
REMARK    8  A    between atoms: C9_13  and  C10_14 
REMARK    9  A    between atoms: C11_15  and  C12_16 
REMARK   10  A    between atoms: C13_18  and  O3_19 
REMARK   11  A    between atoms: C14_21  and  C15_22 
REMARK   12  A    between atoms: C15_22  and  O4_24 
REMARK   13  A    between atoms: C20_31  and  C21_32 
ROOT
HETATM    1  C10 UNL     1      12.441  20.950  18.326  1.00  0.00     0.009 C 
HETATM    2  C11 UNL     1      12.211  20.882  16.957  1.00  0.00     0.046 C 
HETATM    3  C13 UNL     1      13.210  20.740  15.982  1.00  0.00     0.093 C 
HETATM    4  C14 UNL     1      14.581  21.091  16.177  1.00  0.00     0.038 C 
HETATM    5  C17 UNL     1      15.012  22.041  17.077  1.00  0.00    -0.004 A 
HETATM    6  C18 UNL     1      16.018  22.825  16.553  1.00  0.00     0.043 A 
HETATM    7  C19 UNL     1      16.613  23.806  17.311  1.00  0.00     0.044 A 
HETATM    8  N3  UNL     1      17.596  24.577  16.824  1.00  0.00    -0.351 N 
ATOM      9  H3  UNL     1      17.904  24.427  15.863  1.00  0.00     0.166 HD
HETATM   10  C20 UNL     1      18.192  25.537  17.544  1.00  0.00     0.099 A 
HETATM   11  C22 UNL     1      17.784  25.748  18.841  1.00  0.00     0.042 A 
HETATM   12  C23 UNL     1      16.781  24.995  19.405  1.00  0.00    -0.047 A 
HETATM   13  C24 UNL     1      16.364  25.242  20.802  1.00  0.00     0.049 C 
HETATM   14  C25 UNL     1      16.195  24.020  18.630  1.00  0.00    -0.003 A 
HETATM   15  C26 UNL     1      15.178  23.221  19.133  1.00  0.00     0.030 A 
HETATM   16  C27 UNL     1      14.587  22.243  18.369  1.00  0.00     0.027 A 
HETATM   17  C28 UNL     1      13.517  21.592  18.972  1.00  0.00     0.190 C 
HETATM   18  O6  UNL     1      13.550  21.602  20.212  1.00  0.00    -0.287 OA
ENDROOT
BRANCH   1  19
HETATM   19  C9  UNL     1      11.444  20.288  19.163  1.00  0.00     0.053 C 
BRANCH  19  20
HETATM   20  C8  UNL     1      11.568  18.783  19.003  1.00  0.00     0.107 C 
BRANCH  20  21
HETATM   21  C7  UNL     1      10.210  18.176  18.755  1.00  0.00     0.217 C 
HETATM   22  N2  UNL     1      10.048  17.435  17.559  1.00  0.00    -0.360 N 
ATOM     23  H2  UNL     1      10.852  17.344  16.938  1.00  0.00     0.162 HD
HETATM   24  O1  UNL     1       9.291  18.347  19.599  1.00  0.00    -0.274 OA
BRANCH  22  25
HETATM   25  C6  UNL     1       8.797  16.794  17.162  1.00  0.00     0.142 C 
BRANCH  25  26
HETATM   26  C5  UNL     1       8.628  16.946  15.695  1.00  0.00     0.141 C 
BRANCH  26  27
HETATM   27  N1  UNL     1       8.905  15.764  14.929  1.00  0.00    -0.393 N 
BRANCH  27  28
HETATM   28  C2  UNL     1       7.860  14.817  14.845  1.00  0.00     0.117 C 
HETATM   29  C1  UNL     1       7.699  14.418  13.376  1.00  0.00     0.026 C 
ENDBRANCH  27  28
BRANCH  27  30
HETATM   30  C3  UNL     1       9.771  15.905  13.832  1.00  0.00     0.054 C 
HETATM   31  C4  UNL     1      10.752  17.047  13.934  1.00  0.00     0.054 C 
ENDBRANCH  27  30
ENDBRANCH  26  27
ENDBRANCH  25  26
ENDBRANCH  22  25
ENDBRANCH  20  21
ENDBRANCH  19  20
ENDBRANCH   1  19
BRANCH   2  32
HETATM   32  C12 UNL     1      10.846  20.954  16.458  1.00  0.00     0.273 C 
HETATM   33  O2  UNL     1      10.212  20.060  15.881  1.00  0.00    -0.301 OA
ENDBRANCH   2  32
BRANCH   3  34
HETATM   34  O3  UNL     1      12.890  20.237  14.772  1.00  0.00    -0.359 OA
ATOM     35  H3  UNL     1      13.491  20.349  14.046  1.00  0.00     0.217 HD
ENDBRANCH   3  34
BRANCH   4  36
HETATM   36  C15 UNL     1      15.538  20.428  15.361  1.00  0.00     0.053 C 
HETATM   37  C16 UNL     1      16.339  20.913  14.249  1.00  0.00     0.077 C 
BRANCH  36  38
HETATM   38  O4  UNL     1      15.751  19.180  15.663  1.00  0.00    -0.364 OA
ATOM     39  H4  UNL     1      15.895  18.605  14.920  1.00  0.00     0.217 HD
ENDBRANCH  36  38
ENDBRANCH   4  36
BRANCH  10  40
HETATM   40  C21 UNL     1      19.251  26.339  16.943  1.00  0.00     0.281 C 
HETATM   41  N4  UNL     1      19.993  27.282  17.685  1.00  0.00    -0.056 NA
HETATM   42  O5  UNL     1      19.524  26.199  15.725  1.00  0.00    -0.269 OA
ENDBRANCH  10  40
TORSDOF 13
ENDMDL
MODEL 2
REMARK VINA RESULT: -9.040736371      0.628      1.215
REMARK  13 active torsions:
REMARK  status: ('A' for Active; 'I' for Inactive)
REMARK    1  A    between atoms: C2_2  and  N1_3 
REMARK    2  A    between atoms: N1_3  and  C3_4 
REMARK    3  A    between atoms: N1_3  and  C5_6 
REMARK    4  A    between atoms: C5_6  and  C6_7 
REMARK    5  A    between atoms: C6_7  and  N2_8 
REMARK       I    between atoms: N2_8  and  C7_10 
REMARK    6  A    between atoms: C7_10  and  C8_12 
REMARK    7  A    between atoms: C8_12  and  C9_13 
REMARK    8  A    between atoms: C9_13  and  C10_14 
REMARK    9  A    between atoms: C11_15  and  C12_16 
REMARK   10  A    between atoms: C13_18  and  O3_19 
REMARK   11  A    between atoms: C14_21  and  C15_22 
REMARK   12  A    between atoms: C15_22  and  O4_24 
REMARK   13  A    between atoms: C20_31  and  C21_32 
ROOT
HETATM    1  C10 UNL     1      12.490  20.899  18.255  1.00  0.00     0.009 C 
HETATM    2  C11 UNL     1      12.282  20.846  16.882  1.00  0.00     0.046 C 
HETATM    3  C13 UNL     1      13.298  20.726  15.922  1.00  0.00     0.093 C 
HETATM    4  C14 UNL     1      14.662  21.088  16.144  1.00  0.00     0.038 C 
HETATM    5  C17 UNL     1      15.069  22.031  17.063  1.00  0.00    -0.004 A 
HETATM    6  C18 UNL     1      16.075  22.831  16.566  1.00  0.00     0.043 A 
HETATM    7  C19 UNL     1      16.648  23.808  17.346  1.00  0.00     0.044 A 
HETATM    8  N3  UNL     1      17.631  24.595  16.885  1.00  0.00    -0.351 N 
ATOM      9  H3  UNL     1      17.956  24.461  15.927  1.00  0.00     0.166 HD
HETATM   10  C20 UNL     1      18.205  25.551  17.628  1.00  0.00     0.099 A 
HETATM   11  C22 UNL     1      17.774  25.742  18.920  1.00  0.00     0.042 A 
HETATM   12  C23 UNL     1      16.770  24.972  19.457  1.00  0.00    -0.047 A 
HETATM   13  C24 UNL     1      16.328  25.197  20.850  1.00  0.00     0.049 C 
HETATM   14  C25 UNL     1      16.207  24.001  18.661  1.00  0.00    -0.003 A 
HETATM   15  C26 UNL     1      15.190  23.186  19.136  1.00  0.00     0.030 A 
HETATM   16  C27 UNL     1      14.621  22.212  18.351  1.00  0.00     0.027 A 
HETATM   17  C28 UNL     1      13.548  21.543  18.928  1.00  0.00     0.190 C 
HETATM   18  O6  UNL     1      13.560  21.537  20.168  1.00  0.00    -0.287 OA
ENDROOT
BRANCH   1  19
HETATM   19  C9  UNL     1      11.485  20.216  19.067  1.00  0.00     0.053 C 
BRANCH  19  20
HETATM   20  C8  UNL     1      11.601  18.716  18.859  1.00  0.00     0.107 C 
BRANCH  20  21
HETATM   21  C7  UNL     1      10.239  18.126  18.589  1.00  0.00     0.217 C 
HETATM   22  N2  UNL     1      10.124  17.270  17.466  1.00  0.00    -0.360 N 
ATOM     23  H2  UNL     1      10.960  17.093  16.909  1.00  0.00     0.162 HD
HETATM   24  O1  UNL     1       9.278  18.409  19.351  1.00  0.00    -0.274 OA
BRANCH  22  25
HETATM   25  C6  UNL     1       8.877  16.628  17.058  1.00  0.00     0.142 C 
BRANCH  25  26
HETATM   26  C5  UNL     1       8.364  17.311  15.843  1.00  0.00     0.141 C 
BRANCH  26  27
HETATM   27  N1  UNL     1       8.624  16.624  14.609  1.00  0.00    -0.393 N 
BRANCH  27  28
HETATM   28  C2  UNL     1       9.495  17.274  13.707  1.00  0.00     0.117 C 
HETATM   29  C1  UNL     1      10.901  16.705  13.913  1.00  0.00     0.026 C 
ENDBRANCH  27  28
BRANCH  27  30
HETATM   30  C3  UNL     1       8.627  15.220  14.650  1.00  0.00     0.054 C 
HETATM   31  C4  UNL     1       7.656  14.551  13.708  1.00  0.00     0.054 C 
ENDBRANCH  27  30
ENDBRANCH  26  27
ENDBRANCH  25  26
ENDBRANCH  22  25
ENDBRANCH  20  21
ENDBRANCH  19  20
ENDBRANCH   1  19
BRANCH   2  32
HETATM   32  C12 UNL     1      10.924  20.911  16.362  1.00  0.00     0.273 C 
HETATM   33  O2  UNL     1      10.304  20.013  15.779  1.00  0.00    -0.301 OA
ENDBRANCH   2  32
BRANCH   3  34
HETATM   34  O3  UNL     1      13.003  20.237  14.701  1.00  0.00    -0.359 OA
ATOM     35  H3  UNL     1      13.202  19.331  14.499  1.00  0.00     0.217 HD
ENDBRANCH   3  34
BRANCH   4  36
HETATM   36  C15 UNL     1      15.639  20.446  15.335  1.00  0.00     0.053 C 
HETATM   37  C16 UNL     1      16.510  20.972  14.297  1.00  0.00     0.077 C 
BRANCH  36  38
HETATM   38  O4  UNL     1      15.798  19.175  15.567  1.00  0.00    -0.364 OA
ATOM     39  H4  UNL     1      16.203  18.966  16.401  1.00  0.00     0.217 HD
ENDBRANCH  36  38
ENDBRANCH   4  36
BRANCH  10  40
HETATM   40  C21 UNL     1      19.266  26.372  17.054  1.00  0.00     0.281 C 
HETATM   41  N4  UNL     1      19.582  26.338  15.679  1.00  0.00    -0.056 NA
HETATM   42  O5  UNL     1      19.930  27.140  17.793  1.00  0.00    -0.269 OA
ENDBRANCH  10  40
TORSDOF 13
ENDMDL
MODEL 3
REMARK VINA RESULT: -8.818862470      2.336     11.108
REMARK  13 active torsions:
REMARK  status: ('A' for Active; 'I' for Inactive)
REMARK    1  A    between atoms: C2_2  and  N1_3 
REMARK    2  A    between atoms: N1_3  and  C3_4 
REMARK    3  A    between atoms: N1_3  and  C5_6 
REMARK    4  A    between atoms: C5_6  and  C6_7 
REMARK    5  A    between atoms: C6_7  and  N2_8 
REMARK       I    between atoms: N2_8  and  C7_10 
REMARK    6  A    between atoms: C7_10  and  C8_12 
REMARK    7  A    between atoms: C8_12  and  C9_13 
REMARK    8  A    between atoms: C9_13  and  C10_14 
REMARK    9  A    between atoms: C11_15  and  C12_16 
REMARK   10  A    between atoms: C13_18  and  O3_19 
REMARK   11  A    between atoms: C14_21  and  C15_22 
REMARK   12  A    between atoms: C15_22  and  O4_24 
REMARK   13  A    between atoms: C20_31  and  C21_32 
ROOT
HETATM    1  C10 UNL     1      11.627  19.218  15.818  1.00  0.00     0.009 C 
HETATM    2  C11 UNL     1      11.046  20.143  16.677  1.00  0.00     0.046 C 
HETATM    3  C13 UNL     1      10.299  19.817  17.819  1.00  0.00     0.093 C 
HETATM    4  C14 UNL     1       9.648  18.562  18.025  1.00  0.00     0.038 C 
HETATM    5  C17 UNL     1       9.228  17.737  17.004  1.00  0.00    -0.004 A 
HETATM    6  C18 UNL     1       7.993  17.184  17.268  1.00  0.00     0.043 A 
HETATM    7  C19 UNL     1       7.417  16.297  16.389  1.00  0.00     0.044 A 
HETATM    8  N3  UNL     1       6.219  15.743  16.627  1.00  0.00    -0.351 N 
ATOM      9  H3  UNL     1       5.726  15.994  17.485  1.00  0.00     0.166 HD
HETATM   10  C20 UNL     1       5.640  14.875  15.787  1.00  0.00     0.099 A 
HETATM   11  C22 UNL     1       6.294  14.531  14.627  1.00  0.00     0.042 A 
HETATM   12  C23 UNL     1       7.525  15.060  14.319  1.00  0.00    -0.047 A 
HETATM   13  C24 UNL     1       8.208  14.671  13.067  1.00  0.00     0.049 C 
HETATM   14  C25 UNL     1       8.084  15.948  15.209  1.00  0.00    -0.003 A 
HETATM   15  C26 UNL     1       9.324  16.522  14.965  1.00  0.00     0.030 A 
HETATM   16  C27 UNL     1       9.893  17.409  15.846  1.00  0.00     0.027 A 
HETATM   17  C28 UNL     1      11.089  17.977  15.421  1.00  0.00     0.190 C 
HETATM   18  O6  UNL     1      11.717  17.286  14.604  1.00  0.00    -0.287 OA
ENDROOT
BRANCH   1  19
HETATM   19  C9  UNL     1      12.928  19.599  15.274  1.00  0.00     0.053 C 
BRANCH  19  20
HETATM   20  C8  UNL     1      13.968  19.565  16.379  1.00  0.00     0.107 C 
BRANCH  20  21
HETATM   21  C7  UNL     1      14.963  20.683  16.186  1.00  0.00     0.217 C 
HETATM   22  N2  UNL     1      15.060  21.640  17.226  1.00  0.00    -0.360 N 
ATOM     23  H2  UNL     1      14.466  21.521  18.046  1.00  0.00     0.162 HD
HETATM   24  O1  UNL     1      15.653  20.724  15.133  1.00  0.00    -0.274 OA
BRANCH  22  25
HETATM   25  C6  UNL     1      15.962  22.788  17.192  1.00  0.00     0.142 C 
BRANCH  25  26
HETATM   26  C5  UNL     1      15.834  23.533  18.470  1.00  0.00     0.141 C 
BRANCH  26  27
HETATM   27  N1  UNL     1      17.057  24.100  18.964  1.00  0.00    -0.393 N 
BRANCH  27  28
HETATM   28  C2  UNL     1      17.911  24.678  17.999  1.00  0.00     0.117 C 
HETATM   29  C1  UNL     1      17.824  26.200  18.140  1.00  0.00     0.026 C 
ENDBRANCH  27  28
BRANCH  27  30
HETATM   30  C3  UNL     1      17.024  24.662  20.251  1.00  0.00     0.054 C 
HETATM   31  C4  UNL     1      15.736  24.449  21.009  1.00  0.00     0.054 C 
ENDBRANCH  27  30
ENDBRANCH  26  27
ENDBRANCH  25  26
ENDBRANCH  22  25
ENDBRANCH  20  21
ENDBRANCH  19  20
ENDBRANCH   1  19
BRANCH   2  32
HETATM   32  C12 UNL     1      11.207  21.565  16.411  1.00  0.00     0.273 C 
HETATM   33  O2  UNL     1      11.799  22.395  17.114  1.00  0.00    -0.301 OA
ENDBRANCH   2  32
BRANCH   3  34
HETATM   34  O3  UNL     1      10.170  20.725  18.809  1.00  0.00    -0.359 OA
ATOM     35  H3  UNL     1      10.643  20.600  19.623  1.00  0.00     0.217 HD
ENDBRANCH   3  34
BRANCH   4  36
HETATM   36  C15 UNL     1       9.403  18.176  19.371  1.00  0.00     0.053 C 
HETATM   37  C16 UNL     1       8.162  18.078  20.121  1.00  0.00     0.077 C 
BRANCH  36  38
HETATM   38  O4  UNL     1      10.461  17.837  20.049  1.00  0.00    -0.364 OA
ATOM     39  H4  UNL     1      10.319  17.165  20.706  1.00  0.00     0.217 HD
ENDBRANCH  36  38
ENDBRANCH   4  36
BRANCH  10  40
HETATM   40  C21 UNL     1       4.331  14.319  16.112  1.00  0.00     0.281 C 
HETATM   41  N4  UNL     1       3.893  13.078  15.600  1.00  0.00    -0.056 NA
HETATM   42  O5  UNL     1       3.556  14.951  16.870  1.00  0.00    -0.269 OA
ENDBRANCH  10  40
TORSDOF 13
ENDMDL
MODEL 4
REMARK VINA RESULT: -8.759184606      2.495     10.981
REMARK  13 active torsions:
REMARK  status: ('A' for Active; 'I' for Inactive)
REMARK    1  A    between atoms: C2_2  and  N1_3 
REMARK    2  A    between atoms: N1_3  and  C3_4 
REMARK    3  A    between atoms: N1_3  and  C5_6 
REMARK    4  A    between atoms: C5_6  and  C6_7 
REMARK    5  A    between atoms: C6_7  and  N2_8 
REMARK       I    between atoms: N2_8  and  C7_10 
REMARK    6  A    between atoms: C7_10  and  C8_12 
REMARK    7  A    between atoms: C8_12  and  C9_13 
REMARK    8  A    between atoms: C9_13  and  C10_14 
REMARK    9  A    between atoms: C11_15  and  C12_16 
REMARK   10  A    between atoms: C13_18  and  O3_19 
REMARK   11  A    between atoms: C14_21  and  C15_22 
REMARK   12  A    between atoms: C15_22  and  O4_24 
REMARK   13  A    between atoms: C20_31  and  C21_32 
ROOT
HETATM    1  C10 UNL     1      11.654  19.241  15.941  1.00  0.00     0.009 C 
HETATM    2  C11 UNL     1      11.064  20.172  16.788  1.00  0.00     0.046 C 
HETATM    3  C13 UNL     1      10.293  19.853  17.915  1.00  0.00     0.093 C 
HETATM    4  C14 UNL     1       9.627  18.603  18.109  1.00  0.00     0.038 C 
HETATM    5  C17 UNL     1       9.220  17.781  17.081  1.00  0.00    -0.004 A 
HETATM    6  C18 UNL     1       7.975  17.238  17.321  1.00  0.00     0.043 A 
HETATM    7  C19 UNL     1       7.409  16.355  16.431  1.00  0.00     0.044 A 
HETATM    8  N3  UNL     1       6.202  15.812  16.646  1.00  0.00    -0.351 N 
ATOM      9  H3  UNL     1       5.695  16.067  17.494  1.00  0.00     0.166 HD
HETATM   10  C20 UNL     1       5.632  14.948  15.796  1.00  0.00     0.099 A 
HETATM   11  C22 UNL     1       6.306  14.597  14.649  1.00  0.00     0.042 A 
HETATM   12  C23 UNL     1       7.547  15.116  14.365  1.00  0.00    -0.047 A 
HETATM   13  C24 UNL     1       8.251  14.720  13.126  1.00  0.00     0.049 C 
HETATM   14  C25 UNL     1       8.097  16.001  15.265  1.00  0.00    -0.003 A 
HETATM   15  C26 UNL     1       9.345  16.564  15.044  1.00  0.00     0.030 A 
HETATM   16  C27 UNL     1       9.905  17.446  15.936  1.00  0.00     0.027 A 
HETATM   17  C28 UNL     1      11.113  18.004  15.534  1.00  0.00     0.190 C 
HETATM   18  O6  UNL     1      11.751  17.308  14.730  1.00  0.00    -0.287 OA
ENDROOT
BRANCH   1  19
HETATM   19  C9  UNL     1      12.968  19.611  15.422  1.00  0.00     0.053 C 
BRANCH  19  20
HETATM   20  C8  UNL     1      13.983  19.587  16.551  1.00  0.00     0.107 C 
BRANCH  20  21
HETATM   21  C7  UNL     1      14.913  20.769  16.433  1.00  0.00     0.217 C 
HETATM   22  N2  UNL     1      15.021  21.613  17.566  1.00  0.00    -0.360 N 
ATOM     23  H2  UNL     1      14.478  21.376  18.396  1.00  0.00     0.162 HD
HETATM   24  O1  UNL     1      15.542  20.959  15.360  1.00  0.00    -0.274 OA
BRANCH  22  25
HETATM   25  C6  UNL     1      15.866  22.804  17.615  1.00  0.00     0.142 C 
BRANCH  25  26
HETATM   26  C5  UNL     1      15.268  23.774  18.566  1.00  0.00     0.141 C 
BRANCH  26  27
HETATM   27  N1  UNL     1      16.215  24.583  19.282  1.00  0.00    -0.393 N 
BRANCH  27  28
HETATM   28  C2  UNL     1      16.117  24.557  20.690  1.00  0.00     0.117 C 
HETATM   29  C1  UNL     1      14.851  23.781  21.063  1.00  0.00     0.026 C 
ENDBRANCH  27  28
BRANCH  27  30
HETATM   30  C3  UNL     1      17.484  24.740  18.701  1.00  0.00     0.054 C 
HETATM   31  C4  UNL     1      17.802  26.136  18.225  1.00  0.00     0.054 C 
ENDBRANCH  27  30
ENDBRANCH  26  27
ENDBRANCH  25  26
ENDBRANCH  22  25
ENDBRANCH  20  21
ENDBRANCH  19  20
ENDBRANCH   1  19
BRANCH   2  32
HETATM   32  C12 UNL     1      11.242  21.591  16.524  1.00  0.00     0.273 C 
HETATM   33  O2  UNL     1      11.798  22.424  17.254  1.00  0.00    -0.301 OA
ENDBRANCH   2  32
BRANCH   3  34
HETATM   34  O3  UNL     1      10.152  20.762  18.902  1.00  0.00    -0.359 OA
ATOM     35  H3  UNL     1       9.639  20.542  19.670  1.00  0.00     0.217 HD
ENDBRANCH   3  34
BRANCH   4  36
HETATM   36  C15 UNL     1       9.352  18.220  19.450  1.00  0.00     0.053 C 
HETATM   37  C16 UNL     1       8.100  18.163  20.186  1.00  0.00     0.077 C 
BRANCH  36  38
HETATM   38  O4  UNL     1      10.390  17.841  20.139  1.00  0.00    -0.364 OA
ATOM     39  H4  UNL     1      11.096  18.475  20.185  1.00  0.00     0.217 HD
ENDBRANCH  36  38
ENDBRANCH   4  36
BRANCH  10  40
HETATM   40  C21 UNL     1       4.313  14.403  16.095  1.00  0.00     0.281 C 
HETATM   41  N4  UNL     1       3.445  15.006  17.030  1.00  0.00    -0.056 NA
HETATM   42  O5  UNL     1       3.920  13.363  15.512  1.00  0.00    -0.269 OA
ENDBRANCH  10  40
TORSDOF 13
ENDMDL
MODEL 5
REMARK VINA RESULT: -8.673236646      0.700      1.061
REMARK  13 active torsions:
REMARK  status: ('A' for Active; 'I' for Inactive)
REMARK    1  A    between atoms: C2_2  and  N1_3 
REMARK    2  A    between atoms: N1_3  and  C3_4 
REMARK    3  A    between atoms: N1_3  and  C5_6 
REMARK    4  A    between atoms: C5_6  and  C6_7 
REMARK    5  A    between atoms: C6_7  and  N2_8 
REMARK       I    between atoms: N2_8  and  C7_10 
REMARK    6  A    between atoms: C7_10  and  C8_12 
REMARK    7  A    between atoms: C8_12  and  C9_13 
REMARK    8  A    between atoms: C9_13  and  C10_14 
REMARK    9  A    between atoms: C11_15  and  C12_16 
REMARK   10  A    between atoms: C13_18  and  O3_19 
REMARK   11  A    between atoms: C14_21  and  C15_22 
REMARK   12  A    between atoms: C15_22  and  O4_24 
REMARK   13  A    between atoms: C20_31  and  C21_32 
ROOT
HETATM    1  C10 UNL     1      12.447  20.971  18.361  1.00  0.00     0.009 C 
HETATM    2  C11 UNL     1      12.211  20.901  16.993  1.00  0.00     0.046 C 
HETATM    3  C13 UNL     1      13.205  20.751  16.015  1.00  0.00     0.093 C 
HETATM    4  C14 UNL     1      14.579  21.095  16.203  1.00  0.00     0.038 C 
HETATM    5  C17 UNL     1      15.018  22.045  17.099  1.00  0.00    -0.004 A 
HETATM    6  C18 UNL     1      16.026  22.823  16.569  1.00  0.00     0.043 A 
HETATM    7  C19 UNL     1      16.629  23.803  17.322  1.00  0.00     0.044 A 
HETATM    8  N3  UNL     1      17.614  24.568  16.828  1.00  0.00    -0.351 N 
ATOM      9  H3  UNL     1      17.917  24.414  15.867  1.00  0.00     0.166 HD
HETATM   10  C20 UNL     1      18.218  25.526  17.544  1.00  0.00     0.099 A 
HETATM   11  C22 UNL     1      17.816  25.743  18.842  1.00  0.00     0.042 A 
HETATM   12  C23 UNL     1      16.812  24.996  19.412  1.00  0.00    -0.047 A 
HETATM   13  C24 UNL     1      16.402  25.249  20.810  1.00  0.00     0.049 C 
HETATM   14  C25 UNL     1      16.218  24.022  18.642  1.00  0.00    -0.003 A 
HETATM   15  C26 UNL     1      15.199  23.230  19.151  1.00  0.00     0.030 A 
HETATM   16  C27 UNL     1      14.600  22.253  18.393  1.00  0.00     0.027 A 
HETATM   17  C28 UNL     1      13.529  21.609  19.002  1.00  0.00     0.190 C 
HETATM   18  O6  UNL     1      13.567  21.622  20.241  1.00  0.00    -0.287 OA
ENDROOT
BRANCH   1  19
HETATM   19  C9  UNL     1      11.450  20.316  19.204  1.00  0.00     0.053 C 
BRANCH  19  20
HETATM   20  C8  UNL     1      11.511  18.815  18.985  1.00  0.00     0.107 C 
BRANCH  20  21
HETATM   21  C7  UNL     1      10.115  18.249  18.896  1.00  0.00     0.217 C 
HETATM   22  N2  UNL     1       9.777  17.566  17.702  1.00  0.00    -0.360 N 
ATOM     23  H2  UNL     1      10.489  17.484  16.976  1.00  0.00     0.162 HD
HETATM   24  O1  UNL     1       9.321  18.402  19.861  1.00  0.00    -0.274 OA
BRANCH  22  25
HETATM   25  C6  UNL     1       8.467  16.970  17.449  1.00  0.00     0.142 C 
BRANCH  25  26
HETATM   26  C5  UNL     1       8.614  15.917  16.413  1.00  0.00     0.141 C 
BRANCH  26  27
HETATM   27  N1  UNL     1       7.626  15.952  15.371  1.00  0.00    -0.393 N 
BRANCH  27  28
HETATM   28  C2  UNL     1       6.501  16.773  15.606  1.00  0.00     0.117 C 
HETATM   29  C1  UNL     1       5.293  15.865  15.845  1.00  0.00     0.026 C 
ENDBRANCH  27  28
BRANCH  27  30
HETATM   30  C3  UNL     1       8.087  15.807  14.052  1.00  0.00     0.054 C 
HETATM   31  C4  UNL     1       7.777  14.478  13.408  1.00  0.00     0.054 C 
ENDBRANCH  27  30
ENDBRANCH  26  27
ENDBRANCH  25  26
ENDBRANCH  22  25
ENDBRANCH  20  21
ENDBRANCH  19  20
ENDBRANCH   1  19
BRANCH   2  32
HETATM   32  C12 UNL     1      10.844  20.978  16.500  1.00  0.00     0.273 C 
HETATM   33  O2  UNL     1      10.199  20.082  15.939  1.00  0.00    -0.301 OA
ENDBRANCH   2  32
BRANCH   3  34
HETATM   34  O3  UNL     1      12.877  20.247  14.807  1.00  0.00    -0.359 OA
ATOM     35  H3  UNL     1      12.126  19.671  14.729  1.00  0.00     0.217 HD
ENDBRANCH   3  34
BRANCH   4  36
HETATM   36  C15 UNL     1      15.529  20.426  15.385  1.00  0.00     0.053 C 
HETATM   37  C16 UNL     1      16.328  20.904  14.269  1.00  0.00     0.077 C 
BRANCH  36  38
HETATM   38  O4  UNL     1      15.736  19.177  15.689  1.00  0.00    -0.364 OA
ATOM     39  H4  UNL     1      16.573  18.827  15.405  1.00  0.00     0.217 HD
ENDBRANCH  36  38
ENDBRANCH   4  36
BRANCH  10  40
HETATM   40  C21 UNL     1      19.278  26.321  16.936  1.00  0.00     0.281 C 
HETATM   41  N4  UNL     1      20.029  27.263  17.673  1.00  0.00    -0.056 NA
HETATM   42  O5  UNL     1      19.546  26.177  15.718  1.00  0.00    -0.269 OA
ENDBRANCH  10  40
TORSDOF 13
ENDMDL
