MODEL 1
REMARK VINA RESULT: -8.924644949      0.000      0.000
REMARK  10 active torsions:
REMARK  status: ('A' for Active; 'I' for Inactive)
REMARK    1  A    between atoms: C2_2  and  C3_3 
REMARK    2  A    between atoms: C3_3  and  C4_4 
REMARK    3  A    between atoms: C4_4  and  N1_5 
REMARK    4  A    between atoms: C4_4  and  C16_22 
REMARK       I    between atoms: N1_5  and  C5_7 
REMARK    5  A    between atoms: C5_7  and  C6_9 
REMARK    6  A    between atoms: C6_9  and  C7_10 
REMARK    7  A    between atoms: C6_9  and  N2_17 
REMARK    8  A    between atoms: C7_10  and  C8_11 
REMARK       I    between atoms: N2_17  and  C14_19 
REMARK       I    between atoms: C16_22  and  N3_24 
REMARK    9  A    between atoms: C19_28  and  C20_29 
REMARK       I    between atoms: C20_29  and  N4_31 
REMARK   10  A    between atoms: N4_31  and  C21_33 
ROOT
HETATM    1  C4  UNL     1       9.833  19.310  16.116  1.00  0.00     0.176 C 
ENDROOT
BRANCH   1   2
HETATM    2  C3  UNL     1       9.888  18.701  14.714  1.00  0.00     0.034 C 
BRANCH   2   3
HETATM    3  C2  UNL     1      11.163  17.951  14.456  1.00  0.00    -0.002 C 
HETATM    4  C1  UNL     1      10.838  16.633  13.712  1.00  0.00     0.005 C 
ENDBRANCH   2   3
ENDBRANCH   1   2
BRANCH   1   5
HETATM    5  N1  UNL     1      11.135  19.783  16.563  1.00  0.00    -0.346 N 
HETATM    6  C5  UNL     1      11.598  21.085  16.682  1.00  0.00     0.241 C 
HETATM    7  O1  UNL     1      10.932  22.086  16.391  1.00  0.00    -0.271 OA
ATOM      8  H1  UNL     1      11.800  19.055  16.826  1.00  0.00     0.163 HD
BRANCH   6   9
HETATM    9  C6  UNL     1      13.005  21.342  17.194  1.00  0.00     0.177 C 
BRANCH   9  10
HETATM   10  C7  UNL     1      12.944  22.446  18.152  1.00  0.00     0.039 C 
BRANCH  10  11
HETATM   11  C8  UNL     1      14.182  22.995  18.766  1.00  0.00    -0.012 C 
HETATM   12  C9  UNL     1      14.491  22.670  20.168  1.00  0.00     0.005 C 
HETATM   13  C10 UNL     1      14.644  23.919  21.060  1.00  0.00     0.000 C 
HETATM   14  C11 UNL     1      15.830  24.625  20.432  1.00  0.00     0.000 C 
HETATM   15  C12 UNL     1      15.323  25.234  19.151  1.00  0.00     0.000 C 
HETATM   16  C13 UNL     1      14.304  24.469  18.427  1.00  0.00     0.005 C 
ENDBRANCH  10  11
ENDBRANCH   9  10
BRANCH   9  17
HETATM   17  N2  UNL     1      13.776  21.682  16.018  1.00  0.00    -0.348 N 
HETATM   18  C14 UNL     1      14.358  20.729  15.144  1.00  0.00     0.214 C 
HETATM   19  C15 UNL     1      15.135  21.188  13.955  1.00  0.00     0.117 C 
HETATM   20  O2  UNL     1      14.243  19.498  15.333  1.00  0.00    -0.274 OA
ATOM     21  H2  UNL     1      13.908  22.670  15.803  1.00  0.00     0.163 HD
ENDBRANCH   9  17
ENDBRANCH   6   9
ENDBRANCH   1   5
BRANCH   1  22
HETATM   22  C16 UNL     1       9.227  18.377  17.043  1.00  0.00     0.244 C 
HETATM   23  O3  UNL     1       9.038  17.185  16.608  1.00  0.00    -0.271 OA
HETATM   24  N3  UNL     1       8.811  18.614  18.394  1.00  0.00    -0.327 N 
HETATM   25  C17 UNL     1       8.992  19.882  19.073  1.00  0.00     0.200 C 
HETATM   26  C19 UNL     1       8.167  17.632  19.223  1.00  0.00     0.189 C 
HETATM   27  S1  UNL     1       9.403  19.317  20.750  1.00  0.00    -0.147 SA
HETATM   28  C18 UNL     1       8.836  17.600  20.580  1.00  0.00     0.110 C 
BRANCH  26  29
HETATM   29  C20 UNL     1       6.703  17.781  19.296  1.00  0.00     0.247 C 
HETATM   30  O4  UNL     1       6.268  18.372  20.333  1.00  0.00    -0.271 OA
HETATM   31  N4  UNL     1       5.757  17.352  18.365  1.00  0.00    -0.310 N 
ATOM     32  H4  UNL     1       4.774  17.505  18.592  1.00  0.00     0.170 HD
BRANCH  31  33
HETATM   33  C21 UNL     1       6.050  16.721  17.127  1.00  0.00     0.124 A 
HETATM   34  C22 UNL     1       6.094  15.331  16.942  1.00  0.00     0.139 A 
HETATM   35  N5  UNL     1       6.375  15.044  15.670  1.00  0.00    -0.354 N 
HETATM   36  C23 UNL     1       6.516  13.742  15.040  1.00  0.00     0.156 C 
HETATM   37  C24 UNL     1       6.511  16.231  15.043  1.00  0.00     0.183 A 
HETATM   38  N6  UNL     1       6.315  17.226  15.920  1.00  0.00    -0.337 N 
ATOM     39  H6  UNL     1       6.362  18.221  15.697  1.00  0.00     0.168 HD
ENDBRANCH  31  33
ENDBRANCH  26  29
ENDBRANCH   1  22
TORSDOF 10
ENDMDL
MODEL 2
REMARK VINA RESULT: -8.836463953      3.521     10.218
REMARK  10 active torsions:
REMARK  status: ('A' for Active; 'I' for Inactive)
REMARK    1  A    between atoms: C2_2  and  C3_3 
REMARK    2  A    between atoms: C3_3  and  C4_4 
REMARK    3  A    between atoms: C4_4  and  N1_5 
REMARK    4  A    between atoms: C4_4  and  C16_22 
REMARK       I    between atoms: N1_5  and  C5_7 
REMARK    5  A    between atoms: C5_7  and  C6_9 
REMARK    6  A    between atoms: C6_9  and  C7_10 
REMARK    7  A    between atoms: C6_9  and  N2_17 
REMARK    8  A    between atoms: C7_10  and  C8_11 
REMARK       I    between atoms: N2_17  and  C14_19 
REMARK       I    between atoms: C16_22  and  N3_24 
REMARK    9  A    between atoms: C19_28  and  C20_29 
REMARK       I    between atoms: C20_29  and  N4_31 
REMARK   10  A    between atoms: N4_31  and  C21_33 
ROOT
HETATM    1  C4  UNL     1      15.578  21.372  16.297  1.00  0.00     0.176 C 
ENDROOT
BRANCH   1   2
HETATM    2  C3  UNL     1      16.140  21.223  14.883  1.00  0.00     0.034 C 
BRANCH   2   3
HETATM    3  C2  UNL     1      15.080  20.918  13.864  1.00  0.00    -0.002 C 
HETATM    4  C1  UNL     1      14.746  22.207  13.075  1.00  0.00     0.005 C 
ENDBRANCH   2   3
ENDBRANCH   1   2
BRANCH   1   5
HETATM    5  N1  UNL     1      14.177  20.982  16.377  1.00  0.00    -0.346 N 
HETATM    6  C5  UNL     1      13.592  19.975  17.130  1.00  0.00     0.241 C 
HETATM    7  O1  UNL     1      14.221  19.211  17.872  1.00  0.00    -0.271 OA
ATOM      8  H1  UNL     1      13.537  21.526  15.798  1.00  0.00     0.163 HD
BRANCH   6   9
HETATM    9  C6  UNL     1      12.089  19.761  17.067  1.00  0.00     0.177 C 
BRANCH   9  10
HETATM   10  C7  UNL     1      11.645  20.066  15.707  1.00  0.00     0.039 C 
BRANCH  10  11
HETATM   11  C8  UNL     1      10.682  19.180  15.000  1.00  0.00    -0.012 C 
HETATM   12  C9  UNL     1       9.323  19.022  15.542  1.00  0.00     0.005 C 
HETATM   13  C10 UNL     1       8.962  17.557  15.859  1.00  0.00     0.000 C 
HETATM   14  C11 UNL     1       9.042  16.898  14.496  1.00  0.00     0.000 C 
HETATM   15  C12 UNL     1      10.508  16.782  14.174  1.00  0.00     0.000 C 
HETATM   16  C13 UNL     1      11.366  17.872  14.646  1.00  0.00     0.005 C 
ENDBRANCH  10  11
ENDBRANCH   9  10
BRANCH   9  17
HETATM   17  N2  UNL     1      11.539  20.680  18.040  1.00  0.00    -0.348 N 
HETATM   18  C14 UNL     1      10.504  20.351  18.951  1.00  0.00     0.214 C 
HETATM   19  C15 UNL     1      10.010  21.377  19.916  1.00  0.00     0.117 C 
HETATM   20  O2  UNL     1       9.981  19.216  18.979  1.00  0.00    -0.274 OA
ATOM     21  H2  UNL     1      11.922  21.625  18.073  1.00  0.00     0.163 HD
ENDBRANCH   9  17
ENDBRANCH   6   9
ENDBRANCH   1   5
BRANCH   1  22
HETATM   22  C16 UNL     1      15.815  22.713  16.791  1.00  0.00     0.244 C 
HETATM   23  O3  UNL     1      16.244  23.566  15.935  1.00  0.00    -0.271 OA
HETATM   24  N3  UNL     1      15.627  23.213  18.121  1.00  0.00    -0.327 N 
HETATM   25  C17 UNL     1      15.101  22.412  19.208  1.00  0.00     0.200 C 
HETATM   26  C19 UNL     1      15.943  24.555  18.529  1.00  0.00     0.189 C 
HETATM   27  S1  UNL     1      14.082  23.639  20.077  1.00  0.00    -0.147 SA
HETATM   28  C18 UNL     1      14.784  25.130  19.313  1.00  0.00     0.110 C 
BRANCH  26  29
HETATM   29  C20 UNL     1      17.237  24.678  19.223  1.00  0.00     0.247 C 
HETATM   30  O4  UNL     1      17.318  24.069  20.335  1.00  0.00    -0.271 OA
HETATM   31  N4  UNL     1      18.367  25.379  18.799  1.00  0.00    -0.310 N 
ATOM     32  H4  UNL     1      19.173  25.391  19.424  1.00  0.00     0.170 HD
BRANCH  31  33
HETATM   33  C21 UNL     1      18.486  26.077  17.567  1.00  0.00     0.124 A 
HETATM   34  C22 UNL     1      18.779  27.445  17.462  1.00  0.00     0.139 A 
HETATM   35  N5  UNL     1      18.844  27.804  16.179  1.00  0.00    -0.354 N 
HETATM   36  C23 UNL     1      19.120  29.114  15.613  1.00  0.00     0.156 C 
HETATM   37  C24 UNL     1      18.597  26.685  15.466  1.00  0.00     0.183 A 
HETATM   38  N6  UNL     1      18.385  25.658  16.303  1.00  0.00    -0.337 N 
ATOM     39  H6  UNL     1      18.177  24.702  16.017  1.00  0.00     0.168 HD
ENDBRANCH  31  33
ENDBRANCH  26  29
ENDBRANCH   1  22
TORSDOF 10
ENDMDL
MODEL 3
REMARK VINA RESULT: -8.823653001      4.821      8.546
REMARK  10 active torsions:
REMARK  status: ('A' for Active; 'I' for Inactive)
REMARK    1  A    between atoms: C2_2  and  C3_3 
REMARK    2  A    between atoms: C3_3  and  C4_4 
REMARK    3  A    between atoms: C4_4  and  N1_5 
REMARK    4  A    between atoms: C4_4  and  C16_22 
REMARK       I    between atoms: N1_5  and  C5_7 
REMARK    5  A    between atoms: C5_7  and  C6_9 
REMARK    6  A    between atoms: C6_9  and  C7_10 
REMARK    7  A    between atoms: C6_9  and  N2_17 
REMARK    8  A    between atoms: C7_10  and  C8_11 
REMARK       I    between atoms: N2_17  and  C14_19 
REMARK       I    between atoms: C16_22  and  N3_24 
REMARK    9  A    between atoms: C19_28  and  C20_29 
REMARK       I    between atoms: C20_29  and  N4_31 
REMARK   10  A    between atoms: N4_31  and  C21_33 
ROOT
HETATM    1  C4  UNL     1      16.062  23.800  18.353  1.00  0.00     0.176 C 
ENDROOT
BRANCH   1   2
HETATM    2  C3  UNL     1      15.223  24.463  19.447  1.00  0.00     0.034 C 
BRANCH   2   3
HETATM    3  C2  UNL     1      15.822  24.304  20.814  1.00  0.00    -0.002 C 
HETATM    4  C1  UNL     1      16.473  25.640  21.245  1.00  0.00     0.005 C 
ENDBRANCH   2   3
ENDBRANCH   1   2
BRANCH   1   5
HETATM    5  N1  UNL     1      16.861  24.765  17.610  1.00  0.00    -0.346 N 
HETATM    6  C5  UNL     1      18.118  25.271  17.907  1.00  0.00     0.241 C 
HETATM    7  O1  UNL     1      18.768  24.965  18.913  1.00  0.00    -0.271 OA
ATOM      8  H1  UNL     1      16.437  25.118  16.752  1.00  0.00     0.163 HD
BRANCH   6   9
HETATM    9  C6  UNL     1      18.772  26.267  16.964  1.00  0.00     0.177 C 
BRANCH   9  10
HETATM   10  C7  UNL     1      18.725  27.586  17.594  1.00  0.00     0.039 C 
BRANCH  10  11
HETATM   11  C8  UNL     1      19.602  28.691  17.121  1.00  0.00    -0.012 C 
HETATM   12  C9  UNL     1      19.106  29.602  16.077  1.00  0.00     0.005 C 
HETATM   13  C10 UNL     1      20.006  29.640  14.826  1.00  0.00     0.000 C 
HETATM   14  C11 UNL     1      21.314  30.169  15.380  1.00  0.00     0.000 C 
HETATM   15  C12 UNL     1      21.929  29.035  16.157  1.00  0.00     0.000 C 
HETATM   16  C13 UNL     1      20.998  28.152  16.865  1.00  0.00     0.005 C 
ENDBRANCH  10  11
ENDBRANCH   9  10
BRANCH   9  17
HETATM   17  N2  UNL     1      17.981  26.211  15.753  1.00  0.00    -0.348 N 
HETATM   18  C14 UNL     1      18.523  26.254  14.444  1.00  0.00     0.214 C 
HETATM   19  C15 UNL     1      17.614  26.189  13.261  1.00  0.00     0.117 C 
HETATM   20  O2  UNL     1      19.753  26.344  14.238  1.00  0.00    -0.274 OA
ATOM     21  H2  UNL     1      16.968  26.136  15.849  1.00  0.00     0.163 HD
ENDBRANCH   9  17
ENDBRANCH   6   9
ENDBRANCH   1   5
BRANCH   1  22
HETATM   22  C16 UNL     1      15.219  22.993  17.495  1.00  0.00     0.244 C 
HETATM   23  O3  UNL     1      14.023  22.783  17.910  1.00  0.00    -0.271 OA
HETATM   24  N3  UNL     1      15.549  22.398  16.234  1.00  0.00    -0.327 N 
HETATM   25  C17 UNL     1      16.832  22.569  15.583  1.00  0.00     0.200 C 
HETATM   26  C19 UNL     1      14.655  21.564  15.478  1.00  0.00     0.189 C 
HETATM   27  S1  UNL     1      16.321  22.679  13.843  1.00  0.00    -0.147 SA
HETATM   28  C18 UNL     1      14.642  22.017  14.034  1.00  0.00     0.110 C 
BRANCH  26  29
HETATM   29  C20 UNL     1      14.908  20.122  15.637  1.00  0.00     0.247 C 
HETATM   30  O4  UNL     1      15.857  19.655  14.933  1.00  0.00    -0.271 OA
HETATM   31  N4  UNL     1      14.230  19.224  16.463  1.00  0.00    -0.310 N 
ATOM     32  H4  UNL     1      14.512  18.245  16.422  1.00  0.00     0.170 HD
BRANCH  31  33
HETATM   33  C21 UNL     1      13.178  19.564  17.355  1.00  0.00     0.124 A 
HETATM   34  C22 UNL     1      11.823  19.286  17.120  1.00  0.00     0.139 A 
HETATM   35  N5  UNL     1      11.082  19.707  18.145  1.00  0.00    -0.354 N 
HETATM   36  C23 UNL     1       9.641  19.623  18.322  1.00  0.00     0.156 C 
HETATM   37  C24 UNL     1      11.944  20.249  19.030  1.00  0.00     0.183 A 
HETATM   38  N6  UNL     1      13.194  20.159  18.551  1.00  0.00    -0.337 N 
ATOM     39  H6  UNL     1      14.030  20.495  19.028  1.00  0.00     0.168 HD
ENDBRANCH  31  33
ENDBRANCH  26  29
ENDBRANCH   1  22
TORSDOF 10
ENDMDL
MODEL 4
REMARK VINA RESULT: -8.811785637      2.432      9.012
REMARK  10 active torsions:
REMARK  status: ('A' for Active; 'I' for Inactive)
REMARK    1  A    between atoms: C2_2  and  C3_3 
REMARK    2  A    between atoms: C3_3  and  C4_4 
REMARK    3  A    between atoms: C4_4  and  N1_5 
REMARK    4  A    between atoms: C4_4  and  C16_22 
REMARK       I    between atoms: N1_5  and  C5_7 
REMARK    5  A    between atoms: C5_7  and  C6_9 
REMARK    6  A    between atoms: C6_9  and  C7_10 
REMARK    7  A    between atoms: C6_9  and  N2_17 
REMARK    8  A    between atoms: C7_10  and  C8_11 
REMARK       I    between atoms: N2_17  and  C14_19 
REMARK       I    between atoms: C16_22  and  N3_24 
REMARK    9  A    between atoms: C19_28  and  C20_29 
REMARK       I    between atoms: C20_29  and  N4_31 
REMARK   10  A    between atoms: N4_31  and  C21_33 
ROOT
HETATM    1  C4  UNL     1      11.361  17.485  15.447  1.00  0.00     0.176 C 
ENDROOT
BRANCH   1   2
HETATM    2  C3  UNL     1      10.953  17.393  13.975  1.00  0.00     0.034 C 
BRANCH   2   3
HETATM    3  C2  UNL     1      10.835  15.976  13.493  1.00  0.00    -0.002 C 
HETATM    4  C1  UNL     1       9.353  15.667  13.174  1.00  0.00     0.005 C 
ENDBRANCH   2   3
ENDBRANCH   1   2
BRANCH   1   5
HETATM    5  N1  UNL     1      10.269  17.135  16.344  1.00  0.00    -0.346 N 
HETATM    6  C5  UNL     1       8.938  17.524  16.296  1.00  0.00     0.241 C 
HETATM    7  O1  UNL     1       8.470  18.282  15.439  1.00  0.00    -0.271 OA
ATOM      8  H1  UNL     1      10.518  16.516  17.117  1.00  0.00     0.163 HD
BRANCH   6   9
HETATM    9  C6  UNL     1       7.964  17.011  17.343  1.00  0.00     0.177 C 
BRANCH   9  10
HETATM   10  C7  UNL     1       6.645  16.904  16.720  1.00  0.00     0.039 C 
BRANCH  10  11
HETATM   11  C8  UNL     1       6.047  15.575  16.420  1.00  0.00    -0.012 C 
HETATM   12  C9  UNL     1       6.857  14.567  15.718  1.00  0.00     0.005 C 
HETATM   13  C10 UNL     1       6.215  14.081  14.403  1.00  0.00     0.000 C 
HETATM   14  C11 UNL     1       4.925  13.447  14.884  1.00  0.00     0.000 C 
HETATM   15  C12 UNL     1       4.014  14.586  15.258  1.00  0.00     0.000 C 
HETATM   16  C13 UNL     1       4.656  15.766  15.846  1.00  0.00     0.005 C 
ENDBRANCH  10  11
ENDBRANCH   9  10
BRANCH   9  17
HETATM   17  N2  UNL     1       7.992  18.002  18.397  1.00  0.00    -0.348 N 
HETATM   18  C14 UNL     1       8.129  17.697  19.775  1.00  0.00     0.214 C 
HETATM   19  C15 UNL     1       8.147  18.799  20.781  1.00  0.00     0.117 C 
HETATM   20  O2  UNL     1       8.240  16.522  20.186  1.00  0.00    -0.274 OA
ATOM     21  H2  UNL     1       7.907  18.983  18.131  1.00  0.00     0.163 HD
ENDBRANCH   9  17
ENDBRANCH   6   9
ENDBRANCH   1   5
BRANCH   1  22
HETATM   22  C16 UNL     1      11.922  18.790  15.730  1.00  0.00     0.244 C 
HETATM   23  O3  UNL     1      12.182  19.528  14.713  1.00  0.00    -0.271 OA
HETATM   24  N3  UNL     1      12.222  19.368  17.006  1.00  0.00    -0.327 N 
HETATM   25  C17 UNL     1      11.947  18.706  18.266  1.00  0.00     0.200 C 
HETATM   26  C19 UNL     1      12.830  20.658  17.183  1.00  0.00     0.189 C 
HETATM   27  S1  UNL     1      11.424  20.114  19.287  1.00  0.00    -0.147 SA
HETATM   28  C18 UNL     1      12.058  21.442  18.222  1.00  0.00     0.110 C 
BRANCH  26  29
HETATM   29  C20 UNL     1      14.278  20.602  17.449  1.00  0.00     0.247 C 
HETATM   30  O4  UNL     1      14.607  20.090  18.564  1.00  0.00    -0.271 OA
HETATM   31  N4  UNL     1      15.313  21.044  16.624  1.00  0.00    -0.310 N 
ATOM     32  H4  UNL     1      16.265  20.963  16.982  1.00  0.00     0.170 HD
BRANCH  31  33
HETATM   33  C21 UNL     1      15.148  21.597  15.326  1.00  0.00     0.124 A 
HETATM   34  C22 UNL     1      15.752  22.787  14.894  1.00  0.00     0.139 A 
HETATM   35  N5  UNL     1      15.425  23.036  13.625  1.00  0.00    -0.354 N 
HETATM   36  C23 UNL     1      15.824  24.152  12.783  1.00  0.00     0.156 C 
HETATM   37  C24 UNL     1      14.622  22.021  13.243  1.00  0.00     0.183 A 
HETATM   38  N6  UNL     1      14.462  21.167  14.264  1.00  0.00    -0.337 N 
ATOM     39  H6  UNL     1      13.900  20.316  14.235  1.00  0.00     0.168 HD
ENDBRANCH  31  33
ENDBRANCH  26  29
ENDBRANCH   1  22
TORSDOF 10
ENDMDL
MODEL 5
REMARK VINA RESULT: -8.621574664      1.935      3.580
REMARK  10 active torsions:
REMARK  status: ('A' for Active; 'I' for Inactive)
REMARK    1  A    between atoms: C2_2  and  C3_3 
REMARK    2  A    between atoms: C3_3  and  C4_4 
REMARK    3  A    between atoms: C4_4  and  N1_5 
REMARK    4  A    between atoms: C4_4  and  C16_22 
REMARK       I    between atoms: N1_5  and  C5_7 
REMARK    5  A    between atoms: C5_7  and  C6_9 
REMARK    6  A    between atoms: C6_9  and  C7_10 
REMARK    7  A    between atoms: C6_9  and  N2_17 
REMARK    8  A    between atoms: C7_10  and  C8_11 
REMARK       I    between atoms: N2_17  and  C14_19 
REMARK       I    between atoms: C16_22  and  N3_24 
REMARK    9  A    between atoms: C19_28  and  C20_29 
REMARK       I    between atoms: C20_29  and  N4_31 
REMARK   10  A    between atoms: N4_31  and  C21_33 
ROOT
HETATM    1  C4  UNL     1      10.429  18.729  18.770  1.00  0.00     0.176 C 
ENDROOT
BRANCH   1   2
HETATM    2  C3  UNL     1       9.742  19.527  19.880  1.00  0.00     0.034 C 
BRANCH   2   3
HETATM    3  C2  UNL     1       9.602  18.747  21.155  1.00  0.00    -0.002 C 
HETATM    4  C1  UNL     1       8.249  17.995  21.148  1.00  0.00     0.005 C 
ENDBRANCH   2   3
ENDBRANCH   1   2
BRANCH   1   5
HETATM    5  N1  UNL     1      11.606  19.410  18.250  1.00  0.00    -0.346 N 
HETATM    6  C5  UNL     1      11.772  20.750  17.932  1.00  0.00     0.241 C 
HETATM    7  O1  UNL     1      10.882  21.602  18.040  1.00  0.00    -0.271 OA
ATOM      8  H1  UNL     1      12.423  18.819  18.098  1.00  0.00     0.163 HD
BRANCH   6   9
HETATM    9  C6  UNL     1      13.113  21.243  17.416  1.00  0.00     0.177 C 
BRANCH   9  10
HETATM   10  C7  UNL     1      13.358  22.569  17.984  1.00  0.00     0.039 C 
BRANCH  10  11
HETATM   11  C8  UNL     1      14.527  22.816  18.870  1.00  0.00    -0.012 C 
HETATM   12  C9  UNL     1      14.318  23.497  20.158  1.00  0.00     0.005 C 
HETATM   13  C10 UNL     1      15.152  24.786  20.304  1.00  0.00     0.000 C 
HETATM   14  C11 UNL     1      16.574  24.266  20.232  1.00  0.00     0.000 C 
HETATM   15  C12 UNL     1      16.818  23.915  18.788  1.00  0.00     0.000 C 
HETATM   16  C13 UNL     1      15.673  23.375  18.048  1.00  0.00     0.005 C 
ENDBRANCH  10  11
ENDBRANCH   9  10
BRANCH   9  17
HETATM   17  N2  UNL     1      12.967  21.284  15.977  1.00  0.00    -0.348 N 
HETATM   18  C14 UNL     1      14.044  21.162  15.062  1.00  0.00     0.214 C 
HETATM   19  C15 UNL     1      13.781  21.217  13.594  1.00  0.00     0.117 C 
HETATM   20  O2  UNL     1      15.223  21.004  15.445  1.00  0.00    -0.274 OA
ATOM     21  H2  UNL     1      12.029  21.409  15.596  1.00  0.00     0.163 HD
ENDBRANCH   9  17
ENDBRANCH   6   9
ENDBRANCH   1   5
BRANCH   1  22
HETATM   22  C16 UNL     1       9.476  18.387  17.735  1.00  0.00     0.244 C 
HETATM   23  O3  UNL     1       8.261  18.744  17.942  1.00  0.00    -0.271 OA
HETATM   24  N3  UNL     1       9.716  17.701  16.500  1.00  0.00    -0.327 N 
HETATM   25  C17 UNL     1      11.031  17.269  16.071  1.00  0.00     0.200 C 
HETATM   26  C19 UNL     1       8.689  17.360  15.555  1.00  0.00     0.189 C 
HETATM   27  S1  UNL     1      10.932  17.590  14.286  1.00  0.00    -0.147 SA
HETATM   28  C18 UNL     1       9.129  17.762  14.164  1.00  0.00     0.110 C 
BRANCH  26  29
HETATM   29  C20 UNL     1       8.238  15.960  15.644  1.00  0.00     0.247 C 
HETATM   30  O4  UNL     1       9.035  15.100  15.154  1.00  0.00    -0.271 OA
HETATM   31  N4  UNL     1       7.051  15.482  16.199  1.00  0.00    -0.310 N 
ATOM     32  H4  UNL     1       6.879  14.478  16.144  1.00  0.00     0.170 HD
BRANCH  31  33
HETATM   33  C21 UNL     1       6.062  16.279  16.836  1.00  0.00     0.124 A 
HETATM   34  C22 UNL     1       4.800  16.554  16.290  1.00  0.00     0.139 A 
HETATM   35  N5  UNL     1       4.090  17.311  17.128  1.00  0.00    -0.354 N 
HETATM   36  C23 UNL     1       2.741  17.827  16.969  1.00  0.00     0.156 C 
HETATM   37  C24 UNL     1       4.883  17.522  18.200  1.00  0.00     0.183 A 
HETATM   38  N6  UNL     1       6.058  16.902  18.017  1.00  0.00    -0.337 N 
ATOM     39  H6  UNL     1       6.832  16.906  18.681  1.00  0.00     0.168 HD
ENDBRANCH  31  33
ENDBRANCH  26  29
ENDBRANCH   1  22
TORSDOF 10
ENDMDL
