MODEL 1
REMARK VINA RESULT: -8.578748366      0.000      0.000
REMARK  13 active torsions:
REMARK  status: ('A' for Active; 'I' for Inactive)
REMARK    1  A    between atoms: N1_2  and  C2_3 
REMARK    2  A    between atoms: N1_2  and  S1_9 
REMARK    3  A    between atoms: S1_9  and  N2_12 
REMARK    4  A    between atoms: N2_12  and  C8_13 
REMARK    5  A    between atoms: N2_12  and  S2_21 
REMARK    6  A    between atoms: C8_13  and  C9_14 
REMARK    7  A    between atoms: C9_14  and  O3_15 
REMARK    8  A    between atoms: N3_17  and  O4_19 
REMARK    9  A    between atoms: S2_21  and  C11_25 
REMARK   10  A    between atoms: C11_25  and  C12_26 
REMARK   11  A    between atoms: C12_26  and  C13_27 
REMARK   12  A    between atoms: C13_27  and  C14_28 
REMARK   13  A    between atoms: C14_28  and  C15_29 
ROOT
HETATM    1  S2  UNL     1      13.368  21.238  15.456  1.00  0.00     0.136 S 
HETATM    2  O5  UNL     1      14.636  20.220  15.831  1.00  0.00    -0.234 OA
HETATM    3  C10 UNL     1      14.468  22.471  14.318  1.00  0.00     0.173 C 
HETATM    4  N4  UNL     1      15.096  23.206  13.647  1.00  0.00    -0.181 NA
ENDROOT
BRANCH   1   5
HETATM    5  N2  UNL     1      13.380  21.650  17.241  1.00  0.00    -0.177 N 
BRANCH   5   6
HETATM    6  S1  UNL     1      11.940  21.756  18.087  1.00  0.00     0.334 S 
HETATM    7  O1  UNL     1      12.257  22.400  19.437  1.00  0.00    -0.181 OA
HETATM    8  O2  UNL     1      10.964  22.717  17.443  1.00  0.00    -0.181 OA
BRANCH   6   9
HETATM    9  N1  UNL     1      11.191  20.252  18.283  1.00  0.00    -0.293 N 
HETATM   10  C1  UNL     1      12.039  19.146  18.543  1.00  0.00     0.165 C 
BRANCH   9  11
HETATM   11  C2  UNL     1       9.938  20.286  18.994  1.00  0.00     0.097 C 
HETATM   12  C3  UNL     1      10.190  20.094  20.438  1.00  0.00     0.026 C 
HETATM   13  C4  UNL     1       9.514  18.913  21.075  1.00  0.00     0.002 C 
HETATM   14  C5  UNL     1       8.084  18.834  20.555  1.00  0.00     0.000 C 
HETATM   15  C6  UNL     1       8.234  18.402  19.114  1.00  0.00     0.002 C 
HETATM   16  C7  UNL     1       9.014  19.361  18.306  1.00  0.00     0.026 C 
ENDBRANCH   9  11
ENDBRANCH   6   9
ENDBRANCH   5   6
BRANCH   5  17
HETATM   17  C8  UNL     1      14.579  21.856  17.919  1.00  0.00     0.178 C 
BRANCH  17  18
HETATM   18  C9  UNL     1      15.175  23.187  17.830  1.00  0.00     0.177 C 
HETATM   19  N3  UNL     1      16.335  23.378  17.311  1.00  0.00    -0.246 N 
ATOM     20  H3  UNL     1      16.831  22.558  16.960  1.00  0.00     0.196 HD
BRANCH  18  21
HETATM   21  O3  UNL     1      14.479  24.278  18.315  1.00  0.00    -0.344 OA
ATOM     22  H3  UNL     1      14.552  25.115  17.871  1.00  0.00     0.219 HD
ENDBRANCH  18  21
BRANCH  19  23
HETATM   23  O4  UNL     1      16.953  24.573  17.191  1.00  0.00    -0.288 OA
ATOM     24  H4  UNL     1      17.703  24.752  16.636  1.00  0.00     0.244 HD
ENDBRANCH  19  23
ENDBRANCH  17  18
ENDBRANCH   5  17
ENDBRANCH   1   5
BRANCH   1  25
HETATM   25  C11 UNL     1      12.454  19.933  14.559  1.00  0.00     0.134 C 
BRANCH  25  26
HETATM   26  C12 UNL     1      11.117  19.373  14.997  1.00  0.00     0.014 C 
BRANCH  26  27
HETATM   27  C13 UNL     1      10.959  17.907  14.922  1.00  0.00     0.002 C 
BRANCH  27  28
HETATM   28  C14 UNL     1       9.939  17.428  13.948  1.00  0.00     0.011 C 
BRANCH  28  29
HETATM   29  C15 UNL     1       8.688  16.980  14.623  1.00  0.00    -0.024 C 
HETATM   30  C16 UNL     1       8.059  15.780  13.935  1.00  0.00     0.011 C 
HETATM   31  C17 UNL     1       7.626  14.824  14.994  1.00  0.00     0.007 C 
HETATM   32  C18 UNL     1       7.751  15.628  16.286  1.00  0.00     0.004 C 
HETATM   33  C19 UNL     1       6.596  16.590  16.437  1.00  0.00     0.118 C 
HETATM   34  C21 UNL     1       9.018  16.411  16.009  1.00  0.00     0.017 C 
HETATM   35  N5  UNL     1       6.441  17.475  15.328  1.00  0.00    -0.420 N 
HETATM   36  C20 UNL     1       7.659  18.048  14.837  1.00  0.00     0.123 C 
ATOM     37  H5  UNL     1       5.532  17.683  14.916  1.00  0.00     0.153 HD
ENDBRANCH  28  29
ENDBRANCH  27  28
ENDBRANCH  26  27
ENDBRANCH  25  26
ENDBRANCH   1  25
TORSDOF 13
ENDMDL
MODEL 2
REMARK VINA RESULT: -8.458657564      0.999      1.399
REMARK  13 active torsions:
REMARK  status: ('A' for Active; 'I' for Inactive)
REMARK    1  A    between atoms: N1_2  and  C2_3 
REMARK    2  A    between atoms: N1_2  and  S1_9 
REMARK    3  A    between atoms: S1_9  and  N2_12 
REMARK    4  A    between atoms: N2_12  and  C8_13 
REMARK    5  A    between atoms: N2_12  and  S2_21 
REMARK    6  A    between atoms: C8_13  and  C9_14 
REMARK    7  A    between atoms: C9_14  and  O3_15 
REMARK    8  A    between atoms: N3_17  and  O4_19 
REMARK    9  A    between atoms: S2_21  and  C11_25 
REMARK   10  A    between atoms: C11_25  and  C12_26 
REMARK   11  A    between atoms: C12_26  and  C13_27 
REMARK   12  A    between atoms: C13_27  and  C14_28 
REMARK   13  A    between atoms: C14_28  and  C15_29 
ROOT
HETATM    1  S2  UNL     1      12.992  20.446  15.641  1.00  0.00     0.136 S 
HETATM    2  O5  UNL     1      14.514  19.840  15.953  1.00  0.00    -0.234 OA
HETATM    3  C10 UNL     1      13.590  21.654  14.155  1.00  0.00     0.173 C 
HETATM    4  N4  UNL     1      13.920  22.369  13.281  1.00  0.00    -0.181 NA
ENDROOT
BRANCH   1   5
HETATM    5  N2  UNL     1      13.118  21.188  17.311  1.00  0.00    -0.177 N 
BRANCH   5   6
HETATM    6  S1  UNL     1      11.735  21.465  18.212  1.00  0.00     0.334 S 
HETATM    7  O1  UNL     1      12.165  22.203  19.480  1.00  0.00    -0.181 OA
HETATM    8  O2  UNL     1      10.789  22.429  17.530  1.00  0.00    -0.181 OA
BRANCH   6   9
HETATM    9  N1  UNL     1      10.906  20.039  18.582  1.00  0.00    -0.293 N 
HETATM   10  C1  UNL     1      11.690  18.873  18.766  1.00  0.00     0.165 C 
BRANCH   9  11
HETATM   11  C2  UNL     1       9.778  20.204  19.464  1.00  0.00     0.097 C 
HETATM   12  C3  UNL     1      10.115  19.656  20.795  1.00  0.00     0.026 C 
HETATM   13  C4  UNL     1       9.229  18.551  21.298  1.00  0.00     0.002 C 
HETATM   14  C5  UNL     1       7.782  18.911  20.990  1.00  0.00     0.000 C 
HETATM   15  C6  UNL     1       7.674  18.775  19.488  1.00  0.00     0.002 C 
HETATM   16  C7  UNL     1       8.587  19.681  18.764  1.00  0.00     0.026 C 
ENDBRANCH   9  11
ENDBRANCH   6   9
ENDBRANCH   5   6
BRANCH   5  17
HETATM   17  C8  UNL     1      14.358  21.506  17.860  1.00  0.00     0.178 C 
BRANCH  17  18
HETATM   18  C9  UNL     1      14.963  22.771  17.450  1.00  0.00     0.177 C 
HETATM   19  N3  UNL     1      15.956  22.816  16.634  1.00  0.00    -0.246 N 
ATOM     20  H3  UNL     1      16.311  21.927  16.281  1.00  0.00     0.196 HD
BRANCH  18  21
HETATM   21  O3  UNL     1      14.461  23.959  17.946  1.00  0.00    -0.344 OA
ATOM     22  H3  UNL     1      14.059  24.582  17.352  1.00  0.00     0.219 HD
ENDBRANCH  18  21
BRANCH  19  23
HETATM   23  O4  UNL     1      16.569  23.941  16.207  1.00  0.00    -0.288 OA
ATOM     24  H4  UNL     1      16.959  24.064  15.350  1.00  0.00     0.244 HD
ENDBRANCH  19  23
ENDBRANCH  17  18
ENDBRANCH   5  17
ENDBRANCH   1   5
BRANCH   1  25
HETATM   25  C11 UNL     1      12.339  18.817  15.127  1.00  0.00     0.134 C 
BRANCH  25  26
HETATM   26  C12 UNL     1      10.966  18.598  14.527  1.00  0.00     0.014 C 
BRANCH  26  27
HETATM   27  C13 UNL     1       9.811  18.961  15.371  1.00  0.00     0.002 C 
BRANCH  27  28
HETATM   28  C14 UNL     1       8.483  18.548  14.839  1.00  0.00     0.011 C 
BRANCH  28  29
HETATM   29  C15 UNL     1       8.172  17.124  15.152  1.00  0.00    -0.024 C 
HETATM   30  C16 UNL     1       8.754  16.687  16.486  1.00  0.00     0.011 C 
HETATM   31  C17 UNL     1       7.715  15.886  17.195  1.00  0.00     0.007 C 
HETATM   32  C18 UNL     1       6.655  15.633  16.126  1.00  0.00     0.004 C 
HETATM   33  C19 UNL     1       7.095  14.544  15.177  1.00  0.00     0.118 C 
HETATM   34  C21 UNL     1       6.665  16.962  15.399  1.00  0.00     0.017 C 
HETATM   35  N5  UNL     1       8.356  14.800  14.559  1.00  0.00    -0.420 N 
HETATM   36  C20 UNL     1       8.536  16.140  14.083  1.00  0.00     0.123 C 
ATOM     37  H5  UNL     1       9.075  14.083  14.463  1.00  0.00     0.153 HD
ENDBRANCH  28  29
ENDBRANCH  27  28
ENDBRANCH  26  27
ENDBRANCH  25  26
ENDBRANCH   1  25
TORSDOF 13
ENDMDL
MODEL 3
REMARK VINA RESULT: -8.457496696      2.066      5.000
REMARK  13 active torsions:
REMARK  status: ('A' for Active; 'I' for Inactive)
REMARK    1  A    between atoms: N1_2  and  C2_3 
REMARK    2  A    between atoms: N1_2  and  S1_9 
REMARK    3  A    between atoms: S1_9  and  N2_12 
REMARK    4  A    between atoms: N2_12  and  C8_13 
REMARK    5  A    between atoms: N2_12  and  S2_21 
REMARK    6  A    between atoms: C8_13  and  C9_14 
REMARK    7  A    between atoms: C9_14  and  O3_15 
REMARK    8  A    between atoms: N3_17  and  O4_19 
REMARK    9  A    between atoms: S2_21  and  C11_25 
REMARK   10  A    between atoms: C11_25  and  C12_26 
REMARK   11  A    between atoms: C12_26  and  C13_27 
REMARK   12  A    between atoms: C13_27  and  C14_28 
REMARK   13  A    between atoms: C14_28  and  C15_29 
ROOT
HETATM    1  S2  UNL     1      11.261  19.957  15.906  1.00  0.00     0.136 S 
HETATM    2  O5  UNL     1      12.241  18.645  16.222  1.00  0.00    -0.234 OA
HETATM    3  C10 UNL     1      12.631  20.936  14.815  1.00  0.00     0.173 C 
HETATM    4  N4  UNL     1      13.421  21.526  14.173  1.00  0.00    -0.181 NA
ENDROOT
BRANCH   1   5
HETATM    5  N2  UNL     1      11.369  20.270  17.707  1.00  0.00    -0.177 N 
BRANCH   5   6
HETATM    6  S1  UNL     1      11.668  21.817  18.273  1.00  0.00     0.334 S 
HETATM    7  O1  UNL     1      11.304  22.785  17.147  1.00  0.00    -0.181 OA
HETATM    8  O2  UNL     1      10.740  22.205  19.403  1.00  0.00    -0.181 OA
BRANCH   6   9
HETATM    9  N1  UNL     1      13.270  22.026  18.772  1.00  0.00    -0.293 N 
HETATM   10  C1  UNL     1      14.198  21.032  18.374  1.00  0.00     0.165 C 
BRANCH   9  11
HETATM   11  C2  UNL     1      13.738  23.390  18.754  1.00  0.00     0.097 C 
HETATM   12  C3  UNL     1      14.954  23.477  17.917  1.00  0.00     0.026 C 
HETATM   13  C4  UNL     1      16.191  23.986  18.602  1.00  0.00     0.002 C 
HETATM   14  C5  UNL     1      15.808  25.171  19.479  1.00  0.00     0.000 C 
HETATM   15  C6  UNL     1      15.020  24.557  20.614  1.00  0.00     0.002 C 
HETATM   16  C7  UNL     1      13.806  23.853  20.155  1.00  0.00     0.026 C 
ENDBRANCH   9  11
ENDBRANCH   6   9
ENDBRANCH   5   6
BRANCH   5  17
HETATM   17  C8  UNL     1      11.180  19.240  18.625  1.00  0.00     0.178 C 
BRANCH  17  18
HETATM   18  C9  UNL     1       9.815  19.004  19.089  1.00  0.00     0.177 C 
HETATM   19  N3  UNL     1       8.833  19.744  18.713  1.00  0.00    -0.246 N 
ATOM     20  H3  UNL     1       9.042  20.510  18.073  1.00  0.00     0.196 HD
BRANCH  18  21
HETATM   21  O3  UNL     1       9.562  17.959  19.957  1.00  0.00    -0.344 OA
ATOM     22  H3  UNL     1       8.704  17.552  19.962  1.00  0.00     0.219 HD
ENDBRANCH  18  21
BRANCH  19  23
HETATM   23  O4  UNL     1       7.546  19.592  19.096  1.00  0.00    -0.288 OA
ATOM     24  H4  UNL     1       6.884  19.106  18.620  1.00  0.00     0.244 HD
ENDBRANCH  19  23
ENDBRANCH  17  18
ENDBRANCH   5  17
ENDBRANCH   1   5
BRANCH   1  25
HETATM   25  C11 UNL     1      10.058  18.957  14.958  1.00  0.00     0.134 C 
BRANCH  25  26
HETATM   26  C12 UNL     1      10.374  17.623  14.316  1.00  0.00     0.014 C 
BRANCH  26  27
HETATM   27  C13 UNL     1       9.223  16.825  13.850  1.00  0.00     0.002 C 
BRANCH  27  28
HETATM   28  C14 UNL     1       8.873  15.658  14.707  1.00  0.00     0.011 C 
BRANCH  28  29
HETATM   29  C15 UNL     1       7.842  15.999  15.727  1.00  0.00    -0.024 C 
HETATM   30  C16 UNL     1       6.949  17.146  15.283  1.00  0.00     0.011 C 
HETATM   31  C17 UNL     1       5.544  16.791  15.633  1.00  0.00     0.007 C 
HETATM   32  C18 UNL     1       5.690  15.570  16.538  1.00  0.00     0.004 C 
HETATM   33  C19 UNL     1       6.118  15.976  17.928  1.00  0.00     0.118 C 
HETATM   34  C21 UNL     1       6.834  14.849  15.855  1.00  0.00     0.017 C 
HETATM   35  N5  UNL     1       7.320  16.745  17.954  1.00  0.00    -0.420 N 
HETATM   36  C20 UNL     1       8.367  16.259  17.105  1.00  0.00     0.123 C 
ATOM     37  H5  UNL     1       7.425  17.579  18.532  1.00  0.00     0.153 HD
ENDBRANCH  28  29
ENDBRANCH  27  28
ENDBRANCH  26  27
ENDBRANCH  25  26
ENDBRANCH   1  25
TORSDOF 13
ENDMDL
MODEL 4
REMARK VINA RESULT: -8.237054553      4.456      8.268
REMARK  13 active torsions:
REMARK  status: ('A' for Active; 'I' for Inactive)
REMARK    1  A    between atoms: N1_2  and  C2_3 
REMARK    2  A    between atoms: N1_2  and  S1_9 
REMARK    3  A    between atoms: S1_9  and  N2_12 
REMARK    4  A    between atoms: N2_12  and  C8_13 
REMARK    5  A    between atoms: N2_12  and  S2_21 
REMARK    6  A    between atoms: C8_13  and  C9_14 
REMARK    7  A    between atoms: C9_14  and  O3_15 
REMARK    8  A    between atoms: N3_17  and  O4_19 
REMARK    9  A    between atoms: S2_21  and  C11_25 
REMARK   10  A    between atoms: C11_25  and  C12_26 
REMARK   11  A    between atoms: C12_26  and  C13_27 
REMARK   12  A    between atoms: C13_27  and  C14_28 
REMARK   13  A    between atoms: C14_28  and  C15_29 
ROOT
HETATM    1  S2  UNL     1       7.817  16.358  15.908  1.00  0.00     0.136 S 
HETATM    2  O5  UNL     1       7.077  17.575  15.040  1.00  0.00    -0.234 OA
HETATM    3  C10 UNL     1       7.497  14.940  14.525  1.00  0.00     0.173 C 
HETATM    4  N4  UNL     1       7.318  14.095  13.727  1.00  0.00    -0.181 NA
ENDROOT
BRANCH   1   5
HETATM    5  N2  UNL     1       6.437  16.580  17.092  1.00  0.00    -0.177 N 
BRANCH   5   6
HETATM    6  S1  UNL     1       6.731  16.545  18.739  1.00  0.00     0.334 S 
HETATM    7  O1  UNL     1       5.479  15.977  19.408  1.00  0.00    -0.181 OA
HETATM    8  O2  UNL     1       7.821  15.562  19.107  1.00  0.00    -0.181 OA
BRANCH   6   9
HETATM    9  N1  UNL     1       7.123  18.069  19.360  1.00  0.00    -0.293 N 
HETATM   10  C1  UNL     1       6.317  18.553  20.420  1.00  0.00     0.165 C 
BRANCH   9  11
HETATM   11  C2  UNL     1       8.536  18.344  19.446  1.00  0.00     0.097 C 
HETATM   12  C3  UNL     1       8.947  18.349  20.866  1.00  0.00     0.026 C 
HETATM   13  C4  UNL     1       9.561  19.625  21.370  1.00  0.00     0.002 C 
HETATM   14  C5  UNL     1      10.528  20.148  20.316  1.00  0.00     0.000 C 
HETATM   15  C6  UNL     1       9.636  20.622  19.192  1.00  0.00     0.002 C 
HETATM   16  C7  UNL     1       8.804  19.542  18.625  1.00  0.00     0.026 C 
ENDBRANCH   9  11
ENDBRANCH   6   9
ENDBRANCH   5   6
BRANCH   5  17
HETATM   17  C8  UNL     1       5.138  16.804  16.642  1.00  0.00     0.178 C 
BRANCH  17  18
HETATM   18  C9  UNL     1       4.370  15.636  16.219  1.00  0.00     0.177 C 
HETATM   19  N3  UNL     1       4.590  14.466  16.705  1.00  0.00    -0.246 N 
ATOM     20  H3  UNL     1       5.328  14.381  17.404  1.00  0.00     0.196 HD
BRANCH  18  21
HETATM   21  O3  UNL     1       3.376  15.781  15.270  1.00  0.00    -0.344 OA
ATOM     22  H3  UNL     1       2.946  15.010  14.920  1.00  0.00     0.219 HD
ENDBRANCH  18  21
BRANCH  19  23
HETATM   23  O4  UNL     1       3.925  13.339  16.368  1.00  0.00    -0.288 OA
ATOM     24  H4  UNL     1       3.959  12.517  16.842  1.00  0.00     0.244 HD
ENDBRANCH  19  23
ENDBRANCH  17  18
ENDBRANCH   5  17
ENDBRANCH   1   5
BRANCH   1  25
HETATM   25  C11 UNL     1       9.453  17.173  15.847  1.00  0.00     0.134 C 
BRANCH  25  26
HETATM   26  C12 UNL     1       9.894  18.123  14.753  1.00  0.00     0.014 C 
BRANCH  26  27
HETATM   27  C13 UNL     1      11.214  18.759  14.925  1.00  0.00     0.002 C 
BRANCH  27  28
HETATM   28  C14 UNL     1      11.209  20.032  15.699  1.00  0.00     0.011 C 
BRANCH  28  29
HETATM   29  C15 UNL     1      12.466  20.221  16.475  1.00  0.00    -0.024 C 
HETATM   30  C16 UNL     1      13.695  20.265  15.582  1.00  0.00     0.011 C 
HETATM   31  C17 UNL     1      14.569  21.372  16.065  1.00  0.00     0.007 C 
HETATM   32  C18 UNL     1      13.963  21.757  17.411  1.00  0.00     0.004 C 
HETATM   33  C19 UNL     1      14.340  20.758  18.480  1.00  0.00     0.118 C 
HETATM   34  C21 UNL     1      12.485  21.622  17.103  1.00  0.00     0.017 C 
HETATM   35  N5  UNL     1      13.988  19.414  18.155  1.00  0.00    -0.420 N 
HETATM   36  C20 UNL     1      12.679  19.250  17.596  1.00  0.00     0.123 C 
ATOM     37  H5  UNL     1      14.620  18.629  18.310  1.00  0.00     0.153 HD
ENDBRANCH  28  29
ENDBRANCH  27  28
ENDBRANCH  26  27
ENDBRANCH  25  26
ENDBRANCH   1  25
TORSDOF 13
ENDMDL
MODEL 5
REMARK VINA RESULT: -8.198461947      2.898      8.273
REMARK  13 active torsions:
REMARK  status: ('A' for Active; 'I' for Inactive)
REMARK    1  A    between atoms: N1_2  and  C2_3 
REMARK    2  A    between atoms: N1_2  and  S1_9 
REMARK    3  A    between atoms: S1_9  and  N2_12 
REMARK    4  A    between atoms: N2_12  and  C8_13 
REMARK    5  A    between atoms: N2_12  and  S2_21 
REMARK    6  A    between atoms: C8_13  and  C9_14 
REMARK    7  A    between atoms: C9_14  and  O3_15 
REMARK    8  A    between atoms: N3_17  and  O4_19 
REMARK    9  A    between atoms: S2_21  and  C11_25 
REMARK   10  A    between atoms: C11_25  and  C12_26 
REMARK   11  A    between atoms: C12_26  and  C13_27 
REMARK   12  A    between atoms: C13_27  and  C14_28 
REMARK   13  A    between atoms: C14_28  and  C15_29 
ROOT
HETATM    1  S2  UNL     1       9.857  19.835  18.539  1.00  0.00     0.136 S 
HETATM    2  O5  UNL     1      10.756  19.013  19.677  1.00  0.00    -0.234 OA
HETATM    3  C10 UNL     1       8.082  19.347  19.336  1.00  0.00     0.173 C 
HETATM    4  N4  UNL     1       7.031  19.071  19.788  1.00  0.00    -0.181 NA
ENDROOT
BRANCH   1   5
HETATM    5  N2  UNL     1      10.517  18.600  17.357  1.00  0.00    -0.177 N 
BRANCH   5   6
HETATM    6  S1  UNL     1       9.636  18.190  15.994  1.00  0.00     0.334 S 
HETATM    7  O1  UNL     1       8.663  19.338  15.725  1.00  0.00    -0.181 OA
HETATM    8  O2  UNL     1      10.495  18.138  14.749  1.00  0.00    -0.181 OA
BRANCH   6   9
HETATM    9  N1  UNL     1       8.820  16.719  16.168  1.00  0.00    -0.293 N 
HETATM   10  C1  UNL     1       8.502  16.317  17.489  1.00  0.00     0.165 C 
BRANCH   9  11
HETATM   11  C2  UNL     1       7.829  16.452  15.156  1.00  0.00     0.097 C 
HETATM   12  C3  UNL     1       6.643  15.834  15.786  1.00  0.00     0.026 C 
HETATM   13  C4  UNL     1       6.258  14.473  15.276  1.00  0.00     0.002 C 
HETATM   14  C5  UNL     1       6.376  14.473  13.757  1.00  0.00     0.000 C 
HETATM   15  C6  UNL     1       7.864  14.525  13.497  1.00  0.00     0.002 C 
HETATM   16  C7  UNL     1       8.502  15.734  14.055  1.00  0.00     0.026 C 
ENDBRANCH   9  11
ENDBRANCH   6   9
ENDBRANCH   5   6
BRANCH   5  17
HETATM   17  C8  UNL     1      11.760  18.008  17.562  1.00  0.00     0.178 C 
BRANCH  17  18
HETATM   18  C9  UNL     1      12.936  18.864  17.421  1.00  0.00     0.177 C 
HETATM   19  N3  UNL     1      13.684  19.161  18.424  1.00  0.00    -0.246 N 
ATOM     20  H3  UNL     1      13.424  18.774  19.332  1.00  0.00     0.196 HD
BRANCH  18  21
HETATM   21  O3  UNL     1      13.262  19.375  16.179  1.00  0.00    -0.344 OA
ATOM     22  H3  UNL     1      13.365  18.784  15.442  1.00  0.00     0.219 HD
ENDBRANCH  18  21
BRANCH  19  23
HETATM   23  O4  UNL     1      14.784  19.943  18.377  1.00  0.00    -0.288 OA
ATOM     24  H4  UNL     1      15.627  19.687  18.021  1.00  0.00     0.244 HD
ENDBRANCH  19  23
ENDBRANCH  17  18
ENDBRANCH   5  17
ENDBRANCH   1   5
BRANCH   1  25
HETATM   25  C11 UNL     1      10.530  21.461  19.035  1.00  0.00     0.134 C 
BRANCH  25  26
HETATM   26  C12 UNL     1      11.597  22.214  18.268  1.00  0.00     0.014 C 
BRANCH  26  27
HETATM   27  C13 UNL     1      12.775  22.657  19.039  1.00  0.00     0.002 C 
BRANCH  27  28
HETATM   28  C14 UNL     1      13.583  23.733  18.399  1.00  0.00     0.011 C 
BRANCH  28  29
HETATM   29  C15 UNL     1      14.637  24.259  19.311  1.00  0.00    -0.024 C 
HETATM   30  C16 UNL     1      16.036  23.879  18.856  1.00  0.00     0.011 C 
HETATM   31  C17 UNL     1      16.905  25.083  19.004  1.00  0.00     0.007 C 
HETATM   32  C18 UNL     1      16.053  26.051  19.819  1.00  0.00     0.004 C 
HETATM   33  C19 UNL     1      16.042  25.664  21.279  1.00  0.00     0.118 C 
HETATM   34  C21 UNL     1      14.684  25.791  19.224  1.00  0.00     0.017 C 
HETATM   35  N5  UNL     1      15.609  24.324  21.511  1.00  0.00    -0.420 N 
HETATM   36  C20 UNL     1      14.457  23.921  20.760  1.00  0.00     0.123 C 
ATOM     37  H5  UNL     1      16.084  23.699  22.163  1.00  0.00     0.153 HD
ENDBRANCH  28  29
ENDBRANCH  27  28
ENDBRANCH  26  27
ENDBRANCH  25  26
ENDBRANCH   1  25
TORSDOF 13
ENDMDL
