MODEL 1
REMARK VINA RESULT: -8.394551386      0.000      0.000
REMARK  13 active torsions:
REMARK  status: ('A' for Active; 'I' for Inactive)
REMARK    1  A    between atoms: O1_2  and  C2_3 
REMARK    2  A    between atoms: C4_5  and  C5_6 
REMARK       I    between atoms: N2_8  and  C6_10 
REMARK       I    between atoms: C6_10  and  N3_12 
REMARK    3  A    between atoms: N3_12  and  C7_14 
REMARK    4  A    between atoms: C7_14  and  C8_15 
REMARK    5  A    between atoms: C8_15  and  C9_16 
REMARK    6  A    between atoms: C9_16  and  C10_17 
REMARK    7  A    between atoms: C10_17  and  C11_18 
REMARK    8  A    between atoms: C11_18  and  C12_19 
REMARK    9  A    between atoms: C14_23  and  N5_24 
REMARK   10  A    between atoms: N5_24  and  N6_26 
REMARK   11  A    between atoms: N7_29  and  C15_30 
REMARK   12  A    between atoms: C20_35  and  O5_36 
REMARK   13  A    between atoms: C22_38  and  O6_39 
ROOT
HETATM    1  C5  UNL     1       8.383  15.749  15.663  1.00  0.00     0.130 C 
HETATM    2  N1  UNL     1       8.221  14.485  14.930  1.00  0.00    -0.082 NA
HETATM    3  N2  UNL     1       9.263  16.521  15.296  1.00  0.00    -0.296 N 
ATOM      4  H2  UNL     1       9.736  16.098  14.497  1.00  0.00     0.171 HD
HETATM    5  C6  UNL     1       9.852  17.725  15.542  1.00  0.00     0.321 C 
HETATM    6  O2  UNL     1       9.329  18.786  15.030  1.00  0.00    -0.247 OA
HETATM    7  N3  UNL     1      11.017  17.931  16.325  1.00  0.00    -0.343 N 
ATOM      8  H3  UNL     1      11.440  17.100  16.738  1.00  0.00     0.164 HD
ENDROOT
BRANCH   7   9
HETATM    9  C7  UNL     1      11.661  19.180  16.597  1.00  0.00     0.124 C 
BRANCH   9  10
HETATM   10  C8  UNL     1      12.787  19.512  15.670  1.00  0.00     0.020 C 
BRANCH  10  11
HETATM   11  C9  UNL     1      12.428  20.675  14.778  1.00  0.00     0.002 C 
BRANCH  11  12
HETATM   12  C10 UNL     1      13.564  21.628  14.559  1.00  0.00     0.002 C 
BRANCH  12  13
HETATM   13  C11 UNL     1      14.693  21.436  15.585  1.00  0.00     0.028 C 
BRANCH  13  14
HETATM   14  C12 UNL     1      15.075  22.762  16.101  1.00  0.00     0.121 C 
HETATM   15  C13 UNL     1      16.589  22.884  16.027  1.00  0.00     0.164 C 
HETATM   16  N4  UNL     1      16.858  23.920  16.966  1.00  0.00    -0.223 N 
HETATM   17  C14 UNL     1      15.891  23.981  17.834  1.00  0.00     0.696 C 
ATOM     18  H4  UNL     1      17.682  24.521  16.959  1.00  0.00     0.177 HD
HETATM   19  N7  UNL     1      14.895  22.980  17.528  1.00  0.00    -0.202 N 
BRANCH  17  20
HETATM   20  N5  UNL     1      15.931  24.938  18.873  1.00  0.00    -0.072 N 
ATOM     21  H5  UNL     1      15.113  25.515  19.068  1.00  0.00     0.212 HD
BRANCH  20  22
HETATM   22  N6  UNL     1      17.081  25.091  19.625  1.00  0.00    -0.024 N 
HETATM   23  O3  UNL     1      17.080  24.729  20.808  1.00  0.00    -0.516 OA
HETATM   24  O4  UNL     1      18.248  25.633  19.132  1.00  0.00    -0.516 OA
ENDBRANCH  20  22
ENDBRANCH  17  20
BRANCH  19  25
HETATM   25  C15 UNL     1      13.979  22.378  18.462  1.00  0.00     0.039 C 
HETATM   26  C16 UNL     1      12.532  22.565  18.024  1.00  0.00     0.038 C 
HETATM   27  C17 UNL     1      14.355  20.929  18.641  1.00  0.00     0.038 C 
HETATM   28  C18 UNL     1      14.040  22.996  19.853  1.00  0.00     0.038 C 
ENDBRANCH  19  25
ENDBRANCH  13  14
ENDBRANCH  12  13
ENDBRANCH  11  12
ENDBRANCH  10  11
ENDBRANCH   9  10
ENDBRANCH   7   9
BRANCH   1  29
HETATM   29  C4  UNL     1       7.425  15.884  16.763  1.00  0.00     0.011 A 
HETATM   30  C3  UNL     1       7.870  15.886  18.068  1.00  0.00     0.054 A 
HETATM   31  C2  UNL     1       6.969  16.024  19.137  1.00  0.00     0.105 A 
HETATM   32  C22 UNL     1       5.628  16.158  18.868  1.00  0.00     0.135 A 
HETATM   33  C20 UNL     1       5.148  16.160  17.559  1.00  0.00     0.105 A 
HETATM   34  C19 UNL     1       6.057  16.023  16.537  1.00  0.00     0.054 A 
BRANCH  31  35
HETATM   35  O1  UNL     1       7.390  16.029  20.454  1.00  0.00    -0.353 OA
HETATM   36  C1  UNL     1       8.054  17.203  20.928  1.00  0.00     0.210 C 
ENDBRANCH  31  35
BRANCH  32  37
HETATM   37  O6  UNL     1       4.743  16.295  19.930  1.00  0.00    -0.351 OA
HETATM   38  C23 UNL     1       4.431  17.655  20.274  1.00  0.00     0.210 C 
ENDBRANCH  32  37
BRANCH  33  39
HETATM   39  O5  UNL     1       3.785  16.298  17.334  1.00  0.00    -0.353 OA
HETATM   40  C21 UNL     1       3.229  17.437  16.716  1.00  0.00     0.210 C 
ENDBRANCH  33  39
ENDBRANCH   1  29
TORSDOF 13
ENDMDL
MODEL 2
REMARK VINA RESULT: -8.394478121      1.320      2.554
REMARK  13 active torsions:
REMARK  status: ('A' for Active; 'I' for Inactive)
REMARK    1  A    between atoms: O1_2  and  C2_3 
REMARK    2  A    between atoms: C4_5  and  C5_6 
REMARK       I    between atoms: N2_8  and  C6_10 
REMARK       I    between atoms: C6_10  and  N3_12 
REMARK    3  A    between atoms: N3_12  and  C7_14 
REMARK    4  A    between atoms: C7_14  and  C8_15 
REMARK    5  A    between atoms: C8_15  and  C9_16 
REMARK    6  A    between atoms: C9_16  and  C10_17 
REMARK    7  A    between atoms: C10_17  and  C11_18 
REMARK    8  A    between atoms: C11_18  and  C12_19 
REMARK    9  A    between atoms: C14_23  and  N5_24 
REMARK   10  A    between atoms: N5_24  and  N6_26 
REMARK   11  A    between atoms: N7_29  and  C15_30 
REMARK   12  A    between atoms: C20_35  and  O5_36 
REMARK   13  A    between atoms: C22_38  and  O6_39 
ROOT
HETATM    1  C5  UNL     1       8.469  15.962  15.772  1.00  0.00     0.130 C 
HETATM    2  N1  UNL     1       8.362  14.764  14.925  1.00  0.00    -0.082 NA
HETATM    3  N2  UNL     1       9.517  16.598  15.742  1.00  0.00    -0.296 N 
ATOM      4  H2  UNL     1      10.146  16.134  15.086  1.00  0.00     0.171 HD
HETATM    5  C6  UNL     1      10.166  17.686  16.245  1.00  0.00     0.321 C 
HETATM    6  O2  UNL     1       9.975  18.833  15.689  1.00  0.00    -0.247 OA
HETATM    7  N3  UNL     1      11.056  17.680  17.349  1.00  0.00    -0.343 N 
ATOM      8  H3  UNL     1      11.215  16.779  17.801  1.00  0.00     0.164 HD
ENDROOT
BRANCH   7   9
HETATM    9  C7  UNL     1      11.755  18.802  17.898  1.00  0.00     0.124 C 
BRANCH   9  10
HETATM   10  C8  UNL     1      11.052  19.476  19.034  1.00  0.00     0.020 C 
BRANCH  10  11
HETATM   11  C9  UNL     1      11.608  20.859  19.269  1.00  0.00     0.002 C 
BRANCH  11  12
HETATM   12  C10 UNL     1      10.956  21.913  18.425  1.00  0.00     0.002 C 
BRANCH  12  13
HETATM   13  C11 UNL     1      11.815  22.301  17.211  1.00  0.00     0.028 C 
BRANCH  13  14
HETATM   14  C12 UNL     1      13.218  22.389  17.651  1.00  0.00     0.121 C 
HETATM   15  C13 UNL     1      13.481  23.809  18.127  1.00  0.00     0.164 C 
HETATM   16  N4  UNL     1      14.899  23.903  18.042  1.00  0.00    -0.223 N 
HETATM   17  C14 UNL     1      15.340  23.042  17.171  1.00  0.00     0.696 C 
ATOM     18  H4  UNL     1      15.480  24.545  18.581  1.00  0.00     0.177 HD
HETATM   19  N7  UNL     1      14.232  22.303  16.611  1.00  0.00    -0.202 N 
BRANCH  17  20
HETATM   20  N5  UNL     1      16.724  22.944  16.909  1.00  0.00    -0.072 N 
ATOM     21  H5  UNL     1      17.112  22.084  16.523  1.00  0.00     0.212 HD
BRANCH  20  22
HETATM   22  N6  UNL     1      17.554  24.017  17.179  1.00  0.00    -0.024 N 
HETATM   23  O3  UNL     1      18.115  24.595  16.240  1.00  0.00    -0.516 OA
HETATM   24  O4  UNL     1      17.801  24.490  18.450  1.00  0.00    -0.516 OA
ENDBRANCH  20  22
ENDBRANCH  17  20
BRANCH  19  25
HETATM   25  C15 UNL     1      14.201  21.664  15.320  1.00  0.00     0.039 C 
HETATM   26  C16 UNL     1      12.822  21.094  15.013  1.00  0.00     0.038 C 
HETATM   27  C17 UNL     1      14.673  22.650  14.282  1.00  0.00     0.038 C 
HETATM   28  C18 UNL     1      15.141  20.469  15.214  1.00  0.00     0.038 C 
ENDBRANCH  19  25
ENDBRANCH  13  14
ENDBRANCH  12  13
ENDBRANCH  11  12
ENDBRANCH  10  11
ENDBRANCH   9  10
ENDBRANCH   7   9
BRANCH   1  29
HETATM   29  C4  UNL     1       7.251  16.208  16.549  1.00  0.00     0.011 A 
HETATM   30  C3  UNL     1       7.220  15.908  17.894  1.00  0.00     0.054 A 
HETATM   31  C2  UNL     1       6.067  16.145  18.660  1.00  0.00     0.105 A 
HETATM   32  C22 UNL     1       4.959  16.682  18.050  1.00  0.00     0.135 A 
HETATM   33  C20 UNL     1       4.959  16.995  16.691  1.00  0.00     0.105 A 
HETATM   34  C19 UNL     1       6.105  16.751  15.973  1.00  0.00     0.054 A 
BRANCH  31  35
HETATM   35  O1  UNL     1       6.011  15.854  20.010  1.00  0.00    -0.353 OA
HETATM   36  C1  UNL     1       7.249  15.798  20.722  1.00  0.00     0.210 C 
ENDBRANCH  31  35
BRANCH  32  37
HETATM   37  O6  UNL     1       3.821  16.914  18.813  1.00  0.00    -0.351 OA
HETATM   38  C23 UNL     1       3.737  18.238  19.368  1.00  0.00     0.210 C 
ENDBRANCH  32  37
BRANCH  33  39
HETATM   39  O5  UNL     1       3.818  17.537  16.117  1.00  0.00    -0.353 OA
HETATM   40  C21 UNL     1       2.789  16.740  15.574  1.00  0.00     0.210 C 
ENDBRANCH  33  39
ENDBRANCH   1  29
TORSDOF 13
ENDMDL
MODEL 3
REMARK VINA RESULT: -8.305104154      3.106     11.101
REMARK  13 active torsions:
REMARK  status: ('A' for Active; 'I' for Inactive)
REMARK    1  A    between atoms: O1_2  and  C2_3 
REMARK    2  A    between atoms: C4_5  and  C5_6 
REMARK       I    between atoms: N2_8  and  C6_10 
REMARK       I    between atoms: C6_10  and  N3_12 
REMARK    3  A    between atoms: N3_12  and  C7_14 
REMARK    4  A    between atoms: C7_14  and  C8_15 
REMARK    5  A    between atoms: C8_15  and  C9_16 
REMARK    6  A    between atoms: C9_16  and  C10_17 
REMARK    7  A    between atoms: C10_17  and  C11_18 
REMARK    8  A    between atoms: C11_18  and  C12_19 
REMARK    9  A    between atoms: C14_23  and  N5_24 
REMARK   10  A    between atoms: N5_24  and  N6_26 
REMARK   11  A    between atoms: N7_29  and  C15_30 
REMARK   12  A    between atoms: C20_35  and  O5_36 
REMARK   13  A    between atoms: C22_38  and  O6_39 
ROOT
HETATM    1  C5  UNL     1      13.544  21.597  15.533  1.00  0.00     0.130 C 
HETATM    2  N1  UNL     1      13.273  21.620  14.088  1.00  0.00    -0.082 NA
HETATM    3  N2  UNL     1      12.760  20.991  16.257  1.00  0.00    -0.296 N 
ATOM      4  H2  UNL     1      12.028  20.598  15.666  1.00  0.00     0.171 HD
HETATM    5  C6  UNL     1      12.490  20.641  17.546  1.00  0.00     0.321 C 
HETATM    6  O2  UNL     1      13.054  19.591  18.034  1.00  0.00    -0.247 OA
HETATM    7  N3  UNL     1      11.623  21.337  18.428  1.00  0.00    -0.343 N 
ATOM      8  H3  UNL     1      11.171  22.173  18.056  1.00  0.00     0.164 HD
ENDROOT
BRANCH   7   9
HETATM    9  C7  UNL     1      11.316  20.993  19.783  1.00  0.00     0.124 C 
BRANCH   9  10
HETATM   10  C8  UNL     1       9.863  20.752  20.047  1.00  0.00     0.020 C 
BRANCH  10  11
HETATM   11  C9  UNL     1       9.661  19.492  20.853  1.00  0.00     0.002 C 
BRANCH  11  12
HETATM   12  C10 UNL     1       8.765  18.496  20.182  1.00  0.00     0.002 C 
BRANCH  12  13
HETATM   13  C11 UNL     1       9.046  18.380  18.675  1.00  0.00     0.028 C 
BRANCH  13  14
HETATM   14  C12 UNL     1       7.915  17.672  18.050  1.00  0.00     0.121 C 
HETATM   15  C13 UNL     1       7.909  16.239  18.559  1.00  0.00     0.164 C 
HETATM   16  N4  UNL     1       7.148  15.565  17.562  1.00  0.00    -0.223 N 
HETATM   17  C14 UNL     1       7.209  16.229  16.446  1.00  0.00     0.696 C 
ATOM     18  H4  UNL     1       6.635  14.695  17.703  1.00  0.00     0.177 HD
HETATM   19  N7  UNL     1       8.021  17.411  16.623  1.00  0.00    -0.202 N 
BRANCH  17  20
HETATM   20  N5  UNL     1       6.528  15.756  15.301  1.00  0.00    -0.072 N 
ATOM     21  H5  UNL     1       5.796  16.321  14.872  1.00  0.00     0.212 HD
BRANCH  20  22
HETATM   22  N6  UNL     1       6.856  14.524  14.765  1.00  0.00    -0.024 N 
HETATM   23  O3  UNL     1       8.022  14.119  14.854  1.00  0.00    -0.516 OA
HETATM   24  O4  UNL     1       5.951  13.705  14.126  1.00  0.00    -0.516 OA
ENDBRANCH  20  22
ENDBRANCH  17  20
BRANCH  19  25
HETATM   25  C15 UNL     1       8.745  18.109  15.592  1.00  0.00     0.039 C 
HETATM   26  C16 UNL     1       9.297  19.436  16.097  1.00  0.00     0.038 C 
HETATM   27  C17 UNL     1       9.815  17.195  15.051  1.00  0.00     0.038 C 
HETATM   28  C18 UNL     1       7.880  18.486  14.395  1.00  0.00     0.038 C 
ENDBRANCH  19  25
ENDBRANCH  13  14
ENDBRANCH  12  13
ENDBRANCH  11  12
ENDBRANCH  10  11
ENDBRANCH   9  10
ENDBRANCH   7   9
BRANCH   1  29
HETATM   29  C4  UNL     1      14.759  22.335  15.887  1.00  0.00     0.011 A 
HETATM   30  C3  UNL     1      15.680  22.653  14.911  1.00  0.00     0.054 A 
HETATM   31  C2  UNL     1      16.847  23.369  15.227  1.00  0.00     0.105 A 
HETATM   32  C22 UNL     1      17.064  23.752  16.528  1.00  0.00     0.135 A 
HETATM   33  C20 UNL     1      16.151  23.445  17.537  1.00  0.00     0.105 A 
HETATM   34  C19 UNL     1      15.020  22.744  17.192  1.00  0.00     0.054 A 
BRANCH  31  35
HETATM   35  O1  UNL     1      17.785  23.699  14.267  1.00  0.00    -0.353 OA
HETATM   36  C1  UNL     1      17.326  23.848  12.922  1.00  0.00     0.210 C 
ENDBRANCH  31  35
BRANCH  32  37
HETATM   37  O6  UNL     1      18.220  24.460  16.833  1.00  0.00    -0.351 OA
HETATM   38  C23 UNL     1      18.064  25.889  16.821  1.00  0.00     0.210 C 
ENDBRANCH  32  37
BRANCH  33  39
HETATM   39  O5  UNL     1      16.412  23.853  18.837  1.00  0.00    -0.353 OA
HETATM   40  C21 UNL     1      15.521  24.659  19.574  1.00  0.00     0.210 C 
ENDBRANCH  33  39
ENDBRANCH   1  29
TORSDOF 13
ENDMDL
MODEL 4
REMARK VINA RESULT: -8.251899369      1.905      2.736
REMARK  13 active torsions:
REMARK  status: ('A' for Active; 'I' for Inactive)
REMARK    1  A    between atoms: O1_2  and  C2_3 
REMARK    2  A    between atoms: C4_5  and  C5_6 
REMARK       I    between atoms: N2_8  and  C6_10 
REMARK       I    between atoms: C6_10  and  N3_12 
REMARK    3  A    between atoms: N3_12  and  C7_14 
REMARK    4  A    between atoms: C7_14  and  C8_15 
REMARK    5  A    between atoms: C8_15  and  C9_16 
REMARK    6  A    between atoms: C9_16  and  C10_17 
REMARK    7  A    between atoms: C10_17  and  C11_18 
REMARK    8  A    between atoms: C11_18  and  C12_19 
REMARK    9  A    between atoms: C14_23  and  N5_24 
REMARK   10  A    between atoms: N5_24  and  N6_26 
REMARK   11  A    between atoms: N7_29  and  C15_30 
REMARK   12  A    between atoms: C20_35  and  O5_36 
REMARK   13  A    between atoms: C22_38  and  O6_39 
ROOT
HETATM    1  C5  UNL     1       8.381  16.068  16.110  1.00  0.00     0.130 C 
HETATM    2  N1  UNL     1       8.394  14.863  15.267  1.00  0.00    -0.082 NA
HETATM    3  N2  UNL     1       9.405  16.742  16.170  1.00  0.00    -0.296 N 
ATOM      4  H2  UNL     1      10.107  16.297  15.579  1.00  0.00     0.171 HD
HETATM    5  C6  UNL     1       9.967  17.854  16.721  1.00  0.00     0.321 C 
HETATM    6  O2  UNL     1       9.788  18.990  16.141  1.00  0.00    -0.247 OA
HETATM    7  N3  UNL     1      10.752  17.886  17.902  1.00  0.00    -0.343 N 
ATOM      8  H3  UNL     1      10.900  16.994  18.374  1.00  0.00     0.164 HD
ENDROOT
BRANCH   7   9
HETATM    9  C7  UNL     1      11.358  19.035  18.503  1.00  0.00     0.124 C 
BRANCH   9  10
HETATM   10  C8  UNL     1      10.651  19.547  19.718  1.00  0.00     0.020 C 
BRANCH  10  11
HETATM   11  C9  UNL     1      10.675  21.055  19.763  1.00  0.00     0.002 C 
BRANCH  11  12
HETATM   12  C10 UNL     1      11.598  21.665  18.752  1.00  0.00     0.002 C 
BRANCH  12  13
HETATM   13  C11 UNL     1      12.786  22.386  19.409  1.00  0.00     0.028 C 
BRANCH  13  14
HETATM   14  C12 UNL     1      13.691  22.846  18.341  1.00  0.00     0.121 C 
HETATM   15  C13 UNL     1      14.510  21.657  17.863  1.00  0.00     0.164 C 
HETATM   16  N4  UNL     1      15.628  22.284  17.246  1.00  0.00    -0.223 N 
HETATM   17  C14 UNL     1      15.791  23.473  17.747  1.00  0.00     0.696 C 
ATOM     18  H4  UNL     1      16.212  21.865  16.521  1.00  0.00     0.177 HD
HETATM   19  N7  UNL     1      14.776  23.727  18.744  1.00  0.00    -0.202 N 
BRANCH  17  20
HETATM   20  N5  UNL     1      16.844  24.297  17.290  1.00  0.00    -0.072 N 
ATOM     21  H5  UNL     1      16.987  25.220  17.701  1.00  0.00     0.212 HD
BRANCH  20  22
HETATM   22  N6  UNL     1      17.681  23.852  16.283  1.00  0.00    -0.024 N 
HETATM   23  O3  UNL     1      18.620  23.100  16.570  1.00  0.00    -0.516 OA
HETATM   24  O4  UNL     1      17.532  24.200  14.958  1.00  0.00    -0.516 OA
ENDBRANCH  20  22
ENDBRANCH  17  20
BRANCH  19  25
HETATM   25  C15 UNL     1      14.882  24.641  19.852  1.00  0.00     0.039 C 
HETATM   26  C16 UNL     1      16.297  24.673  20.415  1.00  0.00     0.038 C 
HETATM   27  C17 UNL     1      14.395  25.997  19.408  1.00  0.00     0.038 C 
HETATM   28  C18 UNL     1      14.007  24.256  21.039  1.00  0.00     0.038 C 
ENDBRANCH  19  25
ENDBRANCH  13  14
ENDBRANCH  12  13
ENDBRANCH  11  12
ENDBRANCH  10  11
ENDBRANCH   9  10
ENDBRANCH   7   9
BRANCH   1  29
HETATM   29  C4  UNL     1       7.090  16.275  16.771  1.00  0.00     0.011 A 
HETATM   30  C3  UNL     1       6.959  16.026  18.120  1.00  0.00     0.054 A 
HETATM   31  C2  UNL     1       5.733  16.227  18.775  1.00  0.00     0.105 A 
HETATM   32  C22 UNL     1       4.655  16.677  18.052  1.00  0.00     0.135 A 
HETATM   33  C20 UNL     1       4.756  16.938  16.686  1.00  0.00     0.105 A 
HETATM   34  C19 UNL     1       5.971  16.731  16.078  1.00  0.00     0.054 A 
BRANCH  31  35
HETATM   35  O1  UNL     1       5.576  15.984  20.127  1.00  0.00    -0.353 OA
HETATM   36  C1  UNL     1       6.645  16.373  20.993  1.00  0.00     0.210 C 
ENDBRANCH  31  35
BRANCH  32  37
HETATM   37  O6  UNL     1       3.445  16.874  18.706  1.00  0.00    -0.351 OA
HETATM   38  C23 UNL     1       3.254  18.204  19.216  1.00  0.00     0.210 C 
ENDBRANCH  32  37
BRANCH  33  39
HETATM   39  O5  UNL     1       3.641  17.392  15.995  1.00  0.00    -0.353 OA
HETATM   40  C21 UNL     1       2.732  16.521  15.363  1.00  0.00     0.210 C 
ENDBRANCH  33  39
ENDBRANCH   1  29
TORSDOF 13
ENDMDL
MODEL 5
REMARK VINA RESULT: -8.250509187      1.327      2.445
REMARK  13 active torsions:
REMARK  status: ('A' for Active; 'I' for Inactive)
REMARK    1  A    between atoms: O1_2  and  C2_3 
REMARK    2  A    between atoms: C4_5  and  C5_6 
REMARK       I    between atoms: N2_8  and  C6_10 
REMARK       I    between atoms: C6_10  and  N3_12 
REMARK    3  A    between atoms: N3_12  and  C7_14 
REMARK    4  A    between atoms: C7_14  and  C8_15 
REMARK    5  A    between atoms: C8_15  and  C9_16 
REMARK    6  A    between atoms: C9_16  and  C10_17 
REMARK    7  A    between atoms: C10_17  and  C11_18 
REMARK    8  A    between atoms: C11_18  and  C12_19 
REMARK    9  A    between atoms: C14_23  and  N5_24 
REMARK   10  A    between atoms: N5_24  and  N6_26 
REMARK   11  A    between atoms: N7_29  and  C15_30 
REMARK   12  A    between atoms: C20_35  and  O5_36 
REMARK   13  A    between atoms: C22_38  and  O6_39 
ROOT
HETATM    1  C5  UNL     1       7.760  15.547  15.252  1.00  0.00     0.130 C 
HETATM    2  N1  UNL     1       7.652  14.119  14.914  1.00  0.00    -0.082 NA
HETATM    3  N2  UNL     1       8.677  16.191  14.751  1.00  0.00    -0.296 N 
ATOM      4  H2  UNL     1       9.216  15.559  14.159  1.00  0.00     0.171 HD
HETATM    5  C6  UNL     1       9.253  17.423  14.681  1.00  0.00     0.321 C 
HETATM    6  O2  UNL     1       8.789  18.276  13.834  1.00  0.00    -0.247 OA
HETATM    7  N3  UNL     1      10.345  17.872  15.468  1.00  0.00    -0.343 N 
ATOM      8  H3  UNL     1      10.722  17.208  16.144  1.00  0.00     0.164 HD
ENDROOT
BRANCH   7   9
HETATM    9  C7  UNL     1      10.974  19.157  15.414  1.00  0.00     0.124 C 
BRANCH   9  10
HETATM   10  C8  UNL     1      10.479  20.134  16.433  1.00  0.00     0.020 C 
BRANCH  10  11
HETATM   11  C9  UNL     1      10.843  19.691  17.829  1.00  0.00     0.002 C 
BRANCH  11  12
HETATM   12  C10 UNL     1      11.959  20.488  18.432  1.00  0.00     0.002 C 
BRANCH  12  13
HETATM   13  C11 UNL     1      13.339  19.883  18.126  1.00  0.00     0.028 C 
BRANCH  13  14
HETATM   14  C12 UNL     1      14.355  20.930  18.330  1.00  0.00     0.121 C 
HETATM   15  C13 UNL     1      13.731  22.048  19.150  1.00  0.00     0.164 C 
HETATM   16  N4  UNL     1      14.581  23.152  18.858  1.00  0.00    -0.223 N 
HETATM   17  C14 UNL     1      15.167  22.959  17.713  1.00  0.00     0.696 C 
ATOM     18  H4  UNL     1      14.712  23.968  19.456  1.00  0.00     0.177 HD
HETATM   19  N7  UNL     1      14.745  21.694  17.155  1.00  0.00    -0.202 N 
BRANCH  17  20
HETATM   20  N5  UNL     1      16.066  23.923  17.205  1.00  0.00    -0.072 N 
ATOM     21  H5  UNL     1      15.757  24.588  16.497  1.00  0.00     0.212 HD
BRANCH  20  22
HETATM   22  N6  UNL     1      17.368  23.963  17.670  1.00  0.00    -0.024 N 
HETATM   23  O3  UNL     1      17.585  24.369  18.818  1.00  0.00    -0.516 OA
HETATM   24  O4  UNL     1      18.458  23.575  16.921  1.00  0.00    -0.516 OA
ENDBRANCH  20  22
ENDBRANCH  17  20
BRANCH  19  25
HETATM   25  C15 UNL     1      14.732  21.343  15.758  1.00  0.00     0.039 C 
HETATM   26  C16 UNL     1      14.903  19.842  15.559  1.00  0.00     0.038 C 
HETATM   27  C17 UNL     1      13.465  21.876  15.139  1.00  0.00     0.038 C 
HETATM   28  C18 UNL     1      15.874  21.966  14.966  1.00  0.00     0.038 C 
ENDBRANCH  19  25
ENDBRANCH  13  14
ENDBRANCH  12  13
ENDBRANCH  11  12
ENDBRANCH  10  11
ENDBRANCH   9  10
ENDBRANCH   7   9
BRANCH   1  29
HETATM   29  C4  UNL     1       6.709  15.985  16.172  1.00  0.00     0.011 A 
HETATM   30  C3  UNL     1       6.826  15.732  17.523  1.00  0.00     0.054 A 
HETATM   31  C2  UNL     1       5.834  16.152  18.425  1.00  0.00     0.105 A 
HETATM   32  C22 UNL     1       4.735  16.821  17.944  1.00  0.00     0.135 A 
HETATM   33  C20 UNL     1       4.587  17.091  16.584  1.00  0.00     0.105 A 
HETATM   34  C19 UNL     1       5.577  16.667  15.730  1.00  0.00     0.054 A 
BRANCH  31  35
HETATM   35  O1  UNL     1       5.929  15.911  19.782  1.00  0.00    -0.353 OA
HETATM   36  C1  UNL     1       7.238  15.899  20.358  1.00  0.00     0.210 C 
ENDBRANCH  31  35
BRANCH  32  37
HETATM   37  O6  UNL     1       3.757  17.234  18.841  1.00  0.00    -0.351 OA
HETATM   38  C23 UNL     1       3.964  18.550  19.383  1.00  0.00     0.210 C 
ENDBRANCH  32  37
BRANCH  33  39
HETATM   39  O5  UNL     1       3.460  17.771  16.144  1.00  0.00    -0.353 OA
HETATM   40  C21 UNL     1       2.302  17.108  15.689  1.00  0.00     0.210 C 
ENDBRANCH  33  39
ENDBRANCH   1  29
TORSDOF 13
ENDMDL
