MODEL 1
REMARK VINA RESULT: -8.416835591      0.000      0.000
REMARK  12 active torsions:
REMARK  status: ('A' for Active; 'I' for Inactive)
REMARK    1  A    between atoms: N1_6  and  C6_8 
REMARK    2  A    between atoms: C6_8  and  C7_9 
REMARK    3  A    between atoms: C7_9  and  C8_10 
REMARK    4  A    between atoms: C8_10  and  C9_11 
REMARK    5  A    between atoms: C9_11  and  C10_12 
REMARK    6  A    between atoms: C10_12  and  O1_13 
REMARK    7  A    between atoms: O1_13  and  N2_14 
REMARK    8  A    between atoms: C12_19  and  C13_20 
REMARK    9  A    between atoms: C13_20  and  C14_21 
REMARK   10  A    between atoms: C14_21  and  C15_22 
REMARK   11  A    between atoms: C15_22  and  C16_23 
REMARK   12  A    between atoms: C16_23  and  N4_24 
ROOT
HETATM    1  N2  UNL     1       6.247  16.599  18.014  1.00  0.00    -0.211 N 
HETATM    2  C11 UNL     1       5.370  16.739  16.877  1.00  0.00     0.196 C 
HETATM    3  S1  UNL     1       3.775  17.083  16.849  1.00  0.00    -0.039 SA
HETATM    4  N3  UNL     1       6.209  16.514  15.707  1.00  0.00    -0.355 N 
ATOM      5  H3  UNL     1       6.105  16.902  14.769  1.00  0.00     0.162 HD
HETATM    6  C12 UNL     1       7.214  15.617  16.194  1.00  0.00     0.146 C 
HETATM    7  C17 UNL     1       7.601  16.341  17.489  1.00  0.00     0.250 C 
HETATM    8  C18 UNL     1       8.268  17.605  17.187  1.00  0.00     0.089 C 
HETATM    9  N5  UNL     1       8.781  18.601  16.944  1.00  0.00    -0.195 NA
ENDROOT
BRANCH   1  10
HETATM   10  O1  UNL     1       5.853  16.695  19.303  1.00  0.00    -0.274 OA
BRANCH  10  11
HETATM   11  C10 UNL     1       5.935  18.032  19.684  1.00  0.00     0.201 C 
BRANCH  11  12
HETATM   12  C9  UNL     1       6.649  18.183  21.006  1.00  0.00     0.029 C 
BRANCH  12  13
HETATM   13  C8  UNL     1       8.138  18.095  20.879  1.00  0.00     0.004 C 
BRANCH  13  14
HETATM   14  C7  UNL     1       8.789  19.387  20.495  1.00  0.00     0.020 C 
BRANCH  14  15
HETATM   15  C6  UNL     1      10.217  19.349  21.014  1.00  0.00     0.121 C 
BRANCH  15  16
HETATM   16  N1  UNL     1      11.113  20.149  20.227  1.00  0.00    -0.376 N 
HETATM   17  C5  UNL     1      11.680  19.700  19.159  1.00  0.00     0.114 A 
HETATM   18  C4  UNL     1      12.534  20.518  18.442  1.00  0.00     0.035 A 
HETATM   19  N6  UNL     1      11.453  18.460  18.741  1.00  0.00    -0.338 N 
HETATM   20  C3  UNL     1      12.801  21.822  18.843  1.00  0.00     0.025 A 
HETATM   21  C20 UNL     1      13.142  20.048  17.304  1.00  0.00     0.055 A 
HETATM   22  C2  UNL     1      13.648  22.658  18.146  1.00  0.00    -0.054 A 
HETATM   23  C1  UNL     1      13.940  24.053  18.567  1.00  0.00     0.049 C 
HETATM   24  C22 UNL     1      14.259  22.172  16.994  1.00  0.00    -0.040 A 
HETATM   25  C21 UNL     1      14.000  20.879  16.589  1.00  0.00     0.004 A 
HETATM   26  C23 UNL     1      15.177  23.051  16.223  1.00  0.00     0.070 C 
HETATM   27  C26 UNL     1      14.613  20.279  15.367  1.00  0.00     0.313 C 
HETATM   28  N8  UNL     1      15.140  21.315  14.495  1.00  0.00     0.088 N 
HETATM   29  C24 UNL     1      15.985  22.172  15.295  1.00  0.00     0.277 C 
HETATM   30  C25 UNL     1      14.071  22.027  13.844  1.00  0.00     0.310 C 
HETATM   31  N7  UNL     1      12.894  18.786  16.903  1.00  0.00    -0.351 N 
HETATM   32  C19 UNL     1      12.064  18.011  17.611  1.00  0.00     0.182 A 
ATOM     33  H7  UNL     1      13.338  18.422  16.060  1.00  0.00     0.166 HD
ATOM     34  H6  UNL     1      10.825  17.849  19.262  1.00  0.00     0.168 HD
ATOM     35  H1  UNL     1      11.308  21.106  20.522  1.00  0.00     0.161 HD
ENDBRANCH  15  16
ENDBRANCH  14  15
ENDBRANCH  13  14
ENDBRANCH  12  13
ENDBRANCH  11  12
ENDBRANCH  10  11
ENDBRANCH   1  10
BRANCH   6  36
HETATM   36  C13 UNL     1       8.331  15.224  15.373  1.00  0.00     0.001 C 
BRANCH  36  37
HETATM   37  C14 UNL     1       8.531  15.684  14.017  1.00  0.00    -0.004 C 
BRANCH  37  38
HETATM   38  C15 UNL     1       9.542  16.543  13.446  1.00  0.00    -0.000 C 
BRANCH  38  39
HETATM   39  C16 UNL     1      10.661  17.119  14.200  1.00  0.00     0.257 C 
BRANCH  39  40
HETATM   40  N4  UNL     1      10.442  18.576  14.438  1.00  0.00    -0.076 N 
ATOM     41  H43 UNL     1       9.964  19.020  13.654  1.00  0.00     0.274 HD
ATOM     42  H42 UNL     1       9.739  18.739  15.159  1.00  0.00     0.274 HD
ATOM     43  H41 UNL     1      11.323  19.042  14.657  1.00  0.00     0.274 HD
ENDBRANCH  39  40
ENDBRANCH  38  39
ENDBRANCH  37  38
ENDBRANCH  36  37
ENDBRANCH   6  36
TORSDOF 12
ENDMDL
MODEL 2
REMARK VINA RESULT: -8.378930986      3.626      9.838
REMARK  12 active torsions:
REMARK  status: ('A' for Active; 'I' for Inactive)
REMARK    1  A    between atoms: N1_6  and  C6_8 
REMARK    2  A    between atoms: C6_8  and  C7_9 
REMARK    3  A    between atoms: C7_9  and  C8_10 
REMARK    4  A    between atoms: C8_10  and  C9_11 
REMARK    5  A    between atoms: C9_11  and  C10_12 
REMARK    6  A    between atoms: C10_12  and  O1_13 
REMARK    7  A    between atoms: O1_13  and  N2_14 
REMARK    8  A    between atoms: C12_19  and  C13_20 
REMARK    9  A    between atoms: C13_20  and  C14_21 
REMARK   10  A    between atoms: C14_21  and  C15_22 
REMARK   11  A    between atoms: C15_22  and  C16_23 
REMARK   12  A    between atoms: C16_23  and  N4_24 
ROOT
HETATM    1  N2  UNL     1      14.197  21.327  16.819  1.00  0.00    -0.211 N 
HETATM    2  C11 UNL     1      14.925  22.515  16.443  1.00  0.00     0.196 C 
HETATM    3  S1  UNL     1      15.872  22.768  15.138  1.00  0.00    -0.039 SA
HETATM    4  N3  UNL     1      14.641  23.493  17.486  1.00  0.00    -0.355 N 
ATOM      5  H3  UNL     1      14.606  24.510  17.409  1.00  0.00     0.162 HD
HETATM    6  C12 UNL     1      14.422  22.680  18.644  1.00  0.00     0.146 C 
HETATM    7  C17 UNL     1      13.457  21.644  18.055  1.00  0.00     0.250 C 
HETATM    8  C18 UNL     1      12.179  22.267  17.724  1.00  0.00     0.089 C 
HETATM    9  N5  UNL     1      11.181  22.765  17.456  1.00  0.00    -0.195 NA
ENDROOT
BRANCH   1  10
HETATM   10  O1  UNL     1      14.222  20.163  16.133  1.00  0.00    -0.274 OA
BRANCH  10  11
HETATM   11  C10 UNL     1      13.386  20.293  15.027  1.00  0.00     0.201 C 
BRANCH  11  12
HETATM   12  C9  UNL     1      11.998  19.778  15.325  1.00  0.00     0.029 C 
BRANCH  12  13
HETATM   13  C8  UNL     1      12.002  18.420  15.955  1.00  0.00     0.004 C 
BRANCH  13  14
HETATM   14  C7  UNL     1      11.725  18.434  17.425  1.00  0.00     0.020 C 
BRANCH  14  15
HETATM   15  C6  UNL     1      10.253  18.770  17.608  1.00  0.00     0.121 C 
BRANCH  15  16
HETATM   16  N1  UNL     1       9.387  17.844  16.935  1.00  0.00    -0.376 N 
HETATM   17  C5  UNL     1       8.218  17.540  17.388  1.00  0.00     0.114 A 
HETATM   18  C4  UNL     1       7.429  16.641  16.696  1.00  0.00     0.035 A 
HETATM   19  N6  UNL     1       7.765  18.082  18.513  1.00  0.00    -0.338 N 
HETATM   20  C3  UNL     1       7.862  16.049  15.516  1.00  0.00     0.025 A 
HETATM   21  C20 UNL     1       6.183  16.311  17.171  1.00  0.00     0.055 A 
HETATM   22  C2  UNL     1       7.095  15.149  14.806  1.00  0.00    -0.054 A 
HETATM   23  C1  UNL     1       7.550  14.510  13.543  1.00  0.00     0.049 C 
HETATM   24  C22 UNL     1       5.834  14.822  15.297  1.00  0.00    -0.040 A 
HETATM   25  C21 UNL     1       5.395  15.405  16.467  1.00  0.00     0.004 A 
HETATM   26  C23 UNL     1       4.985  13.855  14.553  1.00  0.00     0.070 C 
HETATM   27  C26 UNL     1       4.057  15.110  17.062  1.00  0.00     0.313 C 
HETATM   28  N8  UNL     1       3.179  14.502  16.078  1.00  0.00     0.088 N 
HETATM   29  C24 UNL     1       3.889  13.391  15.486  1.00  0.00     0.277 C 
HETATM   30  C25 UNL     1       2.749  15.475  15.108  1.00  0.00     0.310 C 
HETATM   31  N7  UNL     1       5.748  16.876  18.314  1.00  0.00    -0.351 N 
HETATM   32  C19 UNL     1       6.528  17.745  18.969  1.00  0.00     0.182 A 
ATOM     33  H7  UNL     1       4.825  16.642  18.681  1.00  0.00     0.166 HD
ATOM     34  H6  UNL     1       8.339  18.747  19.030  1.00  0.00     0.168 HD
ATOM     35  H1  UNL     1       9.706  17.410  16.069  1.00  0.00     0.161 HD
ENDBRANCH  15  16
ENDBRANCH  14  15
ENDBRANCH  13  14
ENDBRANCH  12  13
ENDBRANCH  11  12
ENDBRANCH  10  11
ENDBRANCH   1  10
BRANCH   6  36
HETATM   36  C13 UNL     1      13.990  23.254  19.894  1.00  0.00     0.001 C 
BRANCH  36  37
HETATM   37  C14 UNL     1      14.411  24.554  20.367  1.00  0.00    -0.004 C 
BRANCH  37  38
HETATM   38  C15 UNL     1      15.660  24.994  20.945  1.00  0.00    -0.000 C 
BRANCH  38  39
HETATM   39  C16 UNL     1      16.803  25.486  20.169  1.00  0.00     0.257 C 
BRANCH  39  40
HETATM   40  N4  UNL     1      16.343  26.141  18.909  1.00  0.00    -0.076 N 
ATOM     41  H43 UNL     1      15.425  26.572  19.021  1.00  0.00     0.274 HD
ATOM     42  H42 UNL     1      16.882  26.981  18.701  1.00  0.00     0.274 HD
ATOM     43  H41 UNL     1      16.359  25.480  18.133  1.00  0.00     0.274 HD
ENDBRANCH  39  40
ENDBRANCH  38  39
ENDBRANCH  37  38
ENDBRANCH  36  37
ENDBRANCH   6  36
TORSDOF 12
ENDMDL
MODEL 3
REMARK VINA RESULT: -8.266827076      3.529      9.113
REMARK  12 active torsions:
REMARK  status: ('A' for Active; 'I' for Inactive)
REMARK    1  A    between atoms: N1_6  and  C6_8 
REMARK    2  A    between atoms: C6_8  and  C7_9 
REMARK    3  A    between atoms: C7_9  and  C8_10 
REMARK    4  A    between atoms: C8_10  and  C9_11 
REMARK    5  A    between atoms: C9_11  and  C10_12 
REMARK    6  A    between atoms: C10_12  and  O1_13 
REMARK    7  A    between atoms: O1_13  and  N2_14 
REMARK    8  A    between atoms: C12_19  and  C13_20 
REMARK    9  A    between atoms: C13_20  and  C14_21 
REMARK   10  A    between atoms: C14_21  and  C15_22 
REMARK   11  A    between atoms: C15_22  and  C16_23 
REMARK   12  A    between atoms: C16_23  and  N4_24 
ROOT
HETATM    1  N2  UNL     1      13.912  21.255  16.585  1.00  0.00    -0.211 N 
HETATM    2  C11 UNL     1      14.730  22.407  16.289  1.00  0.00     0.196 C 
HETATM    3  S1  UNL     1      15.769  22.637  15.052  1.00  0.00    -0.039 SA
HETATM    4  N3  UNL     1      14.438  23.372  17.342  1.00  0.00    -0.355 N 
ATOM      5  H3  UNL     1      14.468  24.391  17.293  1.00  0.00     0.162 HD
HETATM    6  C12 UNL     1      14.101  22.543  18.460  1.00  0.00     0.146 C 
HETATM    7  C17 UNL     1      13.116  21.583  17.782  1.00  0.00     0.250 C 
HETATM    8  C18 UNL     1      11.900  22.290  17.393  1.00  0.00     0.089 C 
HETATM    9  N5  UNL     1      10.950  22.853  17.081  1.00  0.00    -0.195 NA
ENDROOT
BRANCH   1  10
HETATM   10  O1  UNL     1      13.912  20.111  15.866  1.00  0.00    -0.274 OA
BRANCH  10  11
HETATM   11  C10 UNL     1      13.086  20.292  14.760  1.00  0.00     0.201 C 
BRANCH  11  12
HETATM   12  C9  UNL     1      11.731  19.664  14.979  1.00  0.00     0.029 C 
BRANCH  12  13
HETATM   13  C8  UNL     1      11.781  18.169  15.030  1.00  0.00     0.004 C 
BRANCH  13  14
HETATM   14  C7  UNL     1      11.089  17.500  13.885  1.00  0.00     0.020 C 
BRANCH  14  15
HETATM   15  C6  UNL     1       9.836  16.836  14.434  1.00  0.00     0.121 C 
BRANCH  15  16
HETATM   16  N1  UNL     1       9.505  17.290  15.756  1.00  0.00    -0.376 N 
HETATM   17  C5  UNL     1       8.535  16.779  16.437  1.00  0.00     0.114 A 
HETATM   18  C4  UNL     1       8.264  17.258  17.705  1.00  0.00     0.035 A 
HETATM   19  N6  UNL     1       7.796  15.798  15.932  1.00  0.00    -0.338 N 
HETATM   20  C3  UNL     1       9.011  18.283  18.272  1.00  0.00     0.025 A 
HETATM   21  C20 UNL     1       7.233  16.720  18.436  1.00  0.00     0.055 A 
HETATM   22  C2  UNL     1       8.762  18.778  19.534  1.00  0.00    -0.054 A 
HETATM   23  C1  UNL     1       9.555  19.875  20.149  1.00  0.00     0.049 C 
HETATM   24  C22 UNL     1       7.715  18.227  20.267  1.00  0.00    -0.040 A 
HETATM   25  C21 UNL     1       6.968  17.209  19.713  1.00  0.00     0.004 A 
HETATM   26  C23 UNL     1       7.422  18.741  21.631  1.00  0.00     0.070 C 
HETATM   27  C26 UNL     1       5.829  16.561  20.430  1.00  0.00     0.313 C 
HETATM   28  N8  UNL     1       5.894  16.839  21.855  1.00  0.00     0.088 N 
HETATM   29  C24 UNL     1       6.038  18.268  22.015  1.00  0.00     0.277 C 
HETATM   30  C25 UNL     1       6.959  16.093  22.472  1.00  0.00     0.310 C 
HETATM   31  N7  UNL     1       6.499  15.726  17.900  1.00  0.00    -0.351 N 
HETATM   32  C19 UNL     1       6.779  15.277  16.672  1.00  0.00     0.182 A 
ATOM     33  H7  UNL     1       5.730  15.316  18.431  1.00  0.00     0.166 HD
ATOM     34  H6  UNL     1       7.988  15.438  14.998  1.00  0.00     0.168 HD
ATOM     35  H1  UNL     1      10.054  18.042  16.171  1.00  0.00     0.161 HD
ENDBRANCH  15  16
ENDBRANCH  14  15
ENDBRANCH  13  14
ENDBRANCH  12  13
ENDBRANCH  11  12
ENDBRANCH  10  11
ENDBRANCH   1  10
BRANCH   6  36
HETATM   36  C13 UNL     1      13.626  23.108  19.698  1.00  0.00     0.001 C 
BRANCH  36  37
HETATM   37  C14 UNL     1      14.410  24.000  20.524  1.00  0.00    -0.004 C 
BRANCH  37  38
HETATM   38  C15 UNL     1      15.056  25.255  20.218  1.00  0.00    -0.000 C 
BRANCH  38  39
HETATM   39  C16 UNL     1      16.300  25.720  20.842  1.00  0.00     0.257 C 
BRANCH  39  40
HETATM   40  N4  UNL     1      17.278  26.158  19.803  1.00  0.00    -0.076 N 
ATOM     41  H43 UNL     1      17.005  25.846  18.871  1.00  0.00     0.274 HD
ATOM     42  H42 UNL     1      17.237  27.165  19.646  1.00  0.00     0.274 HD
ATOM     43  H41 UNL     1      18.221  25.852  20.044  1.00  0.00     0.274 HD
ENDBRANCH  39  40
ENDBRANCH  38  39
ENDBRANCH  37  38
ENDBRANCH  36  37
ENDBRANCH   6  36
TORSDOF 12
ENDMDL
MODEL 4
REMARK VINA RESULT: -8.161279330      3.045      9.430
REMARK  12 active torsions:
REMARK  status: ('A' for Active; 'I' for Inactive)
REMARK    1  A    between atoms: N1_6  and  C6_8 
REMARK    2  A    between atoms: C6_8  and  C7_9 
REMARK    3  A    between atoms: C7_9  and  C8_10 
REMARK    4  A    between atoms: C8_10  and  C9_11 
REMARK    5  A    between atoms: C9_11  and  C10_12 
REMARK    6  A    between atoms: C10_12  and  O1_13 
REMARK    7  A    between atoms: O1_13  and  N2_14 
REMARK    8  A    between atoms: C12_19  and  C13_20 
REMARK    9  A    between atoms: C13_20  and  C14_21 
REMARK   10  A    between atoms: C14_21  and  C15_22 
REMARK   11  A    between atoms: C15_22  and  C16_23 
REMARK   12  A    between atoms: C16_23  and  N4_24 
ROOT
HETATM    1  N2  UNL     1      11.776  22.416  17.802  1.00  0.00    -0.211 N 
HETATM    2  C11 UNL     1      11.620  21.737  19.065  1.00  0.00     0.196 C 
HETATM    3  S1  UNL     1      10.318  20.948  19.652  1.00  0.00    -0.039 SA
HETATM    4  N3  UNL     1      12.900  21.885  19.747  1.00  0.00    -0.355 N 
ATOM      5  H3  UNL     1      13.335  21.254  20.421  1.00  0.00     0.162 HD
HETATM    6  C12 UNL     1      13.396  23.130  19.243  1.00  0.00     0.146 C 
HETATM    7  C17 UNL     1      13.163  22.912  17.743  1.00  0.00     0.250 C 
HETATM    8  C18 UNL     1      14.046  21.865  17.237  1.00  0.00     0.089 C 
HETATM    9  N5  UNL     1      14.734  21.034  16.847  1.00  0.00    -0.195 NA
ENDROOT
BRANCH   1  10
HETATM   10  O1  UNL     1      10.800  22.548  16.877  1.00  0.00    -0.274 OA
BRANCH  10  11
HETATM   11  C10 UNL     1      10.394  21.273  16.489  1.00  0.00     0.201 C 
BRANCH  11  12
HETATM   12  C9  UNL     1      11.289  20.717  15.408  1.00  0.00     0.029 C 
BRANCH  12  13
HETATM   13  C8  UNL     1      11.270  19.222  15.346  1.00  0.00     0.004 C 
BRANCH  13  14
HETATM   14  C7  UNL     1      12.168  18.564  16.347  1.00  0.00     0.020 C 
BRANCH  14  15
HETATM   15  C6  UNL     1      11.281  17.920  17.400  1.00  0.00     0.121 C 
BRANCH  15  16
HETATM   16  N1  UNL     1      10.167  17.216  16.830  1.00  0.00    -0.376 N 
HETATM   17  C5  UNL     1       9.008  17.186  17.396  1.00  0.00     0.114 A 
HETATM   18  C4  UNL     1       7.973  16.490  16.798  1.00  0.00     0.035 A 
HETATM   19  N6  UNL     1       8.798  17.816  18.546  1.00  0.00    -0.338 N 
HETATM   20  C3  UNL     1       8.147  15.816  15.596  1.00  0.00     0.025 A 
HETATM   21  C20 UNL     1       6.736  16.453  17.394  1.00  0.00     0.055 A 
HETATM   22  C2  UNL     1       7.132  15.116  14.979  1.00  0.00    -0.054 A 
HETATM   23  C1  UNL     1       7.309  14.391  13.693  1.00  0.00     0.049 C 
HETATM   24  C22 UNL     1       5.882  15.084  15.591  1.00  0.00    -0.040 A 
HETATM   25  C21 UNL     1       5.700  15.750  16.785  1.00  0.00     0.004 A 
HETATM   26  C23 UNL     1       4.769  14.336  14.949  1.00  0.00     0.070 C 
HETATM   27  C26 UNL     1       4.393  15.767  17.507  1.00  0.00     0.313 C 
HETATM   28  N8  UNL     1       3.311  15.375  16.621  1.00  0.00     0.088 N 
HETATM   29  C24 UNL     1       3.691  14.132  15.989  1.00  0.00     0.277 C 
HETATM   30  C25 UNL     1       3.022  16.421  15.675  1.00  0.00     0.310 C 
HETATM   31  N7  UNL     1       6.551  17.101  18.561  1.00  0.00    -0.351 N 
HETATM   32  C19 UNL     1       7.566  17.768  19.122  1.00  0.00     0.182 A 
ATOM     33  H7  UNL     1       5.638  17.082  19.016  1.00  0.00     0.166 HD
ATOM     34  H6  UNL     1       9.555  18.331  18.994  1.00  0.00     0.168 HD
ATOM     35  H1  UNL     1      10.296  16.722  15.947  1.00  0.00     0.161 HD
ENDBRANCH  15  16
ENDBRANCH  14  15
ENDBRANCH  13  14
ENDBRANCH  12  13
ENDBRANCH  11  12
ENDBRANCH  10  11
ENDBRANCH   1  10
BRANCH   6  36
HETATM   36  C13 UNL     1      14.714  23.605  19.580  1.00  0.00     0.001 C 
BRANCH  36  37
HETATM   37  C14 UNL     1      15.042  24.237  20.838  1.00  0.00    -0.004 C 
BRANCH  37  38
HETATM   38  C15 UNL     1      16.031  25.236  21.169  1.00  0.00    -0.000 C 
BRANCH  38  39
HETATM   39  C16 UNL     1      16.543  26.237  20.226  1.00  0.00     0.257 C 
BRANCH  39  40
HETATM   40  N4  UNL     1      17.879  25.831  19.700  1.00  0.00    -0.076 N 
ATOM     41  H43 UNL     1      18.581  25.795  20.439  1.00  0.00     0.274 HD
ATOM     42  H42 UNL     1      17.894  24.848  19.426  1.00  0.00     0.274 HD
ATOM     43  H41 UNL     1      18.166  26.441  18.935  1.00  0.00     0.274 HD
ENDBRANCH  39  40
ENDBRANCH  38  39
ENDBRANCH  37  38
ENDBRANCH  36  37
ENDBRANCH   6  36
TORSDOF 12
ENDMDL
MODEL 5
REMARK VINA RESULT: -8.150244599      1.740      4.806
REMARK  12 active torsions:
REMARK  status: ('A' for Active; 'I' for Inactive)
REMARK    1  A    between atoms: N1_6  and  C6_8 
REMARK    2  A    between atoms: C6_8  and  C7_9 
REMARK    3  A    between atoms: C7_9  and  C8_10 
REMARK    4  A    between atoms: C8_10  and  C9_11 
REMARK    5  A    between atoms: C9_11  and  C10_12 
REMARK    6  A    between atoms: C10_12  and  O1_13 
REMARK    7  A    between atoms: O1_13  and  N2_14 
REMARK    8  A    between atoms: C12_19  and  C13_20 
REMARK    9  A    between atoms: C13_20  and  C14_21 
REMARK   10  A    between atoms: C14_21  and  C15_22 
REMARK   11  A    between atoms: C15_22  and  C16_23 
REMARK   12  A    between atoms: C16_23  and  N4_24 
ROOT
HETATM    1  N2  UNL     1       6.708  15.919  17.809  1.00  0.00    -0.211 N 
HETATM    2  C11 UNL     1       5.300  16.167  18.004  1.00  0.00     0.196 C 
HETATM    3  S1  UNL     1       4.029  15.580  17.167  1.00  0.00    -0.039 SA
HETATM    4  N3  UNL     1       5.219  17.074  19.143  1.00  0.00    -0.355 N 
ATOM      5  H3  UNL     1       4.469  17.164  19.829  1.00  0.00     0.162 HD
HETATM    6  C12 UNL     1       6.446  17.808  19.063  1.00  0.00     0.146 C 
HETATM    7  C17 UNL     1       7.429  16.648  18.869  1.00  0.00     0.250 C 
HETATM    8  C18 UNL     1       7.500  15.831  20.077  1.00  0.00     0.089 C 
HETATM    9  N5  UNL     1       7.542  15.187  21.025  1.00  0.00    -0.195 NA
ENDROOT
BRANCH   1  10
HETATM   10  O1  UNL     1       7.222  15.152  16.822  1.00  0.00    -0.274 OA
BRANCH  10  11
HETATM   11  C10 UNL     1       7.433  15.962  15.708  1.00  0.00     0.201 C 
BRANCH  11  12
HETATM   12  C9  UNL     1       7.322  15.172  14.426  1.00  0.00     0.029 C 
BRANCH  12  13
HETATM   13  C8  UNL     1       8.584  15.185  13.622  1.00  0.00     0.004 C 
BRANCH  13  14
HETATM   14  C7  UNL     1       9.700  15.951  14.260  1.00  0.00     0.020 C 
BRANCH  14  15
HETATM   15  C6  UNL     1       9.843  17.263  13.506  1.00  0.00     0.121 C 
BRANCH  15  16
HETATM   16  N1  UNL     1      10.849  18.119  14.070  1.00  0.00    -0.376 N 
HETATM   17  C5  UNL     1      10.590  18.957  15.015  1.00  0.00     0.114 A 
HETATM   18  C4  UNL     1      11.602  19.754  15.518  1.00  0.00     0.035 A 
HETATM   19  N6  UNL     1       9.363  19.061  15.511  1.00  0.00    -0.338 N 
HETATM   20  C3  UNL     1      12.900  19.679  15.029  1.00  0.00     0.025 A 
HETATM   21  C20 UNL     1      11.334  20.650  16.525  1.00  0.00     0.055 A 
HETATM   22  C2  UNL     1      13.926  20.463  15.512  1.00  0.00    -0.054 A 
HETATM   23  C1  UNL     1      15.318  20.390  14.996  1.00  0.00     0.049 C 
HETATM   24  C22 UNL     1      13.645  21.367  16.533  1.00  0.00    -0.040 A 
HETATM   25  C21 UNL     1      12.359  21.449  17.024  1.00  0.00     0.004 A 
HETATM   26  C23 UNL     1      14.732  22.225  17.074  1.00  0.00     0.070 C 
HETATM   27  C26 UNL     1      11.972  22.390  18.117  1.00  0.00     0.313 C 
HETATM   28  N8  UNL     1      13.147  22.861  18.830  1.00  0.00     0.088 N 
HETATM   29  C24 UNL     1      14.087  23.352  17.849  1.00  0.00     0.277 C 
HETATM   30  C25 UNL     1      13.693  21.818  19.659  1.00  0.00     0.310 C 
HETATM   31  N7  UNL     1      10.080  20.735  17.009  1.00  0.00    -0.351 N 
HETATM   32  C19 UNL     1       9.116  19.953  16.509  1.00  0.00     0.182 A 
ATOM     33  H7  UNL     1       9.866  21.395  17.757  1.00  0.00     0.166 HD
ATOM     34  H6  UNL     1       8.610  18.477  15.147  1.00  0.00     0.168 HD
ATOM     35  H1  UNL     1      11.802  18.062  13.710  1.00  0.00     0.161 HD
ENDBRANCH  15  16
ENDBRANCH  14  15
ENDBRANCH  13  14
ENDBRANCH  12  13
ENDBRANCH  11  12
ENDBRANCH  10  11
ENDBRANCH   1  10
BRANCH   6  36
HETATM   36  C13 UNL     1       6.827  18.748  20.087  1.00  0.00     0.001 C 
BRANCH  36  37
HETATM   37  C14 UNL     1       8.099  19.436  20.112  1.00  0.00    -0.004 C 
BRANCH  37  38
HETATM   38  C15 UNL     1       9.269  19.237  20.935  1.00  0.00    -0.000 C 
BRANCH  38  39
HETATM   39  C16 UNL     1      10.626  19.649  20.558  1.00  0.00     0.257 C 
BRANCH  39  40
HETATM   40  N4  UNL     1      11.241  18.654  19.631  1.00  0.00    -0.076 N 
ATOM     41  H43 UNL     1      12.132  18.307  19.986  1.00  0.00     0.274 HD
ATOM     42  H42 UNL     1      10.725  17.774  19.625  1.00  0.00     0.274 HD
ATOM     43  H41 UNL     1      11.334  19.044  18.693  1.00  0.00     0.274 HD
ENDBRANCH  39  40
ENDBRANCH  38  39
ENDBRANCH  37  38
ENDBRANCH  36  37
ENDBRANCH   6  36
TORSDOF 12
ENDMDL
