MODEL 1
REMARK VINA RESULT: -6.518333263      0.000      0.000
REMARK  1 active torsions:
REMARK  status: ('A' for Active; 'I' for Inactive)
REMARK    1  A    between atoms: O1_1  and  N1_3 
ROOT
HETATM    1  N1  UNL     1       4.595  29.751  13.362  1.00  0.00    -0.235 N 
HETATM    2  C1  UNL     1       3.726  30.518  14.033  1.00  0.00     0.123 A 
HETATM    3  C2  UNL     1       3.232  30.114  15.253  1.00  0.00     0.021 A 
HETATM    4  C3  UNL     1       3.637  28.908  15.787  1.00  0.00     0.015 A 
HETATM    5  C4  UNL     1       4.537  28.100  15.105  1.00  0.00    -0.007 A 
HETATM    6  C5  UNL     1       4.956  26.885  15.624  1.00  0.00     0.014 A 
HETATM    7  C6  UNL     1       5.847  26.095  14.938  1.00  0.00     0.001 A 
HETATM    8  C7  UNL     1       6.303  26.557  13.721  1.00  0.00     0.002 A 
HETATM    9  C8  UNL     1       5.890  27.765  13.200  1.00  0.00     0.033 A 
HETATM   10  C9  UNL     1       4.985  28.574  13.890  1.00  0.00     0.072 A 
ENDROOT
BRANCH   1  11
HETATM   11  O1  UNL     1       5.055  30.201  12.151  1.00  0.00    -0.283 OA
ATOM     12  H1  UNL     1       4.622  29.894  11.364  1.00  0.00     0.245 HD
ENDBRANCH   1  11
TORSDOF 1
ENDMDL
MODEL 2
REMARK VINA RESULT: -6.276457927      2.117      2.502
REMARK  1 active torsions:
REMARK  status: ('A' for Active; 'I' for Inactive)
REMARK    1  A    between atoms: O1_1  and  N1_3 
ROOT
HETATM    1  N1  UNL     1       4.567  29.168  11.950  1.00  0.00    -0.235 N 
HETATM    2  C1  UNL     1       3.453  29.021  11.221  1.00  0.00     0.123 A 
HETATM    3  C2  UNL     1       2.759  27.832  11.232  1.00  0.00     0.021 A 
HETATM    4  C3  UNL     1       3.218  26.783  12.002  1.00  0.00     0.015 A 
HETATM    5  C4  UNL     1       4.371  26.917  12.764  1.00  0.00    -0.007 A 
HETATM    6  C5  UNL     1       4.848  25.875  13.544  1.00  0.00     0.014 A 
HETATM    7  C6  UNL     1       5.991  26.021  14.292  1.00  0.00     0.001 A 
HETATM    8  C7  UNL     1       6.639  27.238  14.236  1.00  0.00     0.002 A 
HETATM    9  C8  UNL     1       6.169  28.278  13.463  1.00  0.00     0.033 A 
HETATM   10  C9  UNL     1       5.009  28.138  12.699  1.00  0.00     0.072 A 
ENDROOT
BRANCH   1  11
HETATM   11  O1  UNL     1       5.218  30.373  11.902  1.00  0.00    -0.283 OA
ATOM     12  H1  UNL     1       6.082  30.401  11.508  1.00  0.00     0.245 HD
ENDBRANCH   1  11
TORSDOF 1
ENDMDL
MODEL 3
REMARK VINA RESULT: -6.248194107      1.730      1.951
REMARK  1 active torsions:
REMARK  status: ('A' for Active; 'I' for Inactive)
REMARK    1  A    between atoms: O1_1  and  N1_3 
ROOT
HETATM    1  N1  UNL     1       3.302  29.684  13.900  1.00  0.00    -0.235 N 
HETATM    2  C1  UNL     1       1.997  29.391  13.986  1.00  0.00     0.123 A 
HETATM    3  C2  UNL     1       1.571  28.082  13.988  1.00  0.00     0.021 A 
HETATM    4  C3  UNL     1       2.498  27.064  13.898  1.00  0.00     0.015 A 
HETATM    5  C4  UNL     1       3.853  27.348  13.807  1.00  0.00    -0.007 A 
HETATM    6  C5  UNL     1       4.800  26.339  13.717  1.00  0.00     0.014 A 
HETATM    7  C6  UNL     1       6.138  26.635  13.627  1.00  0.00     0.001 A 
HETATM    8  C7  UNL     1       6.499  27.966  13.630  1.00  0.00     0.002 A 
HETATM    9  C8  UNL     1       5.563  28.974  13.721  1.00  0.00     0.033 A 
HETATM   10  C9  UNL     1       4.201  28.683  13.812  1.00  0.00     0.072 A 
ENDROOT
BRANCH   1  11
HETATM   11  O1  UNL     1       3.671  31.004  13.903  1.00  0.00    -0.283 OA
ATOM     12  H1  UNL     1       2.988  31.660  13.965  1.00  0.00     0.245 HD
ENDBRANCH   1  11
TORSDOF 1
ENDMDL
MODEL 4
REMARK VINA RESULT: -6.182565891      2.263      2.988
REMARK  1 active torsions:
REMARK  status: ('A' for Active; 'I' for Inactive)
REMARK    1  A    between atoms: O1_1  and  N1_3 
ROOT
HETATM    1  N1  UNL     1       2.582  29.069  13.506  1.00  0.00    -0.235 N 
HETATM    2  C1  UNL     1       1.862  28.647  12.458  1.00  0.00     0.123 A 
HETATM    3  C2  UNL     1       2.407  27.780  11.537  1.00  0.00     0.021 A 
HETATM    4  C3  UNL     1       3.706  27.344  11.697  1.00  0.00     0.015 A 
HETATM    5  C4  UNL     1       4.467  27.772  12.777  1.00  0.00    -0.007 A 
HETATM    6  C5  UNL     1       5.774  27.345  12.955  1.00  0.00     0.014 A 
HETATM    7  C6  UNL     1       6.515  27.776  14.028  1.00  0.00     0.001 A 
HETATM    8  C7  UNL     1       5.911  28.644  14.914  1.00  0.00     0.002 A 
HETATM    9  C8  UNL     1       4.612  29.072  14.742  1.00  0.00     0.033 A 
HETATM   10  C9  UNL     1       3.851  28.639  13.655  1.00  0.00     0.072 A 
ENDROOT
BRANCH   1  11
HETATM   11  O1  UNL     1       1.991  29.932  14.392  1.00  0.00    -0.283 OA
ATOM     12  H1  UNL     1       1.141  30.292  14.168  1.00  0.00     0.245 HD
ENDBRANCH   1  11
TORSDOF 1
ENDMDL
MODEL 5
REMARK VINA RESULT: -6.161446511      1.211      1.483
REMARK  1 active torsions:
REMARK  status: ('A' for Active; 'I' for Inactive)
REMARK    1  A    between atoms: O1_1  and  N1_3 
ROOT
HETATM    1  N1  UNL     1       3.748  30.140  14.831  1.00  0.00    -0.235 N 
HETATM    2  C1  UNL     1       2.967  30.219  15.916  1.00  0.00     0.123 A 
HETATM    3  C2  UNL     1       2.921  29.184  16.823  1.00  0.00     0.021 A 
HETATM    4  C3  UNL     1       3.688  28.057  16.609  1.00  0.00     0.015 A 
HETATM    5  C4  UNL     1       4.503  27.958  15.490  1.00  0.00    -0.007 A 
HETATM    6  C5  UNL     1       5.281  26.834  15.258  1.00  0.00     0.014 A 
HETATM    7  C6  UNL     1       6.083  26.749  14.145  1.00  0.00     0.001 A 
HETATM    8  C7  UNL     1       6.082  27.820  13.276  1.00  0.00     0.002 A 
HETATM    9  C8  UNL     1       5.312  28.941  13.502  1.00  0.00     0.033 A 
HETATM   10  C9  UNL     1       4.494  29.035  14.629  1.00  0.00     0.072 A 
ENDROOT
BRANCH   1  11
HETATM   11  O1  UNL     1       3.756  31.200  13.961  1.00  0.00    -0.283 OA
ATOM     12  H1  UNL     1       3.711  32.077  14.322  1.00  0.00     0.245 HD
ENDBRANCH   1  11
TORSDOF 1
ENDMDL
