MODEL 1
REMARK VINA RESULT: -6.719686415      0.000      0.000
REMARK  0 active torsions:
REMARK  status: ('A' for Active; 'I' for Inactive)
ROOT
HETATM    1  C1  UNL     1       4.284  24.243  16.330  1.00  0.00     0.023 C 
HETATM    2  C2  UNL     1       4.551  25.068  15.334  1.00  0.00    -0.046 C 
HETATM    3  C3  UNL     1       5.662  26.000  15.493  1.00  0.00     0.011 C 
HETATM    4  C4  UNL     1       5.939  27.105  14.780  1.00  0.00     0.013 C 
HETATM    5  C5  UNL     1       5.224  27.695  13.654  1.00  0.00    -0.023 A 
HETATM    6  C6  UNL     1       5.669  28.946  13.286  1.00  0.00     0.029 A 
HETATM    7  C7  UNL     1       5.117  29.658  12.246  1.00  0.00     0.088 A 
HETATM    8  N1  UNL     1       4.090  29.092  11.561  1.00  0.00    -0.374 N 
ATOM      9  H1  UNL     1       3.661  29.595  10.785  1.00  0.00     0.164 HD
HETATM   10  C8  UNL     1       3.634  27.871  11.897  1.00  0.00     0.099 A 
HETATM   11  C9  UNL     1       4.177  27.151  12.933  1.00  0.00    -0.011 A 
HETATM   12  C10 UNL     1       3.546  25.849  13.144  1.00  0.00     0.014 C 
HETATM   13  C11 UNL     1       3.702  24.977  14.148  1.00  0.00     0.011 C 
ENDROOT
TORSDOF 0
ENDMDL
MODEL 2
REMARK VINA RESULT: -6.550328667      2.427      4.647
REMARK  0 active torsions:
REMARK  status: ('A' for Active; 'I' for Inactive)
ROOT
HETATM    1  C1  UNL     1       5.353  29.619  12.487  1.00  0.00     0.023 C 
HETATM    2  C2  UNL     1       5.219  28.773  13.492  1.00  0.00    -0.046 C 
HETATM    3  C3  UNL     1       5.953  27.514  13.434  1.00  0.00     0.011 C 
HETATM    4  C4  UNL     1       5.762  26.395  14.155  1.00  0.00     0.013 C 
HETATM    5  C5  UNL     1       4.778  26.110  15.194  1.00  0.00    -0.023 A 
HETATM    6  C6  UNL     1       4.727  24.791  15.586  1.00  0.00     0.029 A 
HETATM    7  C7  UNL     1       3.863  24.333  16.555  1.00  0.00     0.088 A 
HETATM    8  N1  UNL     1       3.030  25.231  17.140  1.00  0.00    -0.374 N 
ATOM      9  H1  UNL     1       2.378  24.921  17.860  1.00  0.00     0.164 HD
HETATM   10  C8  UNL     1       3.056  26.526  16.778  1.00  0.00     0.099 A 
HETATM   11  C9  UNL     1       3.915  26.995  15.812  1.00  0.00    -0.011 A 
HETATM   12  C10 UNL     1       3.793  28.429  15.558  1.00  0.00     0.014 C 
HETATM   13  C11 UNL     1       4.339  29.174  14.588  1.00  0.00     0.011 C 
ENDROOT
TORSDOF 0
ENDMDL
MODEL 3
REMARK VINA RESULT: -6.478219447      3.249      4.090
REMARK  0 active torsions:
REMARK  status: ('A' for Active; 'I' for Inactive)
ROOT
HETATM    1  C1  UNL     1       3.867  26.476  11.441  1.00  0.00     0.023 C 
HETATM    2  C2  UNL     1       3.519  27.573  12.089  1.00  0.00    -0.046 C 
HETATM    3  C3  UNL     1       4.492  28.656  12.177  1.00  0.00     0.011 C 
HETATM    4  C4  UNL     1       4.497  29.715  13.006  1.00  0.00     0.013 C 
HETATM    5  C5  UNL     1       3.548  30.091  14.047  1.00  0.00    -0.023 A 
HETATM    6  C6  UNL     1       3.961  31.132  14.850  1.00  0.00     0.029 A 
HETATM    7  C7  UNL     1       3.199  31.626  15.883  1.00  0.00     0.088 A 
HETATM    8  N1  UNL     1       1.990  31.053  16.113  1.00  0.00    -0.374 N 
ATOM      9  H1  UNL     1       1.403  31.397  16.872  1.00  0.00     0.164 HD
HETATM   10  C8  UNL     1       1.558  30.035  15.346  1.00  0.00     0.099 A 
HETATM   11  C9  UNL     1       2.310  29.534  14.310  1.00  0.00    -0.011 A 
HETATM   12  C10 UNL     1       1.672  28.430  13.597  1.00  0.00     0.014 C 
HETATM   13  C11 UNL     1       2.177  27.609  12.666  1.00  0.00     0.011 C 
ENDROOT
TORSDOF 0
ENDMDL
MODEL 4
REMARK VINA RESULT: -6.447944151      3.072      4.252
REMARK  0 active torsions:
REMARK  status: ('A' for Active; 'I' for Inactive)
ROOT
HETATM    1  C1  UNL     1       1.624  30.783  16.271  1.00  0.00     0.023 C 
HETATM    2  C2  UNL     1       2.702  30.066  16.007  1.00  0.00    -0.046 C 
HETATM    3  C3  UNL     1       3.537  30.470  14.881  1.00  0.00     0.011 C 
HETATM    4  C4  UNL     1       4.483  29.763  14.241  1.00  0.00     0.013 C 
HETATM    5  C5  UNL     1       4.951  28.401  14.476  1.00  0.00    -0.023 A 
HETATM    6  C6  UNL     1       5.796  27.911  13.503  1.00  0.00     0.029 A 
HETATM    7  C7  UNL     1       6.338  26.648  13.554  1.00  0.00     0.088 A 
HETATM    8  N1  UNL     1       6.019  25.860  14.613  1.00  0.00    -0.374 N 
ATOM      9  H1  UNL     1       6.406  24.919  14.678  1.00  0.00     0.164 HD
HETATM   10  C8  UNL     1       5.198  26.311  15.578  1.00  0.00     0.099 A 
HETATM   11  C9  UNL     1       4.650  27.571  15.539  1.00  0.00    -0.011 A 
HETATM   12  C10 UNL     1       3.784  27.875  16.676  1.00  0.00     0.014 C 
HETATM   13  C11 UNL     1       2.968  28.919  16.873  1.00  0.00     0.011 C 
ENDROOT
TORSDOF 0
ENDMDL
MODEL 5
REMARK VINA RESULT: -6.414003660      2.206      2.849
REMARK  0 active torsions:
REMARK  status: ('A' for Active; 'I' for Inactive)
ROOT
HETATM    1  C1  UNL     1       1.563  25.393  17.746  1.00  0.00     0.023 C 
HETATM    2  C2  UNL     1       2.674  25.850  17.197  1.00  0.00    -0.046 C 
HETATM    3  C3  UNL     1       2.945  27.280  17.284  1.00  0.00     0.011 C 
HETATM    4  C4  UNL     1       3.819  28.014  16.574  1.00  0.00     0.013 C 
HETATM    5  C5  UNL     1       4.742  27.607  15.520  1.00  0.00    -0.023 A 
HETATM    6  C6  UNL     1       5.352  28.651  14.860  1.00  0.00     0.029 A 
HETATM    7  C7  UNL     1       6.254  28.462  13.838  1.00  0.00     0.088 A 
HETATM    8  N1  UNL     1       6.545  27.187  13.474  1.00  0.00    -0.374 N 
ATOM      9  H1  UNL     1       7.210  27.016  12.720  1.00  0.00     0.164 HD
HETATM   10  C8  UNL     1       5.966  26.147  14.100  1.00  0.00     0.099 A 
HETATM   11  C9  UNL     1       5.064  26.323  15.123  1.00  0.00    -0.011 A 
HETATM   12  C10 UNL     1       4.544  25.074  15.675  1.00  0.00     0.014 C 
HETATM   13  C11 UNL     1       3.544  24.875  16.543  1.00  0.00     0.011 C 
ENDROOT
TORSDOF 0
ENDMDL
