MODEL 1
REMARK VINA RESULT: -9.521525147      0.000      0.000
REMARK  15 active torsions:
REMARK  status: ('A' for Active; 'I' for Inactive)
REMARK       I    between atoms: C1_4  and  N3_6 
REMARK    1  A    between atoms: N3_6  and  C2_7 
REMARK    2  A    between atoms: N3_6  and  C16_41 
REMARK    3  A    between atoms: C2_7  and  C3_8 
REMARK    4  A    between atoms: C3_8  and  C4_9 
REMARK    5  A    between atoms: C4_9  and  N4_10 
REMARK    6  A    between atoms: N4_10  and  C5_12 
REMARK    7  A    between atoms: C6_15  and  N6_16 
REMARK    8  A    between atoms: N6_16  and  C7_18 
REMARK    9  A    between atoms: C7_18  and  C8_19 
REMARK   10  A    between atoms: C8_19  and  N7_20 
REMARK   11  A    between atoms: C10_24  and  N8_25 
REMARK   12  A    between atoms: N10_32  and  C12_33 
REMARK   13  A    between atoms: C12_33  and  C13_34 
REMARK   14  A    between atoms: C13_34  and  C14_35 
REMARK   15  A    between atoms: C16_41  and  C17_42 
ROOT
HETATM    1  C5  UNL     1     -16.596 -19.927 -23.053  1.00  0.00     0.681 A 
HETATM    2  N5  UNL     1     -16.287 -20.789 -22.074  1.00  0.00    -0.176 N 
ATOM      3  H5  UNL     1     -16.930 -20.881 -21.288  1.00  0.00     0.186 HD
HETATM    4  C6  UNL     1     -15.173 -21.536 -22.079  1.00  0.00     0.134 A 
HETATM    5  C9  UNL     1     -14.308 -21.401 -23.151  1.00  0.00     0.097 A 
HETATM    6  C10 UNL     1     -13.167 -22.163 -23.222  1.00  0.00     0.120 A 
HETATM    7  N9  UNL     1     -12.389 -22.008 -24.298  1.00  0.00    -0.294 N 
ATOM      8  H9  UNL     1     -11.535 -22.562 -24.378  1.00  0.00     0.172 HD
HETATM    9  C11 UNL     1     -12.700 -21.144 -25.275  1.00  0.00     0.330 A 
HETATM   10  O3  UNL     1     -11.918 -21.044 -26.273  1.00  0.00    -0.246 OA
HETATM   11  N10 UNL     1     -13.825 -20.359 -25.251  1.00  0.00    -0.280 N 
HETATM   12  C15 UNL     1     -14.624 -20.501 -24.176  1.00  0.00     0.145 A 
HETATM   13  N12 UNL     1     -15.751 -19.786 -24.112  1.00  0.00    -0.175 N 
ATOM     14  H12 UNL     1     -15.980 -19.130 -24.860  1.00  0.00     0.186 HD
ENDROOT
BRANCH   1  15
HETATM   15  N4  UNL     1     -17.659 -19.210 -23.065  1.00  0.00    -0.226 N 
ATOM     16  H4  UNL     1     -18.395 -19.499 -23.709  1.00  0.00     0.177 HD
BRANCH  15  17
HETATM   17  C4  UNL     1     -17.921 -18.058 -22.279  1.00  0.00     0.139 C 
BRANCH  17  18
HETATM   18  C3  UNL     1     -17.588 -16.801 -23.068  1.00  0.00     0.040 C 
BRANCH  18  19
HETATM   19  C2  UNL     1     -18.074 -16.966 -24.494  1.00  0.00     0.127 C 
BRANCH  19  20
HETATM   20  N3  UNL     1     -19.206 -16.094 -24.734  1.00  0.00    -0.347 N 
HETATM   21  C1  UNL     1     -20.507 -16.624 -24.935  1.00  0.00     0.184 C 
HETATM   22  N1  UNL     1     -21.211 -16.147 -25.899  1.00  0.00    -0.374 N 
HETATM   23  N2  UNL     1     -20.989 -17.645 -24.088  1.00  0.00    -0.064 NA
ATOM     24  H12 UNL     1     -22.146 -16.528 -26.043  1.00  0.00     0.158 HD
ATOM     25  H11 UNL     1     -20.863 -15.409 -26.511  1.00  0.00     0.158 HD
BRANCH  20  26
HETATM   26  C16 UNL     1     -19.039 -14.655 -24.781  1.00  0.00     0.224 C 
BRANCH  26  27
HETATM   27  C17 UNL     1     -19.851 -13.999 -23.703  1.00  0.00     0.249 C 
HETATM   28  N13 UNL     1     -20.671 -12.869 -23.979  1.00  0.00    -0.061 NA
HETATM   29  O5  UNL     1     -19.826 -14.431 -22.532  1.00  0.00    -0.275 OA
ENDBRANCH  26  27
ENDBRANCH  20  26
ENDBRANCH  19  20
ENDBRANCH  18  19
ENDBRANCH  17  18
ENDBRANCH  15  17
ENDBRANCH   1  15
BRANCH   4  30
HETATM   30  N6  UNL     1     -14.854 -22.364 -21.169  1.00  0.00    -0.373 N 
ATOM     31  H6  UNL     1     -13.970 -22.864 -21.257  1.00  0.00     0.161 HD
BRANCH  30  32
HETATM   32  C7  UNL     1     -15.679 -22.633 -20.021  1.00  0.00     0.147 C 
BRANCH  32  33
HETATM   33  C8  UNL     1     -15.524 -21.631 -18.905  1.00  0.00     0.221 C 
BRANCH  33  34
HETATM   34  N7  UNL     1     -16.761 -21.032 -18.480  1.00  0.00    -0.154 N 
HETATM   35  O1  UNL     1     -17.505 -20.470 -19.331  1.00  0.00    -0.536 OA
HETATM   36  O2  UNL     1     -17.214 -21.018 -17.187  1.00  0.00    -0.536 OA
ENDBRANCH  33  34
ENDBRANCH  32  33
ENDBRANCH  30  32
ENDBRANCH   4  30
BRANCH  11  37
HETATM   37  C12 UNL     1     -14.081 -19.532 -26.368  1.00  0.00     0.167 C 
BRANCH  37  38
HETATM   38  C13 UNL     1     -14.688 -20.111 -27.582  1.00  0.00     0.064 C 
BRANCH  38  39
HETATM   39  C14 UNL     1     -16.073 -20.039 -27.905  1.00  0.00     0.252 C 
HETATM   40  N11 UNL     1     -16.945 -19.450 -26.886  1.00  0.00    -0.058 NA
HETATM   41  O4  UNL     1     -16.672 -20.400 -28.921  1.00  0.00    -0.272 OA
ENDBRANCH  38  39
ENDBRANCH  37  38
ENDBRANCH  11  37
BRANCH   6  42
HETATM   42  N8  UNL     1     -12.915 -22.968 -22.261  1.00  0.00    -0.384 N 
ATOM     43  H82 UNL     1     -13.123 -22.775 -21.281  1.00  0.00     0.157 HD
ATOM     44  H81 UNL     1     -12.481 -23.864 -22.481  1.00  0.00     0.157 HD
ENDBRANCH   6  42
TORSDOF 15
ENDMDL
MODEL 2
REMARK VINA RESULT: -9.491963786      1.241      1.934
REMARK  15 active torsions:
REMARK  status: ('A' for Active; 'I' for Inactive)
REMARK       I    between atoms: C1_4  and  N3_6 
REMARK    1  A    between atoms: N3_6  and  C2_7 
REMARK    2  A    between atoms: N3_6  and  C16_41 
REMARK    3  A    between atoms: C2_7  and  C3_8 
REMARK    4  A    between atoms: C3_8  and  C4_9 
REMARK    5  A    between atoms: C4_9  and  N4_10 
REMARK    6  A    between atoms: N4_10  and  C5_12 
REMARK    7  A    between atoms: C6_15  and  N6_16 
REMARK    8  A    between atoms: N6_16  and  C7_18 
REMARK    9  A    between atoms: C7_18  and  C8_19 
REMARK   10  A    between atoms: C8_19  and  N7_20 
REMARK   11  A    between atoms: C10_24  and  N8_25 
REMARK   12  A    between atoms: N10_32  and  C12_33 
REMARK   13  A    between atoms: C12_33  and  C13_34 
REMARK   14  A    between atoms: C13_34  and  C14_35 
REMARK   15  A    between atoms: C16_41  and  C17_42 
ROOT
HETATM    1  C5  UNL     1     -16.939 -20.009 -22.945  1.00  0.00     0.681 A 
HETATM    2  N5  UNL     1     -16.513 -20.840 -21.984  1.00  0.00    -0.176 N 
ATOM      3  H5  UNL     1     -17.111 -20.991 -21.172  1.00  0.00     0.186 HD
HETATM    4  C6  UNL     1     -15.337 -21.482 -22.038  1.00  0.00     0.134 A 
HETATM    5  C9  UNL     1     -14.534 -21.267 -23.145  1.00  0.00     0.097 A 
HETATM    6  C10 UNL     1     -13.332 -21.922 -23.268  1.00  0.00     0.120 A 
HETATM    7  N9  UNL     1     -12.617 -21.696 -24.374  1.00  0.00    -0.294 N 
ATOM      8  H9  UNL     1     -11.721 -22.170 -24.492  1.00  0.00     0.172 HD
HETATM    9  C11 UNL     1     -13.046 -20.864 -25.334  1.00  0.00     0.330 A 
HETATM   10  O3  UNL     1     -12.319 -20.692 -26.362  1.00  0.00    -0.246 OA
HETATM   11  N10 UNL     1     -14.236 -20.184 -25.258  1.00  0.00    -0.280 N 
HETATM   12  C15 UNL     1     -14.973 -20.399 -24.152  1.00  0.00     0.145 A 
HETATM   13  N12 UNL     1     -16.157 -19.790 -24.038  1.00  0.00    -0.175 N 
ATOM     14  H12 UNL     1     -16.475 -19.157 -24.772  1.00  0.00     0.186 HD
ENDROOT
BRANCH   1  15
HETATM   15  N4  UNL     1     -18.063 -19.392 -22.909  1.00  0.00    -0.226 N 
ATOM     16  H4  UNL     1     -18.189 -18.720 -22.152  1.00  0.00     0.177 HD
BRANCH  15  17
HETATM   17  C4  UNL     1     -19.149 -19.542 -23.810  1.00  0.00     0.139 C 
BRANCH  17  18
HETATM   18  C3  UNL     1     -19.158 -18.397 -24.812  1.00  0.00     0.040 C 
BRANCH  18  19
HETATM   19  C2  UNL     1     -19.680 -17.147 -24.134  1.00  0.00     0.127 C 
BRANCH  19  20
HETATM   20  N3  UNL     1     -18.832 -16.017 -24.459  1.00  0.00    -0.347 N 
HETATM   21  C1  UNL     1     -19.391 -14.748 -24.764  1.00  0.00     0.184 C 
HETATM   22  N1  UNL     1     -18.924 -14.112 -25.779  1.00  0.00    -0.374 N 
HETATM   23  N2  UNL     1     -20.427 -14.225 -23.963  1.00  0.00    -0.064 NA
ATOM     24  H12 UNL     1     -19.325 -13.200 -25.998  1.00  0.00     0.158 HD
ATOM     25  H11 UNL     1     -18.175 -14.490 -26.358  1.00  0.00     0.158 HD
BRANCH  20  26
HETATM   26  C16 UNL     1     -17.390 -16.154 -24.486  1.00  0.00     0.224 C 
BRANCH  26  27
HETATM   27  C17 UNL     1     -16.847 -16.239 -23.090  1.00  0.00     0.249 C 
HETATM   28  N13 UNL     1     -15.639 -16.938 -22.808  1.00  0.00    -0.061 NA
HETATM   29  O5  UNL     1     -17.443 -15.696 -22.138  1.00  0.00    -0.275 OA
ENDBRANCH  26  27
ENDBRANCH  20  26
ENDBRANCH  19  20
ENDBRANCH  18  19
ENDBRANCH  17  18
ENDBRANCH  15  17
ENDBRANCH   1  15
BRANCH   4  30
HETATM   30  N6  UNL     1     -14.906 -22.278 -21.146  1.00  0.00    -0.373 N 
ATOM     31  H6  UNL     1     -13.987 -22.700 -21.277  1.00  0.00     0.161 HD
BRANCH  30  32
HETATM   32  C7  UNL     1     -15.650 -22.616 -19.962  1.00  0.00     0.147 C 
BRANCH  32  33
HETATM   33  C8  UNL     1     -15.503 -21.620 -18.840  1.00  0.00     0.221 C 
BRANCH  33  34
HETATM   34  N7  UNL     1     -16.746 -21.040 -18.405  1.00  0.00    -0.154 N 
HETATM   35  O1  UNL     1     -17.502 -20.482 -19.250  1.00  0.00    -0.536 OA
HETATM   36  O2  UNL     1     -17.193 -21.040 -17.111  1.00  0.00    -0.536 OA
ENDBRANCH  33  34
ENDBRANCH  32  33
ENDBRANCH  30  32
ENDBRANCH   4  30
BRANCH  11  37
HETATM   37  C12 UNL     1     -14.613 -19.383 -26.360  1.00  0.00     0.167 C 
BRANCH  37  38
HETATM   38  C13 UNL     1     -15.700 -19.831 -27.252  1.00  0.00     0.064 C 
BRANCH  38  39
HETATM   39  C14 UNL     1     -15.510 -20.629 -28.417  1.00  0.00     0.252 C 
HETATM   40  N11 UNL     1     -16.629 -20.670 -29.362  1.00  0.00    -0.058 NA
HETATM   41  O4  UNL     1     -14.541 -21.305 -28.767  1.00  0.00    -0.272 OA
ENDBRANCH  38  39
ENDBRANCH  37  38
ENDBRANCH  11  37
BRANCH   6  42
HETATM   42  N8  UNL     1     -12.968 -22.702 -22.321  1.00  0.00    -0.384 N 
ATOM     43  H82 UNL     1     -13.009 -22.462 -21.331  1.00  0.00     0.157 HD
ATOM     44  H81 UNL     1     -12.614 -23.627 -22.566  1.00  0.00     0.157 HD
ENDBRANCH   6  42
TORSDOF 15
ENDMDL
MODEL 3
REMARK VINA RESULT: -9.445217110      1.133      1.437
REMARK  15 active torsions:
REMARK  status: ('A' for Active; 'I' for Inactive)
REMARK       I    between atoms: C1_4  and  N3_6 
REMARK    1  A    between atoms: N3_6  and  C2_7 
REMARK    2  A    between atoms: N3_6  and  C16_41 
REMARK    3  A    between atoms: C2_7  and  C3_8 
REMARK    4  A    between atoms: C3_8  and  C4_9 
REMARK    5  A    between atoms: C4_9  and  N4_10 
REMARK    6  A    between atoms: N4_10  and  C5_12 
REMARK    7  A    between atoms: C6_15  and  N6_16 
REMARK    8  A    between atoms: N6_16  and  C7_18 
REMARK    9  A    between atoms: C7_18  and  C8_19 
REMARK   10  A    between atoms: C8_19  and  N7_20 
REMARK   11  A    between atoms: C10_24  and  N8_25 
REMARK   12  A    between atoms: N10_32  and  C12_33 
REMARK   13  A    between atoms: C12_33  and  C13_34 
REMARK   14  A    between atoms: C13_34  and  C14_35 
REMARK   15  A    between atoms: C16_41  and  C17_42 
ROOT
HETATM    1  C5  UNL     1     -16.476 -19.700 -23.121  1.00  0.00     0.681 A 
HETATM    2  N5  UNL     1     -16.170 -20.523 -22.109  1.00  0.00    -0.176 N 
ATOM      3  H5  UNL     1     -16.792 -20.551 -21.301  1.00  0.00     0.186 HD
HETATM    4  C6  UNL     1     -15.085 -21.312 -22.107  1.00  0.00     0.134 A 
HETATM    5  C9  UNL     1     -14.249 -21.264 -23.209  1.00  0.00     0.097 A 
HETATM    6  C10 UNL     1     -13.140 -22.073 -23.273  1.00  0.00     0.120 A 
HETATM    7  N9  UNL     1     -12.389 -22.002 -24.377  1.00  0.00    -0.294 N 
ATOM      8  H9  UNL     1     -11.560 -22.592 -24.452  1.00  0.00     0.172 HD
HETATM    9  C11 UNL     1     -12.697 -21.177 -25.388  1.00  0.00     0.330 A 
HETATM   10  O3  UNL     1     -11.942 -21.157 -26.410  1.00  0.00    -0.246 OA
HETATM   11  N10 UNL     1     -13.791 -20.348 -25.371  1.00  0.00    -0.280 N 
HETATM   12  C15 UNL     1     -14.562 -20.405 -24.269  1.00  0.00     0.145 A 
HETATM   13  N12 UNL     1     -15.659 -19.644 -24.209  1.00  0.00    -0.175 N 
ATOM     14  H12 UNL     1     -15.885 -19.018 -24.983  1.00  0.00     0.186 HD
ENDROOT
BRANCH   1  15
HETATM   15  N4  UNL     1     -17.511 -18.944 -23.140  1.00  0.00    -0.226 N 
ATOM     16  H4  UNL     1     -17.340 -17.939 -23.109  1.00  0.00     0.177 HD
BRANCH  15  17
HETATM   17  C4  UNL     1     -18.868 -19.355 -23.199  1.00  0.00     0.139 C 
BRANCH  17  18
HETATM   18  C3  UNL     1     -19.604 -18.572 -24.277  1.00  0.00     0.040 C 
BRANCH  18  19
HETATM   19  C2  UNL     1     -18.786 -17.353 -24.652  1.00  0.00     0.127 C 
BRANCH  19  20
HETATM   20  N3  UNL     1     -19.393 -16.161 -24.095  1.00  0.00    -0.347 N 
HETATM   21  C1  UNL     1     -19.056 -15.710 -22.791  1.00  0.00     0.184 C 
HETATM   22  N1  UNL     1     -20.012 -15.350 -22.011  1.00  0.00    -0.374 N 
HETATM   23  N2  UNL     1     -17.704 -15.671 -22.388  1.00  0.00    -0.064 NA
ATOM     24  H12 UNL     1     -19.770 -15.026 -21.075  1.00  0.00     0.158 HD
ATOM     25  H11 UNL     1     -20.989 -15.378 -22.303  1.00  0.00     0.158 HD
BRANCH  20  26
HETATM   26  C16 UNL     1     -20.364 -15.397 -24.852  1.00  0.00     0.224 C 
BRANCH  26  27
HETATM   27  C17 UNL     1     -19.897 -13.982 -25.024  1.00  0.00     0.249 C 
HETATM   28  N13 UNL     1     -20.524 -12.908 -24.331  1.00  0.00    -0.061 NA
HETATM   29  O5  UNL     1     -18.945 -13.710 -25.783  1.00  0.00    -0.275 OA
ENDBRANCH  26  27
ENDBRANCH  20  26
ENDBRANCH  19  20
ENDBRANCH  18  19
ENDBRANCH  17  18
ENDBRANCH  15  17
ENDBRANCH   1  15
BRANCH   4  30
HETATM   30  N6  UNL     1     -14.771 -22.106 -21.165  1.00  0.00    -0.373 N 
ATOM     31  H6  UNL     1     -13.826 -22.489 -21.150  1.00  0.00     0.161 HD
BRANCH  30  32
HETATM   32  C7  UNL     1     -15.680 -22.491 -20.119  1.00  0.00     0.147 C 
BRANCH  32  33
HETATM   33  C8  UNL     1     -15.549 -21.674 -18.859  1.00  0.00     0.221 C 
BRANCH  33  34
HETATM   34  N7  UNL     1     -16.771 -21.040 -18.443  1.00  0.00    -0.154 N 
HETATM   35  O1  UNL     1     -17.502 -20.471 -19.303  1.00  0.00    -0.536 OA
HETATM   36  O2  UNL     1     -17.224 -20.996 -17.151  1.00  0.00    -0.536 OA
ENDBRANCH  33  34
ENDBRANCH  32  33
ENDBRANCH  30  32
ENDBRANCH   4  30
BRANCH  11  37
HETATM   37  C12 UNL     1     -14.049 -19.568 -26.522  1.00  0.00     0.167 C 
BRANCH  37  38
HETATM   38  C13 UNL     1     -14.713 -20.184 -27.688  1.00  0.00     0.064 C 
BRANCH  38  39
HETATM   39  C14 UNL     1     -16.098 -20.051 -27.990  1.00  0.00     0.252 C 
HETATM   40  N11 UNL     1     -16.934 -19.451 -26.947  1.00  0.00    -0.058 NA
HETATM   41  O4  UNL     1     -16.723 -20.367 -29.005  1.00  0.00    -0.272 OA
ENDBRANCH  38  39
ENDBRANCH  37  38
ENDBRANCH  11  37
BRANCH   6  42
HETATM   42  N8  UNL     1     -12.889 -22.838 -22.279  1.00  0.00    -0.384 N 
ATOM     43  H82 UNL     1     -13.121 -22.617 -21.311  1.00  0.00     0.157 HD
ATOM     44  H81 UNL     1     -12.431 -23.731 -22.460  1.00  0.00     0.157 HD
ENDBRANCH   6  42
TORSDOF 15
ENDMDL
MODEL 4
REMARK VINA RESULT: -9.441015909      1.708      2.083
REMARK  15 active torsions:
REMARK  status: ('A' for Active; 'I' for Inactive)
REMARK       I    between atoms: C1_4  and  N3_6 
REMARK    1  A    between atoms: N3_6  and  C2_7 
REMARK    2  A    between atoms: N3_6  and  C16_41 
REMARK    3  A    between atoms: C2_7  and  C3_8 
REMARK    4  A    between atoms: C3_8  and  C4_9 
REMARK    5  A    between atoms: C4_9  and  N4_10 
REMARK    6  A    between atoms: N4_10  and  C5_12 
REMARK    7  A    between atoms: C6_15  and  N6_16 
REMARK    8  A    between atoms: N6_16  and  C7_18 
REMARK    9  A    between atoms: C7_18  and  C8_19 
REMARK   10  A    between atoms: C8_19  and  N7_20 
REMARK   11  A    between atoms: C10_24  and  N8_25 
REMARK   12  A    between atoms: N10_32  and  C12_33 
REMARK   13  A    between atoms: C12_33  and  C13_34 
REMARK   14  A    between atoms: C13_34  and  C14_35 
REMARK   15  A    between atoms: C16_41  and  C17_42 
ROOT
HETATM    1  C5  UNL     1     -17.561 -19.742 -22.398  1.00  0.00     0.681 A 
HETATM    2  N5  UNL     1     -17.037 -20.553 -21.469  1.00  0.00    -0.176 N 
ATOM      3  H5  UNL     1     -17.552 -20.693 -20.600  1.00  0.00     0.186 HD
HETATM    4  C6  UNL     1     -15.866 -21.187 -21.626  1.00  0.00     0.134 A 
HETATM    5  C9  UNL     1     -15.175 -20.988 -22.808  1.00  0.00     0.097 A 
HETATM    6  C10 UNL     1     -13.985 -21.636 -23.035  1.00  0.00     0.120 A 
HETATM    7  N9  UNL     1     -13.382 -21.425 -24.209  1.00  0.00    -0.294 N 
ATOM      8  H9  UNL     1     -12.497 -21.895 -24.405  1.00  0.00     0.172 HD
HETATM    9  C11 UNL     1     -13.908 -20.613 -25.137  1.00  0.00     0.330 A 
HETATM   10  O3  UNL     1     -13.286 -20.455 -26.233  1.00  0.00    -0.246 OA
HETATM   11  N10 UNL     1     -15.092 -19.941 -24.959  1.00  0.00    -0.280 N 
HETATM   12  C15 UNL     1     -15.716 -20.141 -23.783  1.00  0.00     0.145 A 
HETATM   13  N12 UNL     1     -16.889 -19.537 -23.565  1.00  0.00    -0.175 N 
ATOM     14  H12 UNL     1     -17.282 -18.920 -24.276  1.00  0.00     0.186 HD
ENDROOT
BRANCH   1  15
HETATM   15  N4  UNL     1     -18.681 -19.132 -22.265  1.00  0.00    -0.226 N 
ATOM     16  H4  UNL     1     -19.444 -19.448 -22.862  1.00  0.00     0.177 HD
BRANCH  15  17
HETATM   17  C4  UNL     1     -18.972 -18.065 -21.376  1.00  0.00     0.139 C 
BRANCH  17  18
HETATM   18  C3  UNL     1     -18.470 -16.750 -21.956  1.00  0.00     0.040 C 
BRANCH  18  19
HETATM   19  C2  UNL     1     -19.634 -16.005 -22.577  1.00  0.00     0.127 C 
BRANCH  19  20
HETATM   20  N3  UNL     1     -19.540 -16.056 -24.022  1.00  0.00    -0.347 N 
HETATM   21  C1  UNL     1     -19.828 -17.252 -24.730  1.00  0.00     0.184 C 
HETATM   22  N1  UNL     1     -19.020 -17.610 -25.664  1.00  0.00    -0.374 N 
HETATM   23  N2  UNL     1     -20.972 -18.008 -24.398  1.00  0.00    -0.064 NA
ATOM     24  H12 UNL     1     -19.227 -18.469 -26.174  1.00  0.00     0.158 HD
ATOM     25  H11 UNL     1     -18.193 -17.063 -25.904  1.00  0.00     0.158 HD
BRANCH  20  26
HETATM   26  C16 UNL     1     -19.145 -14.889 -24.784  1.00  0.00     0.224 C 
BRANCH  26  27
HETATM   27  C17 UNL     1     -20.345 -14.058 -25.127  1.00  0.00     0.249 C 
HETATM   28  N13 UNL     1     -21.271 -14.474 -26.125  1.00  0.00    -0.061 NA
HETATM   29  O5  UNL     1     -20.562 -12.976 -24.545  1.00  0.00    -0.275 OA
ENDBRANCH  26  27
ENDBRANCH  20  26
ENDBRANCH  19  20
ENDBRANCH  18  19
ENDBRANCH  17  18
ENDBRANCH  15  17
ENDBRANCH   1  15
BRANCH   4  30
HETATM   30  N6  UNL     1     -15.344 -21.965 -20.766  1.00  0.00    -0.373 N 
ATOM     31  H6  UNL     1     -14.434 -22.375 -20.972  1.00  0.00     0.161 HD
BRANCH  30  32
HETATM   32  C7  UNL     1     -15.974 -22.297 -19.516  1.00  0.00     0.147 C 
BRANCH  32  33
HETATM   33  C8  UNL     1     -15.482 -21.485 -18.345  1.00  0.00     0.221 C 
BRANCH  33  34
HETATM   34  N7  UNL     1     -16.356 -21.514 -17.203  1.00  0.00    -0.154 N 
HETATM   35  O1  UNL     1     -17.433 -20.855 -17.226  1.00  0.00    -0.536 OA
HETATM   36  O2  UNL     1     -16.110 -22.217 -16.054  1.00  0.00    -0.536 OA
ENDBRANCH  33  34
ENDBRANCH  32  33
ENDBRANCH  30  32
ENDBRANCH   4  30
BRANCH  11  37
HETATM   37  C12 UNL     1     -15.580 -19.162 -26.033  1.00  0.00     0.167 C 
BRANCH  37  38
HETATM   38  C13 UNL     1     -15.152 -17.756 -26.169  1.00  0.00     0.064 C 
BRANCH  38  39
HETATM   39  C14 UNL     1     -15.532 -16.708 -25.282  1.00  0.00     0.252 C 
HETATM   40  N11 UNL     1     -15.072 -15.363 -25.635  1.00  0.00    -0.058 NA
HETATM   41  O4  UNL     1     -16.196 -16.747 -24.244  1.00  0.00    -0.272 OA
ENDBRANCH  38  39
ENDBRANCH  37  38
ENDBRANCH  11  37
BRANCH   6  42
HETATM   42  N8  UNL     1     -13.525 -22.396 -22.115  1.00  0.00    -0.384 N 
ATOM     43  H82 UNL     1     -14.092 -23.042 -21.566  1.00  0.00     0.157 HD
ATOM     44  H81 UNL     1     -12.526 -22.361 -21.913  1.00  0.00     0.157 HD
ENDBRANCH   6  42
TORSDOF 15
ENDMDL
MODEL 5
REMARK VINA RESULT: -9.419221282      1.812      2.592
REMARK  15 active torsions:
REMARK  status: ('A' for Active; 'I' for Inactive)
REMARK       I    between atoms: C1_4  and  N3_6 
REMARK    1  A    between atoms: N3_6  and  C2_7 
REMARK    2  A    between atoms: N3_6  and  C16_41 
REMARK    3  A    between atoms: C2_7  and  C3_8 
REMARK    4  A    between atoms: C3_8  and  C4_9 
REMARK    5  A    between atoms: C4_9  and  N4_10 
REMARK    6  A    between atoms: N4_10  and  C5_12 
REMARK    7  A    between atoms: C6_15  and  N6_16 
REMARK    8  A    between atoms: N6_16  and  C7_18 
REMARK    9  A    between atoms: C7_18  and  C8_19 
REMARK   10  A    between atoms: C8_19  and  N7_20 
REMARK   11  A    between atoms: C10_24  and  N8_25 
REMARK   12  A    between atoms: N10_32  and  C12_33 
REMARK   13  A    between atoms: C12_33  and  C13_34 
REMARK   14  A    between atoms: C13_34  and  C14_35 
REMARK   15  A    between atoms: C16_41  and  C17_42 
ROOT
HETATM    1  C5  UNL     1     -17.193 -19.866 -22.464  1.00  0.00     0.681 A 
HETATM    2  N5  UNL     1     -16.711 -20.728 -21.558  1.00  0.00    -0.176 N 
ATOM      3  H5  UNL     1     -17.252 -20.895 -20.711  1.00  0.00     0.186 HD
HETATM    4  C6  UNL     1     -15.550 -21.381 -21.713  1.00  0.00     0.134 A 
HETATM    5  C9  UNL     1     -14.824 -21.145 -22.868  1.00  0.00     0.097 A 
HETATM    6  C10 UNL     1     -13.642 -21.809 -23.092  1.00  0.00     0.120 A 
HETATM    7  N9  UNL     1     -13.004 -21.561 -24.240  1.00  0.00    -0.294 N 
ATOM      8  H9  UNL     1     -12.124 -22.041 -24.434  1.00  0.00     0.172 HD
HETATM    9  C11 UNL     1     -13.488 -20.697 -25.144  1.00  0.00     0.330 A 
HETATM   10  O3  UNL     1     -12.834 -20.505 -26.216  1.00  0.00    -0.246 OA
HETATM   11  N10 UNL     1     -14.662 -20.007 -24.967  1.00  0.00    -0.280 N 
HETATM   12  C15 UNL     1     -15.321 -20.244 -23.818  1.00  0.00     0.145 A 
HETATM   13  N12 UNL     1     -16.486 -19.625 -23.603  1.00  0.00    -0.175 N 
ATOM     14  H12 UNL     1     -16.847 -18.969 -24.296  1.00  0.00     0.186 HD
ENDROOT
BRANCH   1  15
HETATM   15  N4  UNL     1     -18.303 -19.237 -22.333  1.00  0.00    -0.226 N 
ATOM     16  H4  UNL     1     -18.901 -19.194 -23.157  1.00  0.00     0.177 HD
BRANCH  15  17
HETATM   17  C4  UNL     1     -18.788 -18.595 -21.163  1.00  0.00     0.139 C 
BRANCH  17  18
HETATM   18  C3  UNL     1     -19.359 -17.230 -21.517  1.00  0.00     0.040 C 
BRANCH  18  19
HETATM   19  C2  UNL     1     -18.369 -16.488 -22.391  1.00  0.00     0.127 C 
BRANCH  19  20
HETATM   20  N3  UNL     1     -19.044 -15.952 -23.556  1.00  0.00    -0.347 N 
HETATM   21  C1  UNL     1     -20.046 -14.955 -23.426  1.00  0.00     0.184 C 
HETATM   22  N1  UNL     1     -21.130 -15.096 -24.103  1.00  0.00    -0.374 N 
HETATM   23  N2  UNL     1     -19.835 -13.853 -22.571  1.00  0.00    -0.064 NA
ATOM     24  H12 UNL     1     -21.850 -14.380 -24.009  1.00  0.00     0.158 HD
ATOM     25  H11 UNL     1     -21.282 -15.893 -24.721  1.00  0.00     0.158 HD
BRANCH  20  26
HETATM   26  C16 UNL     1     -18.717 -16.423 -24.888  1.00  0.00     0.224 C 
BRANCH  26  27
HETATM   27  C17 UNL     1     -19.204 -17.829 -25.079  1.00  0.00     0.249 C 
HETATM   28  N13 UNL     1     -20.533 -18.204 -24.731  1.00  0.00    -0.061 NA
HETATM   29  O5  UNL     1     -18.454 -18.707 -25.550  1.00  0.00    -0.275 OA
ENDBRANCH  26  27
ENDBRANCH  20  26
ENDBRANCH  19  20
ENDBRANCH  18  19
ENDBRANCH  17  18
ENDBRANCH  15  17
ENDBRANCH   1  15
BRANCH   4  30
HETATM   30  N6  UNL     1     -15.068 -22.207 -20.875  1.00  0.00    -0.373 N 
ATOM     31  H6  UNL     1     -14.168 -22.639 -21.084  1.00  0.00     0.161 HD
BRANCH  30  32
HETATM   32  C7  UNL     1     -15.728 -22.564 -19.648  1.00  0.00     0.147 C 
BRANCH  32  33
HETATM   33  C8  UNL     1     -15.339 -21.707 -18.470  1.00  0.00     0.221 C 
BRANCH  33  34
HETATM   34  N7  UNL     1     -16.266 -21.766 -17.371  1.00  0.00    -0.154 N 
HETATM   35  O1  UNL     1     -16.107 -22.635 -16.468  1.00  0.00    -0.536 OA
HETATM   36  O2  UNL     1     -17.344 -20.935 -17.219  1.00  0.00    -0.536 OA
ENDBRANCH  33  34
ENDBRANCH  32  33
ENDBRANCH  30  32
ENDBRANCH   4  30
BRANCH  11  37
HETATM   37  C12 UNL     1     -15.104 -19.171 -26.017  1.00  0.00     0.167 C 
BRANCH  37  38
HETATM   38  C13 UNL     1     -14.652 -17.767 -26.074  1.00  0.00     0.064 C 
BRANCH  38  39
HETATM   39  C14 UNL     1     -15.035 -16.759 -25.145  1.00  0.00     0.252 C 
HETATM   40  N11 UNL     1     -15.099 -15.390 -25.664  1.00  0.00    -0.058 NA
HETATM   41  O4  UNL     1     -15.325 -16.849 -23.950  1.00  0.00    -0.272 OA
ENDBRANCH  38  39
ENDBRANCH  37  38
ENDBRANCH  11  37
BRANCH   6  42
HETATM   42  N8  UNL     1     -13.223 -22.619 -22.195  1.00  0.00    -0.384 N 
ATOM     43  H82 UNL     1     -13.793 -22.971 -21.427  1.00  0.00     0.157 HD
ATOM     44  H81 UNL     1     -12.256 -22.939 -22.247  1.00  0.00     0.157 HD
ENDBRANCH   6  42
TORSDOF 15
ENDMDL
