MODEL 1
REMARK VINA RESULT: -9.796806545      0.000      0.000
REMARK  16 active torsions:
REMARK  status: ('A' for Active; 'I' for Inactive)
REMARK    1  A    between atoms: C2_3  and  N4_9 
REMARK    2  A    between atoms: N2_4  and  N3_6 
REMARK    3  A    between atoms: N4_9  and  C3_11 
REMARK    4  A    between atoms: C4_14  and  N6_15 
REMARK    5  A    between atoms: C5_17  and  C6_18 
REMARK    6  A    between atoms: C6_18  and  C7_19 
REMARK    7  A    between atoms: C7_19  and  N7_20 
REMARK    8  A    between atoms: N9_27  and  C9_29 
REMARK       I    between atoms: N10_32  and  C12_33 
REMARK    9  A    between atoms: C12_33  and  C13_35 
REMARK   10  A    between atoms: C13_35  and  C14_36 
REMARK   11  A    between atoms: C14_36  and  C15_37 
REMARK   12  A    between atoms: C15_37  and  N11_38 
REMARK   13  A    between atoms: N11_38  and  C16_41 
REMARK   14  A    between atoms: C16_41  and  O2_42 
REMARK   15  A    between atoms: C16_41  and  C17_44 
REMARK   16  A    between atoms: C17_44  and  C18_45 
ROOT
HETATM    1  N1  UNL     1     -13.139 -20.574 -26.421  1.00  0.00    -0.188 NA
HETATM    2  C1  UNL     1     -14.075 -20.511 -27.114  1.00  0.00     0.139 C 
HETATM    3  C2  UNL     1     -15.233 -20.457 -27.960  1.00  0.00     0.217 C 
HETATM    4  N2  UNL     1     -15.155 -20.976 -29.147  1.00  0.00    -0.283 N 
ATOM      5  H2  UNL     1     -14.272 -21.400 -29.429  1.00  0.00     0.188 HD
ENDROOT
BRANCH   3   6
HETATM    6  N4  UNL     1     -16.402 -19.845 -27.462  1.00  0.00    -0.164 N 
ATOM      7  H4  UNL     1     -17.206 -19.744 -28.082  1.00  0.00     0.186 HD
BRANCH   6   8
HETATM    8  C3  UNL     1     -16.494 -19.405 -26.243  1.00  0.00     0.713 A 
HETATM    9  N5  UNL     1     -16.955 -18.140 -26.051  1.00  0.00    -0.021 N 
HETATM   10  C4  UNL     1     -17.080 -17.614 -24.828  1.00  0.00     0.710 A 
ATOM     11  H5  UNL     1     -17.212 -17.577 -26.862  1.00  0.00     0.203 HD
HETATM   12  N8  UNL     1     -16.721 -18.404 -23.754  1.00  0.00    -0.021 N 
HETATM   13  C8  UNL     1     -16.264 -19.647 -23.884  1.00  0.00     0.707 A 
ATOM     14  H8  UNL     1     -16.810 -18.016 -22.815  1.00  0.00     0.203 HD
HETATM   15  N9  UNL     1     -15.936 -20.385 -22.947  1.00  0.00    -0.220 N 
HETATM   16  N13 UNL     1     -16.162 -20.127 -25.183  1.00  0.00    -0.021 N 
ATOM     17  H9  UNL     1     -15.626 -21.277 -23.332  1.00  0.00     0.178 HD
ATOM     18  H13 UNL     1     -15.817 -21.076 -25.327  1.00  0.00     0.203 HD
BRANCH  10  19
HETATM   19  N6  UNL     1     -17.492 -16.478 -24.587  1.00  0.00    -0.204 N 
HETATM   20  C5  UNL     1     -18.546 -15.615 -24.551  1.00  0.00     0.080 C 
ATOM     21  H6  UNL     1     -16.681 -15.944 -24.275  1.00  0.00     0.183 HD
BRANCH  20  22
HETATM   22  C6  UNL     1     -19.934 -16.122 -24.871  1.00  0.00     0.072 C 
BRANCH  22  23
HETATM   23  C7  UNL     1     -20.801 -15.009 -25.442  1.00  0.00     0.234 C 
BRANCH  23  24
HETATM   24  N7  UNL     1     -19.977 -14.271 -26.380  1.00  0.00    -0.079 N 
ATOM     25  H73 UNL     1     -19.520 -13.461 -25.961  1.00  0.00     0.274 HD
ATOM     26  H72 UNL     1     -19.130 -14.771 -26.651  1.00  0.00     0.274 HD
ATOM     27  H71 UNL     1     -20.572 -14.031 -27.172  1.00  0.00     0.274 HD
ENDBRANCH  23  24
ENDBRANCH  22  23
ENDBRANCH  20  22
ENDBRANCH  10  19
BRANCH  15  28
HETATM   28  C9  UNL     1     -15.836 -20.446 -21.572  1.00  0.00     0.102 C 
HETATM   29  C10 UNL     1     -15.055 -21.641 -21.081  1.00  0.00     0.045 C 
HETATM   30  C11 UNL     1     -15.006 -21.740 -19.597  1.00  0.00     0.127 C 
HETATM   31  N10 UNL     1     -16.120 -21.145 -18.892  1.00  0.00    -0.352 N 
HETATM   32  C12 UNL     1     -16.372 -21.579 -17.543  1.00  0.00     0.219 C 
HETATM   33  C19 UNL     1     -16.973 -20.153 -19.466  1.00  0.00     0.127 C 
HETATM   34  O1  UNL     1     -17.328 -21.069 -16.935  1.00  0.00    -0.273 OA
HETATM   35  C20 UNL     1     -17.223 -20.566 -20.929  1.00  0.00     0.045 C 
BRANCH  32  36
HETATM   36  C13 UNL     1     -15.535 -22.598 -16.886  1.00  0.00     0.105 C 
BRANCH  36  37
HETATM   37  C14 UNL     1     -14.677 -21.985 -15.834  1.00  0.00     0.037 C 
BRANCH  37  38
HETATM   38  C15 UNL     1     -13.516 -22.838 -15.391  1.00  0.00     0.236 C 
BRANCH  38  39
HETATM   39  N11 UNL     1     -13.920 -24.233 -15.357  1.00  0.00    -0.049 N 
ATOM     40 2H11 UNL     1     -14.876 -24.322 -15.010  1.00  0.00     0.280 HD
ATOM     41 1H11 UNL     1     -14.048 -24.594 -16.303  1.00  0.00     0.280 HD
BRANCH  39  42
HETATM   42  C16 UNL     1     -13.035 -25.072 -14.614  1.00  0.00     0.326 C 
BRANCH  42  43
HETATM   43  O2  UNL     1     -13.465 -25.300 -13.311  1.00  0.00    -0.369 OA
ATOM     44  H2  UNL     1     -13.141 -24.654 -12.694  1.00  0.00     0.212 HD
ENDBRANCH  42  43
BRANCH  42  45
HETATM   45  C17 UNL     1     -12.873 -26.421 -15.267  1.00  0.00     0.160 C 
BRANCH  45  46
HETATM   46  C18 UNL     1     -14.194 -27.071 -15.490  1.00  0.00     0.235 C 
HETATM   47  N12 UNL     1     -14.789 -26.951 -16.773  1.00  0.00    -0.062 NA
HETATM   48  O3  UNL     1     -14.799 -27.709 -14.613  1.00  0.00    -0.277 OA
ENDBRANCH  45  46
ENDBRANCH  42  45
ENDBRANCH  39  42
ENDBRANCH  38  39
ENDBRANCH  37  38
ENDBRANCH  36  37
ENDBRANCH  32  36
ENDBRANCH  15  28
ENDBRANCH   6   8
ENDBRANCH   3   6
BRANCH   4  49
HETATM   49  N3  UNL     1     -16.198 -20.986 -30.051  1.00  0.00    -0.343 N 
ATOM     50  H32 UNL     1     -16.698 -21.867 -30.172  1.00  0.00     0.176 HD
ATOM     51  H31 UNL     1     -16.488 -20.172 -30.592  1.00  0.00     0.176 HD
ENDBRANCH   4  49
TORSDOF 16
ENDMDL
MODEL 2
REMARK VINA RESULT: -9.492764862      1.465      1.876
REMARK  16 active torsions:
REMARK  status: ('A' for Active; 'I' for Inactive)
REMARK    1  A    between atoms: C2_3  and  N4_9 
REMARK    2  A    between atoms: N2_4  and  N3_6 
REMARK    3  A    between atoms: N4_9  and  C3_11 
REMARK    4  A    between atoms: C4_14  and  N6_15 
REMARK    5  A    between atoms: C5_17  and  C6_18 
REMARK    6  A    between atoms: C6_18  and  C7_19 
REMARK    7  A    between atoms: C7_19  and  N7_20 
REMARK    8  A    between atoms: N9_27  and  C9_29 
REMARK       I    between atoms: N10_32  and  C12_33 
REMARK    9  A    between atoms: C12_33  and  C13_35 
REMARK   10  A    between atoms: C13_35  and  C14_36 
REMARK   11  A    between atoms: C14_36  and  C15_37 
REMARK   12  A    between atoms: C15_37  and  N11_38 
REMARK   13  A    between atoms: N11_38  and  C16_41 
REMARK   14  A    between atoms: C16_41  and  O2_42 
REMARK   15  A    between atoms: C16_41  and  C17_44 
REMARK   16  A    between atoms: C17_44  and  C18_45 
ROOT
HETATM    1  N1  UNL     1     -12.978 -20.548 -26.469  1.00  0.00    -0.188 NA
HETATM    2  C1  UNL     1     -13.923 -20.524 -27.152  1.00  0.00     0.139 C 
HETATM    3  C2  UNL     1     -15.092 -20.517 -27.985  1.00  0.00     0.217 C 
HETATM    4  N2  UNL     1     -15.016 -21.061 -29.160  1.00  0.00    -0.283 N 
ATOM      5  H2  UNL     1     -14.126 -21.470 -29.443  1.00  0.00     0.188 HD
ENDROOT
BRANCH   3   6
HETATM    6  N4  UNL     1     -16.270 -19.921 -27.486  1.00  0.00    -0.164 N 
ATOM      7  H4  UNL     1     -17.077 -19.837 -28.105  1.00  0.00     0.186 HD
BRANCH   6   8
HETATM    8  C3  UNL     1     -16.365 -19.476 -26.270  1.00  0.00     0.713 A 
HETATM    9  N5  UNL     1     -16.790 -18.197 -26.087  1.00  0.00    -0.021 N 
HETATM   10  C4  UNL     1     -16.916 -17.664 -24.866  1.00  0.00     0.710 A 
ATOM     11  H5  UNL     1     -17.018 -17.628 -26.902  1.00  0.00     0.203 HD
HETATM   12  N8  UNL     1     -16.596 -18.462 -23.786  1.00  0.00    -0.021 N 
HETATM   13  C8  UNL     1     -16.176 -19.719 -23.907  1.00  0.00     0.707 A 
ATOM     14  H8  UNL     1     -16.687 -18.069 -22.849  1.00  0.00     0.203 HD
HETATM   15  N9  UNL     1     -15.884 -20.465 -22.964  1.00  0.00    -0.220 N 
HETATM   16  N13 UNL     1     -16.070 -20.205 -25.204  1.00  0.00    -0.021 N 
ATOM     17  H9  UNL     1     -15.596 -21.366 -23.343  1.00  0.00     0.178 HD
ATOM     18  H13 UNL     1     -15.753 -21.165 -25.341  1.00  0.00     0.203 HD
BRANCH  10  19
HETATM   19  N6  UNL     1     -17.297 -16.516 -24.634  1.00  0.00    -0.204 N 
HETATM   20  C5  UNL     1     -18.335 -15.674 -24.370  1.00  0.00     0.080 C 
ATOM     21  H6  UNL     1     -16.458 -15.934 -24.642  1.00  0.00     0.183 HD
BRANCH  20  22
HETATM   22  C6  UNL     1     -19.726 -16.241 -24.195  1.00  0.00     0.072 C 
BRANCH  22  23
HETATM   23  C7  UNL     1     -20.712 -15.559 -25.132  1.00  0.00     0.234 C 
BRANCH  23  24
HETATM   24  N7  UNL     1     -21.410 -16.609 -25.849  1.00  0.00    -0.079 N 
ATOM     25  H73 UNL     1     -21.152 -16.662 -26.834  1.00  0.00     0.274 HD
ATOM     26  H72 UNL     1     -21.105 -17.546 -25.585  1.00  0.00     0.274 HD
ATOM     27  H71 UNL     1     -22.407 -16.456 -25.703  1.00  0.00     0.274 HD
ENDBRANCH  23  24
ENDBRANCH  22  23
ENDBRANCH  20  22
ENDBRANCH  10  19
BRANCH  15  28
HETATM   28  C9  UNL     1     -15.805 -20.525 -21.588  1.00  0.00     0.102 C 
HETATM   29  C10 UNL     1     -15.099 -21.760 -21.082  1.00  0.00     0.045 C 
HETATM   30  C11 UNL     1     -15.075 -21.856 -19.598  1.00  0.00     0.127 C 
HETATM   31  N10 UNL     1     -16.163 -21.196 -18.909  1.00  0.00    -0.352 N 
HETATM   32  C12 UNL     1     -16.457 -21.610 -17.562  1.00  0.00     0.219 C 
HETATM   33  C19 UNL     1     -16.951 -20.160 -19.498  1.00  0.00     0.127 C 
HETATM   34  O1  UNL     1     -17.390 -21.044 -16.969  1.00  0.00    -0.273 OA
HETATM   35  C20 UNL     1     -17.205 -20.564 -20.962  1.00  0.00     0.045 C 
BRANCH  32  36
HETATM   36  C13 UNL     1     -15.687 -22.671 -16.891  1.00  0.00     0.105 C 
BRANCH  36  37
HETATM   37  C14 UNL     1     -14.849 -22.111 -15.795  1.00  0.00     0.037 C 
BRANCH  37  38
HETATM   38  C15 UNL     1     -13.534 -22.816 -15.581  1.00  0.00     0.236 C 
BRANCH  38  39
HETATM   39  N11 UNL     1     -13.508 -23.405 -14.252  1.00  0.00    -0.049 N 
ATOM     40 2H11 UNL     1     -13.222 -22.714 -13.558  1.00  0.00     0.280 HD
ATOM     41 1H11 UNL     1     -14.455 -23.595 -13.924  1.00  0.00     0.280 HD
BRANCH  39  42
HETATM   42  C16 UNL     1     -12.699 -24.578 -14.158  1.00  0.00     0.326 C 
BRANCH  42  43
HETATM   43  O2  UNL     1     -11.360 -24.341 -14.453  1.00  0.00    -0.369 OA
ATOM     44  H2  UNL     1     -10.781 -25.018 -14.122  1.00  0.00     0.212 HD
ENDBRANCH  42  43
BRANCH  42  45
HETATM   45  C17 UNL     1     -12.747 -25.174 -12.774  1.00  0.00     0.160 C 
BRANCH  45  46
HETATM   46  C18 UNL     1     -11.424 -25.065 -12.098  1.00  0.00     0.235 C 
HETATM   47  N12 UNL     1     -10.548 -26.180 -12.162  1.00  0.00    -0.062 NA
HETATM   48  O3  UNL     1     -11.052 -24.052 -11.484  1.00  0.00    -0.277 OA
ENDBRANCH  45  46
ENDBRANCH  42  45
ENDBRANCH  39  42
ENDBRANCH  38  39
ENDBRANCH  37  38
ENDBRANCH  36  37
ENDBRANCH  32  36
ENDBRANCH  15  28
ENDBRANCH   6   8
ENDBRANCH   3   6
BRANCH   4  49
HETATM   49  N3  UNL     1     -16.068 -21.117 -30.050  1.00  0.00    -0.343 N 
ATOM     50  H32 UNL     1     -17.008 -21.154 -29.656  1.00  0.00     0.176 HD
ATOM     51  H31 UNL     1     -15.954 -21.123 -31.064  1.00  0.00     0.176 HD
ENDBRANCH   4  49
TORSDOF 16
ENDMDL
MODEL 3
REMARK VINA RESULT: -8.888645282      7.324     11.682
REMARK  16 active torsions:
REMARK  status: ('A' for Active; 'I' for Inactive)
REMARK    1  A    between atoms: C2_3  and  N4_9 
REMARK    2  A    between atoms: N2_4  and  N3_6 
REMARK    3  A    between atoms: N4_9  and  C3_11 
REMARK    4  A    between atoms: C4_14  and  N6_15 
REMARK    5  A    between atoms: C5_17  and  C6_18 
REMARK    6  A    between atoms: C6_18  and  C7_19 
REMARK    7  A    between atoms: C7_19  and  N7_20 
REMARK    8  A    between atoms: N9_27  and  C9_29 
REMARK       I    between atoms: N10_32  and  C12_33 
REMARK    9  A    between atoms: C12_33  and  C13_35 
REMARK   10  A    between atoms: C13_35  and  C14_36 
REMARK   11  A    between atoms: C14_36  and  C15_37 
REMARK   12  A    between atoms: C15_37  and  N11_38 
REMARK   13  A    between atoms: N11_38  and  C16_41 
REMARK   14  A    between atoms: C16_41  and  O2_42 
REMARK   15  A    between atoms: C16_41  and  C17_44 
REMARK   16  A    between atoms: C17_44  and  C18_45 
ROOT
HETATM    1  N1  UNL     1      -2.351 -20.836 -22.559  1.00  0.00    -0.188 NA
HETATM    2  C1  UNL     1      -2.345 -20.900 -23.724  1.00  0.00     0.139 C 
HETATM    3  C2  UNL     1      -2.322 -20.999 -25.156  1.00  0.00     0.217 C 
HETATM    4  N2  UNL     1      -1.349 -20.430 -25.798  1.00  0.00    -0.283 N 
ATOM      5  H2  UNL     1      -0.640 -19.935 -25.257  1.00  0.00     0.188 HD
ENDROOT
BRANCH   3   6
HETATM    6  N4  UNL     1      -3.358 -21.710 -25.797  1.00  0.00    -0.164 N 
ATOM      7  H4  UNL     1      -3.158 -22.640 -26.168  1.00  0.00     0.186 HD
BRANCH   6   8
HETATM    8  C3  UNL     1      -4.556 -21.227 -25.934  1.00  0.00     0.713 A 
HETATM    9  N5  UNL     1      -4.687 -19.973 -26.444  1.00  0.00    -0.021 N 
HETATM   10  C4  UNL     1      -5.886 -19.405 -26.616  1.00  0.00     0.710 A 
ATOM     11  H5  UNL     1      -3.849 -19.452 -26.701  1.00  0.00     0.203 HD
HETATM   12  N8  UNL     1      -6.997 -20.139 -26.256  1.00  0.00    -0.021 N 
HETATM   13  C8  UNL     1      -6.927 -21.370 -25.753  1.00  0.00     0.707 A 
ATOM     14  H8  UNL     1      -7.918 -19.719 -26.382  1.00  0.00     0.203 HD
HETATM   15  N9  UNL     1      -7.900 -22.059 -25.422  1.00  0.00    -0.220 N 
HETATM   16  N13 UNL     1      -5.650 -21.896 -25.603  1.00  0.00    -0.021 N 
ATOM     17  H9  UNL     1      -7.557 -22.953 -25.072  1.00  0.00     0.178 HD
ATOM     18  H13 UNL     1      -5.552 -22.837 -25.221  1.00  0.00     0.203 HD
BRANCH  10  19
HETATM   19  N6  UNL     1      -6.072 -18.276 -27.074  1.00  0.00    -0.204 N 
HETATM   20  C5  UNL     1      -5.983 -17.433 -28.141  1.00  0.00     0.080 C 
ATOM     21  H6  UNL     1      -6.471 -17.726 -26.313  1.00  0.00     0.183 HD
BRANCH  20  22
HETATM   22  C6  UNL     1      -5.512 -17.967 -29.474  1.00  0.00     0.072 C 
BRANCH  22  23
HETATM   23  C7  UNL     1      -6.269 -17.313 -30.620  1.00  0.00     0.234 C 
BRANCH  23  24
HETATM   24  N7  UNL     1      -7.683 -17.476 -30.340  1.00  0.00    -0.079 N 
ATOM     25  H73 UNL     1      -8.068 -18.342 -30.715  1.00  0.00     0.274 HD
ATOM     26  H72 UNL     1      -7.879 -17.663 -29.357  1.00  0.00     0.274 HD
ATOM     27  H71 UNL     1      -8.153 -16.642 -30.692  1.00  0.00     0.274 HD
ENDBRANCH  23  24
ENDBRANCH  22  23
ENDBRANCH  20  22
ENDBRANCH  10  19
BRANCH  15  28
HETATM   28  C9  UNL     1      -9.278 -22.062 -25.353  1.00  0.00     0.102 C 
HETATM   29  C10 UNL     1      -9.938 -21.383 -26.528  1.00  0.00     0.045 C 
HETATM   30  C11 UNL     1     -11.421 -21.329 -26.418  1.00  0.00     0.127 C 
HETATM   31  N10 UNL     1     -11.949 -21.330 -25.071  1.00  0.00    -0.352 N 
HETATM   32  C12 UNL     1     -13.287 -20.837 -24.872  1.00  0.00     0.219 C 
HETATM   33  C19 UNL     1     -11.213 -21.796 -23.939  1.00  0.00     0.127 C 
HETATM   34  O1  UNL     1     -13.743 -20.838 -23.716  1.00  0.00    -0.273 OA
HETATM   35  C20 UNL     1      -9.763 -21.304 -24.111  1.00  0.00     0.045 C 
BRANCH  32  36
HETATM   36  C13 UNL     1     -14.106 -20.340 -25.991  1.00  0.00     0.105 C 
BRANCH  36  37
HETATM   37  C14 UNL     1     -14.332 -18.873 -25.877  1.00  0.00     0.037 C 
BRANCH  37  38
HETATM   38  C15 UNL     1     -15.651 -18.392 -26.425  1.00  0.00     0.236 C 
BRANCH  38  39
HETATM   39  N11 UNL     1     -16.213 -17.390 -25.534  1.00  0.00    -0.049 N 
ATOM     40 2H11 UNL     1     -17.019 -16.937 -25.966  1.00  0.00     0.280 HD
ATOM     41 1H11 UNL     1     -16.672 -17.833 -24.738  1.00  0.00     0.280 HD
BRANCH  39  42
HETATM   42  C16 UNL     1     -15.266 -16.417 -25.092  1.00  0.00     0.326 C 
BRANCH  42  43
HETATM   43  O2  UNL     1     -15.346 -15.219 -25.796  1.00  0.00    -0.369 OA
ATOM     44  H2  UNL     1     -14.555 -14.698 -25.734  1.00  0.00     0.212 HD
ENDBRANCH  42  43
BRANCH  42  45
HETATM   45  C17 UNL     1     -15.454 -16.085 -23.634  1.00  0.00     0.160 C 
BRANCH  45  46
HETATM   46  C18 UNL     1     -16.141 -17.194 -22.916  1.00  0.00     0.235 C 
HETATM   47  N12 UNL     1     -17.510 -17.026 -22.580  1.00  0.00    -0.062 NA
HETATM   48  O3  UNL     1     -15.578 -18.254 -22.597  1.00  0.00    -0.277 OA
ENDBRANCH  45  46
ENDBRANCH  42  45
ENDBRANCH  39  42
ENDBRANCH  38  39
ENDBRANCH  37  38
ENDBRANCH  36  37
ENDBRANCH  32  36
ENDBRANCH  15  28
ENDBRANCH   6   8
ENDBRANCH   3   6
BRANCH   4  49
HETATM   49  N3  UNL     1      -1.217 -20.455 -27.171  1.00  0.00    -0.343 N 
ATOM     50  H32 UNL     1      -1.793 -21.125 -27.681  1.00  0.00     0.176 HD
ATOM     51  H31 UNL     1      -0.584 -19.847 -27.691  1.00  0.00     0.176 HD
ENDBRANCH   4  49
TORSDOF 16
ENDMDL
MODEL 4
REMARK VINA RESULT: -8.858892425      5.016      8.715
REMARK  16 active torsions:
REMARK  status: ('A' for Active; 'I' for Inactive)
REMARK    1  A    between atoms: C2_3  and  N4_9 
REMARK    2  A    between atoms: N2_4  and  N3_6 
REMARK    3  A    between atoms: N4_9  and  C3_11 
REMARK    4  A    between atoms: C4_14  and  N6_15 
REMARK    5  A    between atoms: C5_17  and  C6_18 
REMARK    6  A    between atoms: C6_18  and  C7_19 
REMARK    7  A    between atoms: C7_19  and  N7_20 
REMARK    8  A    between atoms: N9_27  and  C9_29 
REMARK       I    between atoms: N10_32  and  C12_33 
REMARK    9  A    between atoms: C12_33  and  C13_35 
REMARK   10  A    between atoms: C13_35  and  C14_36 
REMARK   11  A    between atoms: C14_36  and  C15_37 
REMARK   12  A    between atoms: C15_37  and  N11_38 
REMARK   13  A    between atoms: N11_38  and  C16_41 
REMARK   14  A    between atoms: C16_41  and  O2_42 
REMARK   15  A    between atoms: C16_41  and  C17_44 
REMARK   16  A    between atoms: C17_44  and  C18_45 
ROOT
HETATM    1  N1  UNL     1      -4.848 -23.464 -28.188  1.00  0.00    -0.188 NA
HETATM    2  C1  UNL     1      -5.356 -22.433 -27.988  1.00  0.00     0.139 C 
HETATM    3  C2  UNL     1      -5.964 -21.154 -27.757  1.00  0.00     0.217 C 
HETATM    4  N2  UNL     1      -5.457 -20.385 -26.843  1.00  0.00    -0.283 N 
ATOM      5  H2  UNL     1      -4.645 -20.724 -26.326  1.00  0.00     0.188 HD
ENDROOT
BRANCH   3   6
HETATM    6  N4  UNL     1      -7.084 -20.791 -28.534  1.00  0.00    -0.164 N 
ATOM      7  H4  UNL     1      -6.964 -20.100 -29.274  1.00  0.00     0.186 HD
BRANCH   6   8
HETATM    8  C3  UNL     1      -8.262 -21.305 -28.343  1.00  0.00     0.713 A 
HETATM    9  N5  UNL     1      -8.789 -22.083 -29.326  1.00  0.00    -0.021 N 
HETATM   10  C4  UNL     1      -9.995 -22.649 -29.206  1.00  0.00     0.710 A 
ATOM     11  H5  UNL     1      -8.250 -22.239 -30.178  1.00  0.00     0.203 HD
HETATM   12  N8  UNL     1     -10.695 -22.416 -28.040  1.00  0.00    -0.021 N 
HETATM   13  C8  UNL     1     -10.228 -21.663 -27.047  1.00  0.00     0.707 A 
ATOM     14  H8  UNL     1     -11.617 -22.841 -27.935  1.00  0.00     0.203 HD
HETATM   15  N9  UNL     1     -10.825 -21.435 -25.987  1.00  0.00    -0.220 N 
HETATM   16  N13 UNL     1      -8.970 -21.109 -27.241  1.00  0.00    -0.021 N 
ATOM     17  H9  UNL     1     -10.238 -20.833 -25.410  1.00  0.00     0.178 HD
ATOM     18  H13 UNL     1      -8.574 -20.526 -26.503  1.00  0.00     0.203 HD
BRANCH  10  19
HETATM   19  N6  UNL     1     -10.526 -23.365 -30.057  1.00  0.00    -0.204 N 
HETATM   20  C5  UNL     1     -10.374 -24.272 -31.062  1.00  0.00     0.080 C 
ATOM     21  H6  UNL     1     -11.531 -23.207 -29.970  1.00  0.00     0.183 HD
BRANCH  20  22
HETATM   22  C6  UNL     1      -8.994 -24.798 -31.387  1.00  0.00     0.072 C 
BRANCH  22  23
HETATM   23  C7  UNL     1      -8.639 -24.528 -32.842  1.00  0.00     0.234 C 
BRANCH  23  24
HETATM   24  N7  UNL     1      -9.809 -24.862 -33.631  1.00  0.00    -0.079 N 
ATOM     25  H73 UNL     1      -9.649 -24.790 -34.636  1.00  0.00     0.274 HD
ATOM     26  H72 UNL     1     -10.039 -25.856 -33.609  1.00  0.00     0.274 HD
ATOM     27  H71 UNL     1     -10.569 -24.267 -33.302  1.00  0.00     0.274 HD
ENDBRANCH  23  24
ENDBRANCH  22  23
ENDBRANCH  20  22
ENDBRANCH  10  19
BRANCH  15  28
HETATM   28  C9  UNL     1     -11.993 -21.693 -25.300  1.00  0.00     0.102 C 
HETATM   29  C10 UNL     1     -12.994 -20.566 -25.375  1.00  0.00     0.045 C 
HETATM   30  C11 UNL     1     -14.224 -20.820 -24.577  1.00  0.00     0.127 C 
HETATM   31  N10 UNL     1     -14.062 -21.695 -23.437  1.00  0.00    -0.352 N 
HETATM   32  C12 UNL     1     -15.050 -21.629 -22.392  1.00  0.00     0.219 C 
HETATM   33  C19 UNL     1     -12.978 -22.615 -23.301  1.00  0.00     0.127 C 
HETATM   34  O1  UNL     1     -14.914 -22.381 -21.412  1.00  0.00    -0.273 OA
HETATM   35  C20 UNL     1     -11.712 -21.897 -23.805  1.00  0.00     0.045 C 
BRANCH  32  36
HETATM   36  C13 UNL     1     -16.195 -20.705 -22.463  1.00  0.00     0.105 C 
BRANCH  36  37
HETATM   37  C14 UNL     1     -16.315 -19.907 -21.212  1.00  0.00     0.037 C 
BRANCH  37  38
HETATM   38  C15 UNL     1     -17.495 -20.265 -20.345  1.00  0.00     0.236 C 
BRANCH  38  39
HETATM   39  N11 UNL     1     -17.128 -21.345 -19.445  1.00  0.00    -0.049 N 
ATOM     40 2H11 UNL     1     -17.941 -21.924 -19.228  1.00  0.00     0.280 HD
ATOM     41 1H11 UNL     1     -16.552 -22.035 -19.927  1.00  0.00     0.280 HD
BRANCH  39  42
HETATM   42  C16 UNL     1     -16.489 -20.905 -18.246  1.00  0.00     0.326 C 
BRANCH  42  43
HETATM   43  O2  UNL     1     -17.262 -21.116 -17.108  1.00  0.00    -0.369 OA
ATOM     44  H2  UNL     1     -16.741 -21.263 -16.327  1.00  0.00     0.212 HD
ENDBRANCH  42  43
BRANCH  42  45
HETATM   45  C17 UNL     1     -15.177 -21.615 -18.026  1.00  0.00     0.160 C 
BRANCH  45  46
HETATM   46  C18 UNL     1     -15.167 -22.328 -16.718  1.00  0.00     0.235 C 
HETATM   47  N12 UNL     1     -14.525 -21.698 -15.620  1.00  0.00    -0.062 NA
HETATM   48  O3  UNL     1     -15.689 -23.441 -16.542  1.00  0.00    -0.277 OA
ENDBRANCH  45  46
ENDBRANCH  42  45
ENDBRANCH  39  42
ENDBRANCH  38  39
ENDBRANCH  37  38
ENDBRANCH  36  37
ENDBRANCH  32  36
ENDBRANCH  15  28
ENDBRANCH   6   8
ENDBRANCH   3   6
BRANCH   4  49
HETATM   49  N3  UNL     1      -5.951 -19.136 -26.529  1.00  0.00    -0.343 N 
ATOM     50  H32 UNL     1      -6.287 -18.996 -25.576  1.00  0.00     0.176 HD
ATOM     51  H31 UNL     1      -5.996 -18.361 -27.190  1.00  0.00     0.176 HD
ENDBRANCH   4  49
TORSDOF 16
ENDMDL
MODEL 5
REMARK VINA RESULT: -8.754377958      2.493      4.733
REMARK  16 active torsions:
REMARK  status: ('A' for Active; 'I' for Inactive)
REMARK    1  A    between atoms: C2_3  and  N4_9 
REMARK    2  A    between atoms: N2_4  and  N3_6 
REMARK    3  A    between atoms: N4_9  and  C3_11 
REMARK    4  A    between atoms: C4_14  and  N6_15 
REMARK    5  A    between atoms: C5_17  and  C6_18 
REMARK    6  A    between atoms: C6_18  and  C7_19 
REMARK    7  A    between atoms: C7_19  and  N7_20 
REMARK    8  A    between atoms: N9_27  and  C9_29 
REMARK       I    between atoms: N10_32  and  C12_33 
REMARK    9  A    between atoms: C12_33  and  C13_35 
REMARK   10  A    between atoms: C13_35  and  C14_36 
REMARK   11  A    between atoms: C14_36  and  C15_37 
REMARK   12  A    between atoms: C15_37  and  N11_38 
REMARK   13  A    between atoms: N11_38  and  C16_41 
REMARK   14  A    between atoms: C16_41  and  O2_42 
REMARK   15  A    between atoms: C16_41  and  C17_44 
REMARK   16  A    between atoms: C17_44  and  C18_45 
ROOT
HETATM    1  N1  UNL     1     -14.767 -17.303 -27.078  1.00  0.00    -0.188 NA
HETATM    2  C1  UNL     1     -15.043 -18.325 -27.567  1.00  0.00     0.139 C 
HETATM    3  C2  UNL     1     -15.366 -19.579 -28.186  1.00  0.00     0.217 C 
HETATM    4  N2  UNL     1     -16.189 -19.578 -29.189  1.00  0.00    -0.283 N 
ATOM      5  H2  UNL     1     -16.573 -18.685 -29.496  1.00  0.00     0.188 HD
ENDROOT
BRANCH   3   6
HETATM    6  N4  UNL     1     -14.773 -20.753 -27.676  1.00  0.00    -0.164 N 
ATOM      7  H4  UNL     1     -14.699 -21.569 -28.284  1.00  0.00     0.186 HD
BRANCH   6   8
HETATM    8  C3  UNL     1     -14.318 -20.834 -26.462  1.00  0.00     0.713 A 
HETATM    9  N5  UNL     1     -12.985 -21.038 -26.290  1.00  0.00    -0.021 N 
HETATM   10  C4  UNL     1     -12.438 -21.132 -25.072  1.00  0.00     0.710 A 
ATOM     11  H5  UNL     1     -12.385 -21.121 -27.110  1.00  0.00     0.203 HD
HETATM   12  N8  UNL     1     -13.280 -21.016 -23.985  1.00  0.00    -0.021 N 
HETATM   13  C8  UNL     1     -14.592 -20.816 -24.096  1.00  0.00     0.707 A 
ATOM     14  H8  UNL     1     -12.878 -21.086 -23.050  1.00  0.00     0.203 HD
HETATM   15  N9  UNL     1     -15.376 -20.704 -23.145  1.00  0.00    -0.220 N 
HETATM   16  N13 UNL     1     -15.088 -20.728 -25.390  1.00  0.00    -0.021 N 
ATOM     17  H9  UNL     1     -16.314 -20.558 -23.518  1.00  0.00     0.178 HD
ATOM     18  H13 UNL     1     -16.088 -20.574 -25.519  1.00  0.00     0.203 HD
BRANCH  10  19
HETATM   19  N6  UNL     1     -11.240 -21.313 -24.849  1.00  0.00    -0.204 N 
HETATM   20  C5  UNL     1      -9.982 -21.466 -25.349  1.00  0.00     0.080 C 
ATOM     21  H6  UNL     1     -11.149 -21.378 -23.835  1.00  0.00     0.183 HD
BRANCH  20  22
HETATM   22  C6  UNL     1      -9.751 -21.328 -26.837  1.00  0.00     0.072 C 
BRANCH  22  23
HETATM   23  C7  UNL     1      -8.289 -21.033 -27.135  1.00  0.00     0.234 C 
BRANCH  23  24
HETATM   24  N7  UNL     1      -8.137 -19.591 -27.123  1.00  0.00    -0.079 N 
ATOM     25  H73 UNL     1      -7.330 -19.268 -27.656  1.00  0.00     0.274 HD
ATOM     26  H72 UNL     1      -8.852 -19.107 -27.666  1.00  0.00     0.274 HD
ATOM     27  H71 UNL     1      -8.113 -19.302 -26.145  1.00  0.00     0.274 HD
ENDBRANCH  23  24
ENDBRANCH  22  23
ENDBRANCH  20  22
ENDBRANCH  10  19
BRANCH  15  28
HETATM   28  C9  UNL     1     -15.449 -20.703 -21.768  1.00  0.00     0.102 C 
HETATM   29  C10 UNL     1     -14.842 -21.933 -21.135  1.00  0.00     0.045 C 
HETATM   30  C11 UNL     1     -14.982 -21.961 -19.655  1.00  0.00     0.127 C 
HETATM   31  N10 UNL     1     -16.117 -21.241 -19.119  1.00  0.00    -0.352 N 
HETATM   32  C12 UNL     1     -16.568 -21.585 -17.795  1.00  0.00     0.219 C 
HETATM   33  C19 UNL     1     -16.802 -20.212 -19.834  1.00  0.00     0.127 C 
HETATM   34  O1  UNL     1     -17.541 -20.967 -17.333  1.00  0.00    -0.273 OA
HETATM   35  C20 UNL     1     -16.909 -20.675 -21.299  1.00  0.00     0.045 C 
BRANCH  32  36
HETATM   36  C13 UNL     1     -15.910 -22.635 -16.999  1.00  0.00     0.105 C 
BRANCH  36  37
HETATM   37  C14 UNL     1     -15.028 -22.040 -15.957  1.00  0.00     0.037 C 
BRANCH  37  38
HETATM   38  C15 UNL     1     -13.675 -22.693 -15.827  1.00  0.00     0.236 C 
BRANCH  38  39
HETATM   39  N11 UNL     1     -13.576 -23.354 -14.537  1.00  0.00    -0.049 N 
ATOM     40 2H11 UNL     1     -13.861 -22.724 -13.787  1.00  0.00     0.280 HD
ATOM     41 1H11 UNL     1     -14.297 -24.069 -14.442  1.00  0.00     0.280 HD
BRANCH  39  42
HETATM   42  C16 UNL     1     -12.285 -23.904 -14.269  1.00  0.00     0.326 C 
BRANCH  42  43
HETATM   43  O2  UNL     1     -12.003 -23.996 -12.910  1.00  0.00    -0.369 OA
ATOM     44  H2  UNL     1     -11.087 -24.172 -12.731  1.00  0.00     0.212 HD
ENDBRANCH  42  43
BRANCH  42  45
HETATM   45  C17 UNL     1     -12.145 -25.291 -14.843  1.00  0.00     0.160 C 
BRANCH  45  46
HETATM   46  C18 UNL     1     -13.386 -26.086 -14.632  1.00  0.00     0.235 C 
HETATM   47  N12 UNL     1     -14.189 -26.383 -15.765  1.00  0.00    -0.062 NA
HETATM   48  O3  UNL     1     -13.753 -26.500 -13.521  1.00  0.00    -0.277 OA
ENDBRANCH  45  46
ENDBRANCH  42  45
ENDBRANCH  39  42
ENDBRANCH  38  39
ENDBRANCH  37  38
ENDBRANCH  36  37
ENDBRANCH  32  36
ENDBRANCH  15  28
ENDBRANCH   6   8
ENDBRANCH   3   6
BRANCH   4  49
HETATM   49  N3  UNL     1     -16.576 -20.717 -29.866  1.00  0.00    -0.343 N 
ATOM     50  H32 UNL     1     -17.512 -20.720 -30.271  1.00  0.00     0.176 HD
ATOM     51  H31 UNL     1     -15.983 -21.539 -29.978  1.00  0.00     0.176 HD
ENDBRANCH   4  49
TORSDOF 16
ENDMDL
