MODEL 1
REMARK VINA RESULT: -8.785951656      0.000      0.000
REMARK  18 active torsions:
REMARK  status: ('A' for Active; 'I' for Inactive)
REMARK    1  A    between atoms: C2_2  and  N1_3 
REMARK    2  A    between atoms: N1_3  and  C3_5 
REMARK    3  A    between atoms: C6_11  and  N3_12 
REMARK    4  A    between atoms: N3_12  and  C7_14 
REMARK    5  A    between atoms: C7_14  and  N4_15 
REMARK    6  A    between atoms: C7_14  and  C8_19 
REMARK    7  A    between atoms: C8_19  and  C9_20 
REMARK    8  A    between atoms: C9_20  and  N5_21 
REMARK       I    between atoms: N5_21  and  C10_23 
REMARK    9  A    between atoms: C10_23  and  C11_25 
REMARK   10  A    between atoms: C11_25  and  N6_26 
REMARK   11  A    between atoms: C11_25  and  C12_30 
REMARK   12  A    between atoms: C12_30  and  S1_31 
REMARK   13  A    between atoms: S1_31  and  C13_34 
REMARK   14  A    between atoms: C13_34  and  C14_35 
REMARK   15  A    between atoms: C14_35  and  O5_36 
REMARK   16  A    between atoms: O5_36  and  C15_37 
REMARK   17  A    between atoms: C15_37  and  C16_38 
REMARK   18  A    between atoms: C16_38  and  O6_39 
ROOT
HETATM    1  C7  UNL     1     -16.250 -19.649 -24.747  1.00  0.00     0.284 C 
ENDROOT
BRANCH   1   2
HETATM    2  N3  UNL     1     -15.203 -20.523 -24.684  1.00  0.00    -0.348 N 
ATOM      3  H3  UNL     1     -14.764 -20.490 -25.604  1.00  0.00     0.163 HD
BRANCH   2   4
HETATM    4  C6  UNL     1     -14.551 -21.323 -24.040  1.00  0.00     0.123 A 
HETATM    5  C5  UNL     1     -13.156 -21.338 -24.246  1.00  0.00     0.121 A 
HETATM    6  C4  UNL     1     -12.580 -20.464 -25.139  1.00  0.00     0.277 A 
HETATM    7  C18 UNL     1     -12.315 -22.198 -23.585  1.00  0.00     0.141 A 
HETATM    8  N2  UNL     1     -11.228 -20.460 -25.351  1.00  0.00    -0.155 N 
HETATM    9  O1  UNL     1     -13.327 -19.669 -25.753  1.00  0.00    -0.266 OA
HETATM   10  C3  UNL     1     -10.428 -21.313 -24.691  1.00  0.00     0.682 A 
ATOM     11  H2  UNL     1     -10.824 -19.802 -26.017  1.00  0.00     0.187 HD
HETATM   12  N9  UNL     1     -11.003 -22.161 -23.822  1.00  0.00    -0.175 N 
ATOM     13  H9  UNL     1     -10.402 -22.812 -23.315  1.00  0.00     0.186 HD
HETATM   14  N8  UNL     1     -12.874 -23.060 -22.702  1.00  0.00    -0.337 N 
HETATM   15  C17 UNL     1     -14.198 -23.073 -22.481  1.00  0.00     0.183 A 
ATOM     16  H8  UNL     1     -12.277 -23.712 -22.194  1.00  0.00     0.168 HD
HETATM   17  N7  UNL     1     -15.022 -22.206 -23.150  1.00  0.00    -0.338 N 
ATOM     18  H7  UNL     1     -16.025 -22.235 -22.966  1.00  0.00     0.168 HD
BRANCH  10  19
HETATM   19  N1  UNL     1      -9.148 -21.300 -24.901  1.00  0.00    -0.226 N 
ATOM     20  H1  UNL     1      -8.532 -21.044 -24.129  1.00  0.00     0.177 HD
BRANCH  19  21
HETATM   21  C2  UNL     1      -8.556 -21.629 -26.166  1.00  0.00     0.133 C 
HETATM   22  C1  UNL     1      -7.112 -22.028 -25.935  1.00  0.00     0.027 C 
ENDBRANCH  19  21
ENDBRANCH  10  19
ENDBRANCH   2   4
ENDBRANCH   1   2
BRANCH   1  23
HETATM   23  N4  UNL     1     -16.386 -18.954 -26.033  1.00  0.00    -0.058 N 
ATOM     24  H43 UNL     1     -15.487 -18.572 -26.326  1.00  0.00     0.276 HD
ATOM     25  H42 UNL     1     -16.545 -19.625 -26.784  1.00  0.00     0.276 HD
ATOM     26  H41 UNL     1     -17.102 -18.228 -26.047  1.00  0.00     0.276 HD
ENDBRANCH   1  23
BRANCH   1  27
HETATM   27  C8  UNL     1     -17.612 -20.170 -24.310  1.00  0.00     0.074 C 
BRANCH  27  28
HETATM   28  C9  UNL     1     -17.951 -19.678 -22.920  1.00  0.00     0.126 C 
BRANCH  28  29
HETATM   29  N5  UNL     1     -17.802 -20.682 -21.894  1.00  0.00    -0.359 N 
HETATM   30  C10 UNL     1     -16.714 -20.742 -20.991  1.00  0.00     0.249 C 
HETATM   31  O2  UNL     1     -15.801 -19.884 -21.051  1.00  0.00    -0.271 OA
ATOM     32  H5  UNL     1     -18.527 -21.394 -21.814  1.00  0.00     0.162 HD
BRANCH  30  33
HETATM   33  C11 UNL     1     -16.632 -21.804 -19.971  1.00  0.00     0.288 C 
BRANCH  33  34
HETATM   34  N6  UNL     1     -17.848 -22.062 -19.267  1.00  0.00    -0.066 N 
ATOM     35  H63 UNL     1     -17.838 -21.588 -18.364  1.00  0.00     0.275 HD
ATOM     36  H62 UNL     1     -18.624 -21.575 -19.716  1.00  0.00     0.275 HD
ATOM     37  H61 UNL     1     -18.076 -23.048 -19.143  1.00  0.00     0.275 HD
ENDBRANCH  33  34
BRANCH  33  38
HETATM   38  C12 UNL     1     -15.438 -21.616 -19.053  1.00  0.00     0.182 C 
BRANCH  38  39
HETATM   39  S1  UNL     1     -15.873 -21.773 -17.342  1.00  0.00     0.148 S 
HETATM   40  O3  UNL     1     -16.212 -23.415 -16.945  1.00  0.00    -0.228 OA
HETATM   41  O4  UNL     1     -17.318 -20.920 -16.984  1.00  0.00    -0.228 OA
BRANCH  39  42
HETATM   42  C13 UNL     1     -14.571 -21.199 -16.277  1.00  0.00     0.166 C 
BRANCH  42  43
HETATM   43  C14 UNL     1     -14.170 -22.255 -15.277  1.00  0.00     0.182 C 
BRANCH  43  44
HETATM   44  O5  UNL     1     -13.227 -23.093 -15.784  1.00  0.00    -0.388 OA
BRANCH  44  45
HETATM   45  C15 UNL     1     -12.652 -23.889 -14.844  1.00  0.00     0.193 C 
BRANCH  45  46
HETATM   46  C16 UNL     1     -13.060 -25.322 -14.969  1.00  0.00     0.190 C 
BRANCH  46  47
HETATM   47  O6  UNL     1     -14.250 -25.450 -15.705  1.00  0.00    -0.399 OA
ATOM     48  H6  UNL     1     -14.355 -26.333 -16.039  1.00  0.00     0.209 HD
ENDBRANCH  46  47
ENDBRANCH  45  46
ENDBRANCH  44  45
ENDBRANCH  43  44
ENDBRANCH  42  43
ENDBRANCH  39  42
ENDBRANCH  38  39
ENDBRANCH  33  38
ENDBRANCH  30  33
ENDBRANCH  28  29
ENDBRANCH  27  28
ENDBRANCH   1  27
TORSDOF 18
ENDMDL
MODEL 2
REMARK VINA RESULT: -8.758080005      4.323      8.371
REMARK  18 active torsions:
REMARK  status: ('A' for Active; 'I' for Inactive)
REMARK    1  A    between atoms: C2_2  and  N1_3 
REMARK    2  A    between atoms: N1_3  and  C3_5 
REMARK    3  A    between atoms: C6_11  and  N3_12 
REMARK    4  A    between atoms: N3_12  and  C7_14 
REMARK    5  A    between atoms: C7_14  and  N4_15 
REMARK    6  A    between atoms: C7_14  and  C8_19 
REMARK    7  A    between atoms: C8_19  and  C9_20 
REMARK    8  A    between atoms: C9_20  and  N5_21 
REMARK       I    between atoms: N5_21  and  C10_23 
REMARK    9  A    between atoms: C10_23  and  C11_25 
REMARK   10  A    between atoms: C11_25  and  N6_26 
REMARK   11  A    between atoms: C11_25  and  C12_30 
REMARK   12  A    between atoms: C12_30  and  S1_31 
REMARK   13  A    between atoms: S1_31  and  C13_34 
REMARK   14  A    between atoms: C13_34  and  C14_35 
REMARK   15  A    between atoms: C14_35  and  O5_36 
REMARK   16  A    between atoms: O5_36  and  C15_37 
REMARK   17  A    between atoms: C15_37  and  C16_38 
REMARK   18  A    between atoms: C16_38  and  O6_39 
ROOT
HETATM    1  C7  UNL     1     -14.475 -19.903 -27.345  1.00  0.00     0.284 C 
ENDROOT
BRANCH   1   2
HETATM    2  N3  UNL     1     -14.127 -20.372 -26.111  1.00  0.00    -0.348 N 
ATOM      3  H3  UNL     1     -14.946 -20.224 -25.521  1.00  0.00     0.163 HD
BRANCH   2   4
HETATM    4  C6  UNL     1     -13.294 -20.884 -25.387  1.00  0.00     0.123 A 
HETATM    5  C5  UNL     1     -13.709 -21.280 -24.099  1.00  0.00     0.121 A 
HETATM    6  C4  UNL     1     -15.013 -21.092 -23.705  1.00  0.00     0.277 A 
HETATM    7  C18 UNL     1     -12.861 -21.862 -23.191  1.00  0.00     0.141 A 
HETATM    8  N2  UNL     1     -15.436 -21.471 -22.460  1.00  0.00    -0.155 N 
HETATM    9  O1  UNL     1     -15.805 -20.563 -24.518  1.00  0.00    -0.266 OA
HETATM   10  C3  UNL     1     -14.586 -22.038 -21.590  1.00  0.00     0.682 A 
ATOM     11  H2  UNL     1     -16.409 -21.322 -22.191  1.00  0.00     0.187 HD
HETATM   12  N9  UNL     1     -13.315 -22.217 -21.987  1.00  0.00    -0.175 N 
ATOM     13  H9  UNL     1     -12.661 -22.648 -21.332  1.00  0.00     0.186 HD
HETATM   14  N8  UNL     1     -11.575 -22.054 -23.572  1.00  0.00    -0.337 N 
HETATM   15  C17 UNL     1     -11.146 -21.689 -24.791  1.00  0.00     0.183 A 
ATOM     16  H8  UNL     1     -10.920 -22.484 -22.919  1.00  0.00     0.168 HD
HETATM   17  N7  UNL     1     -12.008 -21.110 -25.684  1.00  0.00    -0.338 N 
ATOM     18  H7  UNL     1     -11.658 -20.842 -26.605  1.00  0.00     0.168 HD
BRANCH  10  19
HETATM   19  N1  UNL     1     -14.999 -22.394 -20.413  1.00  0.00    -0.226 N 
ATOM     20  H1  UNL     1     -14.484 -23.122 -19.918  1.00  0.00     0.177 HD
BRANCH  19  21
HETATM   21  C2  UNL     1     -16.144 -21.812 -19.773  1.00  0.00     0.133 C 
HETATM   22  C1  UNL     1     -15.706 -21.207 -18.454  1.00  0.00     0.027 C 
ENDBRANCH  19  21
ENDBRANCH  10  19
ENDBRANCH   2   4
ENDBRANCH   1   2
BRANCH   1  23
HETATM   23  N4  UNL     1     -14.916 -20.937 -28.287  1.00  0.00    -0.058 N 
ATOM     24  H43 UNL     1     -15.534 -21.601 -27.822  1.00  0.00     0.276 HD
ATOM     25  H42 UNL     1     -15.564 -20.544 -28.970  1.00  0.00     0.276 HD
ATOM     26  H41 UNL     1     -14.158 -21.430 -28.760  1.00  0.00     0.276 HD
ENDBRANCH   1  23
BRANCH   1  27
HETATM   27  C8  UNL     1     -15.448 -18.733 -27.390  1.00  0.00     0.074 C 
BRANCH  27  28
HETATM   28  C9  UNL     1     -15.056 -17.674 -26.383  1.00  0.00     0.126 C 
BRANCH  28  29
HETATM   29  N5  UNL     1     -15.814 -17.729 -25.154  1.00  0.00    -0.359 N 
HETATM   30  C10 UNL     1     -15.789 -16.725 -24.158  1.00  0.00     0.249 C 
HETATM   31  O2  UNL     1     -15.078 -15.704 -24.315  1.00  0.00    -0.271 OA
ATOM     32  H5  UNL     1     -16.406 -18.544 -24.995  1.00  0.00     0.162 HD
BRANCH  30  33
HETATM   33  C11 UNL     1     -16.590 -16.857 -22.928  1.00  0.00     0.288 C 
BRANCH  33  34
HETATM   34  N6  UNL     1     -16.974 -18.192 -22.596  1.00  0.00    -0.066 N 
ATOM     35  H63 UNL     1     -16.159 -18.805 -22.610  1.00  0.00     0.275 HD
ATOM     36  H62 UNL     1     -17.224 -18.251 -21.608  1.00  0.00     0.275 HD
ATOM     37  H61 UNL     1     -17.718 -18.584 -23.171  1.00  0.00     0.275 HD
ENDBRANCH  33  34
BRANCH  33  38
HETATM   38  C12 UNL     1     -17.749 -15.877 -22.900  1.00  0.00     0.182 C 
BRANCH  38  39
HETATM   39  S1  UNL     1     -19.262 -16.609 -23.465  1.00  0.00     0.148 S 
HETATM   40  O3  UNL     1     -19.861 -17.741 -22.313  1.00  0.00    -0.228 OA
HETATM   41  O4  UNL     1     -19.019 -17.517 -24.900  1.00  0.00    -0.228 OA
BRANCH  39  42
HETATM   42  C13 UNL     1     -20.519 -15.384 -23.748  1.00  0.00     0.166 C 
BRANCH  42  43
HETATM   43  C14 UNL     1     -20.045 -14.006 -23.360  1.00  0.00     0.182 C 
BRANCH  43  44
HETATM   44  O5  UNL     1     -20.412 -13.073 -24.278  1.00  0.00    -0.388 OA
BRANCH  44  45
HETATM   45  C15 UNL     1     -19.971 -13.351 -25.534  1.00  0.00     0.193 C 
BRANCH  45  46
HETATM   46  C16 UNL     1     -21.078 -13.410 -26.537  1.00  0.00     0.190 C 
BRANCH  46  47
HETATM   47  O6  UNL     1     -21.365 -12.136 -27.056  1.00  0.00    -0.399 OA
ATOM     48  H6  UNL     1     -21.112 -12.071 -27.969  1.00  0.00     0.209 HD
ENDBRANCH  46  47
ENDBRANCH  45  46
ENDBRANCH  44  45
ENDBRANCH  43  44
ENDBRANCH  42  43
ENDBRANCH  39  42
ENDBRANCH  38  39
ENDBRANCH  33  38
ENDBRANCH  30  33
ENDBRANCH  28  29
ENDBRANCH  27  28
ENDBRANCH   1  27
TORSDOF 18
ENDMDL
MODEL 3
REMARK VINA RESULT: -8.714768021      4.030      7.124
REMARK  18 active torsions:
REMARK  status: ('A' for Active; 'I' for Inactive)
REMARK    1  A    between atoms: C2_2  and  N1_3 
REMARK    2  A    between atoms: N1_3  and  C3_5 
REMARK    3  A    between atoms: C6_11  and  N3_12 
REMARK    4  A    between atoms: N3_12  and  C7_14 
REMARK    5  A    between atoms: C7_14  and  N4_15 
REMARK    6  A    between atoms: C7_14  and  C8_19 
REMARK    7  A    between atoms: C8_19  and  C9_20 
REMARK    8  A    between atoms: C9_20  and  N5_21 
REMARK       I    between atoms: N5_21  and  C10_23 
REMARK    9  A    between atoms: C10_23  and  C11_25 
REMARK   10  A    between atoms: C11_25  and  N6_26 
REMARK   11  A    between atoms: C11_25  and  C12_30 
REMARK   12  A    between atoms: C12_30  and  S1_31 
REMARK   13  A    between atoms: S1_31  and  C13_34 
REMARK   14  A    between atoms: C13_34  and  C14_35 
REMARK   15  A    between atoms: C14_35  and  O5_36 
REMARK   16  A    between atoms: O5_36  and  C15_37 
REMARK   17  A    between atoms: C15_37  and  C16_38 
REMARK   18  A    between atoms: C16_38  and  O6_39 
ROOT
HETATM    1  C7  UNL     1     -14.402 -20.150 -27.447  1.00  0.00     0.284 C 
ENDROOT
BRANCH   1   2
HETATM    2  N3  UNL     1     -14.016 -20.446 -26.171  1.00  0.00    -0.348 N 
ATOM      3  H3  UNL     1     -14.768 -20.104 -25.572  1.00  0.00     0.163 HD
BRANCH   2   4
HETATM    4  C6  UNL     1     -13.192 -20.926 -25.416  1.00  0.00     0.123 A 
HETATM    5  C5  UNL     1     -13.631 -21.298 -24.128  1.00  0.00     0.121 A 
HETATM    6  C4  UNL     1     -14.947 -21.122 -23.769  1.00  0.00     0.277 A 
HETATM    7  C18 UNL     1     -12.796 -21.845 -23.187  1.00  0.00     0.141 A 
HETATM    8  N2  UNL     1     -15.394 -21.479 -22.526  1.00  0.00    -0.155 N 
HETATM    9  O1  UNL     1     -15.728 -20.626 -24.613  1.00  0.00    -0.266 OA
HETATM   10  C3  UNL     1     -14.555 -22.010 -21.623  1.00  0.00     0.682 A 
ATOM     11  H2  UNL     1     -16.375 -21.339 -22.283  1.00  0.00     0.187 HD
HETATM   12  N9  UNL     1     -13.272 -22.178 -21.985  1.00  0.00    -0.175 N 
ATOM     13  H9  UNL     1     -12.628 -22.583 -21.305  1.00  0.00     0.186 HD
HETATM   14  N8  UNL     1     -11.499 -22.025 -23.533  1.00  0.00    -0.337 N 
HETATM   15  C17 UNL     1     -11.047 -21.682 -24.750  1.00  0.00     0.183 A 
ATOM     16  H8  UNL     1     -10.852 -22.428 -22.855  1.00  0.00     0.168 HD
HETATM   17  N7  UNL     1     -11.896 -21.138 -25.677  1.00  0.00    -0.338 N 
ATOM     18  H7  UNL     1     -11.529 -20.887 -26.595  1.00  0.00     0.168 HD
BRANCH  10  19
HETATM   19  N1  UNL     1     -14.990 -22.345 -20.447  1.00  0.00    -0.226 N 
ATOM     20  H1  UNL     1     -14.493 -23.073 -19.935  1.00  0.00     0.177 HD
BRANCH  19  21
HETATM   21  C2  UNL     1     -16.136 -21.738 -19.832  1.00  0.00     0.133 C 
HETATM   22  C1  UNL     1     -15.723 -21.182 -18.483  1.00  0.00     0.027 C 
ENDBRANCH  19  21
ENDBRANCH  10  19
ENDBRANCH   2   4
ENDBRANCH   1   2
BRANCH   1  23
HETATM   23  N4  UNL     1     -14.712 -21.320 -28.275  1.00  0.00    -0.058 N 
ATOM     24  H43 UNL     1     -14.078 -21.369 -29.073  1.00  0.00     0.276 HD
ATOM     25  H42 UNL     1     -14.449 -22.178 -27.791  1.00  0.00     0.276 HD
ATOM     26  H41 UNL     1     -15.681 -21.372 -28.590  1.00  0.00     0.276 HD
ENDBRANCH   1  23
BRANCH   1  27
HETATM   27  C8  UNL     1     -15.501 -19.110 -27.612  1.00  0.00     0.074 C 
BRANCH  27  28
HETATM   28  C9  UNL     1     -15.110 -17.810 -26.944  1.00  0.00     0.126 C 
BRANCH  28  29
HETATM   29  N5  UNL     1     -15.786 -17.574 -25.689  1.00  0.00    -0.359 N 
HETATM   30  C10 UNL     1     -15.703 -16.366 -24.956  1.00  0.00     0.249 C 
HETATM   31  O2  UNL     1     -15.012 -15.415 -25.392  1.00  0.00    -0.271 OA
ATOM     32  H5  UNL     1     -16.359 -18.325 -25.307  1.00  0.00     0.162 HD
BRANCH  30  33
HETATM   33  C11 UNL     1     -16.421 -16.205 -23.679  1.00  0.00     0.288 C 
BRANCH  33  34
HETATM   34  N6  UNL     1     -15.595 -16.223 -22.514  1.00  0.00    -0.066 N 
ATOM     35  H63 UNL     1     -14.711 -16.690 -22.717  1.00  0.00     0.275 HD
ATOM     36  H62 UNL     1     -15.256 -15.283 -22.308  1.00  0.00     0.275 HD
ATOM     37  H61 UNL     1     -16.025 -16.631 -21.684  1.00  0.00     0.275 HD
ENDBRANCH  33  34
BRANCH  33  38
HETATM   38  C12 UNL     1     -17.615 -17.136 -23.580  1.00  0.00     0.182 C 
BRANCH  38  39
HETATM   39  S1  UNL     1     -19.156 -16.273 -23.739  1.00  0.00     0.148 S 
HETATM   40  O3  UNL     1     -18.955 -14.827 -24.653  1.00  0.00    -0.228 OA
HETATM   41  O4  UNL     1     -19.745 -15.759 -22.212  1.00  0.00    -0.228 OA
BRANCH  39  42
HETATM   42  C13 UNL     1     -20.389 -17.272 -24.541  1.00  0.00     0.166 C 
BRANCH  42  43
HETATM   43  C14 UNL     1     -20.271 -18.722 -24.141  1.00  0.00     0.182 C 
BRANCH  43  44
HETATM   44  O5  UNL     1     -20.858 -18.958 -22.938  1.00  0.00    -0.388 OA
BRANCH  44  45
HETATM   45  C15 UNL     1     -20.152 -19.814 -22.152  1.00  0.00     0.193 C 
BRANCH  45  46
HETATM   46  C16 UNL     1     -19.333 -19.111 -21.119  1.00  0.00     0.190 C 
BRANCH  46  47
HETATM   47  O6  UNL     1     -20.104 -18.177 -20.405  1.00  0.00    -0.399 OA
ATOM     48  H6  UNL     1     -19.950 -18.245 -19.470  1.00  0.00     0.209 HD
ENDBRANCH  46  47
ENDBRANCH  45  46
ENDBRANCH  44  45
ENDBRANCH  43  44
ENDBRANCH  42  43
ENDBRANCH  39  42
ENDBRANCH  38  39
ENDBRANCH  33  38
ENDBRANCH  30  33
ENDBRANCH  28  29
ENDBRANCH  27  28
ENDBRANCH   1  27
TORSDOF 18
ENDMDL
MODEL 4
REMARK VINA RESULT: -8.632668933      3.584      6.869
REMARK  18 active torsions:
REMARK  status: ('A' for Active; 'I' for Inactive)
REMARK    1  A    between atoms: C2_2  and  N1_3 
REMARK    2  A    between atoms: N1_3  and  C3_5 
REMARK    3  A    between atoms: C6_11  and  N3_12 
REMARK    4  A    between atoms: N3_12  and  C7_14 
REMARK    5  A    between atoms: C7_14  and  N4_15 
REMARK    6  A    between atoms: C7_14  and  C8_19 
REMARK    7  A    between atoms: C8_19  and  C9_20 
REMARK    8  A    between atoms: C9_20  and  N5_21 
REMARK       I    between atoms: N5_21  and  C10_23 
REMARK    9  A    between atoms: C10_23  and  C11_25 
REMARK   10  A    between atoms: C11_25  and  N6_26 
REMARK   11  A    between atoms: C11_25  and  C12_30 
REMARK   12  A    between atoms: C12_30  and  S1_31 
REMARK   13  A    between atoms: S1_31  and  C13_34 
REMARK   14  A    between atoms: C13_34  and  C14_35 
REMARK   15  A    between atoms: C14_35  and  O5_36 
REMARK   16  A    between atoms: O5_36  and  C15_37 
REMARK   17  A    between atoms: C15_37  and  C16_38 
REMARK   18  A    between atoms: C16_38  and  O6_39 
ROOT
HETATM    1  C7  UNL     1     -14.348 -20.142 -27.128  1.00  0.00     0.284 C 
ENDROOT
BRANCH   1   2
HETATM    2  N3  UNL     1     -14.244 -20.539 -25.826  1.00  0.00    -0.348 N 
ATOM      3  H3  UNL     1     -15.130 -20.283 -25.391  1.00  0.00     0.163 HD
BRANCH   2   4
HETATM    4  C6  UNL     1     -13.585 -21.057 -24.944  1.00  0.00     0.123 A 
HETATM    5  C5  UNL     1     -14.219 -21.273 -23.703  1.00  0.00     0.121 A 
HETATM    6  C4  UNL     1     -15.535 -20.912 -23.527  1.00  0.00     0.277 A 
HETATM    7  C18 UNL     1     -13.580 -21.842 -22.631  1.00  0.00     0.141 A 
HETATM    8  N2  UNL     1     -16.169 -21.115 -22.331  1.00  0.00    -0.155 N 
HETATM    9  O1  UNL     1     -16.138 -20.391 -24.492  1.00  0.00    -0.266 OA
HETATM   10  C3  UNL     1     -15.520 -21.673 -21.298  1.00  0.00     0.682 A 
ATOM     11  H2  UNL     1     -17.145 -20.839 -22.225  1.00  0.00     0.187 HD
HETATM   12  N9  UNL     1     -14.235 -22.022 -21.482  1.00  0.00    -0.175 N 
ATOM     13  H9  UNL     1     -13.734 -22.448 -20.701  1.00  0.00     0.186 HD
HETATM   14  N8  UNL     1     -12.285 -22.203 -22.796  1.00  0.00    -0.337 N 
HETATM   15  C17 UNL     1     -11.650 -22.013 -23.964  1.00  0.00     0.183 A 
ATOM     16  H8  UNL     1     -11.781 -22.629 -22.018  1.00  0.00     0.168 HD
HETATM   17  N7  UNL     1     -12.305 -21.443 -25.024  1.00  0.00    -0.338 N 
ATOM     18  H7  UNL     1     -11.803 -21.309 -25.902  1.00  0.00     0.168 HD
BRANCH  10  19
HETATM   19  N1  UNL     1     -16.131 -21.861 -20.169  1.00  0.00    -0.226 N 
ATOM     20  H1  UNL     1     -17.111 -22.142 -20.189  1.00  0.00     0.177 HD
BRANCH  19  21
HETATM   21  C2  UNL     1     -15.495 -21.693 -18.894  1.00  0.00     0.133 C 
HETATM   22  C1  UNL     1     -16.546 -21.292 -17.877  1.00  0.00     0.027 C 
ENDBRANCH  19  21
ENDBRANCH  10  19
ENDBRANCH   2   4
ENDBRANCH   1   2
BRANCH   1  23
HETATM   23  N4  UNL     1     -14.601 -21.231 -28.079  1.00  0.00    -0.058 N 
ATOM     24  H43 UNL     1     -14.397 -22.132 -27.648  1.00  0.00     0.276 HD
ATOM     25  H42 UNL     1     -15.602 -21.336 -28.240  1.00  0.00     0.276 HD
ATOM     26  H41 UNL     1     -14.105 -21.142 -28.966  1.00  0.00     0.276 HD
ENDBRANCH   1  23
BRANCH   1  27
HETATM   27  C8  UNL     1     -15.294 -18.986 -27.424  1.00  0.00     0.074 C 
BRANCH  27  28
HETATM   28  C9  UNL     1     -14.985 -17.803 -26.532  1.00  0.00     0.126 C 
BRANCH  28  29
HETATM   29  N5  UNL     1     -16.080 -17.421 -25.671  1.00  0.00    -0.359 N 
HETATM   30  C10 UNL     1     -16.028 -16.353 -24.744  1.00  0.00     0.249 C 
HETATM   31  O2  UNL     1     -14.983 -15.668 -24.635  1.00  0.00    -0.271 OA
ATOM     32  H5  UNL     1     -16.947 -17.955 -25.736  1.00  0.00     0.162 HD
BRANCH  30  33
HETATM   33  C11 UNL     1     -17.190 -16.028 -23.897  1.00  0.00     0.288 C 
BRANCH  33  34
HETATM   34  N6  UNL     1     -17.007 -16.270 -22.501  1.00  0.00    -0.066 N 
ATOM     35  H63 UNL     1     -16.631 -17.206 -22.353  1.00  0.00     0.275 HD
ATOM     36  H62 UNL     1     -16.234 -15.707 -22.145  1.00  0.00     0.275 HD
ATOM     37  H61 UNL     1     -17.838 -16.129 -21.925  1.00  0.00     0.275 HD
ENDBRANCH  33  34
BRANCH  33  38
HETATM   38  C12 UNL     1     -18.474 -16.625 -24.444  1.00  0.00     0.182 C 
BRANCH  38  39
HETATM   39  S1  UNL     1     -19.241 -17.738 -23.297  1.00  0.00     0.148 S 
HETATM   40  O3  UNL     1     -19.864 -16.882 -21.938  1.00  0.00    -0.228 OA
HETATM   41  O4  UNL     1     -18.103 -18.845 -22.644  1.00  0.00    -0.228 OA
BRANCH  39  42
HETATM   42  C13 UNL     1     -20.575 -18.640 -24.048  1.00  0.00     0.166 C 
BRANCH  42  43
HETATM   43  C14 UNL     1     -20.792 -19.972 -23.372  1.00  0.00     0.182 C 
BRANCH  43  44
HETATM   44  O5  UNL     1     -21.696 -19.879 -22.361  1.00  0.00    -0.388 OA
BRANCH  44  45
HETATM   45  C15 UNL     1     -21.249 -20.402 -21.189  1.00  0.00     0.193 C 
BRANCH  45  46
HETATM   46  C16 UNL     1     -20.114 -21.357 -21.374  1.00  0.00     0.190 C 
BRANCH  46  47
HETATM   47  O6  UNL     1     -18.982 -20.950 -20.649  1.00  0.00    -0.399 OA
ATOM     48  H6  UNL     1     -18.198 -21.389 -20.958  1.00  0.00     0.209 HD
ENDBRANCH  46  47
ENDBRANCH  45  46
ENDBRANCH  44  45
ENDBRANCH  43  44
ENDBRANCH  42  43
ENDBRANCH  39  42
ENDBRANCH  38  39
ENDBRANCH  33  38
ENDBRANCH  30  33
ENDBRANCH  28  29
ENDBRANCH  27  28
ENDBRANCH   1  27
TORSDOF 18
ENDMDL
MODEL 5
REMARK VINA RESULT: -8.586771003      3.735      6.801
REMARK  18 active torsions:
REMARK  status: ('A' for Active; 'I' for Inactive)
REMARK    1  A    between atoms: C2_2  and  N1_3 
REMARK    2  A    between atoms: N1_3  and  C3_5 
REMARK    3  A    between atoms: C6_11  and  N3_12 
REMARK    4  A    between atoms: N3_12  and  C7_14 
REMARK    5  A    between atoms: C7_14  and  N4_15 
REMARK    6  A    between atoms: C7_14  and  C8_19 
REMARK    7  A    between atoms: C8_19  and  C9_20 
REMARK    8  A    between atoms: C9_20  and  N5_21 
REMARK       I    between atoms: N5_21  and  C10_23 
REMARK    9  A    between atoms: C10_23  and  C11_25 
REMARK   10  A    between atoms: C11_25  and  N6_26 
REMARK   11  A    between atoms: C11_25  and  C12_30 
REMARK   12  A    between atoms: C12_30  and  S1_31 
REMARK   13  A    between atoms: S1_31  and  C13_34 
REMARK   14  A    between atoms: C13_34  and  C14_35 
REMARK   15  A    between atoms: C14_35  and  O5_36 
REMARK   16  A    between atoms: O5_36  and  C15_37 
REMARK   17  A    between atoms: C15_37  and  C16_38 
REMARK   18  A    between atoms: C16_38  and  O6_39 
ROOT
HETATM    1  C7  UNL     1     -14.409 -20.034 -27.405  1.00  0.00     0.284 C 
ENDROOT
BRANCH   1   2
HETATM    2  N3  UNL     1     -14.046 -20.392 -26.138  1.00  0.00    -0.348 N 
ATOM      3  H3  UNL     1     -14.823 -20.106 -25.541  1.00  0.00     0.163 HD
BRANCH   2   4
HETATM    4  C6  UNL     1     -13.227 -20.892 -25.390  1.00  0.00     0.123 A 
HETATM    5  C5  UNL     1     -13.668 -21.268 -24.104  1.00  0.00     0.121 A 
HETATM    6  C4  UNL     1     -14.980 -21.075 -23.740  1.00  0.00     0.277 A 
HETATM    7  C18 UNL     1     -12.838 -21.836 -23.171  1.00  0.00     0.141 A 
HETATM    8  N2  UNL     1     -15.428 -21.435 -22.497  1.00  0.00    -0.155 N 
HETATM    9  O1  UNL     1     -15.755 -20.559 -24.576  1.00  0.00    -0.266 OA
HETATM   10  C3  UNL     1     -14.595 -21.988 -21.602  1.00  0.00     0.682 A 
ATOM     11  H2  UNL     1     -16.405 -21.282 -22.250  1.00  0.00     0.187 HD
HETATM   12  N9  UNL     1     -13.315 -22.172 -21.971  1.00  0.00    -0.175 N 
ATOM     13  H9  UNL     1     -12.675 -22.593 -21.296  1.00  0.00     0.186 HD
HETATM   14  N8  UNL     1     -11.545 -22.033 -23.523  1.00  0.00    -0.337 N 
HETATM   15  C17 UNL     1     -11.092 -21.687 -24.739  1.00  0.00     0.183 A 
ATOM     16  H8  UNL     1     -10.902 -22.452 -22.851  1.00  0.00     0.168 HD
HETATM   17  N7  UNL     1     -11.935 -21.122 -25.658  1.00  0.00    -0.338 N 
ATOM     18  H7  UNL     1     -11.568 -20.868 -26.575  1.00  0.00     0.168 HD
BRANCH  10  19
HETATM   19  N1  UNL     1     -15.030 -22.325 -20.428  1.00  0.00    -0.226 N 
ATOM     20  H1  UNL     1     -14.465 -22.960 -19.864  1.00  0.00     0.177 HD
BRANCH  19  21
HETATM   21  C2  UNL     1     -16.270 -21.849 -19.883  1.00  0.00     0.133 C 
HETATM   22  C1  UNL     1     -15.963 -20.832 -18.801  1.00  0.00     0.027 C 
ENDBRANCH  19  21
ENDBRANCH  10  19
ENDBRANCH   2   4
ENDBRANCH   1   2
BRANCH   1  23
HETATM   23  N4  UNL     1     -14.980 -21.124 -28.205  1.00  0.00    -0.058 N 
ATOM     24  H43 UNL     1     -14.395 -21.311 -29.019  1.00  0.00     0.276 HD
ATOM     25  H42 UNL     1     -14.886 -22.012 -27.713  1.00  0.00     0.276 HD
ATOM     26  H41 UNL     1     -15.949 -20.976 -28.490  1.00  0.00     0.276 HD
ENDBRANCH   1  23
BRANCH   1  27
HETATM   27  C8  UNL     1     -15.278 -18.793 -27.550  1.00  0.00     0.074 C 
BRANCH  27  28
HETATM   28  C9  UNL     1     -15.029 -17.831 -26.410  1.00  0.00     0.126 C 
BRANCH  28  29
HETATM   29  N5  UNL     1     -16.185 -17.604 -25.575  1.00  0.00    -0.359 N 
HETATM   30  C10 UNL     1     -16.290 -16.557 -24.629  1.00  0.00     0.249 C 
HETATM   31  O2  UNL     1     -15.341 -15.751 -24.477  1.00  0.00    -0.271 OA
ATOM     32  H5  UNL     1     -16.977 -18.238 -25.674  1.00  0.00     0.162 HD
BRANCH  30  33
HETATM   33  C11 UNL     1     -17.506 -16.394 -23.810  1.00  0.00     0.288 C 
BRANCH  33  34
HETATM   34  N6  UNL     1     -17.273 -16.079 -22.437  1.00  0.00    -0.066 N 
ATOM     35  H63 UNL     1     -16.323 -16.338 -22.173  1.00  0.00     0.275 HD
ATOM     36  H62 UNL     1     -17.224 -15.068 -22.312  1.00  0.00     0.275 HD
ATOM     37  H61 UNL     1     -17.942 -16.482 -21.781  1.00  0.00     0.275 HD
ENDBRANCH  33  34
BRANCH  33  38
HETATM   38  C12 UNL     1     -18.476 -17.546 -24.004  1.00  0.00     0.182 C 
BRANCH  38  39
HETATM   39  S1  UNL     1     -18.568 -18.595 -22.577  1.00  0.00     0.148 S 
HETATM   40  O3  UNL     1     -19.498 -17.853 -21.332  1.00  0.00    -0.228 OA
HETATM   41  O4  UNL     1     -17.017 -18.847 -21.886  1.00  0.00    -0.228 OA
BRANCH  39  42
HETATM   42  C13 UNL     1     -19.304 -20.165 -22.963  1.00  0.00     0.166 C 
BRANCH  42  43
HETATM   43  C14 UNL     1     -20.571 -20.000 -23.766  1.00  0.00     0.182 C 
BRANCH  43  44
HETATM   44  O5  UNL     1     -21.633 -19.708 -22.970  1.00  0.00    -0.388 OA
BRANCH  44  45
HETATM   45  C15 UNL     1     -22.120 -20.788 -22.303  1.00  0.00     0.193 C 
BRANCH  45  46
HETATM   46  C16 UNL     1     -22.537 -20.467 -20.904  1.00  0.00     0.190 C 
BRANCH  46  47
HETATM   47  O6  UNL     1     -21.758 -19.428 -20.366  1.00  0.00    -0.399 OA
ATOM     48  H6  UNL     1     -21.992 -19.253 -19.462  1.00  0.00     0.209 HD
ENDBRANCH  46  47
ENDBRANCH  45  46
ENDBRANCH  44  45
ENDBRANCH  43  44
ENDBRANCH  42  43
ENDBRANCH  39  42
ENDBRANCH  38  39
ENDBRANCH  33  38
ENDBRANCH  30  33
ENDBRANCH  28  29
ENDBRANCH  27  28
ENDBRANCH   1  27
TORSDOF 18
ENDMDL
