MODEL 1
REMARK VINA RESULT: -8.672466273      0.000      0.000
REMARK  15 active torsions:
REMARK  status: ('A' for Active; 'I' for Inactive)
REMARK    1  A    between atoms: N1_1  and  C1_4 
REMARK    2  A    between atoms: C7_15  and  C8_16 
REMARK    3  A    between atoms: C8_16  and  N4_17 
REMARK    4  A    between atoms: N4_17  and  C9_20 
REMARK    5  A    between atoms: C9_20  and  C10_21 
REMARK    6  A    between atoms: C10_21  and  N5_22 
REMARK    7  A    between atoms: C15_35  and  C16_36 
REMARK    8  A    between atoms: C16_36  and  C17_37 
REMARK       I    between atoms: C17_37  and  N9_39 
REMARK    9  A    between atoms: N9_39  and  C18_40 
REMARK   10  A    between atoms: C18_40  and  C19_41 
REMARK   11  A    between atoms: C19_41  and  N10_42 
REMARK   12  A    between atoms: N10_42  and  C20_43 
REMARK   13  A    between atoms: N10_42  and  C21_45 
REMARK   14  A    between atoms: C21_45  and  C22_46 
REMARK   15  A    between atoms: C22_46  and  O4_47 
ROOT
HETATM    1  C1  UNL     1     -15.566 -17.928 -26.028  1.00  0.00     0.679 A 
HETATM    2  N2  UNL     1     -16.644 -17.343 -25.544  1.00  0.00    -0.156 N 
ATOM      3  H2  UNL     1     -17.042 -16.527 -26.008  1.00  0.00     0.187 HD
HETATM    4  C2  UNL     1     -17.221 -17.845 -24.412  1.00  0.00     0.274 A 
HETATM    5  O1  UNL     1     -18.249 -17.284 -23.987  1.00  0.00    -0.267 OA
HETATM    6  C3  UNL     1     -16.690 -18.922 -23.798  1.00  0.00     0.084 A 
HETATM    7  C4  UNL     1     -15.523 -19.542 -24.352  1.00  0.00     0.079 A 
HETATM    8  N3  UNL     1     -14.997 -19.005 -25.458  1.00  0.00    -0.190 N 
ATOM      9  H3  UNL     1     -14.160 -19.415 -25.872  1.00  0.00     0.184 HD
HETATM   10  C5  UNL     1     -14.657 -20.493 -24.014  1.00  0.00     0.020 A 
HETATM   11  C6  UNL     1     -13.790 -20.603 -25.049  1.00  0.00     0.025 A 
HETATM   12  C7  UNL     1     -12.664 -21.394 -24.935  1.00  0.00    -0.032 A 
HETATM   13  C11 UNL     1     -12.419 -22.092 -23.748  1.00  0.00     0.011 A 
HETATM   14  C12 UNL     1     -13.317 -21.970 -22.720  1.00  0.00     0.031 A 
HETATM   15  C13 UNL     1     -14.437 -21.191 -22.817  1.00  0.00     0.047 A 
HETATM   16  N6  UNL     1     -15.109 -21.386 -21.750  1.00  0.00    -0.330 N 
ATOM     17  H6  UNL     1     -14.617 -21.960 -21.066  1.00  0.00     0.168 HD
HETATM   18  C14 UNL     1     -16.376 -20.981 -21.316  1.00  0.00     0.193 C 
HETATM   19  N7  UNL     1     -16.813 -21.777 -20.225  1.00  0.00    -0.063 NA
HETATM   20  N8  UNL     1     -17.228 -20.103 -21.673  1.00  0.00    -0.333 N 
ATOM     21  H8  UNL     1     -18.046 -20.141 -21.065  1.00  0.00     0.168 HD
HETATM   22  C15 UNL     1     -17.398 -19.062 -22.679  1.00  0.00     0.039 C 
ENDROOT
BRANCH  22  23
HETATM   23  C16 UNL     1     -18.369 -18.055 -22.400  1.00  0.00     0.177 C 
BRANCH  23  24
HETATM   24  C17 UNL     1     -19.552 -18.911 -21.787  1.00  0.00     0.296 C 
HETATM   25  O2  UNL     1     -20.053 -18.657 -20.704  1.00  0.00    -0.257 OA
HETATM   26  N9  UNL     1     -20.013 -19.986 -22.549  1.00  0.00    -0.386 NA
BRANCH  26  27
HETATM   27  C18 UNL     1     -20.459 -21.028 -23.289  1.00  0.00     0.178 C 
BRANCH  27  28
HETATM   28  C19 UNL     1     -21.512 -21.960 -22.655  1.00  0.00     0.184 C 
BRANCH  28  29
HETATM   29  N10 UNL     1     -22.822 -21.336 -22.787  1.00  0.00    -0.352 N 
BRANCH  29  30
HETATM   30  C20 UNL     1     -23.437 -20.935 -21.565  1.00  0.00     0.351 C 
HETATM   31  O3  UNL     1     -23.158 -19.872 -20.961  1.00  0.00    -0.284 OA
ENDBRANCH  29  30
BRANCH  29  32
HETATM   32  C21 UNL     1     -23.518 -21.113 -24.014  1.00  0.00     0.151 C 
BRANCH  32  33
HETATM   33  C22 UNL     1     -23.796 -19.670 -24.321  1.00  0.00     0.183 C 
BRANCH  33  34
HETATM   34  O4  UNL     1     -22.756 -18.814 -23.976  1.00  0.00    -0.399 OA
ATOM     35  H4  UNL     1     -23.027 -18.081 -23.437  1.00  0.00     0.209 HD
ENDBRANCH  33  34
ENDBRANCH  32  33
ENDBRANCH  29  32
ENDBRANCH  28  29
ENDBRANCH  27  28
ENDBRANCH  26  27
ENDBRANCH  23  24
ENDBRANCH  22  23
BRANCH   1  36
HETATM   36  N1  UNL     1     -14.985 -17.474 -27.109  1.00  0.00    -0.234 N 
ATOM     37  H12 UNL     1     -14.277 -16.753 -26.969  1.00  0.00     0.174 HD
ATOM     38  H11 UNL     1     -15.240 -17.833 -28.030  1.00  0.00     0.174 HD
ENDBRANCH   1  36
BRANCH  12  39
HETATM   39  C8  UNL     1     -11.719 -21.521 -26.076  1.00  0.00     0.270 C 
BRANCH  39  40
HETATM   40  N4  UNL     1     -10.515 -20.780 -25.891  1.00  0.00    -0.070 N 
ATOM     41  H42 UNL     1     -10.511 -19.940 -26.471  1.00  0.00     0.277 HD
ATOM     42  H41 UNL     1     -10.492 -20.344 -24.969  1.00  0.00     0.277 HD
BRANCH  40  43
HETATM   43  C9  UNL     1      -9.348 -21.563 -26.116  1.00  0.00     0.260 C 
BRANCH  43  44
HETATM   44  C10 UNL     1      -8.717 -21.963 -24.804  1.00  0.00     0.257 C 
BRANCH  44  45
HETATM   45  N5  UNL     1      -7.538 -21.225 -24.473  1.00  0.00    -0.078 N 
ATOM     46  H53 UNL     1      -7.772 -20.419 -23.893  1.00  0.00     0.274 HD
ATOM     47  H52 UNL     1      -6.961 -21.749 -23.815  1.00  0.00     0.274 HD
ATOM     48  H51 UNL     1      -6.985 -20.936 -25.280  1.00  0.00     0.274 HD
ENDBRANCH  44  45
ENDBRANCH  43  44
ENDBRANCH  40  43
ENDBRANCH  39  40
ENDBRANCH  12  39
TORSDOF 15
ENDMDL
MODEL 2
REMARK VINA RESULT: -8.569769871      2.903      6.673
REMARK  15 active torsions:
REMARK  status: ('A' for Active; 'I' for Inactive)
REMARK    1  A    between atoms: N1_1  and  C1_4 
REMARK    2  A    between atoms: C7_15  and  C8_16 
REMARK    3  A    between atoms: C8_16  and  N4_17 
REMARK    4  A    between atoms: N4_17  and  C9_20 
REMARK    5  A    between atoms: C9_20  and  C10_21 
REMARK    6  A    between atoms: C10_21  and  N5_22 
REMARK    7  A    between atoms: C15_35  and  C16_36 
REMARK    8  A    between atoms: C16_36  and  C17_37 
REMARK       I    between atoms: C17_37  and  N9_39 
REMARK    9  A    between atoms: N9_39  and  C18_40 
REMARK   10  A    between atoms: C18_40  and  C19_41 
REMARK   11  A    between atoms: C19_41  and  N10_42 
REMARK   12  A    between atoms: N10_42  and  C20_43 
REMARK   13  A    between atoms: N10_42  and  C21_45 
REMARK   14  A    between atoms: C21_45  and  C22_46 
REMARK   15  A    between atoms: C22_46  and  O4_47 
ROOT
HETATM    1  C1  UNL     1     -19.507 -19.609 -22.270  1.00  0.00     0.679 A 
HETATM    2  N2  UNL     1     -19.592 -19.210 -23.523  1.00  0.00    -0.156 N 
ATOM      3  H2  UNL     1     -20.469 -18.839 -23.888  1.00  0.00     0.187 HD
HETATM    4  C2  UNL     1     -18.492 -19.302 -24.326  1.00  0.00     0.274 A 
HETATM    5  O1  UNL     1     -18.595 -18.900 -25.502  1.00  0.00    -0.267 OA
HETATM    6  C3  UNL     1     -17.335 -19.797 -23.841  1.00  0.00     0.084 A 
HETATM    7  C4  UNL     1     -17.269 -20.214 -22.472  1.00  0.00     0.079 A 
HETATM    8  N3  UNL     1     -18.379 -20.107 -21.733  1.00  0.00    -0.190 N 
ATOM      9  H3  UNL     1     -18.370 -20.406 -20.758  1.00  0.00     0.184 HD
HETATM   10  C5  UNL     1     -16.409 -20.838 -21.671  1.00  0.00     0.020 A 
HETATM   11  C6  UNL     1     -16.987 -20.872 -20.446  1.00  0.00     0.025 A 
HETATM   12  C7  UNL     1     -16.415 -21.605 -19.425  1.00  0.00    -0.032 A 
HETATM   13  C11 UNL     1     -15.230 -22.311 -19.653  1.00  0.00     0.011 A 
HETATM   14  C12 UNL     1     -14.662 -22.253 -20.899  1.00  0.00     0.031 A 
HETATM   15  C13 UNL     1     -15.215 -21.532 -21.921  1.00  0.00     0.047 A 
HETATM   16  N6  UNL     1     -14.393 -21.589 -22.894  1.00  0.00    -0.330 N 
ATOM     17  H6  UNL     1     -13.612 -22.223 -22.722  1.00  0.00     0.168 HD
HETATM   18  C14 UNL     1     -14.330 -20.970 -24.148  1.00  0.00     0.193 C 
HETATM   19  N7  UNL     1     -13.024 -21.070 -24.694  1.00  0.00    -0.063 NA
HETATM   20  N8  UNL     1     -15.140 -20.327 -24.892  1.00  0.00    -0.333 N 
ATOM     21  H8  UNL     1     -14.675 -20.044 -25.754  1.00  0.00     0.168 HD
HETATM   22  C15 UNL     1     -16.524 -19.872 -24.895  1.00  0.00     0.039 C 
ENDROOT
BRANCH  22  23
HETATM   23  C16 UNL     1     -17.086 -19.542 -26.164  1.00  0.00     0.177 C 
BRANCH  23  24
HETATM   24  C17 UNL     1     -15.857 -18.857 -26.891  1.00  0.00     0.296 C 
HETATM   25  O2  UNL     1     -15.440 -19.239 -27.972  1.00  0.00    -0.257 OA
HETATM   26  N9  UNL     1     -15.261 -17.777 -26.239  1.00  0.00    -0.386 NA
BRANCH  26  27
HETATM   27  C18 UNL     1     -14.683 -16.730 -25.606  1.00  0.00     0.178 C 
BRANCH  27  28
HETATM   28  C19 UNL     1     -15.574 -15.520 -25.259  1.00  0.00     0.184 C 
BRANCH  28  29
HETATM   29  N10 UNL     1     -16.566 -15.941 -24.280  1.00  0.00    -0.352 N 
BRANCH  29  30
HETATM   30  C20 UNL     1     -16.044 -16.531 -23.092  1.00  0.00     0.351 C 
HETATM   31  O3  UNL     1     -15.480 -15.879 -22.180  1.00  0.00    -0.284 OA
ENDBRANCH  29  30
BRANCH  29  32
HETATM   32  C21 UNL     1     -17.982 -15.819 -24.423  1.00  0.00     0.151 C 
BRANCH  32  33
HETATM   33  C22 UNL     1     -18.730 -15.666 -23.130  1.00  0.00     0.183 C 
BRANCH  33  34
HETATM   34  O4  UNL     1     -19.990 -16.254 -23.140  1.00  0.00    -0.399 OA
ATOM     35  H4  UNL     1     -20.701 -15.633 -23.249  1.00  0.00     0.209 HD
ENDBRANCH  33  34
ENDBRANCH  32  33
ENDBRANCH  29  32
ENDBRANCH  28  29
ENDBRANCH  27  28
ENDBRANCH  26  27
ENDBRANCH  23  24
ENDBRANCH  22  23
BRANCH   1  36
HETATM   36  N1  UNL     1     -20.541 -19.538 -21.471  1.00  0.00    -0.234 N 
ATOM     37  H12 UNL     1     -20.665 -18.655 -20.975  1.00  0.00     0.174 HD
ATOM     38  H11 UNL     1     -21.174 -20.331 -21.363  1.00  0.00     0.174 HD
ENDBRANCH   1  36
BRANCH  12  39
HETATM   39  C8  UNL     1     -17.045 -21.633 -18.079  1.00  0.00     0.270 C 
BRANCH  39  40
HETATM   40  N4  UNL     1     -16.157 -21.236 -17.037  1.00  0.00    -0.070 N 
ATOM     41  H42 UNL     1     -15.357 -20.727 -17.412  1.00  0.00     0.277 HD
ATOM     42  H41 UNL     1     -16.569 -20.498 -16.466  1.00  0.00     0.277 HD
BRANCH  40  43
HETATM   43  C9  UNL     1     -15.734 -22.331 -16.230  1.00  0.00     0.260 C 
BRANCH  43  44
HETATM   44  C10 UNL     1     -14.325 -22.112 -15.735  1.00  0.00     0.257 C 
BRANCH  44  45
HETATM   45  N5  UNL     1     -14.182 -22.202 -14.315  1.00  0.00    -0.078 N 
ATOM     46  H53 UNL     1     -13.207 -22.364 -14.064  1.00  0.00     0.274 HD
ATOM     47  H52 UNL     1     -14.324 -21.289 -13.883  1.00  0.00     0.274 HD
ATOM     48  H51 UNL     1     -14.784 -22.901 -13.879  1.00  0.00     0.274 HD
ENDBRANCH  44  45
ENDBRANCH  43  44
ENDBRANCH  40  43
ENDBRANCH  39  40
ENDBRANCH  12  39
TORSDOF 15
ENDMDL
MODEL 3
REMARK VINA RESULT: -8.563306341      1.015      1.350
REMARK  15 active torsions:
REMARK  status: ('A' for Active; 'I' for Inactive)
REMARK    1  A    between atoms: N1_1  and  C1_4 
REMARK    2  A    between atoms: C7_15  and  C8_16 
REMARK    3  A    between atoms: C8_16  and  N4_17 
REMARK    4  A    between atoms: N4_17  and  C9_20 
REMARK    5  A    between atoms: C9_20  and  C10_21 
REMARK    6  A    between atoms: C10_21  and  N5_22 
REMARK    7  A    between atoms: C15_35  and  C16_36 
REMARK    8  A    between atoms: C16_36  and  C17_37 
REMARK       I    between atoms: C17_37  and  N9_39 
REMARK    9  A    between atoms: N9_39  and  C18_40 
REMARK   10  A    between atoms: C18_40  and  C19_41 
REMARK   11  A    between atoms: C19_41  and  N10_42 
REMARK   12  A    between atoms: N10_42  and  C20_43 
REMARK   13  A    between atoms: N10_42  and  C21_45 
REMARK   14  A    between atoms: C21_45  and  C22_46 
REMARK   15  A    between atoms: C22_46  and  O4_47 
ROOT
HETATM    1  C1  UNL     1     -15.469 -17.768 -25.950  1.00  0.00     0.679 A 
HETATM    2  N2  UNL     1     -16.525 -17.127 -25.489  1.00  0.00    -0.156 N 
ATOM      3  H2  UNL     1     -16.858 -16.281 -25.949  1.00  0.00     0.187 HD
HETATM    4  C2  UNL     1     -17.167 -17.613 -24.386  1.00  0.00     0.274 A 
HETATM    5  O1  UNL     1     -18.174 -16.998 -23.982  1.00  0.00    -0.267 OA
HETATM    6  C3  UNL     1     -16.722 -18.731 -23.777  1.00  0.00     0.084 A 
HETATM    7  C4  UNL     1     -15.578 -19.411 -24.307  1.00  0.00     0.079 A 
HETATM    8  N3  UNL     1     -14.985 -18.888 -25.385  1.00  0.00    -0.190 N 
ATOM      9  H3  UNL     1     -14.162 -19.340 -25.781  1.00  0.00     0.184 HD
HETATM   10  C5  UNL     1     -14.782 -20.419 -23.961  1.00  0.00     0.020 A 
HETATM   11  C6  UNL     1     -13.891 -20.563 -24.970  1.00  0.00     0.025 A 
HETATM   12  C7  UNL     1     -12.819 -21.423 -24.837  1.00  0.00    -0.032 A 
HETATM   13  C11 UNL     1     -12.655 -22.156 -23.657  1.00  0.00     0.011 A 
HETATM   14  C12 UNL     1     -13.576 -21.998 -22.655  1.00  0.00     0.031 A 
HETATM   15  C13 UNL     1     -14.643 -21.150 -22.771  1.00  0.00     0.047 A 
HETATM   16  N6  UNL     1     -15.360 -21.323 -21.729  1.00  0.00    -0.330 N 
ATOM     17  H6  UNL     1     -14.926 -21.938 -21.042  1.00  0.00     0.168 HD
HETATM   18  C14 UNL     1     -16.613 -20.849 -21.327  1.00  0.00     0.193 C 
HETATM   19  N7  UNL     1     -17.133 -21.636 -20.267  1.00  0.00    -0.063 NA
HETATM   20  N8  UNL     1     -17.399 -19.915 -21.693  1.00  0.00    -0.333 N 
ATOM     21  H8  UNL     1     -18.237 -19.914 -21.112  1.00  0.00     0.168 HD
HETATM   22  C15 UNL     1     -17.473 -18.848 -22.683  1.00  0.00     0.039 C 
ENDROOT
BRANCH  22  23
HETATM   23  C16 UNL     1     -18.390 -17.789 -22.415  1.00  0.00     0.177 C 
BRANCH  23  24
HETATM   24  C17 UNL     1     -19.634 -18.580 -21.835  1.00  0.00     0.296 C 
HETATM   25  O2  UNL     1     -19.965 -18.514 -20.663  1.00  0.00    -0.257 OA
HETATM   26  N9  UNL     1     -20.354 -19.368 -22.735  1.00  0.00    -0.386 NA
BRANCH  26  27
HETATM   27  C18 UNL     1     -21.052 -20.131 -23.607  1.00  0.00     0.178 C 
BRANCH  27  28
HETATM   28  C19 UNL     1     -21.426 -21.563 -23.170  1.00  0.00     0.184 C 
BRANCH  28  29
HETATM   29  N10 UNL     1     -22.875 -21.649 -23.058  1.00  0.00    -0.352 N 
BRANCH  29  30
HETATM   30  C20 UNL     1     -23.454 -22.870 -23.513  1.00  0.00     0.351 C 
HETATM   31  O3  UNL     1     -22.784 -23.872 -23.862  1.00  0.00    -0.284 OA
ENDBRANCH  29  30
BRANCH  29  32
HETATM   32  C21 UNL     1     -23.734 -20.627 -22.551  1.00  0.00     0.151 C 
BRANCH  32  33
HETATM   33  C22 UNL     1     -23.745 -20.507 -21.054  1.00  0.00     0.183 C 
BRANCH  33  34
HETATM   34  O4  UNL     1     -22.721 -19.715 -20.548  1.00  0.00    -0.399 OA
ATOM     35  H4  UNL     1     -22.871 -18.783 -20.653  1.00  0.00     0.209 HD
ENDBRANCH  33  34
ENDBRANCH  32  33
ENDBRANCH  29  32
ENDBRANCH  28  29
ENDBRANCH  27  28
ENDBRANCH  26  27
ENDBRANCH  23  24
ENDBRANCH  22  23
BRANCH   1  36
HETATM   36  N1  UNL     1     -14.828 -17.331 -27.004  1.00  0.00    -0.234 N 
ATOM     37  H12 UNL     1     -15.073 -17.770 -27.892  1.00  0.00     0.174 HD
ATOM     38  H11 UNL     1     -14.125 -16.596 -26.922  1.00  0.00     0.174 HD
ENDBRANCH   1  36
BRANCH  12  39
HETATM   39  C8  UNL     1     -11.847 -21.588 -25.950  1.00  0.00     0.270 C 
BRANCH  39  40
HETATM   40  N4  UNL     1     -10.665 -20.809 -25.780  1.00  0.00    -0.070 N 
ATOM     41  H42 UNL     1     -10.707 -19.955 -26.337  1.00  0.00     0.277 HD
ATOM     42  H41 UNL     1     -10.629 -20.396 -24.849  1.00  0.00     0.277 HD
BRANCH  40  43
HETATM   43  C9  UNL     1      -9.478 -21.544 -26.060  1.00  0.00     0.260 C 
BRANCH  43  44
HETATM   44  C10 UNL     1      -8.751 -21.885 -24.782  1.00  0.00     0.257 C 
BRANCH  44  45
HETATM   45  N5  UNL     1      -9.183 -21.133 -23.645  1.00  0.00    -0.078 N 
ATOM     46  H53 UNL     1      -8.431 -21.058 -22.960  1.00  0.00     0.274 HD
ATOM     47  H52 UNL     1      -9.294 -20.149 -23.888  1.00  0.00     0.274 HD
ATOM     48  H51 UNL     1     -10.031 -21.490 -23.205  1.00  0.00     0.274 HD
ENDBRANCH  44  45
ENDBRANCH  43  44
ENDBRANCH  40  43
ENDBRANCH  39  40
ENDBRANCH  12  39
TORSDOF 15
ENDMDL
MODEL 4
REMARK VINA RESULT: -8.524162111      1.690      3.479
REMARK  15 active torsions:
REMARK  status: ('A' for Active; 'I' for Inactive)
REMARK    1  A    between atoms: N1_1  and  C1_4 
REMARK    2  A    between atoms: C7_15  and  C8_16 
REMARK    3  A    between atoms: C8_16  and  N4_17 
REMARK    4  A    between atoms: N4_17  and  C9_20 
REMARK    5  A    between atoms: C9_20  and  C10_21 
REMARK    6  A    between atoms: C10_21  and  N5_22 
REMARK    7  A    between atoms: C15_35  and  C16_36 
REMARK    8  A    between atoms: C16_36  and  C17_37 
REMARK       I    between atoms: C17_37  and  N9_39 
REMARK    9  A    between atoms: N9_39  and  C18_40 
REMARK   10  A    between atoms: C18_40  and  C19_41 
REMARK   11  A    between atoms: C19_41  and  N10_42 
REMARK   12  A    between atoms: N10_42  and  C20_43 
REMARK   13  A    between atoms: N10_42  and  C21_45 
REMARK   14  A    between atoms: C21_45  and  C22_46 
REMARK   15  A    between atoms: C22_46  and  O4_47 
ROOT
HETATM    1  C1  UNL     1     -14.247 -22.840 -22.183  1.00  0.00     0.679 A 
HETATM    2  N2  UNL     1     -14.989 -22.724 -21.100  1.00  0.00    -0.156 N 
ATOM      3  H2  UNL     1     -14.964 -23.443 -20.377  1.00  0.00     0.187 HD
HETATM    4  C2  UNL     1     -15.792 -21.629 -20.958  1.00  0.00     0.274 A 
HETATM    5  O1  UNL     1     -16.469 -21.535 -19.916  1.00  0.00    -0.267 OA
HETATM    6  C3  UNL     1     -15.826 -20.682 -21.918  1.00  0.00     0.084 A 
HETATM    7  C4  UNL     1     -15.001 -20.830 -23.080  1.00  0.00     0.079 A 
HETATM    8  N3  UNL     1     -14.240 -21.925 -23.169  1.00  0.00    -0.190 N 
ATOM      9  H3  UNL     1     -13.650 -22.067 -23.988  1.00  0.00     0.184 HD
HETATM   10  C5  UNL     1     -14.833 -20.226 -24.253  1.00  0.00     0.020 A 
HETATM   11  C6  UNL     1     -13.826 -20.882 -24.877  1.00  0.00     0.025 A 
HETATM   12  C7  UNL     1     -13.520 -20.601 -26.194  1.00  0.00    -0.032 A 
HETATM   13  C11 UNL     1     -14.248 -19.628 -26.886  1.00  0.00     0.011 A 
HETATM   14  C12 UNL     1     -15.256 -18.972 -26.229  1.00  0.00     0.031 A 
HETATM   15  C13 UNL     1     -15.571 -19.240 -24.925  1.00  0.00     0.047 A 
HETATM   16  N6  UNL     1     -16.461 -18.390 -24.584  1.00  0.00    -0.330 N 
ATOM     17  H6  UNL     1     -16.787 -17.818 -25.363  1.00  0.00     0.168 HD
HETATM   18  C14 UNL     1     -17.084 -18.074 -23.373  1.00  0.00     0.193 C 
HETATM   19  N7  UNL     1     -17.711 -16.803 -23.445  1.00  0.00    -0.063 NA
HETATM   20  N8  UNL     1     -17.202 -18.629 -22.232  1.00  0.00    -0.333 N 
ATOM     21  H8  UNL     1     -17.760 -18.043 -21.612  1.00  0.00     0.168 HD
HETATM   22  C15 UNL     1     -16.788 -19.842 -21.538  1.00  0.00     0.039 C 
ENDROOT
BRANCH  22  23
HETATM   23  C16 UNL     1     -17.535 -20.201 -20.377  1.00  0.00     0.177 C 
BRANCH  23  24
HETATM   24  C17 UNL     1     -18.992 -19.724 -20.772  1.00  0.00     0.296 C 
HETATM   25  O2  UNL     1     -19.393 -18.593 -20.553  1.00  0.00    -0.257 OA
HETATM   26  N9  UNL     1     -19.815 -20.662 -21.397  1.00  0.00    -0.386 NA
BRANCH  26  27
HETATM   27  C18 UNL     1     -20.612 -21.573 -22.002  1.00  0.00     0.178 C 
BRANCH  27  28
HETATM   28  C19 UNL     1     -20.914 -21.379 -23.502  1.00  0.00     0.184 C 
BRANCH  28  29
HETATM   29  N10 UNL     1     -22.004 -20.423 -23.636  1.00  0.00    -0.352 N 
BRANCH  29  30
HETATM   30  C20 UNL     1     -23.165 -20.704 -22.858  1.00  0.00     0.351 C 
HETATM   31  O3  UNL     1     -23.811 -19.831 -22.229  1.00  0.00    -0.284 OA
ENDBRANCH  29  30
BRANCH  29  32
HETATM   32  C21 UNL     1     -21.998 -19.265 -24.472  1.00  0.00     0.151 C 
BRANCH  32  33
HETATM   33  C22 UNL     1     -20.720 -18.477 -24.440  1.00  0.00     0.183 C 
BRANCH  33  34
HETATM   34  O4  UNL     1     -20.400 -17.981 -23.181  1.00  0.00    -0.399 OA
ATOM     35  H4  UNL     1     -20.987 -17.299 -22.879  1.00  0.00     0.209 HD
ENDBRANCH  33  34
ENDBRANCH  32  33
ENDBRANCH  29  32
ENDBRANCH  28  29
ENDBRANCH  27  28
ENDBRANCH  26  27
ENDBRANCH  23  24
ENDBRANCH  22  23
BRANCH   1  36
HETATM   36  N1  UNL     1     -13.467 -23.877 -22.354  1.00  0.00    -0.234 N 
ATOM     37  H12 UNL     1     -13.934 -24.762 -22.552  1.00  0.00     0.174 HD
ATOM     38  H11 UNL     1     -12.453 -23.784 -22.288  1.00  0.00     0.174 HD
ENDBRANCH   1  36
BRANCH  12  39
HETATM   39  C8  UNL     1     -12.408 -21.315 -26.874  1.00  0.00     0.270 C 
BRANCH  39  40
HETATM   40  N4  UNL     1     -11.453 -21.859 -25.965  1.00  0.00    -0.070 N 
ATOM     41  H42 UNL     1     -11.760 -21.743 -25.000  1.00  0.00     0.277 HD
ATOM     42  H41 UNL     1     -11.441 -22.878 -26.013  1.00  0.00     0.277 HD
BRANCH  40  43
HETATM   43  C9  UNL     1     -10.148 -21.323 -26.154  1.00  0.00     0.260 C 
BRANCH  43  44
HETATM   44  C10 UNL     1      -9.253 -21.683 -24.993  1.00  0.00     0.257 C 
BRANCH  44  45
HETATM   45  N5  UNL     1      -9.751 -21.266 -23.719  1.00  0.00    -0.078 N 
ATOM     46  H53 UNL     1     -10.526 -20.614 -23.835  1.00  0.00     0.274 HD
ATOM     47  H52 UNL     1     -10.238 -22.035 -23.257  1.00  0.00     0.274 HD
ATOM     48  H51 UNL     1      -9.041 -20.872 -23.102  1.00  0.00     0.274 HD
ENDBRANCH  44  45
ENDBRANCH  43  44
ENDBRANCH  40  43
ENDBRANCH  39  40
ENDBRANCH  12  39
TORSDOF 15
ENDMDL
MODEL 5
REMARK VINA RESULT: -8.505706889      1.401      3.460
REMARK  15 active torsions:
REMARK  status: ('A' for Active; 'I' for Inactive)
REMARK    1  A    between atoms: N1_1  and  C1_4 
REMARK    2  A    between atoms: C7_15  and  C8_16 
REMARK    3  A    between atoms: C8_16  and  N4_17 
REMARK    4  A    between atoms: N4_17  and  C9_20 
REMARK    5  A    between atoms: C9_20  and  C10_21 
REMARK    6  A    between atoms: C10_21  and  N5_22 
REMARK    7  A    between atoms: C15_35  and  C16_36 
REMARK    8  A    between atoms: C16_36  and  C17_37 
REMARK       I    between atoms: C17_37  and  N9_39 
REMARK    9  A    between atoms: N9_39  and  C18_40 
REMARK   10  A    between atoms: C18_40  and  C19_41 
REMARK   11  A    between atoms: C19_41  and  N10_42 
REMARK   12  A    between atoms: N10_42  and  C20_43 
REMARK   13  A    between atoms: N10_42  and  C21_45 
REMARK   14  A    between atoms: C21_45  and  C22_46 
REMARK   15  A    between atoms: C22_46  and  O4_47 
ROOT
HETATM    1  C1  UNL     1     -14.480 -22.558 -22.116  1.00  0.00     0.679 A 
HETATM    2  N2  UNL     1     -15.293 -22.400 -21.090  1.00  0.00    -0.156 N 
ATOM      3  H2  UNL     1     -15.292 -23.072 -20.323  1.00  0.00     0.187 HD
HETATM    4  C2  UNL     1     -16.135 -21.325 -21.067  1.00  0.00     0.274 A 
HETATM    5  O1  UNL     1     -16.879 -21.191 -20.077  1.00  0.00    -0.267 OA
HETATM    6  C3  UNL     1     -16.135 -20.440 -22.085  1.00  0.00     0.084 A 
HETATM    7  C4  UNL     1     -15.234 -20.632 -23.183  1.00  0.00     0.079 A 
HETATM    8  N3  UNL     1     -14.436 -21.705 -23.155  1.00  0.00    -0.190 N 
ATOM      9  H3  UNL     1     -13.792 -21.877 -23.926  1.00  0.00     0.184 HD
HETATM   10  C5  UNL     1     -15.009 -20.096 -24.379  1.00  0.00     0.020 A 
HETATM   11  C6  UNL     1     -13.945 -20.755 -24.897  1.00  0.00     0.025 A 
HETATM   12  C7  UNL     1     -13.564 -20.545 -26.208  1.00  0.00    -0.032 A 
HETATM   13  C11 UNL     1     -14.275 -19.641 -27.004  1.00  0.00     0.011 A 
HETATM   14  C12 UNL     1     -15.342 -18.980 -26.452  1.00  0.00     0.031 A 
HETATM   15  C13 UNL     1     -15.732 -19.178 -25.156  1.00  0.00     0.047 A 
HETATM   16  N6  UNL     1     -16.665 -18.339 -24.925  1.00  0.00    -0.330 N 
ATOM     17  H6  UNL     1     -16.958 -17.827 -25.757  1.00  0.00     0.168 HD
HETATM   18  C14 UNL     1     -17.374 -17.970 -23.777  1.00  0.00     0.193 C 
HETATM   19  N7  UNL     1     -18.031 -16.727 -23.968  1.00  0.00    -0.063 NA
HETATM   20  N8  UNL     1     -17.547 -18.458 -22.613  1.00  0.00    -0.333 N 
ATOM     21  H8  UNL     1     -18.161 -17.853 -22.067  1.00  0.00     0.168 HD
HETATM   22  C15 UNL     1     -17.143 -19.611 -21.819  1.00  0.00     0.039 C 
ENDROOT
BRANCH  22  23
HETATM   23  C16 UNL     1     -17.952 -19.924 -20.686  1.00  0.00     0.177 C 
BRANCH  23  24
HETATM   24  C17 UNL     1     -19.402 -19.587 -21.224  1.00  0.00     0.296 C 
HETATM   25  O2  UNL     1     -20.091 -18.703 -20.742  1.00  0.00    -0.257 OA
HETATM   26  N9  UNL     1     -19.871 -20.350 -22.294  1.00  0.00    -0.386 NA
BRANCH  26  27
HETATM   27  C18 UNL     1     -20.325 -21.091 -23.332  1.00  0.00     0.178 C 
BRANCH  27  28
HETATM   28  C19 UNL     1     -21.450 -22.108 -23.051  1.00  0.00     0.184 C 
BRANCH  28  29
HETATM   29  N10 UNL     1     -22.730 -21.422 -23.155  1.00  0.00    -0.352 N 
BRANCH  29  30
HETATM   30  C20 UNL     1     -22.835 -20.474 -24.215  1.00  0.00     0.351 C 
HETATM   31  O3  UNL     1     -22.992 -19.243 -24.035  1.00  0.00    -0.284 OA
ENDBRANCH  29  30
BRANCH  29  32
HETATM   32  C21 UNL     1     -23.852 -21.616 -22.291  1.00  0.00     0.151 C 
BRANCH  32  33
HETATM   33  C22 UNL     1     -23.966 -20.612 -21.180  1.00  0.00     0.183 C 
BRANCH  33  34
HETATM   34  O4  UNL     1     -22.799 -19.890 -20.957  1.00  0.00    -0.399 OA
ATOM     35  H4  UNL     1     -22.952 -19.000 -20.661  1.00  0.00     0.209 HD
ENDBRANCH  33  34
ENDBRANCH  32  33
ENDBRANCH  29  32
ENDBRANCH  28  29
ENDBRANCH  27  28
ENDBRANCH  26  27
ENDBRANCH  23  24
ENDBRANCH  22  23
BRANCH   1  36
HETATM   36  N1  UNL     1     -13.660 -23.576 -22.173  1.00  0.00    -0.234 N 
ATOM     37  H12 UNL     1     -14.090 -24.489 -22.322  1.00  0.00     0.174 HD
ATOM     38  H11 UNL     1     -12.654 -23.444 -22.069  1.00  0.00     0.174 HD
ENDBRANCH   1  36
BRANCH  12  39
HETATM   39  C8  UNL     1     -12.391 -21.262 -26.771  1.00  0.00     0.270 C 
BRANCH  39  40
HETATM   40  N4  UNL     1     -11.477 -21.712 -25.773  1.00  0.00    -0.070 N 
ATOM     41  H42 UNL     1     -11.746 -21.370 -24.851  1.00  0.00     0.277 HD
ATOM     42  H41 UNL     1     -11.576 -22.714 -25.612  1.00  0.00     0.277 HD
BRANCH  40  43
HETATM   43  C9  UNL     1     -10.127 -21.373 -26.072  1.00  0.00     0.260 C 
BRANCH  43  44
HETATM   44  C10 UNL     1      -9.224 -21.721 -24.913  1.00  0.00     0.257 C 
BRANCH  44  45
HETATM   45  N5  UNL     1      -9.664 -21.209 -23.653  1.00  0.00    -0.078 N 
ATOM     46  H53 UNL     1     -10.383 -20.498 -23.787  1.00  0.00     0.274 HD
ATOM     47  H52 UNL     1     -10.208 -21.912 -23.152  1.00  0.00     0.274 HD
ATOM     48  H51 UNL     1      -8.914 -20.851 -23.062  1.00  0.00     0.274 HD
ENDBRANCH  44  45
ENDBRANCH  43  44
ENDBRANCH  40  43
ENDBRANCH  39  40
ENDBRANCH  12  39
TORSDOF 15
ENDMDL
