MODEL 1
REMARK VINA RESULT: -7.495328803      0.000      0.000
REMARK  7 active torsions:
REMARK  status: ('A' for Active; 'I' for Inactive)
REMARK    1  A    between atoms: C2_2  and  C3_3 
REMARK    2  A    between atoms: C3_3  and  C4_4 
REMARK    3  A    between atoms: C4_4  and  C5_5 
REMARK    4  A    between atoms: C5_5  and  C6_6 
REMARK    5  A    between atoms: C5_5  and  N1_9 
REMARK    6  A    between atoms: C6_6  and  C7_7 
REMARK    7  A    between atoms: N1_9  and  C8_11 
ROOT
HETATM    1  C8  UNL     1     -16.317   1.951  10.912  1.00  0.00     0.133 A 
HETATM    2  N2  UNL     1     -16.345   2.979  10.063  1.00  0.00    -0.326 N 
ATOM      3  H2  UNL     1     -17.238   3.338   9.725  1.00  0.00     0.169 HD
HETATM    4  C9  UNL     1     -15.181   3.550   9.648  1.00  0.00     0.124 A 
HETATM    5  N3  UNL     1     -15.221   4.598   8.784  1.00  0.00    -0.338 N 
ATOM      6  H3  UNL     1     -16.128   4.937   8.462  1.00  0.00     0.168 HD
HETATM    7  C10 UNL     1     -14.113   5.200   8.340  1.00  0.00     0.183 A 
HETATM    8  N4  UNL     1     -12.943   4.760   8.758  1.00  0.00    -0.338 N 
ATOM      9  H4  UNL     1     -12.096   5.218   8.422  1.00  0.00     0.168 HD
HETATM   10  C11 UNL     1     -12.826   3.697   9.638  1.00  0.00     0.116 A 
HETATM   11  N5  UNL     1     -11.674   3.385   9.950  1.00  0.00    -0.385 N 
ATOM     12  H51 UNL     1     -11.588   2.603  10.598  1.00  0.00     0.157 HD
ATOM     13  H52 UNL     1     -10.829   3.845   9.611  1.00  0.00     0.157 HD
HETATM   14  C12 UNL     1     -13.974   3.073  10.098  1.00  0.00     0.081 A 
HETATM   15  C13 UNL     1     -13.927   1.989  10.994  1.00  0.00     0.088 A 
HETATM   16  N6  UNL     1     -12.813   1.452  11.489  1.00  0.00    -0.309 N 
ATOM     17  H6  UNL     1     -11.850   1.732  11.305  1.00  0.00     0.176 HD
HETATM   18  S1  UNL     1     -13.345   0.218  12.481  1.00  0.00     0.068 SA
HETATM   19  N7  UNL     1     -14.996   0.409  12.246  1.00  0.00    -0.307 N 
ATOM     20  H7  UNL     1     -15.757  -0.133  12.657  1.00  0.00     0.176 HD
HETATM   21  C14 UNL     1     -15.084   1.441  11.390  1.00  0.00     0.112 A 
ENDROOT
BRANCH   1  22
HETATM   22  N1  UNL     1     -17.398   1.396  11.318  1.00  0.00    -0.370 N 
ATOM     23  H1  UNL     1     -17.706   0.567  10.809  1.00  0.00     0.161 HD
BRANCH  22  24
HETATM   24  C5  UNL     1     -18.233   1.824  12.432  1.00  0.00     0.083 C 
BRANCH  24  25
HETATM   25  C4  UNL     1     -18.906   3.103  12.125  1.00  0.00     0.025 C 
BRANCH  25  26
HETATM   26  C3  UNL     1     -18.538   4.350  12.818  1.00  0.00     0.002 C 
BRANCH  26  27
HETATM   27  C2  UNL     1     -17.902   5.305  11.775  1.00  0.00    -0.004 C 
HETATM   28  C1  UNL     1     -18.113   6.734  12.168  1.00  0.00     0.005 C 
ENDBRANCH  26  27
ENDBRANCH  25  26
ENDBRANCH  24  25
BRANCH  24  29
HETATM   29  C6  UNL     1     -18.972   0.674  12.980  1.00  0.00     0.036 C 
BRANCH  29  30
HETATM   30  C7  UNL     1     -18.366  -0.244  13.953  1.00  0.00     0.087 C 
HETATM   31 BR1  UNL     1     -17.083   0.773  15.062  1.00  0.00    -0.096 Br
ENDBRANCH  29  30
ENDBRANCH  24  29
ENDBRANCH  22  24
ENDBRANCH   1  22
TORSDOF 7
ENDMDL
MODEL 2
REMARK VINA RESULT: -7.442395695      2.438      3.555
REMARK  7 active torsions:
REMARK  status: ('A' for Active; 'I' for Inactive)
REMARK    1  A    between atoms: C2_2  and  C3_3 
REMARK    2  A    between atoms: C3_3  and  C4_4 
REMARK    3  A    between atoms: C4_4  and  C5_5 
REMARK    4  A    between atoms: C5_5  and  C6_6 
REMARK    5  A    between atoms: C5_5  and  N1_9 
REMARK    6  A    between atoms: C6_6  and  C7_7 
REMARK    7  A    between atoms: N1_9  and  C8_11 
ROOT
HETATM    1  C8  UNL     1     -15.870   4.624   9.541  1.00  0.00     0.133 A 
HETATM    2  N2  UNL     1     -16.322   5.878   9.572  1.00  0.00    -0.326 N 
ATOM      3  H2  UNL     1     -17.309   6.061   9.749  1.00  0.00     0.169 HD
HETATM    4  C9  UNL     1     -15.464   6.915   9.366  1.00  0.00     0.124 A 
HETATM    5  N3  UNL     1     -15.935   8.189   9.401  1.00  0.00    -0.338 N 
ATOM      6  H3  UNL     1     -16.927   8.343   9.582  1.00  0.00     0.168 HD
HETATM    7  C10 UNL     1     -15.143   9.248   9.206  1.00  0.00     0.183 A 
HETATM    8  N4  UNL     1     -13.862   9.046   8.974  1.00  0.00    -0.338 N 
ATOM      9  H4  UNL     1     -13.255   9.852   8.825  1.00  0.00     0.168 HD
HETATM   10  C11 UNL     1     -13.312   7.776   8.924  1.00  0.00     0.116 A 
HETATM   11  N5  UNL     1     -12.101   7.725   8.698  1.00  0.00    -0.385 N 
ATOM     12  H51 UNL     1     -11.696   6.790   8.662  1.00  0.00     0.157 HD
ATOM     13  H52 UNL     1     -11.497   8.534   8.550  1.00  0.00     0.157 HD
HETATM   14  C12 UNL     1     -14.133   6.678   9.126  1.00  0.00     0.081 A 
HETATM   15  C13 UNL     1     -13.640   5.360   9.090  1.00  0.00     0.088 A 
HETATM   16  N6  UNL     1     -12.371   5.023   8.866  1.00  0.00    -0.309 N 
ATOM     17  H6  UNL     1     -11.582   5.645   8.691  1.00  0.00     0.176 HD
HETATM   18  S1  UNL     1     -12.360   3.354   8.935  1.00  0.00     0.068 SA
HETATM   19  N7  UNL     1     -13.990   3.111   9.252  1.00  0.00    -0.307 N 
ATOM     20  H7  UNL     1     -14.480   2.226   9.383  1.00  0.00     0.176 HD
HETATM   21  C14 UNL     1     -14.500   4.353   9.294  1.00  0.00     0.112 A 
ENDROOT
BRANCH   1  22
HETATM   22  N1  UNL     1     -16.656   3.629   9.731  1.00  0.00    -0.370 N 
ATOM     23  H1  UNL     1     -17.064   3.203   8.899  1.00  0.00     0.161 HD
BRANCH  22  24
HETATM   24  C5  UNL     1     -17.027   3.044  11.013  1.00  0.00     0.083 C 
BRANCH  24  25
HETATM   25  C4  UNL     1     -18.326   3.573  11.477  1.00  0.00     0.025 C 
BRANCH  25  26
HETATM   26  C3  UNL     1     -18.406   4.579  12.550  1.00  0.00     0.002 C 
BRANCH  26  27
HETATM   27  C2  UNL     1     -19.467   4.101  13.574  1.00  0.00    -0.004 C 
HETATM   28  C1  UNL     1     -18.986   2.887  14.307  1.00  0.00     0.005 C 
ENDBRANCH  26  27
ENDBRANCH  25  26
ENDBRANCH  24  25
BRANCH  24  29
HETATM   29  C6  UNL     1     -16.736   1.600  11.010  1.00  0.00     0.036 C 
BRANCH  29  30
HETATM   30  C7  UNL     1     -16.867   0.782  12.222  1.00  0.00     0.087 C 
HETATM   31 BR1  UNL     1     -18.546  -0.256  12.102  1.00  0.00    -0.096 Br
ENDBRANCH  29  30
ENDBRANCH  24  29
ENDBRANCH  22  24
ENDBRANCH   1  22
TORSDOF 7
ENDMDL
MODEL 3
REMARK VINA RESULT: -7.385162998      1.457      2.784
REMARK  7 active torsions:
REMARK  status: ('A' for Active; 'I' for Inactive)
REMARK    1  A    between atoms: C2_2  and  C3_3 
REMARK    2  A    between atoms: C3_3  and  C4_4 
REMARK    3  A    between atoms: C4_4  and  C5_5 
REMARK    4  A    between atoms: C5_5  and  C6_6 
REMARK    5  A    between atoms: C5_5  and  N1_9 
REMARK    6  A    between atoms: C6_6  and  C7_7 
REMARK    7  A    between atoms: N1_9  and  C8_11 
ROOT
HETATM    1  C8  UNL     1     -16.318   1.650  10.955  1.00  0.00     0.133 A 
HETATM    2  N2  UNL     1     -16.477   2.660  10.099  1.00  0.00    -0.326 N 
ATOM      3  H2  UNL     1     -17.411   2.915   9.778  1.00  0.00     0.169 HD
HETATM    4  C9  UNL     1     -15.392   3.352   9.654  1.00  0.00     0.124 A 
HETATM    5  N3  UNL     1     -15.566   4.380   8.782  1.00  0.00    -0.338 N 
ATOM      6  H3  UNL     1     -16.512   4.614   8.479  1.00  0.00     0.168 HD
HETATM    7  C10 UNL     1     -14.541   5.095   8.309  1.00  0.00     0.183 A 
HETATM    8  N4  UNL     1     -13.322   4.792   8.704  1.00  0.00    -0.338 N 
ATOM      9  H4  UNL     1     -12.537   5.337   8.346  1.00  0.00     0.168 HD
HETATM   10  C11 UNL     1     -13.069   3.758   9.590  1.00  0.00     0.116 A 
HETATM   11  N5  UNL     1     -11.883   3.578   9.878  1.00  0.00    -0.385 N 
ATOM     12  H51 UNL     1     -11.697   2.816  10.531  1.00  0.00     0.157 HD
ATOM     13  H52 UNL     1     -11.101   4.124   9.517  1.00  0.00     0.157 HD
HETATM   14  C12 UNL     1     -14.131   3.016  10.081  1.00  0.00     0.081 A 
HETATM   15  C13 UNL     1     -13.945   1.953  10.984  1.00  0.00     0.088 A 
HETATM   16  N6  UNL     1     -12.768   1.547  11.458  1.00  0.00    -0.309 N 
ATOM     17  H6  UNL     1     -11.846   1.929  11.250  1.00  0.00     0.176 HD
HETATM   18  S1  UNL     1     -13.140   0.271  12.470  1.00  0.00     0.068 SA
HETATM   19  N7  UNL     1     -14.806   0.276  12.271  1.00  0.00    -0.307 N 
ATOM     20  H7  UNL     1     -15.493  -0.342  12.704  1.00  0.00     0.176 HD
HETATM   21  C14 UNL     1     -15.026   1.283  11.410  1.00  0.00     0.112 A 
ENDROOT
BRANCH   1  22
HETATM   22  N1  UNL     1     -17.322   0.983  11.390  1.00  0.00    -0.370 N 
ATOM     23  H1  UNL     1     -17.312  -0.022  11.217  1.00  0.00     0.161 HD
BRANCH  22  24
HETATM   24  C5  UNL     1     -18.475   1.510  12.106  1.00  0.00     0.083 C 
BRANCH  24  25
HETATM   25  C4  UNL     1     -19.214   0.427  12.786  1.00  0.00     0.025 C 
BRANCH  25  26
HETATM   26  C3  UNL     1     -19.047   0.171  14.228  1.00  0.00     0.002 C 
BRANCH  26  27
HETATM   27  C2  UNL     1     -17.700  -0.571  14.427  1.00  0.00    -0.004 C 
HETATM   28  C1  UNL     1     -16.687   0.333  15.060  1.00  0.00     0.005 C 
ENDBRANCH  26  27
ENDBRANCH  25  26
ENDBRANCH  24  25
BRANCH  24  29
HETATM   29  C6  UNL     1     -18.108   2.753  12.806  1.00  0.00     0.036 C 
BRANCH  29  30
HETATM   30  C7  UNL     1     -18.971   3.941  12.778  1.00  0.00     0.087 C 
HETATM   31 BR1  UNL     1     -17.953   5.441  11.989  1.00  0.00    -0.096 Br
ENDBRANCH  29  30
ENDBRANCH  24  29
ENDBRANCH  22  24
ENDBRANCH   1  22
TORSDOF 7
ENDMDL
MODEL 4
REMARK VINA RESULT: -7.366632742      2.919      5.004
REMARK  7 active torsions:
REMARK  status: ('A' for Active; 'I' for Inactive)
REMARK    1  A    between atoms: C2_2  and  C3_3 
REMARK    2  A    between atoms: C3_3  and  C4_4 
REMARK    3  A    between atoms: C4_4  and  C5_5 
REMARK    4  A    between atoms: C5_5  and  C6_6 
REMARK    5  A    between atoms: C5_5  and  N1_9 
REMARK    6  A    between atoms: C6_6  and  C7_7 
REMARK    7  A    between atoms: N1_9  and  C8_11 
ROOT
HETATM    1  C8  UNL     1     -16.463   4.065  10.364  1.00  0.00     0.133 A 
HETATM    2  N2  UNL     1     -17.298   4.641  11.230  1.00  0.00    -0.326 N 
ATOM      3  H2  UNL     1     -17.878   4.065  11.839  1.00  0.00     0.169 HD
HETATM    4  C9  UNL     1     -17.374   5.998  11.300  1.00  0.00     0.124 A 
HETATM    5  N3  UNL     1     -18.228   6.575  12.187  1.00  0.00    -0.338 N 
ATOM      6  H3  UNL     1     -18.796   5.975  12.785  1.00  0.00     0.168 HD
HETATM    7  C10 UNL     1     -18.349   7.901  12.302  1.00  0.00     0.183 A 
HETATM    8  N4  UNL     1     -17.613   8.673  11.529  1.00  0.00    -0.338 N 
ATOM      9  H4  UNL     1     -17.702   9.685  11.615  1.00  0.00     0.168 HD
HETATM   10  C11 UNL     1     -16.722   8.156  10.603  1.00  0.00     0.116 A 
HETATM   11  N5  UNL     1     -16.094   8.987   9.942  1.00  0.00    -0.385 N 
ATOM     12  H51 UNL     1     -15.439   8.606   9.260  1.00  0.00     0.157 HD
ATOM     13  H52 UNL     1     -16.187   9.999  10.031  1.00  0.00     0.157 HD
HETATM   14  C12 UNL     1     -16.597   6.781  10.483  1.00  0.00     0.081 A 
HETATM   15  C13 UNL     1     -15.711   6.190   9.564  1.00  0.00     0.088 A 
HETATM   16  N6  UNL     1     -14.915   6.857   8.729  1.00  0.00    -0.309 N 
ATOM     17  H6  UNL     1     -14.824   7.867   8.627  1.00  0.00     0.176 HD
HETATM   18  S1  UNL     1     -14.099   5.667   7.886  1.00  0.00     0.068 SA
HETATM   19  N7  UNL     1     -14.792   4.326   8.620  1.00  0.00    -0.307 N 
ATOM     20  H7  UNL     1     -14.605   3.341   8.433  1.00  0.00     0.176 HD
HETATM   21  C14 UNL     1     -15.650   4.852   9.510  1.00  0.00     0.112 A 
ENDROOT
BRANCH   1  22
HETATM   22  N1  UNL     1     -16.371   2.790  10.277  1.00  0.00    -0.370 N 
ATOM     23  H1  UNL     1     -16.482   2.385   9.348  1.00  0.00     0.161 HD
BRANCH  22  24
HETATM   24  C5  UNL     1     -16.123   1.857  11.369  1.00  0.00     0.083 C 
BRANCH  24  25
HETATM   25  C4  UNL     1     -17.294   0.985  11.593  1.00  0.00     0.025 C 
BRANCH  25  26
HETATM   26  C3  UNL     1     -18.279   1.279  12.648  1.00  0.00     0.002 C 
BRANCH  26  27
HETATM   27  C2  UNL     1     -18.173   0.167  13.723  1.00  0.00    -0.004 C 
HETATM   28  C1  UNL     1     -17.012   0.421  14.634  1.00  0.00     0.005 C 
ENDBRANCH  26  27
ENDBRANCH  25  26
ENDBRANCH  24  25
BRANCH  24  29
HETATM   29  C6  UNL     1     -14.760   1.310  11.264  1.00  0.00     0.036 C 
BRANCH  29  30
HETATM   30  C7  UNL     1     -14.262   0.287  12.193  1.00  0.00     0.087 C 
HETATM   31 BR1  UNL     1     -12.316   0.546  12.430  1.00  0.00    -0.096 Br
ENDBRANCH  29  30
ENDBRANCH  24  29
ENDBRANCH  22  24
ENDBRANCH   1  22
TORSDOF 7
ENDMDL
MODEL 5
REMARK VINA RESULT: -7.324864004      3.268      6.783
REMARK  7 active torsions:
REMARK  status: ('A' for Active; 'I' for Inactive)
REMARK    1  A    between atoms: C2_2  and  C3_3 
REMARK    2  A    between atoms: C3_3  and  C4_4 
REMARK    3  A    between atoms: C4_4  and  C5_5 
REMARK    4  A    between atoms: C5_5  and  C6_6 
REMARK    5  A    between atoms: C5_5  and  N1_9 
REMARK    6  A    between atoms: C6_6  and  C7_7 
REMARK    7  A    between atoms: N1_9  and  C8_11 
ROOT
HETATM    1  C8  UNL     1     -16.187   4.304   9.734  1.00  0.00     0.133 A 
HETATM    2  N2  UNL     1     -16.419   3.035  10.067  1.00  0.00    -0.326 N 
ATOM      3  H2  UNL     1     -15.978   2.280   9.541  1.00  0.00     0.169 HD
HETATM    4  C9  UNL     1     -17.245   2.746  11.109  1.00  0.00     0.124 A 
HETATM    5  N3  UNL     1     -17.475   1.447  11.441  1.00  0.00    -0.338 N 
ATOM      6  H3  UNL     1     -17.020   0.713  10.898  1.00  0.00     0.168 HD
HETATM    7  C10 UNL     1     -18.275   1.100  12.452  1.00  0.00     0.183 A 
HETATM    8  N4  UNL     1     -18.860   2.052  13.152  1.00  0.00    -0.338 N 
ATOM      9  H4  UNL     1     -19.471   1.790  13.926  1.00  0.00     0.168 HD
HETATM   10  C11 UNL     1     -18.673   3.395  12.872  1.00  0.00     0.116 A 
HETATM   11  N5  UNL     1     -19.279   4.183  13.602  1.00  0.00    -0.385 N 
ATOM     12  H51 UNL     1     -19.141   5.172  13.395  1.00  0.00     0.157 HD
ATOM     13  H52 UNL     1     -19.889   3.918  14.374  1.00  0.00     0.157 HD
HETATM   14  C12 UNL     1     -17.843   3.755  11.823  1.00  0.00     0.081 A 
HETATM   15  C13 UNL     1     -17.608   5.100  11.484  1.00  0.00     0.088 A 
HETATM   16  N6  UNL     1     -18.137   6.151  12.110  1.00  0.00    -0.309 N 
ATOM     17  H6  UNL     1     -18.774   6.148  12.906  1.00  0.00     0.176 HD
HETATM   18  S1  UNL     1     -17.525   7.476  11.298  1.00  0.00     0.068 SA
HETATM   19  N7  UNL     1     -16.594   6.661  10.163  1.00  0.00    -0.307 N 
ATOM     20  H7  UNL     1     -16.013   7.058   9.425  1.00  0.00     0.176 HD
HETATM   21  C14 UNL     1     -16.792   5.365  10.454  1.00  0.00     0.112 A 
ENDROOT
BRANCH   1  22
HETATM   22  N1  UNL     1     -15.413   4.605   8.756  1.00  0.00    -0.370 N 
ATOM     23  H1  UNL     1     -15.792   4.480   7.818  1.00  0.00     0.161 HD
BRANCH  22  24
HETATM   24  C5  UNL     1     -14.049   5.106   8.847  1.00  0.00     0.083 C 
BRANCH  24  25
HETATM   25  C4  UNL     1     -13.187   4.159   9.584  1.00  0.00     0.025 C 
BRANCH  25  26
HETATM   26  C3  UNL     1     -12.318   3.202   8.877  1.00  0.00     0.002 C 
BRANCH  26  27
HETATM   27  C2  UNL     1     -12.887   1.779   9.110  1.00  0.00    -0.004 C 
HETATM   28  C1  UNL     1     -13.217   1.571  10.556  1.00  0.00     0.005 C 
ENDBRANCH  26  27
ENDBRANCH  25  26
ENDBRANCH  24  25
BRANCH  24  29
HETATM   29  C6  UNL     1     -13.637   5.683   7.556  1.00  0.00     0.036 C 
BRANCH  29  30
HETATM   30  C7  UNL     1     -13.642   7.132   7.318  1.00  0.00     0.087 C 
HETATM   31 BR1  UNL     1     -13.263   8.052   9.027  1.00  0.00    -0.096 Br
ENDBRANCH  29  30
ENDBRANCH  24  29
ENDBRANCH  22  24
ENDBRANCH   1  22
TORSDOF 7
ENDMDL
