MODEL 1
REMARK VINA RESULT: -7.442422901      0.000      0.000
REMARK  9 active torsions:
REMARK  status: ('A' for Active; 'I' for Inactive)
REMARK    1  A    between atoms: O1_2  and  C2_3 
REMARK    2  A    between atoms: C4_5  and  C5_6 
REMARK    3  A    between atoms: N1_7  and  N2_9 
REMARK    4  A    between atoms: N2_9  and  C6_11 
REMARK    5  A    between atoms: C9_18  and  C10_19 
REMARK    6  A    between atoms: C10_19  and  O3_21 
REMARK    7  A    between atoms: O3_21  and  C11_22 
REMARK    8  A    between atoms: C14_26  and  O4_27 
REMARK    9  A    between atoms: C16_29  and  O5_30 
ROOT
HETATM    1  N2  UNL     1     -13.303   4.088   8.646  1.00  0.00    -0.284 N 
ATOM      2  H2  UNL     1     -12.534   3.563   8.229  1.00  0.00     0.188 HD
ENDROOT
BRANCH   1   3
HETATM    3  N1  UNL     1     -13.798   3.425   9.662  1.00  0.00    -0.309 N 
HETATM    4  C5  UNL     1     -14.396   2.265   9.632  1.00  0.00     0.118 C 
ATOM      5  H1  UNL     1     -13.704   3.863  10.579  1.00  0.00     0.186 HD
BRANCH   4   6
HETATM    6  C4  UNL     1     -14.891   1.662  10.835  1.00  0.00    -0.014 A 
HETATM    7  C3  UNL     1     -16.202   1.607  11.235  1.00  0.00     0.052 A 
HETATM    8  C2  UNL     1     -16.640   1.021  12.393  1.00  0.00     0.104 A 
HETATM    9  C16 UNL     1     -15.674   0.440  13.221  1.00  0.00     0.133 A 
HETATM   10  C14 UNL     1     -14.329   0.459  12.876  1.00  0.00     0.104 A 
HETATM   11  C13 UNL     1     -13.966   1.065  11.699  1.00  0.00     0.052 A 
BRANCH   8  12
HETATM   12  O1  UNL     1     -17.937   0.949  12.817  1.00  0.00    -0.353 OA
HETATM   13  C1  UNL     1     -18.953   0.122  12.352  1.00  0.00     0.210 C 
ENDBRANCH   8  12
BRANCH   9  14
HETATM   14  O5  UNL     1     -16.061  -0.171  14.410  1.00  0.00    -0.356 OA
ATOM     15  H5  UNL     1     -15.421  -0.308  15.100  1.00  0.00     0.218 HD
ENDBRANCH   9  14
BRANCH  10  16
HETATM   16  O4  UNL     1     -13.375  -0.111  13.686  1.00  0.00    -0.353 OA
HETATM   17  C15 UNL     1     -12.017   0.191  13.587  1.00  0.00     0.210 C 
ENDBRANCH  10  16
ENDBRANCH   4   6
ENDBRANCH   1   3
BRANCH   1  18
HETATM   18  C6  UNL     1     -13.473   5.149   8.032  1.00  0.00     0.153 A 
HETATM   19  N3  UNL     1     -13.142   5.286   6.683  1.00  0.00    -0.283 N 
HETATM   20  N4  UNL     1     -13.433   6.510   6.339  1.00  0.00    -0.302 N 
ATOM     21  H3  UNL     1     -12.747   4.565   6.079  1.00  0.00     0.188 HD
HETATM   22  C7  UNL     1     -13.937   7.201   7.367  1.00  0.00     0.042 A 
ATOM     23  H4  UNL     1     -13.294   6.892   5.404  1.00  0.00     0.186 HD
HETATM   24  C8  UNL     1     -14.360   8.623   7.273  1.00  0.00     0.071 C 
HETATM   25  C9  UNL     1     -13.973   6.343   8.472  1.00  0.00     0.109 A 
BRANCH  25  26
HETATM   26  C10 UNL     1     -14.479   6.782   9.746  1.00  0.00     0.300 C 
HETATM   27  O2  UNL     1     -13.643   7.203  10.635  1.00  0.00    -0.259 OA
BRANCH  26  28
HETATM   28  O3  UNL     1     -15.780   6.823  10.177  1.00  0.00    -0.297 OA
BRANCH  28  29
HETATM   29  C11 UNL     1     -16.455   5.696  10.715  1.00  0.00     0.223 C 
HETATM   30  C12 UNL     1     -17.133   4.841   9.704  1.00  0.00     0.057 C 
HETATM   31 CL1  UNL     1     -17.686   6.322  11.848  1.00  0.00    -0.095 Cl
ENDBRANCH  28  29
ENDBRANCH  26  28
ENDBRANCH  25  26
ENDBRANCH   1  18
TORSDOF 9
ENDMDL
MODEL 2
REMARK VINA RESULT: -7.442289584      3.182      7.715
REMARK  9 active torsions:
REMARK  status: ('A' for Active; 'I' for Inactive)
REMARK    1  A    between atoms: O1_2  and  C2_3 
REMARK    2  A    between atoms: C4_5  and  C5_6 
REMARK    3  A    between atoms: N1_7  and  N2_9 
REMARK    4  A    between atoms: N2_9  and  C6_11 
REMARK    5  A    between atoms: C9_18  and  C10_19 
REMARK    6  A    between atoms: C10_19  and  O3_21 
REMARK    7  A    between atoms: O3_21  and  C11_22 
REMARK    8  A    between atoms: C14_26  and  O4_27 
REMARK    9  A    between atoms: C16_29  and  O5_30 
ROOT
HETATM    1  N2  UNL     1     -18.116   4.418  11.753  1.00  0.00    -0.284 N 
ATOM      2  H2  UNL     1     -18.941   4.846  11.335  1.00  0.00     0.188 HD
ENDROOT
BRANCH   1   3
HETATM    3  N1  UNL     1     -17.031   4.934  11.230  1.00  0.00    -0.309 N 
HETATM    4  C5  UNL     1     -16.689   4.942   9.969  1.00  0.00     0.118 C 
ATOM      5  H1  UNL     1     -16.382   5.380  11.879  1.00  0.00     0.186 HD
BRANCH   4   6
HETATM    6  C4  UNL     1     -15.461   5.547   9.545  1.00  0.00    -0.014 A 
HETATM    7  C3  UNL     1     -14.728   5.204   8.438  1.00  0.00     0.052 A 
HETATM    8  C2  UNL     1     -13.556   5.805   8.061  1.00  0.00     0.104 A 
HETATM    9  C16 UNL     1     -13.080   6.841   8.871  1.00  0.00     0.133 A 
HETATM   10  C14 UNL     1     -13.772   7.239  10.007  1.00  0.00     0.104 A 
HETATM   11  C13 UNL     1     -14.940   6.589  10.320  1.00  0.00     0.052 A 
BRANCH   8  12
HETATM   12  O1  UNL     1     -12.806   5.488   6.965  1.00  0.00    -0.353 OA
HETATM   13  C1  UNL     1     -12.996   5.881   5.644  1.00  0.00     0.210 C 
ENDBRANCH   8  12
BRANCH   9  14
HETATM   14  O5  UNL     1     -11.894   7.489   8.538  1.00  0.00    -0.356 OA
ATOM     15  H5  UNL     1     -11.897   8.425   8.375  1.00  0.00     0.218 HD
ENDBRANCH   9  14
BRANCH  10  16
HETATM   16  O4  UNL     1     -13.309   8.257  10.807  1.00  0.00    -0.353 OA
HETATM   17  C15 UNL     1     -13.780   9.567  10.716  1.00  0.00     0.210 C 
ENDBRANCH  10  16
ENDBRANCH   4   6
ENDBRANCH   1   3
BRANCH   1  18
HETATM   18  C6  UNL     1     -18.456   3.576  12.594  1.00  0.00     0.153 A 
HETATM   19  N3  UNL     1     -19.109   3.929  13.775  1.00  0.00    -0.283 N 
HETATM   20  N4  UNL     1     -19.321   2.828  14.441  1.00  0.00    -0.302 N 
ATOM     21  H3  UNL     1     -19.372   4.872  14.064  1.00  0.00     0.188 HD
HETATM   22  C7  UNL     1     -18.854   1.761  13.784  1.00  0.00     0.042 A 
ATOM     23  H4  UNL     1     -19.785   2.785  15.348  1.00  0.00     0.186 HD
HETATM   24  C8  UNL     1     -18.953   0.370  14.299  1.00  0.00     0.071 C 
HETATM   25  C9  UNL     1     -18.290   2.219  12.588  1.00  0.00     0.109 A 
BRANCH  25  26
HETATM   26  C10 UNL     1     -17.705   1.309  11.639  1.00  0.00     0.300 C 
HETATM   27  O2  UNL     1     -18.202   0.122  11.529  1.00  0.00    -0.259 OA
BRANCH  26  28
HETATM   28  O3  UNL     1     -16.647   1.524  10.793  1.00  0.00    -0.297 OA
BRANCH  28  29
HETATM   29  C11 UNL     1     -15.322   1.750  11.248  1.00  0.00     0.223 C 
HETATM   30  C12 UNL     1     -14.301   1.814  10.169  1.00  0.00     0.057 C 
HETATM   31 CL1  UNL     1     -14.912   0.398  12.341  1.00  0.00    -0.095 Cl
ENDBRANCH  28  29
ENDBRANCH  26  28
ENDBRANCH  25  26
ENDBRANCH   1  18
TORSDOF 9
ENDMDL
MODEL 3
REMARK VINA RESULT: -7.416958234      0.479      2.539
REMARK  9 active torsions:
REMARK  status: ('A' for Active; 'I' for Inactive)
REMARK    1  A    between atoms: O1_2  and  C2_3 
REMARK    2  A    between atoms: C4_5  and  C5_6 
REMARK    3  A    between atoms: N1_7  and  N2_9 
REMARK    4  A    between atoms: N2_9  and  C6_11 
REMARK    5  A    between atoms: C9_18  and  C10_19 
REMARK    6  A    between atoms: C10_19  and  O3_21 
REMARK    7  A    between atoms: O3_21  and  C11_22 
REMARK    8  A    between atoms: C14_26  and  O4_27 
REMARK    9  A    between atoms: C16_29  and  O5_30 
ROOT
HETATM    1  N2  UNL     1     -13.254   4.156   8.418  1.00  0.00    -0.284 N 
ATOM      2  H2  UNL     1     -12.560   3.636   7.882  1.00  0.00     0.188 HD
ENDROOT
BRANCH   1   3
HETATM    3  N1  UNL     1     -13.624   3.458   9.464  1.00  0.00    -0.309 N 
HETATM    4  C5  UNL     1     -14.332   2.360   9.470  1.00  0.00     0.118 C 
ATOM      5  H1  UNL     1     -13.327   3.811  10.374  1.00  0.00     0.186 HD
BRANCH   4   6
HETATM    6  C4  UNL     1     -14.663   1.707  10.702  1.00  0.00    -0.014 A 
HETATM    7  C3  UNL     1     -13.781   1.102  11.562  1.00  0.00     0.052 A 
HETATM    8  C2  UNL     1     -14.133   0.487  12.734  1.00  0.00     0.104 A 
HETATM    9  C16 UNL     1     -15.491   0.479  13.070  1.00  0.00     0.133 A 
HETATM   10  C14 UNL     1     -16.437   1.072  12.245  1.00  0.00     0.104 A 
HETATM   11  C13 UNL     1     -16.008   1.671  11.086  1.00  0.00     0.052 A 
BRANCH   8  12
HETATM   12  O1  UNL     1     -13.280  -0.121  13.610  1.00  0.00    -0.353 OA
HETATM   13  C1  UNL     1     -11.928   0.130  13.815  1.00  0.00     0.210 C 
ENDBRANCH   8  12
BRANCH   9  14
HETATM   14  O5  UNL     1     -15.908  -0.132  14.249  1.00  0.00    -0.356 OA
ATOM     15  H5  UNL     1     -16.613   0.253  14.757  1.00  0.00     0.218 HD
ENDBRANCH   9  14
BRANCH  10  16
HETATM   16  O4  UNL     1     -17.773   1.068  12.570  1.00  0.00    -0.353 OA
HETATM   17  C15 UNL     1     -18.509   2.236  12.768  1.00  0.00     0.210 C 
ENDBRANCH  10  16
ENDBRANCH   4   6
ENDBRANCH   1   3
BRANCH   1  18
HETATM   18  C6  UNL     1     -13.480   5.245   7.876  1.00  0.00     0.153 A 
HETATM   19  N3  UNL     1     -13.222   5.468   6.523  1.00  0.00    -0.283 N 
HETATM   20  N4  UNL     1     -13.558   6.701   6.266  1.00  0.00    -0.302 N 
ATOM     21  H3  UNL     1     -12.841   4.792   5.859  1.00  0.00     0.188 HD
HETATM   22  C7  UNL     1     -14.025   7.319   7.356  1.00  0.00     0.042 A 
ATOM     23  H4  UNL     1     -13.476   7.139   5.349  1.00  0.00     0.186 HD
HETATM   24  C8  UNL     1     -14.485   8.733   7.366  1.00  0.00     0.071 C 
HETATM   25  C9  UNL     1     -13.984   6.399   8.409  1.00  0.00     0.109 A 
BRANCH  25  26
HETATM   26  C10 UNL     1     -14.435   6.751   9.730  1.00  0.00     0.300 C 
HETATM   27  O2  UNL     1     -13.562   7.120  10.606  1.00  0.00    -0.259 OA
BRANCH  26  28
HETATM   28  O3  UNL     1     -15.716   6.755  10.220  1.00  0.00    -0.297 OA
BRANCH  28  29
HETATM   29  C11 UNL     1     -16.378   5.583  10.671  1.00  0.00     0.223 C 
HETATM   30  C12 UNL     1     -17.108   4.840   9.609  1.00  0.00     0.057 C 
HETATM   31 CL1  UNL     1     -17.550   6.097  11.916  1.00  0.00    -0.095 Cl
ENDBRANCH  28  29
ENDBRANCH  26  28
ENDBRANCH  25  26
ENDBRANCH   1  18
TORSDOF 9
ENDMDL
MODEL 4
REMARK VINA RESULT: -7.227775926      3.254      7.678
REMARK  9 active torsions:
REMARK  status: ('A' for Active; 'I' for Inactive)
REMARK    1  A    between atoms: O1_2  and  C2_3 
REMARK    2  A    between atoms: C4_5  and  C5_6 
REMARK    3  A    between atoms: N1_7  and  N2_9 
REMARK    4  A    between atoms: N2_9  and  C6_11 
REMARK    5  A    between atoms: C9_18  and  C10_19 
REMARK    6  A    between atoms: C10_19  and  O3_21 
REMARK    7  A    between atoms: O3_21  and  C11_22 
REMARK    8  A    between atoms: C14_26  and  O4_27 
REMARK    9  A    between atoms: C16_29  and  O5_30 
ROOT
HETATM    1  N2  UNL     1     -18.511   4.101  11.876  1.00  0.00    -0.284 N 
ATOM      2  H2  UNL     1     -19.419   4.339  11.476  1.00  0.00     0.188 HD
ENDROOT
BRANCH   1   3
HETATM    3  N1  UNL     1     -17.571   4.811  11.302  1.00  0.00    -0.309 N 
HETATM    4  C5  UNL     1     -17.141   4.706  10.074  1.00  0.00     0.118 C 
ATOM      5  H1  UNL     1     -17.125   5.524  11.879  1.00  0.00     0.186 HD
BRANCH   4   6
HETATM    6  C4  UNL     1     -16.095   5.556   9.586  1.00  0.00    -0.014 A 
HETATM    7  C3  UNL     1     -16.074   6.927   9.638  1.00  0.00     0.052 A 
HETATM    8  C2  UNL     1     -15.056   7.710   9.163  1.00  0.00     0.104 A 
HETATM    9  C16 UNL     1     -13.963   7.056   8.584  1.00  0.00     0.133 A 
HETATM   10  C14 UNL     1     -13.919   5.671   8.499  1.00  0.00     0.104 A 
HETATM   11  C13 UNL     1     -14.978   4.953   8.998  1.00  0.00     0.052 A 
BRANCH   8  12
HETATM   12  O1  UNL     1     -15.005   9.074   9.201  1.00  0.00    -0.353 OA
HETATM   13  C1  UNL     1     -15.146   9.913  10.301  1.00  0.00     0.210 C 
ENDBRANCH   8  12
BRANCH   9  14
HETATM   14  O5  UNL     1     -12.898   7.800   8.083  1.00  0.00    -0.356 OA
ATOM     15  H5  UNL     1     -12.031   7.693   8.456  1.00  0.00     0.218 HD
ENDBRANCH   9  14
BRANCH  10  16
HETATM   16  O4  UNL     1     -12.848   5.022   7.932  1.00  0.00    -0.353 OA
HETATM   17  C15 UNL     1     -12.192   3.958   8.550  1.00  0.00     0.210 C 
ENDBRANCH  10  16
ENDBRANCH   4   6
ENDBRANCH   1   3
BRANCH   1  18
HETATM   18  C6  UNL     1     -18.648   3.235  12.749  1.00  0.00     0.153 A 
HETATM   19  N3  UNL     1     -19.155   3.530  14.015  1.00  0.00    -0.283 N 
HETATM   20  N4  UNL     1     -19.166   2.416  14.693  1.00  0.00    -0.302 N 
ATOM     21  H3  UNL     1     -19.459   4.445  14.347  1.00  0.00     0.188 HD
HETATM   22  C7  UNL     1     -18.701   1.395  13.966  1.00  0.00     0.042 A 
ATOM     23  H4  UNL     1     -19.489   2.334  15.657  1.00  0.00     0.186 HD
HETATM   24  C8  UNL     1     -18.596   0.003  14.477  1.00  0.00     0.071 C 
HETATM   25  C9  UNL     1     -18.359   1.899  12.706  1.00  0.00     0.109 A 
BRANCH  25  26
HETATM   26  C10 UNL     1     -17.835   1.043  11.674  1.00  0.00     0.300 C 
HETATM   27  O2  UNL     1     -18.460  -0.052  11.398  1.00  0.00    -0.259 OA
BRANCH  26  28
HETATM   28  O3  UNL     1     -16.716   1.226  10.903  1.00  0.00    -0.297 OA
BRANCH  28  29
HETATM   29  C11 UNL     1     -15.456   1.597  11.439  1.00  0.00     0.223 C 
HETATM   30  C12 UNL     1     -14.342   1.600  10.452  1.00  0.00     0.057 C 
HETATM   31 CL1  UNL     1     -15.073   0.421  12.726  1.00  0.00    -0.095 Cl
ENDBRANCH  28  29
ENDBRANCH  26  28
ENDBRANCH  25  26
ENDBRANCH   1  18
TORSDOF 9
ENDMDL
MODEL 5
REMARK VINA RESULT: -7.217968321      3.538      8.236
REMARK  9 active torsions:
REMARK  status: ('A' for Active; 'I' for Inactive)
REMARK    1  A    between atoms: O1_2  and  C2_3 
REMARK    2  A    between atoms: C4_5  and  C5_6 
REMARK    3  A    between atoms: N1_7  and  N2_9 
REMARK    4  A    between atoms: N2_9  and  C6_11 
REMARK    5  A    between atoms: C9_18  and  C10_19 
REMARK    6  A    between atoms: C10_19  and  O3_21 
REMARK    7  A    between atoms: O3_21  and  C11_22 
REMARK    8  A    between atoms: C14_26  and  O4_27 
REMARK    9  A    between atoms: C16_29  and  O5_30 
ROOT
HETATM    1  N2  UNL     1     -18.931   3.740  12.581  1.00  0.00    -0.284 N 
ATOM      2  H2  UNL     1     -19.907   3.807  12.294  1.00  0.00     0.188 HD
ENDROOT
BRANCH   1   3
HETATM    3  N1  UNL     1     -18.240   4.718  12.049  1.00  0.00    -0.309 N 
HETATM    4  C5  UNL     1     -17.650   4.724  10.884  1.00  0.00     0.118 C 
ATOM      5  H1  UNL     1     -18.154   5.568  12.605  1.00  0.00     0.186 HD
BRANCH   4   6
HETATM    6  C4  UNL     1     -16.923   5.875  10.435  1.00  0.00    -0.014 A 
HETATM    7  C3  UNL     1     -15.920   5.887   9.500  1.00  0.00     0.052 A 
HETATM    8  C2  UNL     1     -15.246   7.008   9.093  1.00  0.00     0.104 A 
HETATM    9  C16 UNL     1     -15.613   8.223   9.680  1.00  0.00     0.133 A 
HETATM   10  C14 UNL     1     -16.620   8.283  10.634  1.00  0.00     0.104 A 
HETATM   11  C13 UNL     1     -17.251   7.117  10.990  1.00  0.00     0.052 A 
BRANCH   8  12
HETATM   12  O1  UNL     1     -14.245   7.052   8.164  1.00  0.00    -0.353 OA
HETATM   13  C1  UNL     1     -13.704   6.004   7.427  1.00  0.00     0.210 C 
ENDBRANCH   8  12
BRANCH   9  14
HETATM   14  O5  UNL     1     -14.963   9.395   9.307  1.00  0.00    -0.356 OA
ATOM     15  H5  UNL     1     -14.043   9.513   9.518  1.00  0.00     0.218 HD
ENDBRANCH   9  14
BRANCH  10  16
HETATM   16  O4  UNL     1     -16.986   9.474  11.214  1.00  0.00    -0.353 OA
HETATM   17  C15 UNL     1     -18.209  10.095  10.965  1.00  0.00     0.210 C 
ENDBRANCH  10  16
ENDBRANCH   4   6
ENDBRANCH   1   3
BRANCH   1  18
HETATM   18  C6  UNL     1     -18.774   2.760  13.322  1.00  0.00     0.153 A 
HETATM   19  N3  UNL     1     -19.076   2.804  14.683  1.00  0.00    -0.283 N 
HETATM   20  N4  UNL     1     -18.797   1.629  15.177  1.00  0.00    -0.302 N 
ATOM     21  H3  UNL     1     -19.445   3.605  15.197  1.00  0.00     0.188 HD
HETATM   22  C7  UNL     1     -18.330   0.802  14.236  1.00  0.00     0.042 A 
ATOM     23  H4  UNL     1     -18.920   1.374  16.156  1.00  0.00     0.186 HD
HETATM   24  C8  UNL     1     -17.929  -0.604  14.504  1.00  0.00     0.071 C 
HETATM   25  C9  UNL     1     -18.306   1.510  13.029  1.00  0.00     0.109 A 
BRANCH  25  26
HETATM   26  C10 UNL     1     -17.861   0.892  11.807  1.00  0.00     0.300 C 
HETATM   27  O2  UNL     1     -18.477  -0.160  11.384  1.00  0.00    -0.259 OA
BRANCH  26  28
HETATM   28  O3  UNL     1     -16.831   1.273  10.986  1.00  0.00    -0.297 OA
BRANCH  28  29
HETATM   29  C11 UNL     1     -15.574   1.717  11.472  1.00  0.00     0.223 C 
HETATM   30  C12 UNL     1     -14.637   2.189  10.418  1.00  0.00     0.057 C 
HETATM   31 CL1  UNL     1     -14.829   0.334  12.320  1.00  0.00    -0.095 Cl
ENDBRANCH  28  29
ENDBRANCH  26  28
ENDBRANCH  25  26
ENDBRANCH   1  18
TORSDOF 9
ENDMDL
