MODEL 1
REMARK VINA RESULT: -7.241551965      0.000      0.000
REMARK  9 active torsions:
REMARK  status: ('A' for Active; 'I' for Inactive)
REMARK    1  A    between atoms: O1_2  and  C2_3 
REMARK    2  A    between atoms: C2_3  and  C3_5 
REMARK    3  A    between atoms: C8_12  and  N2_13 
REMARK    4  A    between atoms: N2_13  and  C9_15 
REMARK    5  A    between atoms: C9_15  and  C10_16 
REMARK    6  A    between atoms: C10_16  and  C11_18 
REMARK    7  A    between atoms: C11_18  and  N3_20 
REMARK       I    between atoms: N3_20  and  C13_22 
REMARK    8  A    between atoms: C13_22  and  O5_24 
REMARK    9  A    between atoms: O5_24  and  C14_25 
ROOT
HETATM    1  N2  UNL     1     -17.303   2.274  10.887  1.00  0.00    -0.382 N 
ATOM      2  H2  UNL     1     -17.860   1.796  10.179  1.00  0.00     0.160 HD
ENDROOT
BRANCH   1   3
HETATM    3  C8  UNL     1     -16.105   1.703  11.370  1.00  0.00     0.046 A 
HETATM    4  C3  UNL     1     -16.136   0.709  12.302  1.00  0.00     0.067 A 
HETATM    5  C4  UNL     1     -14.899   0.191  12.729  1.00  0.00     0.045 A 
HETATM    6  C5  UNL     1     -13.726   0.676  12.219  1.00  0.00     0.059 A 
HETATM    7 CL1  UNL     1     -12.192   0.019  12.762  1.00  0.00    -0.082 Cl
HETATM    8  C6  UNL     1     -13.684   1.677  11.281  1.00  0.00     0.070 A 
HETATM    9  N1  UNL     1     -12.430   2.166  10.766  1.00  0.00    -0.101 NA
HETATM   10  C7  UNL     1     -14.878   2.187  10.860  1.00  0.00     0.058 A 
BRANCH   4  11
HETATM   11  C2  UNL     1     -17.308   0.133  12.899  1.00  0.00     0.295 C 
HETATM   12  O2  UNL     1     -18.118  -0.594  12.214  1.00  0.00    -0.259 OA
BRANCH  11  13
HETATM   13  O1  UNL     1     -17.669   0.288  14.200  1.00  0.00    -0.322 OA
HETATM   14  C1  UNL     1     -18.120   1.512  14.748  1.00  0.00     0.213 C 
ENDBRANCH  11  13
ENDBRANCH   4  11
ENDBRANCH   1   3
BRANCH   1  15
HETATM   15  C9  UNL     1     -17.726   3.570  11.428  1.00  0.00     0.200 C 
BRANCH  15  16
HETATM   16  C10 UNL     1     -17.269   4.689  10.584  1.00  0.00     0.166 C 
HETATM   17  O3  UNL     1     -17.429   4.645   9.389  1.00  0.00    -0.294 OA
BRANCH  16  18
HETATM   18  C11 UNL     1     -16.616   5.858  11.202  1.00  0.00     0.154 C 
HETATM   19  C12 UNL     1     -17.615   6.887  11.697  1.00  0.00     0.040 C 
BRANCH  18  20
HETATM   20  N3  UNL     1     -15.719   6.488  10.233  1.00  0.00    -0.326 N 
HETATM   21  C13 UNL     1     -14.317   6.260  10.300  1.00  0.00     0.361 C 
HETATM   22  O4  UNL     1     -13.792   5.523  11.172  1.00  0.00    -0.238 OA
ATOM     23  H3  UNL     1     -16.101   7.094   9.507  1.00  0.00     0.165 HD
BRANCH  21  24
HETATM   24  O5  UNL     1     -13.466   6.846   9.398  1.00  0.00    -0.294 OA
BRANCH  24  25
HETATM   25  C14 UNL     1     -12.914   6.262   8.264  1.00  0.00     0.061 C 
HETATM   26  C15 UNL     1     -12.604   4.799   8.395  1.00  0.00     0.046 C 
HETATM   27  C16 UNL     1     -13.943   6.377   7.137  1.00  0.00     0.046 C 
HETATM   28  C17 UNL     1     -11.698   7.018   7.835  1.00  0.00     0.046 C 
ENDBRANCH  24  25
ENDBRANCH  21  24
ENDBRANCH  18  20
ENDBRANCH  16  18
ENDBRANCH  15  16
ENDBRANCH   1  15
TORSDOF 9
ENDMDL
MODEL 2
REMARK VINA RESULT: -7.212815381      1.055      1.111
REMARK  9 active torsions:
REMARK  status: ('A' for Active; 'I' for Inactive)
REMARK    1  A    between atoms: O1_2  and  C2_3 
REMARK    2  A    between atoms: C2_3  and  C3_5 
REMARK    3  A    between atoms: C8_12  and  N2_13 
REMARK    4  A    between atoms: N2_13  and  C9_15 
REMARK    5  A    between atoms: C9_15  and  C10_16 
REMARK    6  A    between atoms: C10_16  and  C11_18 
REMARK    7  A    between atoms: C11_18  and  N3_20 
REMARK       I    between atoms: N3_20  and  C13_22 
REMARK    8  A    between atoms: C13_22  and  O5_24 
REMARK    9  A    between atoms: O5_24  and  C14_25 
ROOT
HETATM    1  N2  UNL     1     -17.377   2.868  10.552  1.00  0.00    -0.382 N 
ATOM      2  H2  UNL     1     -18.338   2.526  10.529  1.00  0.00     0.160 HD
ENDROOT
BRANCH   1   3
HETATM    3  C8  UNL     1     -16.345   2.086  11.115  1.00  0.00     0.046 A 
HETATM    4  C3  UNL     1     -16.611   1.202  12.117  1.00  0.00     0.067 A 
HETATM    5  C4  UNL     1     -15.527   0.458  12.621  1.00  0.00     0.045 A 
HETATM    6  C5  UNL     1     -14.268   0.628  12.114  1.00  0.00     0.059 A 
HETATM    7 CL1  UNL     1     -12.929  -0.307  12.754  1.00  0.00    -0.082 Cl
HETATM    8  C6  UNL     1     -13.990   1.517  11.106  1.00  0.00     0.070 A 
HETATM    9  N1  UNL     1     -12.650   1.672  10.596  1.00  0.00    -0.101 NA
HETATM   10  C7  UNL     1     -15.033   2.243  10.610  1.00  0.00     0.058 A 
BRANCH   4  11
HETATM   11  C2  UNL     1     -17.890   0.951  12.717  1.00  0.00     0.295 C 
HETATM   12  O2  UNL     1     -18.274  -0.245  12.997  1.00  0.00    -0.259 OA
BRANCH  11  13
HETATM   13  O1  UNL     1     -18.795   1.911  13.042  1.00  0.00    -0.322 OA
HETATM   14  C1  UNL     1     -18.857   2.532  14.312  1.00  0.00     0.213 C 
ENDBRANCH  11  13
ENDBRANCH   4  11
ENDBRANCH   1   3
BRANCH   1  15
HETATM   15  C9  UNL     1     -17.035   4.184  10.001  1.00  0.00     0.200 C 
BRANCH  15  16
HETATM   16  C10 UNL     1     -17.280   5.264  10.975  1.00  0.00     0.166 C 
HETATM   17  O3  UNL     1     -18.109   5.118  11.838  1.00  0.00    -0.294 OA
BRANCH  16  18
HETATM   18  C11 UNL     1     -16.510   6.519  10.890  1.00  0.00     0.154 C 
HETATM   19  C12 UNL     1     -17.378   7.748  11.095  1.00  0.00     0.040 C 
BRANCH  18  20
HETATM   20  N3  UNL     1     -15.857   6.607   9.584  1.00  0.00    -0.326 N 
HETATM   21  C13 UNL     1     -14.486   6.975   9.492  1.00  0.00     0.361 C 
HETATM   22  O4  UNL     1     -13.786   7.236  10.502  1.00  0.00    -0.238 OA
ATOM     23  H3  UNL     1     -16.386   6.403   8.737  1.00  0.00     0.165 HD
BRANCH  21  24
HETATM   24  O5  UNL     1     -13.863   7.061   8.273  1.00  0.00    -0.294 OA
BRANCH  24  25
HETATM   25  C14 UNL     1     -12.876   6.218   7.774  1.00  0.00     0.061 C 
HETATM   26  C15 UNL     1     -12.797   4.875   8.440  1.00  0.00     0.046 C 
HETATM   27  C16 UNL     1     -13.203   5.943   6.304  1.00  0.00     0.046 C 
HETATM   28  C17 UNL     1     -11.547   6.901   7.814  1.00  0.00     0.046 C 
ENDBRANCH  24  25
ENDBRANCH  21  24
ENDBRANCH  18  20
ENDBRANCH  16  18
ENDBRANCH  15  16
ENDBRANCH   1  15
TORSDOF 9
ENDMDL
MODEL 3
REMARK VINA RESULT: -7.136958476      1.903      5.939
REMARK  9 active torsions:
REMARK  status: ('A' for Active; 'I' for Inactive)
REMARK    1  A    between atoms: O1_2  and  C2_3 
REMARK    2  A    between atoms: C2_3  and  C3_5 
REMARK    3  A    between atoms: C8_12  and  N2_13 
REMARK    4  A    between atoms: N2_13  and  C9_15 
REMARK    5  A    between atoms: C9_15  and  C10_16 
REMARK    6  A    between atoms: C10_16  and  C11_18 
REMARK    7  A    between atoms: C11_18  and  N3_20 
REMARK       I    between atoms: N3_20  and  C13_22 
REMARK    8  A    between atoms: C13_22  and  O5_24 
REMARK    9  A    between atoms: O5_24  and  C14_25 
ROOT
HETATM    1  N2  UNL     1     -15.673   3.236   9.157  1.00  0.00    -0.382 N 
ATOM      2  H2  UNL     1     -15.466   3.586   8.221  1.00  0.00     0.160 HD
ENDROOT
BRANCH   1   3
HETATM    3  C8  UNL     1     -14.661   2.654   9.951  1.00  0.00     0.046 A 
HETATM    4  C3  UNL     1     -13.387   3.134   9.913  1.00  0.00     0.067 A 
HETATM    5  C4  UNL     1     -12.437   2.500  10.738  1.00  0.00     0.045 A 
HETATM    6  C5  UNL     1     -12.798   1.450  11.537  1.00  0.00     0.059 A 
HETATM    7 CL1  UNL     1     -11.603   0.672  12.558  1.00  0.00    -0.082 Cl
HETATM    8  C6  UNL     1     -14.079   0.959  11.582  1.00  0.00     0.070 A 
HETATM    9  N1  UNL     1     -14.424  -0.151  12.434  1.00  0.00    -0.101 NA
HETATM   10  C7  UNL     1     -15.007   1.566  10.786  1.00  0.00     0.058 A 
BRANCH   4  11
HETATM   11  C2  UNL     1     -12.907   4.224   9.112  1.00  0.00     0.295 C 
HETATM   12  O2  UNL     1     -11.824   4.123   8.425  1.00  0.00    -0.259 OA
BRANCH  11  13
HETATM   13  O1  UNL     1     -13.524   5.430   8.998  1.00  0.00    -0.322 OA
HETATM   14  C1  UNL     1     -13.869   6.019   7.759  1.00  0.00     0.213 C 
ENDBRANCH  11  13
ENDBRANCH   4  11
ENDBRANCH   1   3
BRANCH   1  15
HETATM   15  C9  UNL     1     -17.029   3.327   9.709  1.00  0.00     0.200 C 
BRANCH  15  16
HETATM   16  C10 UNL     1     -17.334   4.689  10.184  1.00  0.00     0.166 C 
HETATM   17  O3  UNL     1     -16.963   5.645   9.549  1.00  0.00    -0.294 OA
BRANCH  16  18
HETATM   18  C11 UNL     1     -18.093   4.879  11.435  1.00  0.00     0.154 C 
HETATM   19  C12 UNL     1     -17.648   6.111  12.202  1.00  0.00     0.040 C 
BRANCH  18  20
HETATM   20  N3  UNL     1     -17.936   3.701  12.287  1.00  0.00    -0.326 N 
HETATM   21  C13 UNL     1     -18.843   3.464  13.357  1.00  0.00     0.361 C 
HETATM   22  O4  UNL     1     -19.799   4.236  13.616  1.00  0.00    -0.238 OA
ATOM     23  H3  UNL     1     -17.173   3.046  12.114  1.00  0.00     0.165 HD
BRANCH  21  24
HETATM   24  O5  UNL     1     -18.705   2.363  14.164  1.00  0.00    -0.294 OA
BRANCH  24  25
HETATM   25  C14 UNL     1     -18.394   1.068  13.768  1.00  0.00     0.061 C 
HETATM   26  C15 UNL     1     -18.210   0.887  12.289  1.00  0.00     0.046 C 
HETATM   27  C16 UNL     1     -17.054   0.697  14.409  1.00  0.00     0.046 C 
HETATM   28  C17 UNL     1     -19.417   0.110  14.288  1.00  0.00     0.046 C 
ENDBRANCH  24  25
ENDBRANCH  21  24
ENDBRANCH  18  20
ENDBRANCH  16  18
ENDBRANCH  15  16
ENDBRANCH   1  15
TORSDOF 9
ENDMDL
MODEL 4
REMARK VINA RESULT: -7.107012282      0.738      1.314
REMARK  9 active torsions:
REMARK  status: ('A' for Active; 'I' for Inactive)
REMARK    1  A    between atoms: O1_2  and  C2_3 
REMARK    2  A    between atoms: C2_3  and  C3_5 
REMARK    3  A    between atoms: C8_12  and  N2_13 
REMARK    4  A    between atoms: N2_13  and  C9_15 
REMARK    5  A    between atoms: C9_15  and  C10_16 
REMARK    6  A    between atoms: C10_16  and  C11_18 
REMARK    7  A    between atoms: C11_18  and  N3_20 
REMARK       I    between atoms: N3_20  and  C13_22 
REMARK    8  A    between atoms: C13_22  and  O5_24 
REMARK    9  A    between atoms: O5_24  and  C14_25 
ROOT
HETATM    1  N2  UNL     1     -17.288   2.168  10.951  1.00  0.00    -0.382 N 
ATOM      2  H2  UNL     1     -17.890   1.636  10.323  1.00  0.00     0.160 HD
ENDROOT
BRANCH   1   3
HETATM    3  C8  UNL     1     -16.005   1.690  11.298  1.00  0.00     0.046 A 
HETATM    4  C3  UNL     1     -15.850   0.791  12.310  1.00  0.00     0.067 A 
HETATM    5  C4  UNL     1     -14.539   0.362  12.592  1.00  0.00     0.045 A 
HETATM    6  C5  UNL     1     -13.478   0.838  11.870  1.00  0.00     0.059 A 
HETATM    7 CL1  UNL     1     -11.851   0.293  12.234  1.00  0.00    -0.082 Cl
HETATM    8  C6  UNL     1     -13.624   1.745  10.850  1.00  0.00     0.070 A 
HETATM    9  N1  UNL     1     -12.485   2.227  10.110  1.00  0.00    -0.101 NA
HETATM   10  C7  UNL     1     -14.891   2.167  10.568  1.00  0.00     0.058 A 
BRANCH   4  11
HETATM   11  C2  UNL     1     -16.891   0.233  13.125  1.00  0.00     0.295 C 
HETATM   12  O2  UNL     1     -16.809   0.237  14.409  1.00  0.00    -0.259 OA
BRANCH  11  13
HETATM   13  O1  UNL     1     -18.030  -0.333  12.646  1.00  0.00    -0.322 OA
HETATM   14  C1  UNL     1     -19.315  -0.085  13.184  1.00  0.00     0.213 C 
ENDBRANCH  11  13
ENDBRANCH   4  11
ENDBRANCH   1   3
BRANCH   1  15
HETATM   15  C9  UNL     1     -17.733   3.448  11.514  1.00  0.00     0.200 C 
BRANCH  15  16
HETATM   16  C10 UNL     1     -17.268   4.590  10.705  1.00  0.00     0.166 C 
HETATM   17  O3  UNL     1     -17.335   4.542   9.502  1.00  0.00    -0.294 OA
BRANCH  16  18
HETATM   18  C11 UNL     1     -16.720   5.787  11.370  1.00  0.00     0.154 C 
HETATM   19  C12 UNL     1     -17.806   6.732  11.851  1.00  0.00     0.040 C 
BRANCH  18  20
HETATM   20  N3  UNL     1     -15.838   6.500  10.447  1.00  0.00    -0.326 N 
HETATM   21  C13 UNL     1     -14.433   6.275  10.480  1.00  0.00     0.361 C 
HETATM   22  O4  UNL     1     -13.896   5.472  11.282  1.00  0.00    -0.238 OA
ATOM     23  H3  UNL     1     -16.231   7.162   9.778  1.00  0.00     0.165 HD
BRANCH  21  24
HETATM   24  O5  UNL     1     -13.596   6.939   9.620  1.00  0.00    -0.294 OA
BRANCH  24  25
HETATM   25  C14 UNL     1     -13.544   6.814   8.237  1.00  0.00     0.061 C 
HETATM   26  C15 UNL     1     -14.269   7.889   7.479  1.00  0.00     0.046 C 
HETATM   27  C16 UNL     1     -12.076   6.917   7.818  1.00  0.00     0.046 C 
HETATM   28  C17 UNL     1     -14.032   5.463   7.823  1.00  0.00     0.046 C 
ENDBRANCH  24  25
ENDBRANCH  21  24
ENDBRANCH  18  20
ENDBRANCH  16  18
ENDBRANCH  15  16
ENDBRANCH   1  15
TORSDOF 9
ENDMDL
MODEL 5
REMARK VINA RESULT: -7.060185308      2.721      4.318
REMARK  9 active torsions:
REMARK  status: ('A' for Active; 'I' for Inactive)
REMARK    1  A    between atoms: O1_2  and  C2_3 
REMARK    2  A    between atoms: C2_3  and  C3_5 
REMARK    3  A    between atoms: C8_12  and  N2_13 
REMARK    4  A    between atoms: N2_13  and  C9_15 
REMARK    5  A    between atoms: C9_15  and  C10_16 
REMARK    6  A    between atoms: C10_16  and  C11_18 
REMARK    7  A    between atoms: C11_18  and  N3_20 
REMARK       I    between atoms: N3_20  and  C13_22 
REMARK    8  A    between atoms: C13_22  and  O5_24 
REMARK    9  A    between atoms: O5_24  and  C14_25 
ROOT
HETATM    1  N2  UNL     1     -16.959   5.129  10.171  1.00  0.00    -0.382 N 
ATOM      2  H2  UNL     1     -17.113   5.043   9.167  1.00  0.00     0.160 HD
ENDROOT
BRANCH   1   3
HETATM    3  C8  UNL     1     -17.426   4.136  11.061  1.00  0.00     0.046 A 
HETATM    4  C3  UNL     1     -16.985   2.851  10.960  1.00  0.00     0.067 A 
HETATM    5  C4  UNL     1     -17.495   1.922  11.887  1.00  0.00     0.045 A 
HETATM    6  C5  UNL     1     -18.394   2.312  12.842  1.00  0.00     0.059 A 
HETATM    7 CL1  UNL     1     -19.020   1.143  13.990  1.00  0.00    -0.082 Cl
HETATM    8  C6  UNL     1     -18.844   3.604  12.952  1.00  0.00     0.070 A 
HETATM    9  N1  UNL     1     -19.793   3.981  13.970  1.00  0.00    -0.101 NA
HETATM   10  C7  UNL     1     -18.356   4.512  12.058  1.00  0.00     0.058 A 
BRANCH   4  11
HETATM   11  C2  UNL     1     -16.050   2.341   9.998  1.00  0.00     0.295 C 
HETATM   12  O2  UNL     1     -16.141   2.644   8.751  1.00  0.00    -0.259 OA
BRANCH  11  13
HETATM   13  O1  UNL     1     -15.008   1.519  10.291  1.00  0.00    -0.322 OA
HETATM   14  C1  UNL     1     -13.672   1.777   9.905  1.00  0.00     0.213 C 
ENDBRANCH  11  13
ENDBRANCH   4  11
ENDBRANCH   1   3
BRANCH   1  15
HETATM   15  C9  UNL     1     -16.249   6.286  10.726  1.00  0.00     0.200 C 
BRANCH  15  16
HETATM   16  C10 UNL     1     -14.787   6.135  10.610  1.00  0.00     0.166 C 
HETATM   17  O3  UNL     1     -14.237   5.189  11.117  1.00  0.00    -0.294 OA
BRANCH  16  18
HETATM   18  C11 UNL     1     -14.000   7.142   9.873  1.00  0.00     0.154 C 
HETATM   19  C12 UNL     1     -14.301   8.559  10.324  1.00  0.00     0.040 C 
BRANCH  18  20
HETATM   20  N3  UNL     1     -14.274   7.026   8.441  1.00  0.00    -0.326 N 
HETATM   21  C13 UNL     1     -13.452   6.207   7.617  1.00  0.00     0.361 C 
HETATM   22  O4  UNL     1     -12.475   5.560   8.068  1.00  0.00    -0.238 OA
ATOM     23  H3  UNL     1     -15.057   7.534   8.031  1.00  0.00     0.165 HD
BRANCH  21  24
HETATM   24  O5  UNL     1     -13.698   6.093   6.273  1.00  0.00    -0.294 OA
BRANCH  24  25
HETATM   25  C14 UNL     1     -13.193   6.896   5.257  1.00  0.00     0.061 C 
HETATM   26  C15 UNL     1     -12.156   7.888   5.693  1.00  0.00     0.046 C 
HETATM   27  C16 UNL     1     -12.503   5.979   4.244  1.00  0.00     0.046 C 
HETATM   28  C17 UNL     1     -14.310   7.586   4.543  1.00  0.00     0.046 C 
ENDBRANCH  24  25
ENDBRANCH  21  24
ENDBRANCH  18  20
ENDBRANCH  16  18
ENDBRANCH  15  16
ENDBRANCH   1  15
TORSDOF 9
ENDMDL
