MODEL 1
REMARK VINA RESULT: -6.760825232      0.000      0.000
REMARK  9 active torsions:
REMARK  status: ('A' for Active; 'I' for Inactive)
REMARK    1  A    between atoms: C2_2  and  O1_3 
REMARK    2  A    between atoms: O1_3  and  C3_4 
REMARK    3  A    between atoms: C3_4  and  C4_6 
REMARK    4  A    between atoms: C7_9  and  C8_10 
REMARK       I    between atoms: C8_10  and  N1_12 
REMARK    5  A    between atoms: N1_12  and  C9_14 
REMARK    6  A    between atoms: C9_14  and  C10_15 
REMARK    7  A    between atoms: C10_15  and  O4_18 
REMARK    8  A    between atoms: O4_18  and  C12_19 
REMARK    9  A    between atoms: N2_21  and  C14_22 
ROOT
HETATM    1  C4  UNL     1     -16.824   2.009  11.540  1.00  0.00     0.089 A 
HETATM    2  C5  UNL     1     -16.714   3.240  10.967  1.00  0.00    -0.010 A 
HETATM    3  C6  UNL     1     -17.792   4.259  10.833  1.00  0.00     0.052 C 
HETATM    4  C7  UNL     1     -15.377   3.377  10.573  1.00  0.00     0.112 A 
HETATM    5  N2  UNL     1     -14.694   2.236  10.913  1.00  0.00    -0.321 N 
HETATM    6  C18 UNL     1     -15.567   1.414  11.495  1.00  0.00     0.137 A 
HETATM    7  N3  UNL     1     -15.396   0.100  12.056  1.00  0.00    -0.081 NA
ENDROOT
BRANCH   4   8
HETATM    8  C8  UNL     1     -14.862   4.530   9.868  1.00  0.00     0.269 C 
HETATM    9  O3  UNL     1     -14.721   4.560   8.619  1.00  0.00    -0.266 OA
HETATM   10  N1  UNL     1     -14.496   5.700  10.576  1.00  0.00    -0.352 N 
ATOM     11  H1  UNL     1     -14.598   5.736  11.590  1.00  0.00     0.162 HD
BRANCH  10  12
HETATM   12  C9  UNL     1     -13.964   6.875   9.840  1.00  0.00     0.177 C 
BRANCH  12  13
HETATM   13  C10 UNL     1     -15.057   7.901   9.685  1.00  0.00     0.149 C 
HETATM   14  C11 UNL     1     -15.096   8.324   8.222  1.00  0.00     0.066 C 
HETATM   15 CL1  UNL     1     -14.526   9.378  10.596  1.00  0.00    -0.087 Cl
BRANCH  13  16
HETATM   16  O4  UNL     1     -16.236   7.546  10.183  1.00  0.00    -0.364 OA
BRANCH  16  17
HETATM   17  C12 UNL     1     -17.112   8.332  10.806  1.00  0.00     0.166 C 
HETATM   18  C13 UNL     1     -17.915   7.775  11.942  1.00  0.00     0.033 C 
ENDBRANCH  16  17
ENDBRANCH  13  16
ENDBRANCH  12  13
ENDBRANCH  10  12
ENDBRANCH   4   8
BRANCH   5  19
HETATM   19  C14 UNL     1     -13.297   1.932  10.684  1.00  0.00     0.028 C 
HETATM   20  C15 UNL     1     -12.419   3.178  10.855  1.00  0.00     0.038 C 
HETATM   21  C16 UNL     1     -12.729   0.928  11.662  1.00  0.00     0.038 C 
HETATM   22  C17 UNL     1     -13.097   1.427   9.294  1.00  0.00     0.038 C 
ENDBRANCH   5  19
BRANCH   1  23
HETATM   23  C3  UNL     1     -18.055   1.422  12.094  1.00  0.00     0.297 C 
HETATM   24  O2  UNL     1     -18.548   0.386  11.519  1.00  0.00    -0.259 OA
BRANCH  23  25
HETATM   25  O1  UNL     1     -18.733   1.886  13.180  1.00  0.00    -0.318 OA
BRANCH  25  26
HETATM   26  C2  UNL     1     -18.768   1.133  14.367  1.00  0.00     0.174 C 
HETATM   27  C1  UNL     1     -17.411   1.131  15.065  1.00  0.00     0.034 C 
ENDBRANCH  25  26
ENDBRANCH  23  25
ENDBRANCH   1  23
TORSDOF 9
ENDMDL
MODEL 2
REMARK VINA RESULT: -6.744317170      1.812      2.810
REMARK  9 active torsions:
REMARK  status: ('A' for Active; 'I' for Inactive)
REMARK    1  A    between atoms: C2_2  and  O1_3 
REMARK    2  A    between atoms: O1_3  and  C3_4 
REMARK    3  A    between atoms: C3_4  and  C4_6 
REMARK    4  A    between atoms: C7_9  and  C8_10 
REMARK       I    between atoms: C8_10  and  N1_12 
REMARK    5  A    between atoms: N1_12  and  C9_14 
REMARK    6  A    between atoms: C9_14  and  C10_15 
REMARK    7  A    between atoms: C10_15  and  O4_18 
REMARK    8  A    between atoms: O4_18  and  C12_19 
REMARK    9  A    between atoms: N2_21  and  C14_22 
ROOT
HETATM    1  C4  UNL     1     -16.344   1.051  12.636  1.00  0.00     0.089 A 
HETATM    2  C5  UNL     1     -16.870   2.083  11.918  1.00  0.00    -0.010 A 
HETATM    3  C6  UNL     1     -18.233   2.665  12.065  1.00  0.00     0.052 C 
HETATM    4  C7  UNL     1     -15.861   2.518  11.050  1.00  0.00     0.112 A 
HETATM    5  N2  UNL     1     -14.739   1.754  11.253  1.00  0.00    -0.321 N 
HETATM    6  C18 UNL     1     -15.032   0.871  12.209  1.00  0.00     0.137 A 
HETATM    7  N3  UNL     1     -14.232  -0.155  12.823  1.00  0.00    -0.081 NA
ENDROOT
BRANCH   4   8
HETATM    8  C8  UNL     1     -16.041   3.568  10.072  1.00  0.00     0.269 C 
HETATM    9  O3  UNL     1     -16.317   3.339   8.868  1.00  0.00    -0.266 OA
HETATM   10  N1  UNL     1     -15.916   4.927  10.447  1.00  0.00    -0.352 N 
ATOM     11  H1  UNL     1     -15.702   5.173  11.414  1.00  0.00     0.162 HD
BRANCH  10  12
HETATM   12  C9  UNL     1     -16.099   5.995   9.432  1.00  0.00     0.177 C 
BRANCH  12  13
HETATM   13  C10 UNL     1     -14.748   6.473   8.964  1.00  0.00     0.149 C 
HETATM   14  C11 UNL     1     -13.903   6.763  10.199  1.00  0.00     0.066 C 
HETATM   15 CL1  UNL     1     -15.004   8.083   8.170  1.00  0.00    -0.087 Cl
BRANCH  13  16
HETATM   16  O4  UNL     1     -14.156   5.693   8.068  1.00  0.00    -0.364 OA
BRANCH  16  17
HETATM   17  C12 UNL     1     -12.997   5.917   7.452  1.00  0.00     0.166 C 
HETATM   18  C13 UNL     1     -12.945   5.877   5.954  1.00  0.00     0.033 C 
ENDBRANCH  16  17
ENDBRANCH  13  16
ENDBRANCH  12  13
ENDBRANCH  10  12
ENDBRANCH   4   8
BRANCH   5  19
HETATM   19  C14 UNL     1     -13.466   1.839  10.570  1.00  0.00     0.028 C 
HETATM   20  C15 UNL     1     -13.022   3.297  10.398  1.00  0.00     0.038 C 
HETATM   21  C16 UNL     1     -12.331   1.180  11.321  1.00  0.00     0.038 C 
HETATM   22  C17 UNL     1     -13.567   1.235   9.208  1.00  0.00     0.038 C 
ENDBRANCH   5  19
BRANCH   1  23
HETATM   23  C3  UNL     1     -17.047   0.271  13.667  1.00  0.00     0.297 C 
HETATM   24  O2  UNL     1     -16.726   0.455  14.896  1.00  0.00    -0.259 OA
BRANCH  23  25
HETATM   25  O1  UNL     1     -18.026  -0.647  13.434  1.00  0.00    -0.318 OA
BRANCH  25  26
HETATM   26  C2  UNL     1     -19.380  -0.286  13.556  1.00  0.00     0.174 C 
HETATM   27  C1  UNL     1     -20.114  -0.423  12.225  1.00  0.00     0.034 C 
ENDBRANCH  25  26
ENDBRANCH  23  25
ENDBRANCH   1  23
TORSDOF 9
ENDMDL
MODEL 3
REMARK VINA RESULT: -6.638379072      1.719      2.591
REMARK  9 active torsions:
REMARK  status: ('A' for Active; 'I' for Inactive)
REMARK    1  A    between atoms: C2_2  and  O1_3 
REMARK    2  A    between atoms: O1_3  and  C3_4 
REMARK    3  A    between atoms: C3_4  and  C4_6 
REMARK    4  A    between atoms: C7_9  and  C8_10 
REMARK       I    between atoms: C8_10  and  N1_12 
REMARK    5  A    between atoms: N1_12  and  C9_14 
REMARK    6  A    between atoms: C9_14  and  C10_15 
REMARK    7  A    between atoms: C10_15  and  O4_18 
REMARK    8  A    between atoms: O4_18  and  C12_19 
REMARK    9  A    between atoms: N2_21  and  C14_22 
ROOT
HETATM    1  C4  UNL     1     -16.500   0.884  12.381  1.00  0.00     0.089 A 
HETATM    2  C5  UNL     1     -17.009   1.925  11.665  1.00  0.00    -0.010 A 
HETATM    3  C6  UNL     1     -18.412   2.423  11.693  1.00  0.00     0.052 C 
HETATM    4  C7  UNL     1     -15.942   2.464  10.935  1.00  0.00     0.112 A 
HETATM    5  N2  UNL     1     -14.804   1.751  11.218  1.00  0.00    -0.321 N 
HETATM    6  C18 UNL     1     -15.142   0.800  12.089  1.00  0.00     0.137 A 
HETATM    7  N3  UNL     1     -14.351  -0.215  12.733  1.00  0.00    -0.081 NA
ENDROOT
BRANCH   4   8
HETATM    8  C8  UNL     1     -16.081   3.557   9.999  1.00  0.00     0.269 C 
HETATM    9  O3  UNL     1     -16.269   3.384   8.769  1.00  0.00    -0.266 OA
HETATM   10  N1  UNL     1     -16.017   4.899  10.448  1.00  0.00    -0.352 N 
ATOM     11  H1  UNL     1     -15.875   5.100  11.437  1.00  0.00     0.162 HD
BRANCH  10  12
HETATM   12  C9  UNL     1     -16.157   6.012   9.475  1.00  0.00     0.177 C 
BRANCH  12  13
HETATM   13  C10 UNL     1     -14.787   6.489   9.065  1.00  0.00     0.149 C 
HETATM   14  C11 UNL     1     -13.976   6.725  10.334  1.00  0.00     0.066 C 
HETATM   15 CL1  UNL     1     -15.000   8.129   8.321  1.00  0.00    -0.087 Cl
BRANCH  13  16
HETATM   16  O4  UNL     1     -14.177   5.733   8.160  1.00  0.00    -0.364 OA
BRANCH  16  17
HETATM   17  C12 UNL     1     -13.032   5.999   7.535  1.00  0.00     0.166 C 
HETATM   18  C13 UNL     1     -12.958   5.841   6.046  1.00  0.00     0.033 C 
ENDBRANCH  16  17
ENDBRANCH  13  16
ENDBRANCH  12  13
ENDBRANCH  10  12
ENDBRANCH   4   8
BRANCH   5  19
HETATM   19  C14 UNL     1     -13.474   1.945  10.682  1.00  0.00     0.028 C 
HETATM   20  C15 UNL     1     -13.097   3.432  10.649  1.00  0.00     0.038 C 
HETATM   21  C16 UNL     1     -12.388   1.295  11.509  1.00  0.00     0.038 C 
HETATM   22  C17 UNL     1     -13.398   1.431   9.283  1.00  0.00     0.038 C 
ENDBRANCH   5  19
BRANCH   1  23
HETATM   23  C3  UNL     1     -17.260   0.007  13.288  1.00  0.00     0.297 C 
HETATM   24  O2  UNL     1     -18.017  -0.892  12.774  1.00  0.00    -0.259 OA
BRANCH  23  25
HETATM   25  O1  UNL     1     -17.233   0.065  14.649  1.00  0.00    -0.318 OA
BRANCH  25  26
HETATM   26  C2  UNL     1     -17.415   1.293  15.309  1.00  0.00     0.174 C 
HETATM   27  C1  UNL     1     -18.798   1.875  15.031  1.00  0.00     0.034 C 
ENDBRANCH  25  26
ENDBRANCH  23  25
ENDBRANCH   1  23
TORSDOF 9
ENDMDL
MODEL 4
REMARK VINA RESULT: -6.633262107      2.110      3.149
REMARK  9 active torsions:
REMARK  status: ('A' for Active; 'I' for Inactive)
REMARK    1  A    between atoms: C2_2  and  O1_3 
REMARK    2  A    between atoms: O1_3  and  C3_4 
REMARK    3  A    between atoms: C3_4  and  C4_6 
REMARK    4  A    between atoms: C7_9  and  C8_10 
REMARK       I    between atoms: C8_10  and  N1_12 
REMARK    5  A    between atoms: N1_12  and  C9_14 
REMARK    6  A    between atoms: C9_14  and  C10_15 
REMARK    7  A    between atoms: C10_15  and  O4_18 
REMARK    8  A    between atoms: O4_18  and  C12_19 
REMARK    9  A    between atoms: N2_21  and  C14_22 
ROOT
HETATM    1  C4  UNL     1     -16.874   1.871  11.519  1.00  0.00     0.089 A 
HETATM    2  C5  UNL     1     -16.821   3.147  11.047  1.00  0.00    -0.010 A 
HETATM    3  C6  UNL     1     -17.951   4.114  10.967  1.00  0.00     0.052 C 
HETATM    4  C7  UNL     1     -15.486   3.387  10.698  1.00  0.00     0.112 A 
HETATM    5  N2  UNL     1     -14.748   2.261  10.966  1.00  0.00    -0.321 N 
HETATM    6  C18 UNL     1     -15.586   1.349  11.460  1.00  0.00     0.137 A 
HETATM    7  N3  UNL     1     -15.354   0.006  11.921  1.00  0.00    -0.081 NA
ENDROOT
BRANCH   4   8
HETATM    8  C8  UNL     1     -15.021   4.617  10.098  1.00  0.00     0.269 C 
HETATM    9  O3  UNL     1     -14.800   5.661  10.763  1.00  0.00    -0.266 OA
HETATM   10  N1  UNL     1     -14.786   4.692   8.704  1.00  0.00    -0.352 N 
ATOM     11  H1  UNL     1     -14.940   3.873   8.116  1.00  0.00     0.162 HD
BRANCH  10  12
HETATM   12  C9  UNL     1     -14.314   5.964   8.100  1.00  0.00     0.177 C 
BRANCH  12  13
HETATM   13  C10 UNL     1     -13.074   5.698   7.286  1.00  0.00     0.149 C 
HETATM   14  C11 UNL     1     -12.316   4.555   7.952  1.00  0.00     0.066 C 
HETATM   15 CL1  UNL     1     -12.004   7.151   7.467  1.00  0.00    -0.087 Cl
BRANCH  13  16
HETATM   16  O4  UNL     1     -13.280   5.532   5.985  1.00  0.00    -0.364 OA
BRANCH  16  17
HETATM   17  C12 UNL     1     -13.069   6.425   5.021  1.00  0.00     0.166 C 
HETATM   18  C13 UNL     1     -12.187   6.058   3.865  1.00  0.00     0.033 C 
ENDBRANCH  16  17
ENDBRANCH  13  16
ENDBRANCH  12  13
ENDBRANCH  10  12
ENDBRANCH   4   8
BRANCH   5  19
HETATM   19  C14 UNL     1     -13.332   2.050  10.748  1.00  0.00     0.028 C 
HETATM   20  C15 UNL     1     -12.539   3.349  10.942  1.00  0.00     0.038 C 
HETATM   21  C16 UNL     1     -12.710   1.074  11.721  1.00  0.00     0.038 C 
HETATM   22  C17 UNL     1     -13.086   1.577   9.354  1.00  0.00     0.038 C 
ENDBRANCH   5  19
BRANCH   1  23
HETATM   23  C3  UNL     1     -18.082   1.176  11.995  1.00  0.00     0.297 C 
HETATM   24  O2  UNL     1     -18.454   0.111  11.383  1.00  0.00    -0.259 OA
BRANCH  23  25
HETATM   25  O1  UNL     1     -18.858   1.568  13.043  1.00  0.00    -0.318 OA
BRANCH  25  26
HETATM   26  C2  UNL     1     -18.835   0.847  14.250  1.00  0.00     0.174 C 
HETATM   27  C1  UNL     1     -17.620   1.216  15.096  1.00  0.00     0.034 C 
ENDBRANCH  25  26
ENDBRANCH  23  25
ENDBRANCH   1  23
TORSDOF 9
ENDMDL
MODEL 5
REMARK VINA RESULT: -6.611376946      1.494      1.821
REMARK  9 active torsions:
REMARK  status: ('A' for Active; 'I' for Inactive)
REMARK    1  A    between atoms: C2_2  and  O1_3 
REMARK    2  A    between atoms: O1_3  and  C3_4 
REMARK    3  A    between atoms: C3_4  and  C4_6 
REMARK    4  A    between atoms: C7_9  and  C8_10 
REMARK       I    between atoms: C8_10  and  N1_12 
REMARK    5  A    between atoms: N1_12  and  C9_14 
REMARK    6  A    between atoms: C9_14  and  C10_15 
REMARK    7  A    between atoms: C10_15  and  O4_18 
REMARK    8  A    between atoms: O4_18  and  C12_19 
REMARK    9  A    between atoms: N2_21  and  C14_22 
ROOT
HETATM    1  C4  UNL     1     -16.341   1.070  12.636  1.00  0.00     0.089 A 
HETATM    2  C5  UNL     1     -16.865   2.089  11.899  1.00  0.00    -0.010 A 
HETATM    3  C6  UNL     1     -18.229   2.672  12.030  1.00  0.00     0.052 C 
HETATM    4  C7  UNL     1     -15.852   2.511  11.028  1.00  0.00     0.112 A 
HETATM    5  N2  UNL     1     -14.730   1.751  11.249  1.00  0.00    -0.321 N 
HETATM    6  C18 UNL     1     -15.027   0.884  12.218  1.00  0.00     0.137 A 
HETATM    7  N3  UNL     1     -14.229  -0.131  12.853  1.00  0.00    -0.081 NA
ENDROOT
BRANCH   4   8
HETATM    8  C8  UNL     1     -16.029   3.544  10.032  1.00  0.00     0.269 C 
HETATM    9  O3  UNL     1     -16.238   3.294   8.818  1.00  0.00    -0.266 OA
HETATM   10  N1  UNL     1     -15.980   4.911  10.399  1.00  0.00    -0.352 N 
ATOM     11  H1  UNL     1     -15.822   5.173  11.372  1.00  0.00     0.162 HD
BRANCH  10  12
HETATM   12  C9  UNL     1     -16.158   5.962   9.365  1.00  0.00     0.177 C 
BRANCH  12  13
HETATM   13  C10 UNL     1     -15.397   7.196   9.775  1.00  0.00     0.149 C 
HETATM   14  C11 UNL     1     -15.013   7.950   8.507  1.00  0.00     0.066 C 
HETATM   15 CL1  UNL     1     -13.828   6.634  10.491  1.00  0.00    -0.087 Cl
BRANCH  13  16
HETATM   16  O4  UNL     1     -15.994   7.944  10.695  1.00  0.00    -0.364 OA
BRANCH  16  17
HETATM   17  C12 UNL     1     -17.298   8.191  10.805  1.00  0.00     0.166 C 
HETATM   18  C13 UNL     1     -18.028   7.734  12.032  1.00  0.00     0.033 C 
ENDBRANCH  16  17
ENDBRANCH  13  16
ENDBRANCH  12  13
ENDBRANCH  10  12
ENDBRANCH   4   8
BRANCH   5  19
HETATM   19  C14 UNL     1     -13.455   1.826  10.569  1.00  0.00     0.028 C 
HETATM   20  C15 UNL     1     -13.009   3.282  10.381  1.00  0.00     0.038 C 
HETATM   21  C16 UNL     1     -12.323   1.177  11.334  1.00  0.00     0.038 C 
HETATM   22  C17 UNL     1     -13.550   1.206   9.216  1.00  0.00     0.038 C 
ENDBRANCH   5  19
BRANCH   1  23
HETATM   23  C3  UNL     1     -17.048   0.306  13.677  1.00  0.00     0.297 C 
HETATM   24  O2  UNL     1     -16.732   0.511  14.904  1.00  0.00    -0.259 OA
BRANCH  23  25
HETATM   25  O1  UNL     1     -18.024  -0.617  13.454  1.00  0.00    -0.318 OA
BRANCH  25  26
HETATM   26  C2  UNL     1     -19.379  -0.255  13.561  1.00  0.00     0.174 C 
HETATM   27  C1  UNL     1     -20.118  -0.472  12.244  1.00  0.00     0.034 C 
ENDBRANCH  25  26
ENDBRANCH  23  25
ENDBRANCH   1  23
TORSDOF 9
ENDMDL
