MODEL 1
REMARK VINA RESULT: -7.269011412      0.000      0.000
REMARK  9 active torsions:
REMARK  status: ('A' for Active; 'I' for Inactive)
REMARK    1  A    between atoms: O1_2  and  C2_3 
REMARK    2  A    between atoms: C4_5  and  C5_6 
REMARK    3  A    between atoms: C5_6  and  C6_7 
REMARK    4  A    between atoms: C6_7  and  C7_8 
REMARK    5  A    between atoms: C10_12  and  O3_13 
REMARK    6  A    between atoms: C11_15  and  O4_16 
REMARK    7  A    between atoms: C14_21  and  O6_22 
REMARK    8  A    between atoms: O6_22  and  C15_23 
REMARK    9  A    between atoms: C18_28  and  O8_29 
ROOT
HETATM    1  C7  UNL     1     -14.285   2.249  10.081  1.00  0.00     0.041 C 
HETATM    2  C8  UNL     1     -14.663   1.438   8.833  1.00  0.00     0.026 C 
HETATM    3  C9  UNL     1     -14.504   3.674   9.730  1.00  0.00     0.084 A 
HETATM    4  O2  UNL     1     -15.395   4.630   9.608  1.00  0.00    -0.288 OA
HETATM    5  C10 UNL     1     -14.862   5.756   9.224  1.00  0.00     0.218 A 
HETATM    6  C11 UNL     1     -13.513   5.524   9.082  1.00  0.00     0.141 A 
HETATM    7  C12 UNL     1     -13.288   4.203   9.404  1.00  0.00     0.081 A 
HETATM    8  C13 UNL     1     -12.238   3.193   9.522  1.00  0.00     0.195 C 
HETATM    9  O5  UNL     1     -11.104   3.350   9.019  1.00  0.00    -0.289 OA
HETATM   10  C14 UNL     1     -12.812   2.095  10.289  1.00  0.00     0.220 C 
ENDROOT
BRANCH   1  11
HETATM   11  C6  UNL     1     -15.110   1.772  11.223  1.00  0.00     0.024 C 
BRANCH  11  12
HETATM   12  C5  UNL     1     -16.541   1.577  10.817  1.00  0.00     0.042 C 
BRANCH  12  13
HETATM   13  C4  UNL     1     -17.473   2.339  11.702  1.00  0.00    -0.034 A 
HETATM   14  C3  UNL     1     -17.622   3.714  11.564  1.00  0.00     0.048 A 
HETATM   15  C2  UNL     1     -18.472   4.442  12.358  1.00  0.00     0.101 A 
HETATM   16  C18 UNL     1     -19.192   3.746  13.323  1.00  0.00     0.100 A 
HETATM   17  C17 UNL     1     -19.044   2.384  13.459  1.00  0.00     0.063 A 
HETATM   18  C16 UNL     1     -18.183   1.653  12.652  1.00  0.00     0.043 A 
HETATM   19 CL1  UNL     1     -18.014  -0.092  12.860  1.00  0.00    -0.084 Cl
BRANCH  15  20
HETATM   20  O1  UNL     1     -18.665   5.800  12.273  1.00  0.00    -0.353 OA
HETATM   21  C1  UNL     1     -17.609   6.618  11.812  1.00  0.00     0.210 C 
ENDBRANCH  15  20
BRANCH  16  22
HETATM   22  O8  UNL     1     -20.081   4.435  14.168  1.00  0.00    -0.358 OA
ATOM     23  H8  UNL     1     -20.905   4.034  14.417  1.00  0.00     0.217 HD
ENDBRANCH  16  22
ENDBRANCH  12  13
ENDBRANCH  11  12
ENDBRANCH   1  11
BRANCH  10  24
HETATM   24  O6  UNL     1     -12.419   2.030  11.627  1.00  0.00    -0.314 OA
BRANCH  24  25
HETATM   25  C15 UNL     1     -11.898   0.916  12.251  1.00  0.00     0.398 C 
HETATM   26  O7  UNL     1     -12.622   0.340  13.091  1.00  0.00    -0.276 OA
ENDBRANCH  24  25
ENDBRANCH  10  24
BRANCH   5  27
HETATM   27  O3  UNL     1     -15.516   6.983   8.992  1.00  0.00    -0.339 OA
ATOM     28  H3  UNL     1     -16.243   7.354   9.480  1.00  0.00     0.220 HD
ENDBRANCH   5  27
BRANCH   6  29
HETATM   29  O4  UNL     1     -12.559   6.461   8.685  1.00  0.00    -0.355 OA
ATOM     30  H4  UNL     1     -11.632   6.430   8.886  1.00  0.00     0.218 HD
ENDBRANCH   6  29
TORSDOF 9
ENDMDL
MODEL 2
REMARK VINA RESULT: -7.247141106      2.410      4.137
REMARK  9 active torsions:
REMARK  status: ('A' for Active; 'I' for Inactive)
REMARK    1  A    between atoms: O1_2  and  C2_3 
REMARK    2  A    between atoms: C4_5  and  C5_6 
REMARK    3  A    between atoms: C5_6  and  C6_7 
REMARK    4  A    between atoms: C6_7  and  C7_8 
REMARK    5  A    between atoms: C10_12  and  O3_13 
REMARK    6  A    between atoms: C11_15  and  O4_16 
REMARK    7  A    between atoms: C14_21  and  O6_22 
REMARK    8  A    between atoms: O6_22  and  C15_23 
REMARK    9  A    between atoms: C18_28  and  O8_29 
ROOT
HETATM    1  C7  UNL     1     -14.378   4.708   9.582  1.00  0.00     0.041 C 
HETATM    2  C8  UNL     1     -13.097   3.925   9.900  1.00  0.00     0.026 C 
HETATM    3  C9  UNL     1     -14.099   5.468   8.338  1.00  0.00     0.084 A 
HETATM    4  O2  UNL     1     -14.032   5.409   7.029  1.00  0.00    -0.288 OA
HETATM    5  C10 UNL     1     -13.697   6.551   6.498  1.00  0.00     0.218 A 
HETATM    6  C11 UNL     1     -13.530   7.435   7.540  1.00  0.00     0.141 A 
HETATM    7  C12 UNL     1     -13.786   6.746   8.707  1.00  0.00     0.081 A 
HETATM    8  C13 UNL     1     -13.843   6.893  10.159  1.00  0.00     0.195 C 
HETATM    9  O5  UNL     1     -13.336   7.872  10.750  1.00  0.00    -0.289 OA
HETATM   10  C14 UNL     1     -14.563   5.728  10.659  1.00  0.00     0.220 C 
ENDROOT
BRANCH   1  11
HETATM   11  C6  UNL     1     -15.505   3.744   9.462  1.00  0.00     0.024 C 
BRANCH  11  12
HETATM   12  C5  UNL     1     -15.050   2.339   9.729  1.00  0.00     0.042 C 
BRANCH  12  13
HETATM   13  C4  UNL     1     -15.671   1.788  10.972  1.00  0.00    -0.034 A 
HETATM   14  C3  UNL     1     -16.988   2.084  11.301  1.00  0.00     0.048 A 
HETATM   15  C2  UNL     1     -17.589   1.591  12.432  1.00  0.00     0.101 A 
HETATM   16  C18 UNL     1     -16.822   0.769  13.251  1.00  0.00     0.100 A 
HETATM   17  C17 UNL     1     -15.518   0.475  12.924  1.00  0.00     0.063 A 
HETATM   18  C16 UNL     1     -14.916   0.978  11.778  1.00  0.00     0.043 A 
HETATM   19 CL1  UNL     1     -13.239   0.585  11.393  1.00  0.00    -0.084 Cl
BRANCH  15  20
HETATM   20  O1  UNL     1     -18.884   1.845  12.815  1.00  0.00    -0.353 OA
HETATM   21  C1  UNL     1     -19.218   3.129  13.302  1.00  0.00     0.210 C 
ENDBRANCH  15  20
BRANCH  16  22
HETATM   22  O8  UNL     1     -17.381   0.231  14.425  1.00  0.00    -0.358 OA
ATOM     23  H8  UNL     1     -17.816  -0.613  14.399  1.00  0.00     0.217 HD
ENDBRANCH  16  22
ENDBRANCH  12  13
ENDBRANCH  11  12
ENDBRANCH   1  11
BRANCH  10  24
HETATM   24  O6  UNL     1     -15.891   5.956  11.022  1.00  0.00    -0.314 OA
BRANCH  24  25
HETATM   25  C15 UNL     1     -16.650   7.037  10.627  1.00  0.00     0.398 C 
HETATM   26  O7  UNL     1     -17.525   7.442  11.423  1.00  0.00    -0.276 OA
ENDBRANCH  24  25
ENDBRANCH  10  24
BRANCH   5  27
HETATM   27  O3  UNL     1     -13.532   6.849   5.130  1.00  0.00    -0.339 OA
ATOM     28  H3  UNL     1     -12.727   7.077   4.679  1.00  0.00     0.220 HD
ENDBRANCH   5  27
BRANCH   6  29
HETATM   29  O4  UNL     1     -13.168   8.776   7.425  1.00  0.00    -0.355 OA
ATOM     30  H4  UNL     1     -12.289   9.105   7.280  1.00  0.00     0.218 HD
ENDBRANCH   6  29
TORSDOF 9
ENDMDL
MODEL 3
REMARK VINA RESULT: -7.199725246      2.847      6.371
REMARK  9 active torsions:
REMARK  status: ('A' for Active; 'I' for Inactive)
REMARK    1  A    between atoms: O1_2  and  C2_3 
REMARK    2  A    between atoms: C4_5  and  C5_6 
REMARK    3  A    between atoms: C5_6  and  C6_7 
REMARK    4  A    between atoms: C6_7  and  C7_8 
REMARK    5  A    between atoms: C10_12  and  O3_13 
REMARK    6  A    between atoms: C11_15  and  O4_16 
REMARK    7  A    between atoms: C14_21  and  O6_22 
REMARK    8  A    between atoms: O6_22  and  C15_23 
REMARK    9  A    between atoms: C18_28  and  O8_29 
ROOT
HETATM    1  C7  UNL     1     -16.472   3.730  10.596  1.00  0.00     0.041 C 
HETATM    2  C8  UNL     1     -16.635   3.634   9.073  1.00  0.00     0.026 C 
HETATM    3  C9  UNL     1     -15.259   2.945  10.932  1.00  0.00     0.084 A 
HETATM    4  O2  UNL     1     -13.947   2.953  10.979  1.00  0.00    -0.288 OA
HETATM    5  C10 UNL     1     -13.461   1.825  11.415  1.00  0.00     0.218 A 
HETATM    6  C11 UNL     1     -14.537   1.008  11.677  1.00  0.00     0.141 A 
HETATM    7  C12 UNL     1     -15.677   1.721  11.371  1.00  0.00     0.081 A 
HETATM    8  C13 UNL     1     -17.135   1.636  11.352  1.00  0.00     0.195 C 
HETATM    9  O5  UNL     1     -17.741   0.546  11.439  1.00  0.00    -0.289 OA
HETATM   10  C14 UNL     1     -17.622   3.004  11.219  1.00  0.00     0.220 C 
ENDROOT
BRANCH   1  11
HETATM   11  C6  UNL     1     -16.388   5.167  10.973  1.00  0.00     0.024 C 
BRANCH  11  12
HETATM   12  C5  UNL     1     -16.630   6.056   9.789  1.00  0.00     0.042 C 
BRANCH  12  13
HETATM   13  C4  UNL     1     -15.697   7.223   9.778  1.00  0.00    -0.034 A 
HETATM   14  C3  UNL     1     -14.399   7.092   9.299  1.00  0.00     0.048 A 
HETATM   15  C2  UNL     1     -13.519   8.145   9.272  1.00  0.00     0.101 A 
HETATM   16  C18 UNL     1     -13.979   9.369   9.746  1.00  0.00     0.100 A 
HETATM   17  C17 UNL     1     -15.265   9.498  10.220  1.00  0.00     0.063 A 
HETATM   18  C16 UNL     1     -16.150   8.428  10.245  1.00  0.00     0.043 A 
HETATM   19 CL1  UNL     1     -17.790   8.629  10.866  1.00  0.00    -0.084 Cl
BRANCH  15  20
HETATM   20  O1  UNL     1     -12.226   8.083   8.812  1.00  0.00    -0.353 OA
HETATM   21  C1  UNL     1     -11.922   7.233   7.725  1.00  0.00     0.210 C 
ENDBRANCH  15  20
BRANCH  16  22
HETATM   22  O8  UNL     1     -13.125  10.487   9.743  1.00  0.00    -0.358 OA
ATOM     23  H8  UNL     1     -13.028  11.007   8.954  1.00  0.00     0.217 HD
ENDBRANCH  16  22
ENDBRANCH  12  13
ENDBRANCH  11  12
ENDBRANCH   1  11
BRANCH  10  24
HETATM   24  O6  UNL     1     -18.106   3.584  12.393  1.00  0.00    -0.314 OA
BRANCH  24  25
HETATM   25  C15 UNL     1     -18.933   2.963  13.305  1.00  0.00     0.398 C 
HETATM   26  O7  UNL     1     -19.284   3.628  14.303  1.00  0.00    -0.276 OA
ENDBRANCH  24  25
ENDBRANCH  10  24
BRANCH   5  27
HETATM   27  O3  UNL     1     -12.104   1.483  11.592  1.00  0.00    -0.339 OA
ATOM     28  H3  UNL     1     -11.697   1.111  12.365  1.00  0.00     0.220 HD
ENDBRANCH   5  27
BRANCH   6  29
HETATM   29  O4  UNL     1     -14.474  -0.297  12.162  1.00  0.00    -0.355 OA
ATOM     30  H4  UNL     1     -13.843  -0.958  11.902  1.00  0.00     0.218 HD
ENDBRANCH   6  29
TORSDOF 9
ENDMDL
MODEL 4
REMARK VINA RESULT: -7.137283494      2.638      4.713
REMARK  9 active torsions:
REMARK  status: ('A' for Active; 'I' for Inactive)
REMARK    1  A    between atoms: O1_2  and  C2_3 
REMARK    2  A    between atoms: C4_5  and  C5_6 
REMARK    3  A    between atoms: C5_6  and  C6_7 
REMARK    4  A    between atoms: C6_7  and  C7_8 
REMARK    5  A    between atoms: C10_12  and  O3_13 
REMARK    6  A    between atoms: C11_15  and  O4_16 
REMARK    7  A    between atoms: C14_21  and  O6_22 
REMARK    8  A    between atoms: O6_22  and  C15_23 
REMARK    9  A    between atoms: C18_28  and  O8_29 
ROOT
HETATM    1  C7  UNL     1     -15.398   5.806   9.932  1.00  0.00     0.041 C 
HETATM    2  C8  UNL     1     -14.385   5.179  10.900  1.00  0.00     0.026 C 
HETATM    3  C9  UNL     1     -14.692   5.955   8.635  1.00  0.00     0.084 A 
HETATM    4  O2  UNL     1     -14.305   5.344   7.540  1.00  0.00    -0.288 OA
HETATM    5  C10 UNL     1     -13.665   6.139   6.729  1.00  0.00     0.218 A 
HETATM    6  C11 UNL     1     -13.628   7.373   7.338  1.00  0.00     0.141 A 
HETATM    7  C12 UNL     1     -14.280   7.255   8.546  1.00  0.00     0.081 A 
HETATM    8  C13 UNL     1     -14.680   8.006   9.734  1.00  0.00     0.195 C 
HETATM    9  O5  UNL     1     -14.189   9.121  10.014  1.00  0.00    -0.289 OA
HETATM   10  C14 UNL     1     -15.683   7.193  10.412  1.00  0.00     0.220 C 
ENDROOT
BRANCH   1  11
HETATM   11  C6  UNL     1     -16.598   4.929   9.870  1.00  0.00     0.024 C 
BRANCH  11  12
HETATM   12  C5  UNL     1     -16.224   3.517   9.527  1.00  0.00     0.042 C 
BRANCH  12  13
HETATM   13  C4  UNL     1     -16.440   2.594  10.682  1.00  0.00    -0.034 A 
HETATM   14  C3  UNL     1     -17.594   2.676  11.453  1.00  0.00     0.048 A 
HETATM   15  C2  UNL     1     -17.824   1.841  12.517  1.00  0.00     0.101 A 
HETATM   16  C18 UNL     1     -16.848   0.893  12.803  1.00  0.00     0.100 A 
HETATM   17  C17 UNL     1     -15.706   0.812  12.039  1.00  0.00     0.063 A 
HETATM   18  C16 UNL     1     -15.479   1.660  10.964  1.00  0.00     0.043 A 
HETATM   19 CL1  UNL     1     -13.999   1.531  10.009  1.00  0.00    -0.084 Cl
BRANCH  15  20
HETATM   20  O1  UNL     1     -18.941   1.870  13.317  1.00  0.00    -0.353 OA
HETATM   21  C1  UNL     1     -19.034   2.847  14.333  1.00  0.00     0.210 C 
ENDBRANCH  15  20
BRANCH  16  22
HETATM   22  O8  UNL     1     -17.026   0.007  13.881  1.00  0.00    -0.358 OA
ATOM     23  H8  UNL     1     -17.644  -0.710  13.808  1.00  0.00     0.217 HD
ENDBRANCH  16  22
ENDBRANCH  12  13
ENDBRANCH  11  12
ENDBRANCH   1  11
BRANCH  10  24
HETATM   24  O6  UNL     1     -17.005   7.607  10.240  1.00  0.00    -0.314 OA
BRANCH  24  25
HETATM   25  C15 UNL     1     -17.721   8.376  11.132  1.00  0.00     0.398 C 
HETATM   26  O7  UNL     1     -17.748   7.995  12.322  1.00  0.00    -0.276 OA
ENDBRANCH  24  25
ENDBRANCH  10  24
BRANCH   5  27
HETATM   27  O3  UNL     1     -13.112   5.822   5.472  1.00  0.00    -0.339 OA
ATOM     28  H3  UNL     1     -12.194   5.826   5.225  1.00  0.00     0.220 HD
ENDBRANCH   5  27
BRANCH   6  29
HETATM   29  O4  UNL     1     -13.036   8.523   6.818  1.00  0.00    -0.355 OA
ATOM     30  H4  UNL     1     -13.003   9.372   7.241  1.00  0.00     0.218 HD
ENDBRANCH   6  29
TORSDOF 9
ENDMDL
MODEL 5
REMARK VINA RESULT: -7.108876438      2.561      6.608
REMARK  9 active torsions:
REMARK  status: ('A' for Active; 'I' for Inactive)
REMARK    1  A    between atoms: O1_2  and  C2_3 
REMARK    2  A    between atoms: C4_5  and  C5_6 
REMARK    3  A    between atoms: C5_6  and  C6_7 
REMARK    4  A    between atoms: C6_7  and  C7_8 
REMARK    5  A    between atoms: C10_12  and  O3_13 
REMARK    6  A    between atoms: C11_15  and  O4_16 
REMARK    7  A    between atoms: C14_21  and  O6_22 
REMARK    8  A    between atoms: O6_22  and  C15_23 
REMARK    9  A    between atoms: C18_28  and  O8_29 
ROOT
HETATM    1  C7  UNL     1     -16.909   4.065  10.762  1.00  0.00     0.041 C 
HETATM    2  C8  UNL     1     -17.314   3.939   9.287  1.00  0.00     0.026 C 
HETATM    3  C9  UNL     1     -15.725   3.190  10.943  1.00  0.00     0.084 A 
HETATM    4  O2  UNL     1     -14.425   3.088  10.788  1.00  0.00    -0.288 OA
HETATM    5  C10 UNL     1     -13.968   1.936  11.192  1.00  0.00     0.218 A 
HETATM    6  C11 UNL     1     -15.053   1.222  11.650  1.00  0.00     0.141 A 
HETATM    7  C12 UNL     1     -16.166   2.019  11.491  1.00  0.00     0.081 A 
HETATM    8  C13 UNL     1     -17.612   2.058  11.697  1.00  0.00     0.195 C 
HETATM    9  O5  UNL     1     -18.281   1.026  11.921  1.00  0.00    -0.289 OA
HETATM   10  C14 UNL     1     -18.002   3.458  11.583  1.00  0.00     0.220 C 
ENDROOT
BRANCH   1  11
HETATM   11  C6  UNL     1     -16.654   5.500  11.062  1.00  0.00     0.024 C 
BRANCH  11  12
HETATM   12  C5  UNL     1     -16.603   6.318   9.805  1.00  0.00     0.042 C 
BRANCH  12  13
HETATM   13  C4  UNL     1     -15.196   6.630   9.408  1.00  0.00    -0.034 A 
HETATM   14  C3  UNL     1     -14.400   5.670   8.796  1.00  0.00     0.048 A 
HETATM   15  C2  UNL     1     -13.106   5.926   8.417  1.00  0.00     0.101 A 
HETATM   16  C18 UNL     1     -12.611   7.201   8.669  1.00  0.00     0.100 A 
HETATM   17  C17 UNL     1     -13.401   8.151   9.275  1.00  0.00     0.063 A 
HETATM   18  C16 UNL     1     -14.709   7.886   9.657  1.00  0.00     0.043 A 
HETATM   19 CL1  UNL     1     -15.691   9.127  10.438  1.00  0.00    -0.084 Cl
BRANCH  15  20
HETATM   20  O1  UNL     1     -12.267   5.024   7.809  1.00  0.00    -0.353 OA
HETATM   21  C1  UNL     1     -11.954   3.818   8.475  1.00  0.00     0.210 C 
ENDBRANCH  15  20
BRANCH  16  22
HETATM   22  O8  UNL     1     -11.292   7.526   8.302  1.00  0.00    -0.358 OA
ATOM     23  H8  UNL     1     -11.112   7.866   7.434  1.00  0.00     0.217 HD
ENDBRANCH  16  22
ENDBRANCH  12  13
ENDBRANCH  11  12
ENDBRANCH   1  11
BRANCH  10  24
HETATM   24  O6  UNL     1     -18.251   4.111  12.791  1.00  0.00    -0.314 OA
BRANCH  24  25
HETATM   25  C15 UNL     1     -19.380   3.949  13.566  1.00  0.00     0.398 C 
HETATM   26  O7  UNL     1     -19.259   3.292  14.623  1.00  0.00    -0.276 OA
ENDBRANCH  24  25
ENDBRANCH  10  24
BRANCH   5  27
HETATM   27  O3  UNL     1     -12.633   1.486  11.175  1.00  0.00    -0.339 OA
ATOM     28  H3  UNL     1     -12.308   0.624  11.412  1.00  0.00     0.220 HD
ENDBRANCH   5  27
BRANCH   6  29
HETATM   29  O4  UNL     1     -15.019  -0.070  12.174  1.00  0.00    -0.355 OA
ATOM     30  H4  UNL     1     -15.491  -0.372  12.941  1.00  0.00     0.218 HD
ENDBRANCH   6  29
TORSDOF 9
ENDMDL
