MODEL 1
REMARK VINA RESULT: -7.036656678      0.000      0.000
REMARK  10 active torsions:
REMARK  status: ('A' for Active; 'I' for Inactive)
REMARK    1  A    between atoms: N1_1  and  S1_4 
REMARK    2  A    between atoms: S1_4  and  C1_6 
REMARK    3  A    between atoms: S1_4  and  N4_21 
REMARK    4  A    between atoms: C2_7  and  C3_8 
REMARK    5  A    between atoms: C3_8  and  N2_9 
REMARK    6  A    between atoms: C3_8  and  C4_13 
REMARK    7  A    between atoms: C4_13  and  C5_14 
REMARK    8  A    between atoms: C5_14  and  C6_15 
REMARK    9  A    between atoms: C6_15  and  C7_16 
REMARK   10  A    between atoms: C7_16  and  N3_17 
ROOT
HETATM    1  C1  UNL     1      -4.814  -5.985  -5.605  1.00  0.00     0.100 C 
HETATM    2  C2  UNL     1      -4.777  -6.221  -6.905  1.00  0.00     0.017 C 
ENDROOT
BRANCH   2   3
HETATM    3  C3  UNL     1      -5.752  -7.085  -7.608  1.00  0.00     0.207 C 
BRANCH   3   4
HETATM    4  N2  UNL     1      -7.075  -6.823  -7.013  1.00  0.00    -0.072 N 
ATOM      5  H23 UNL     1      -7.064  -6.840  -5.993  1.00  0.00     0.275 HD
ATOM      6  H22 UNL     1      -7.379  -5.856  -7.126  1.00  0.00     0.275 HD
ATOM      7  H21 UNL     1      -7.726  -7.495  -7.418  1.00  0.00     0.275 HD
ENDBRANCH   3   4
BRANCH   3   8
HETATM    8  C4  UNL     1      -5.883  -6.736  -9.068  1.00  0.00     0.037 C 
BRANCH   8   9
HETATM    9  C5  UNL     1      -7.271  -6.941  -9.601  1.00  0.00     0.004 C 
BRANCH   9  10
HETATM   10  C6  UNL     1      -7.405  -8.209 -10.406  1.00  0.00     0.027 C 
BRANCH  10  11
HETATM   11  C7  UNL     1      -8.877  -8.629 -10.300  1.00  0.00     0.229 C 
BRANCH  11  12
HETATM   12  N3  UNL     1      -9.053  -9.429  -9.092  1.00  0.00    -0.079 N 
ATOM     13  H33 UNL     1      -9.249  -8.857  -8.271  1.00  0.00     0.274 HD
ATOM     14  H32 UNL     1      -9.922  -9.964  -9.102  1.00  0.00     0.274 HD
ATOM     15  H31 UNL     1      -8.232 -10.021  -8.967  1.00  0.00     0.274 HD
ENDBRANCH  11  12
ENDBRANCH  10  11
ENDBRANCH   9  10
ENDBRANCH   8   9
ENDBRANCH   3   8
ENDBRANCH   2   3
BRANCH   1  16
HETATM   16  S1  UNL     1      -3.684  -4.979  -4.761  1.00  0.00     0.108 S 
HETATM   17  O1  UNL     1      -4.365  -3.769  -4.140  1.00  0.00    -0.230 OA
BRANCH  16  18
HETATM   18  N1  UNL     1      -2.659  -4.392  -5.788  1.00  0.00    -0.345 N 
ATOM     19  H12 UNL     1      -2.099  -3.548  -5.674  1.00  0.00     0.167 HD
ATOM     20  H11 UNL     1      -2.679  -5.032  -6.581  1.00  0.00     0.167 HD
ENDBRANCH  16  18
BRANCH  16  21
HETATM   21  N4  UNL     1      -2.957  -5.859  -3.513  1.00  0.00    -0.212 NA
HETATM   22  C8  UNL     1      -2.809  -7.249  -3.729  1.00  0.00     0.119 C 
HETATM   23  C9  UNL     1      -1.547  -7.498  -4.527  1.00  0.00     0.125 C 
HETATM   24  S2  UNL     1      -0.497  -6.217  -3.818  1.00  0.00     0.030 S 
HETATM   25  O2  UNL     1       0.141  -5.283  -5.058  1.00  0.00    -0.257 OA
HETATM   26  C10 UNL     1      -1.783  -5.300  -2.954  1.00  0.00     0.214 C 
ENDBRANCH  16  21
ENDBRANCH   1  16
TORSDOF 10
ENDMDL
MODEL 2
REMARK VINA RESULT: -6.815875935      1.774      2.158
REMARK  10 active torsions:
REMARK  status: ('A' for Active; 'I' for Inactive)
REMARK    1  A    between atoms: N1_1  and  S1_4 
REMARK    2  A    between atoms: S1_4  and  C1_6 
REMARK    3  A    between atoms: S1_4  and  N4_21 
REMARK    4  A    between atoms: C2_7  and  C3_8 
REMARK    5  A    between atoms: C3_8  and  N2_9 
REMARK    6  A    between atoms: C3_8  and  C4_13 
REMARK    7  A    between atoms: C4_13  and  C5_14 
REMARK    8  A    between atoms: C5_14  and  C6_15 
REMARK    9  A    between atoms: C6_15  and  C7_16 
REMARK   10  A    between atoms: C7_16  and  N3_17 
ROOT
HETATM    1  C1  UNL     1      -5.071  -6.378  -7.013  1.00  0.00     0.100 C 
HETATM    2  C2  UNL     1      -5.568  -6.878  -8.130  1.00  0.00     0.017 C 
ENDROOT
BRANCH   2   3
HETATM    3  C3  UNL     1      -6.883  -7.554  -8.210  1.00  0.00     0.207 C 
BRANCH   3   4
HETATM    4  N2  UNL     1      -7.778  -6.881  -7.253  1.00  0.00    -0.072 N 
ATOM      5  H23 UNL     1      -8.201  -6.032  -7.630  1.00  0.00     0.275 HD
ATOM      6  H22 UNL     1      -8.642  -7.395  -7.084  1.00  0.00     0.275 HD
ATOM      7  H21 UNL     1      -7.240  -6.716  -6.402  1.00  0.00     0.275 HD
ENDBRANCH   3   4
BRANCH   3   8
HETATM    8  C4  UNL     1      -7.532  -7.392  -9.561  1.00  0.00     0.037 C 
BRANCH   8   9
HETATM    9  C5  UNL     1      -7.964  -8.695 -10.167  1.00  0.00     0.004 C 
BRANCH   9  10
HETATM   10  C6  UNL     1      -9.390  -8.666 -10.656  1.00  0.00     0.027 C 
BRANCH  10  11
HETATM   11  C7  UNL     1     -10.273  -8.682  -9.400  1.00  0.00     0.229 C 
BRANCH  11  12
HETATM   12  N3  UNL     1      -9.943  -9.863  -8.608  1.00  0.00    -0.079 N 
ATOM     13  H33 UNL     1      -8.995 -10.195  -8.780  1.00  0.00     0.274 HD
ATOM     14  H32 UNL     1      -9.842  -9.651  -7.615  1.00  0.00     0.274 HD
ATOM     15  H31 UNL     1     -10.645 -10.582  -8.783  1.00  0.00     0.274 HD
ENDBRANCH  11  12
ENDBRANCH  10  11
ENDBRANCH   9  10
ENDBRANCH   8   9
ENDBRANCH   3   8
ENDBRANCH   2   3
BRANCH   1  16
HETATM   16  S1  UNL     1      -3.536  -5.585  -6.894  1.00  0.00     0.108 S 
HETATM   17  O1  UNL     1      -3.218  -4.786  -8.149  1.00  0.00    -0.230 OA
BRANCH  16  18
HETATM   18  N1  UNL     1      -2.410  -6.668  -6.800  1.00  0.00    -0.345 N 
ATOM     19  H12 UNL     1      -1.556  -6.612  -6.247  1.00  0.00     0.167 HD
ATOM     20  H11 UNL     1      -2.718  -7.428  -7.406  1.00  0.00     0.167 HD
ENDBRANCH  16  18
BRANCH  16  21
HETATM   21  N4  UNL     1      -3.546  -4.511  -5.588  1.00  0.00    -0.212 NA
HETATM   22  C8  UNL     1      -3.949  -5.044  -4.341  1.00  0.00     0.119 C 
HETATM   23  C9  UNL     1      -2.764  -5.709  -3.676  1.00  0.00     0.125 C 
HETATM   24  S2  UNL     1      -1.464  -4.577  -4.198  1.00  0.00     0.030 S 
HETATM   25  O2  UNL     1      -0.232  -5.455  -4.924  1.00  0.00    -0.257 OA
HETATM   26  C10 UNL     1      -2.405  -3.686  -5.447  1.00  0.00     0.214 C 
ENDBRANCH  16  21
ENDBRANCH   1  16
TORSDOF 10
ENDMDL
MODEL 3
REMARK VINA RESULT: -6.715224219      1.421      1.482
REMARK  10 active torsions:
REMARK  status: ('A' for Active; 'I' for Inactive)
REMARK    1  A    between atoms: N1_1  and  S1_4 
REMARK    2  A    between atoms: S1_4  and  C1_6 
REMARK    3  A    between atoms: S1_4  and  N4_21 
REMARK    4  A    between atoms: C2_7  and  C3_8 
REMARK    5  A    between atoms: C3_8  and  N2_9 
REMARK    6  A    between atoms: C3_8  and  C4_13 
REMARK    7  A    between atoms: C4_13  and  C5_14 
REMARK    8  A    between atoms: C5_14  and  C6_15 
REMARK    9  A    between atoms: C6_15  and  C7_16 
REMARK   10  A    between atoms: C7_16  and  N3_17 
ROOT
HETATM    1  C1  UNL     1      -4.436  -5.623  -6.012  1.00  0.00     0.100 C 
HETATM    2  C2  UNL     1      -4.099  -5.636  -7.289  1.00  0.00     0.017 C 
ENDROOT
BRANCH   2   3
HETATM    3  C3  UNL     1      -4.916  -6.277  -8.344  1.00  0.00     0.207 C 
BRANCH   3   4
HETATM    4  N2  UNL     1      -4.032  -7.196  -9.083  1.00  0.00    -0.072 N 
ATOM      5  H23 UNL     1      -4.471  -7.589  -9.915  1.00  0.00     0.275 HD
ATOM      6  H22 UNL     1      -3.263  -6.718  -9.553  1.00  0.00     0.275 HD
ATOM      7  H21 UNL     1      -3.716  -7.906  -8.423  1.00  0.00     0.275 HD
ENDBRANCH   3   4
BRANCH   3   8
HETATM    8  C4  UNL     1      -6.017  -7.135  -7.777  1.00  0.00     0.037 C 
BRANCH   8   9
HETATM    9  C5  UNL     1      -7.289  -7.061  -8.569  1.00  0.00     0.004 C 
BRANCH   9  10
HETATM   10  C6  UNL     1      -8.095  -8.333  -8.500  1.00  0.00     0.027 C 
BRANCH  10  11
HETATM   11  C7  UNL     1      -9.560  -7.904  -8.346  1.00  0.00     0.229 C 
BRANCH  11  12
HETATM   12  N3  UNL     1      -9.792  -7.510  -6.959  1.00  0.00    -0.079 N 
ATOM     13  H33 UNL     1      -8.951  -7.146  -6.512  1.00  0.00     0.274 HD
ATOM     14  H32 UNL     1     -10.367  -6.671  -6.884  1.00  0.00     0.274 HD
ATOM     15  H31 UNL     1     -10.189  -8.302  -6.455  1.00  0.00     0.274 HD
ENDBRANCH  11  12
ENDBRANCH  10  11
ENDBRANCH   9  10
ENDBRANCH   8   9
ENDBRANCH   3   8
ENDBRANCH   2   3
BRANCH   1  16
HETATM   16  S1  UNL     1      -3.496  -4.882  -4.759  1.00  0.00     0.108 S 
HETATM   17  O1  UNL     1      -4.262  -3.761  -4.072  1.00  0.00    -0.230 OA
BRANCH  16  18
HETATM   18  N1  UNL     1      -2.247  -4.192  -5.401  1.00  0.00    -0.345 N 
ATOM     19  H12 UNL     1      -1.269  -4.367  -5.170  1.00  0.00     0.167 HD
ATOM     20  H11 UNL     1      -2.624  -3.541  -6.089  1.00  0.00     0.167 HD
ENDBRANCH  16  18
BRANCH  16  21
HETATM   21  N4  UNL     1      -3.100  -6.032  -3.584  1.00  0.00    -0.212 NA
HETATM   22  C8  UNL     1      -2.924  -7.359  -4.040  1.00  0.00     0.119 C 
HETATM   23  C9  UNL     1      -1.512  -7.525  -4.558  1.00  0.00     0.125 C 
HETATM   24  S2  UNL     1      -0.644  -6.475  -3.379  1.00  0.00     0.030 S 
HETATM   25  O2  UNL     1       0.284  -5.358  -4.220  1.00  0.00    -0.257 OA
HETATM   26  C10 UNL     1      -2.086  -5.667  -2.667  1.00  0.00     0.214 C 
ENDBRANCH  16  21
ENDBRANCH   1  16
TORSDOF 10
ENDMDL
MODEL 4
REMARK VINA RESULT: -6.692234816      1.379      1.519
REMARK  10 active torsions:
REMARK  status: ('A' for Active; 'I' for Inactive)
REMARK    1  A    between atoms: N1_1  and  S1_4 
REMARK    2  A    between atoms: S1_4  and  C1_6 
REMARK    3  A    between atoms: S1_4  and  N4_21 
REMARK    4  A    between atoms: C2_7  and  C3_8 
REMARK    5  A    between atoms: C3_8  and  N2_9 
REMARK    6  A    between atoms: C3_8  and  C4_13 
REMARK    7  A    between atoms: C4_13  and  C5_14 
REMARK    8  A    between atoms: C5_14  and  C6_15 
REMARK    9  A    between atoms: C6_15  and  C7_16 
REMARK   10  A    between atoms: C7_16  and  N3_17 
ROOT
HETATM    1  C1  UNL     1      -4.560  -5.987  -5.737  1.00  0.00     0.100 C 
HETATM    2  C2  UNL     1      -4.717  -6.115  -7.043  1.00  0.00     0.017 C 
ENDROOT
BRANCH   2   3
HETATM    3  C3  UNL     1      -5.698  -7.034  -7.662  1.00  0.00     0.207 C 
BRANCH   3   4
HETATM    4  N2  UNL     1      -6.985  -6.824  -6.977  1.00  0.00    -0.072 N 
ATOM      5  H23 UNL     1      -7.736  -7.405  -7.352  1.00  0.00     0.275 HD
ATOM      6  H22 UNL     1      -6.996  -7.193  -6.026  1.00  0.00     0.275 HD
ATOM      7  H21 UNL     1      -7.191  -5.826  -7.020  1.00  0.00     0.275 HD
ENDBRANCH   3   4
BRANCH   3   8
HETATM    8  C4  UNL     1      -5.950  -6.713  -9.114  1.00  0.00     0.037 C 
BRANCH   8   9
HETATM    9  C5  UNL     1      -7.373  -6.946  -9.530  1.00  0.00     0.004 C 
BRANCH   9  10
HETATM   10  C6  UNL     1      -7.548  -8.219 -10.319  1.00  0.00     0.027 C 
BRANCH  10  11
HETATM   11  C7  UNL     1      -9.040  -8.300 -10.673  1.00  0.00     0.229 C 
BRANCH  11  12
HETATM   12  N3  UNL     1      -9.440  -9.703 -10.704  1.00  0.00    -0.079 N 
ATOM     13  H33 UNL     1      -9.116 -10.182 -11.545  1.00  0.00     0.274 HD
ATOM     14  H32 UNL     1      -8.938 -10.267 -10.018  1.00  0.00     0.274 HD
ATOM     15  H31 UNL     1     -10.452  -9.759 -10.590  1.00  0.00     0.274 HD
ENDBRANCH  11  12
ENDBRANCH  10  11
ENDBRANCH   9  10
ENDBRANCH   8   9
ENDBRANCH   3   8
ENDBRANCH   2   3
BRANCH   1  16
HETATM   16  S1  UNL     1      -3.418  -4.920  -4.988  1.00  0.00     0.108 S 
HETATM   17  O1  UNL     1      -4.112  -3.839  -4.172  1.00  0.00    -0.230 OA
BRANCH  16  18
HETATM   18  N1  UNL     1      -2.633  -4.153  -6.103  1.00  0.00    -0.345 N 
ATOM     19  H12 UNL     1      -2.998  -3.850  -7.006  1.00  0.00     0.167 HD
ATOM     20  H11 UNL     1      -1.692  -4.028  -5.731  1.00  0.00     0.167 HD
ENDBRANCH  16  18
BRANCH  16  21
HETATM   21  N4  UNL     1      -2.419  -5.795  -3.942  1.00  0.00    -0.212 NA
HETATM   22  C8  UNL     1      -1.076  -5.964  -4.353  1.00  0.00     0.119 C 
HETATM   23  C9  UNL     1      -0.276  -4.741  -3.960  1.00  0.00     0.125 C 
HETATM   24  S2  UNL     1      -1.071  -4.367  -2.388  1.00  0.00     0.030 S 
HETATM   25  O2  UNL     1      -1.568  -2.763  -2.394  1.00  0.00    -0.257 OA
HETATM   26  C10 UNL     1      -2.495  -5.453  -2.571  1.00  0.00     0.214 C 
ENDBRANCH  16  21
ENDBRANCH   1  16
TORSDOF 10
ENDMDL
MODEL 5
REMARK VINA RESULT: -6.664108977      2.072      2.589
REMARK  10 active torsions:
REMARK  status: ('A' for Active; 'I' for Inactive)
REMARK    1  A    between atoms: N1_1  and  S1_4 
REMARK    2  A    between atoms: S1_4  and  C1_6 
REMARK    3  A    between atoms: S1_4  and  N4_21 
REMARK    4  A    between atoms: C2_7  and  C3_8 
REMARK    5  A    between atoms: C3_8  and  N2_9 
REMARK    6  A    between atoms: C3_8  and  C4_13 
REMARK    7  A    between atoms: C4_13  and  C5_14 
REMARK    8  A    between atoms: C5_14  and  C6_15 
REMARK    9  A    between atoms: C6_15  and  C7_16 
REMARK   10  A    between atoms: C7_16  and  N3_17 
ROOT
HETATM    1  C1  UNL     1      -4.703  -6.054  -7.675  1.00  0.00     0.100 C 
HETATM    2  C2  UNL     1      -5.643  -6.982  -7.628  1.00  0.00     0.017 C 
ENDROOT
BRANCH   2   3
HETATM    3  C3  UNL     1      -6.805  -7.016  -8.544  1.00  0.00     0.207 C 
BRANCH   3   4
HETATM    4  N2  UNL     1      -6.322  -6.614  -9.876  1.00  0.00    -0.072 N 
ATOM      5  H23 UNL     1      -6.152  -5.611  -9.954  1.00  0.00     0.275 HD
ATOM      6  H22 UNL     1      -5.370  -6.924 -10.066  1.00  0.00     0.275 HD
ATOM      7  H21 UNL     1      -6.998  -6.959 -10.558  1.00  0.00     0.275 HD
ENDBRANCH   3   4
BRANCH   3   8
HETATM    8  C4  UNL     1      -7.365  -8.405  -8.712  1.00  0.00     0.037 C 
BRANCH   8   9
HETATM    9  C5  UNL     1      -8.490  -8.471  -9.703  1.00  0.00     0.004 C 
BRANCH   9  10
HETATM   10  C6  UNL     1      -9.787  -7.938  -9.148  1.00  0.00     0.027 C 
BRANCH  10  11
HETATM   11  C7  UNL     1      -9.956  -8.580  -7.764  1.00  0.00     0.229 C 
BRANCH  11  12
HETATM   12  N3  UNL     1     -10.052  -7.522  -6.763  1.00  0.00    -0.079 N 
ATOM     13  H33 UNL     1     -10.816  -6.874  -6.953  1.00  0.00     0.274 HD
ATOM     14  H32 UNL     1     -10.381  -7.868  -5.861  1.00  0.00     0.274 HD
ATOM     15  H31 UNL     1      -9.150  -7.051  -6.694  1.00  0.00     0.274 HD
ENDBRANCH  11  12
ENDBRANCH  10  11
ENDBRANCH   9  10
ENDBRANCH   8   9
ENDBRANCH   3   8
ENDBRANCH   2   3
BRANCH   1  16
HETATM   16  S1  UNL     1      -3.335  -5.992  -6.614  1.00  0.00     0.108 S 
HETATM   17  O1  UNL     1      -2.029  -5.886  -7.388  1.00  0.00    -0.230 OA
BRANCH  16  18
HETATM   18  N1  UNL     1      -3.239  -7.343  -5.829  1.00  0.00    -0.345 N 
ATOM     19  H12 UNL     1      -2.650  -8.142  -6.062  1.00  0.00     0.167 HD
ATOM     20  H11 UNL     1      -3.886  -7.245  -5.048  1.00  0.00     0.167 HD
ENDBRANCH  16  18
BRANCH  16  21
HETATM   21  N4  UNL     1      -3.450  -4.637  -5.610  1.00  0.00    -0.212 NA
HETATM   22  C8  UNL     1      -3.904  -4.871  -4.291  1.00  0.00     0.119 C 
HETATM   23  C9  UNL     1      -2.737  -5.305  -3.431  1.00  0.00     0.125 C 
HETATM   24  S2  UNL     1      -1.447  -4.275  -4.152  1.00  0.00     0.030 S 
HETATM   25  O2  UNL     1      -0.150  -5.247  -4.587  1.00  0.00    -0.257 OA
HETATM   26  C10 UNL     1      -2.346  -3.753  -5.621  1.00  0.00     0.214 C 
ENDBRANCH  16  21
ENDBRANCH   1  16
TORSDOF 10
ENDMDL
