MODEL 1
REMARK VINA RESULT: -8.168698259      0.000      0.000
REMARK  10 active torsions:
REMARK  status: ('A' for Active; 'I' for Inactive)
REMARK    1  A    between atoms: N1_2  and  C3_5 
REMARK    2  A    between atoms: C3_5  and  C4_6 
REMARK    3  A    between atoms: C4_6  and  C5_7 
REMARK    4  A    between atoms: C5_7  and  N2_8 
REMARK    5  A    between atoms: N2_8  and  C6_10 
REMARK    6  A    between atoms: C10_20  and  N6_21 
REMARK    7  A    between atoms: N7_24  and  C11_25 
REMARK    8  A    between atoms: C11_25  and  C12_26 
REMARK    9  A    between atoms: C12_26  and  C13_27 
REMARK   10  A    between atoms: C13_27  and  O2_28 
ROOT
HETATM    1  C6  UNL     1      -6.506  -6.884  -7.590  1.00  0.00     0.133 A 
HETATM    2  N3  UNL     1      -5.699  -6.686  -8.689  1.00  0.00    -0.337 N 
ATOM      3  H3  UNL     1      -4.733  -6.382  -8.568  1.00  0.00     0.168 HD
HETATM    4  C7  UNL     1      -6.187  -6.894  -9.909  1.00  0.00     0.183 A 
HETATM    5  N4  UNL     1      -7.450  -7.293 -10.114  1.00  0.00    -0.336 N 
ATOM      6  H4  UNL     1      -7.780  -7.440 -11.067  1.00  0.00     0.168 HD
HETATM    7  C8  UNL     1      -8.287  -7.504  -9.089  1.00  0.00     0.155 A 
HETATM    8  C9  UNL     1      -7.827  -7.303  -7.802  1.00  0.00     0.137 A 
HETATM    9  N5  UNL     1      -8.864  -7.585  -6.998  1.00  0.00    -0.184 N 
ATOM     10  H5  UNL     1      -8.840  -7.529  -5.980  1.00  0.00     0.184 HD
HETATM   11  C10 UNL     1      -9.946  -7.953  -7.723  1.00  0.00     0.680 A 
HETATM   12  N7  UNL     1      -9.577  -7.900  -9.004  1.00  0.00    -0.166 N 
ENDROOT
BRANCH   1  13
HETATM   13  N2  UNL     1      -6.061  -6.697  -6.454  1.00  0.00    -0.374 N 
ATOM     14  H2  UNL     1      -6.729  -7.040  -5.764  1.00  0.00     0.161 HD
BRANCH  13  15
HETATM   15  C5  UNL     1      -4.948  -6.171  -5.807  1.00  0.00     0.123 C 
BRANCH  15  16
HETATM   16  C4  UNL     1      -3.667  -6.968  -6.088  1.00  0.00     0.056 C 
BRANCH  16  17
HETATM   17  C3  UNL     1      -2.469  -6.460  -5.389  1.00  0.00     0.312 C 
BRANCH  17  18
HETATM   18  N1  UNL     1      -1.755  -5.380  -5.973  1.00  0.00     0.005 N 
HETATM   19  C1  UNL     1      -2.109  -4.089  -5.475  1.00  0.00     0.355 C 
HETATM   20  C2  UNL     1      -1.778  -5.334  -7.418  1.00  0.00     0.355 C 
HETATM   21  O1  UNL     1      -0.429  -5.587  -5.644  1.00  0.00    -0.065 OA
ENDBRANCH  17  18
ENDBRANCH  16  17
ENDBRANCH  15  16
ENDBRANCH  13  15
ENDBRANCH   1  13
BRANCH  12  22
HETATM   22  C11 UNL     1     -10.383  -8.156 -10.159  1.00  0.00     0.151 C 
BRANCH  22  23
HETATM   23  C12 UNL     1     -10.677  -9.570 -10.467  1.00  0.00     0.047 C 
BRANCH  23  24
HETATM   24  C13 UNL     1     -11.827 -10.222  -9.799  1.00  0.00     0.165 C 
BRANCH  24  25
HETATM   25  O2  UNL     1     -11.411 -11.018  -8.743  1.00  0.00    -0.401 OA
ATOM     26  H2  UNL     1     -11.366 -10.523  -7.933  1.00  0.00     0.209 HD
ENDBRANCH  24  25
ENDBRANCH  23  24
ENDBRANCH  22  23
ENDBRANCH  12  22
BRANCH  11  27
HETATM   27  N6  UNL     1     -11.124  -8.261  -7.221  1.00  0.00    -0.234 N 
ATOM     28  H62 UNL     1     -12.025  -7.819  -7.399  1.00  0.00     0.174 HD
ATOM     29  H61 UNL     1     -11.295  -8.999  -6.538  1.00  0.00     0.174 HD
ENDBRANCH  11  27
TORSDOF 10
ENDMDL
MODEL 2
REMARK VINA RESULT: -8.103631276      1.998      3.256
REMARK  10 active torsions:
REMARK  status: ('A' for Active; 'I' for Inactive)
REMARK    1  A    between atoms: N1_2  and  C3_5 
REMARK    2  A    between atoms: C3_5  and  C4_6 
REMARK    3  A    between atoms: C4_6  and  C5_7 
REMARK    4  A    between atoms: C5_7  and  N2_8 
REMARK    5  A    between atoms: N2_8  and  C6_10 
REMARK    6  A    between atoms: C10_20  and  N6_21 
REMARK    7  A    between atoms: N7_24  and  C11_25 
REMARK    8  A    between atoms: C11_25  and  C12_26 
REMARK    9  A    between atoms: C12_26  and  C13_27 
REMARK   10  A    between atoms: C13_27  and  O2_28 
ROOT
HETATM    1  C6  UNL     1      -4.139  -6.026  -6.142  1.00  0.00     0.133 A 
HETATM    2  N3  UNL     1      -3.057  -5.714  -6.937  1.00  0.00    -0.337 N 
ATOM      3  H3  UNL     1      -2.167  -5.455  -6.512  1.00  0.00     0.168 HD
HETATM    4  C7  UNL     1      -3.182  -5.754  -8.261  1.00  0.00     0.183 A 
HETATM    5  N4  UNL     1      -4.333  -6.089  -8.859  1.00  0.00    -0.336 N 
ATOM      6  H4  UNL     1      -4.382  -6.105  -9.878  1.00  0.00     0.168 HD
HETATM    7  C8  UNL     1      -5.423  -6.402  -8.145  1.00  0.00     0.155 A 
HETATM    8  C9  UNL     1      -5.344  -6.377  -6.766  1.00  0.00     0.137 A 
HETATM    9  N5  UNL     1      -6.563  -6.728  -6.327  1.00  0.00    -0.184 N 
ATOM     10  H5  UNL     1      -6.826  -6.801  -5.345  1.00  0.00     0.184 HD
HETATM   11  C10 UNL     1      -7.395  -6.972  -7.366  1.00  0.00     0.680 A 
HETATM   12  N7  UNL     1      -6.682  -6.769  -8.475  1.00  0.00    -0.166 N 
ENDROOT
BRANCH   1  13
HETATM   13  N2  UNL     1      -4.032  -5.995  -4.912  1.00  0.00    -0.374 N 
ATOM     14  H2  UNL     1      -4.748  -5.381  -4.522  1.00  0.00     0.161 HD
BRANCH  13  15
HETATM   15  C5  UNL     1      -3.257  -6.521  -3.885  1.00  0.00     0.123 C 
BRANCH  15  16
HETATM   16  C4  UNL     1      -2.780  -5.452  -2.894  1.00  0.00     0.056 C 
BRANCH  16  17
HETATM   17  C3  UNL     1      -3.120  -4.068  -3.282  1.00  0.00     0.312 C 
BRANCH  17  18
HETATM   18  N1  UNL     1      -2.146  -3.304  -3.979  1.00  0.00     0.005 N 
HETATM   19  C1  UNL     1      -0.899  -3.968  -4.183  1.00  0.00     0.355 C 
HETATM   20  C2  UNL     1      -1.881  -1.992  -3.430  1.00  0.00     0.355 C 
HETATM   21  O1  UNL     1      -2.683  -3.065  -5.229  1.00  0.00    -0.065 OA
ENDBRANCH  17  18
ENDBRANCH  16  17
ENDBRANCH  15  16
ENDBRANCH  13  15
ENDBRANCH   1  13
BRANCH  12  22
HETATM   22  C11 UNL     1      -7.129  -6.856  -9.833  1.00  0.00     0.151 C 
BRANCH  22  23
HETATM   23  C12 UNL     1      -7.155  -8.200 -10.441  1.00  0.00     0.047 C 
BRANCH  23  24
HETATM   24  C13 UNL     1      -8.400  -8.998 -10.359  1.00  0.00     0.165 C 
BRANCH  24  25
HETATM   25  O2  UNL     1      -8.452  -9.731  -9.184  1.00  0.00    -0.401 OA
ATOM     26  H2  UNL     1      -7.630 -10.177  -9.017  1.00  0.00     0.209 HD
ENDBRANCH  24  25
ENDBRANCH  23  24
ENDBRANCH  22  23
ENDBRANCH  12  22
BRANCH  11  27
HETATM   27  N6  UNL     1      -8.663  -7.308  -7.258  1.00  0.00    -0.234 N 
ATOM     28  H62 UNL     1      -9.444  -6.742  -6.925  1.00  0.00     0.174 HD
ATOM     29  H61 UNL     1      -9.047  -8.226  -7.477  1.00  0.00     0.174 HD
ENDBRANCH  11  27
TORSDOF 10
ENDMDL
MODEL 3
REMARK VINA RESULT: -8.084843275      1.451      1.687
REMARK  10 active torsions:
REMARK  status: ('A' for Active; 'I' for Inactive)
REMARK    1  A    between atoms: N1_2  and  C3_5 
REMARK    2  A    between atoms: C3_5  and  C4_6 
REMARK    3  A    between atoms: C4_6  and  C5_7 
REMARK    4  A    between atoms: C5_7  and  N2_8 
REMARK    5  A    between atoms: N2_8  and  C6_10 
REMARK    6  A    between atoms: C10_20  and  N6_21 
REMARK    7  A    between atoms: N7_24  and  C11_25 
REMARK    8  A    between atoms: C11_25  and  C12_26 
REMARK    9  A    between atoms: C12_26  and  C13_27 
REMARK   10  A    between atoms: C13_27  and  O2_28 
ROOT
HETATM    1  C6  UNL     1      -5.651  -6.610  -7.531  1.00  0.00     0.133 A 
HETATM    2  N3  UNL     1      -4.760  -6.519  -8.579  1.00  0.00    -0.337 N 
ATOM      3  H3  UNL     1      -3.791  -6.253  -8.407  1.00  0.00     0.168 HD
HETATM    4  C7  UNL     1      -5.174  -6.780  -9.816  1.00  0.00     0.183 A 
HETATM    5  N4  UNL     1      -6.438  -7.132 -10.087  1.00  0.00    -0.336 N 
ATOM      6  H4  UNL     1      -6.709  -7.322 -11.052  1.00  0.00     0.168 HD
HETATM    7  C8  UNL     1      -7.354  -7.239  -9.114  1.00  0.00     0.155 A 
HETATM    8  C9  UNL     1      -6.974  -6.979  -7.812  1.00  0.00     0.137 A 
HETATM    9  N5  UNL     1      -8.076  -7.162  -7.069  1.00  0.00    -0.184 N 
ATOM     10  H5  UNL     1      -8.119  -7.044  -6.057  1.00  0.00     0.184 HD
HETATM   11  C10 UNL     1      -9.124  -7.524  -7.846  1.00  0.00     0.680 A 
HETATM   12  N7  UNL     1      -8.665  -7.568  -9.098  1.00  0.00    -0.166 N 
ENDROOT
BRANCH   1  13
HETATM   13  N2  UNL     1      -5.275  -6.373  -6.379  1.00  0.00    -0.374 N 
ATOM     14  H2  UNL     1      -5.853  -5.635  -5.976  1.00  0.00     0.161 HD
BRANCH  13  15
HETATM   15  C5  UNL     1      -4.324  -6.781  -5.450  1.00  0.00     0.123 C 
BRANCH  15  16
HETATM   16  C4  UNL     1      -2.954  -6.130  -5.679  1.00  0.00     0.056 C 
BRANCH  16  17
HETATM   17  C3  UNL     1      -2.978  -4.654  -5.695  1.00  0.00     0.312 C 
BRANCH  17  18
HETATM   18  N1  UNL     1      -2.745  -3.962  -4.476  1.00  0.00     0.005 N 
HETATM   19  C1  UNL     1      -2.018  -2.741  -4.610  1.00  0.00     0.355 C 
HETATM   20  C2  UNL     1      -2.131  -4.747  -3.429  1.00  0.00     0.355 C 
HETATM   21  O1  UNL     1      -3.995  -3.634  -3.988  1.00  0.00    -0.065 OA
ENDBRANCH  17  18
ENDBRANCH  16  17
ENDBRANCH  15  16
ENDBRANCH  13  15
ENDBRANCH   1  13
BRANCH  12  22
HETATM   22  C11 UNL     1      -9.402  -7.858 -10.292  1.00  0.00     0.151 C 
BRANCH  22  23
HETATM   23  C12 UNL     1      -9.753  -9.272 -10.530  1.00  0.00     0.047 C 
BRANCH  23  24
HETATM   24  C13 UNL     1     -11.091  -9.755 -10.117  1.00  0.00     0.165 C 
BRANCH  24  25
HETATM   25  O2  UNL     1     -11.036 -10.407  -8.894  1.00  0.00    -0.401 OA
ATOM     26  H2  UNL     1     -11.050 -11.350  -9.004  1.00  0.00     0.209 HD
ENDBRANCH  24  25
ENDBRANCH  23  24
ENDBRANCH  22  23
ENDBRANCH  12  22
BRANCH  11  27
HETATM   27  N6  UNL     1     -10.347  -7.745  -7.413  1.00  0.00    -0.234 N 
ATOM     28  H62 UNL     1     -10.643  -8.256  -6.582  1.00  0.00     0.174 HD
ATOM     29  H61 UNL     1     -11.199  -7.444  -7.885  1.00  0.00     0.174 HD
ENDBRANCH  11  27
TORSDOF 10
ENDMDL
MODEL 4
REMARK VINA RESULT: -8.077156376      0.636      1.070
REMARK  10 active torsions:
REMARK  status: ('A' for Active; 'I' for Inactive)
REMARK    1  A    between atoms: N1_2  and  C3_5 
REMARK    2  A    between atoms: C3_5  and  C4_6 
REMARK    3  A    between atoms: C4_6  and  C5_7 
REMARK    4  A    between atoms: C5_7  and  N2_8 
REMARK    5  A    between atoms: N2_8  and  C6_10 
REMARK    6  A    between atoms: C10_20  and  N6_21 
REMARK    7  A    between atoms: N7_24  and  C11_25 
REMARK    8  A    between atoms: C11_25  and  C12_26 
REMARK    9  A    between atoms: C12_26  and  C13_27 
REMARK   10  A    between atoms: C13_27  and  O2_28 
ROOT
HETATM    1  C6  UNL     1      -6.448  -6.894  -7.575  1.00  0.00     0.133 A 
HETATM    2  N3  UNL     1      -5.621  -6.714  -8.662  1.00  0.00    -0.337 N 
ATOM      3  H3  UNL     1      -4.653  -6.422  -8.527  1.00  0.00     0.168 HD
HETATM    4  C7  UNL     1      -6.093  -6.922  -9.889  1.00  0.00     0.183 A 
HETATM    5  N4  UNL     1      -7.358  -7.306 -10.111  1.00  0.00    -0.336 N 
ATOM      6  H4  UNL     1      -7.675  -7.453 -11.069  1.00  0.00     0.168 HD
HETATM    7  C8  UNL     1      -8.214  -7.498  -9.099  1.00  0.00     0.155 A 
HETATM    8  C9  UNL     1      -7.772  -7.296  -7.806  1.00  0.00     0.137 A 
HETATM    9  N5  UNL     1      -8.825  -7.558  -7.017  1.00  0.00    -0.184 N 
ATOM     10  H5  UNL     1      -8.816  -7.497  -5.999  1.00  0.00     0.184 HD
HETATM   11  C10 UNL     1      -9.901  -7.916  -7.757  1.00  0.00     0.680 A 
HETATM   12  N7  UNL     1      -9.510  -7.876  -9.032  1.00  0.00    -0.166 N 
ENDROOT
BRANCH   1  13
HETATM   13  N2  UNL     1      -6.018  -6.706  -6.433  1.00  0.00    -0.374 N 
ATOM     14  H2  UNL     1      -6.566  -7.251  -5.767  1.00  0.00     0.161 HD
BRANCH  13  15
HETATM   15  C5  UNL     1      -5.033  -5.995  -5.757  1.00  0.00     0.123 C 
BRANCH  15  16
HETATM   16  C4  UNL     1      -3.817  -6.859  -5.400  1.00  0.00     0.056 C 
BRANCH  16  17
HETATM   17  C3  UNL     1      -2.541  -6.375  -5.964  1.00  0.00     0.312 C 
BRANCH  17  18
HETATM   18  N1  UNL     1      -1.494  -6.033  -5.067  1.00  0.00     0.005 N 
HETATM   19  C1  UNL     1      -0.947  -7.133  -4.338  1.00  0.00     0.355 C 
HETATM   20  C2  UNL     1      -1.803  -4.974  -4.132  1.00  0.00     0.355 C 
HETATM   21  O1  UNL     1      -0.477  -5.528  -5.853  1.00  0.00    -0.065 OA
ENDBRANCH  17  18
ENDBRANCH  16  17
ENDBRANCH  15  16
ENDBRANCH  13  15
ENDBRANCH   1  13
BRANCH  12  22
HETATM   22  C11 UNL     1     -10.302  -8.128 -10.198  1.00  0.00     0.151 C 
BRANCH  22  23
HETATM   23  C12 UNL     1     -10.601  -9.540 -10.508  1.00  0.00     0.047 C 
BRANCH  23  24
HETATM   24  C13 UNL     1     -11.750 -10.190  -9.836  1.00  0.00     0.165 C 
BRANCH  24  25
HETATM   25  O2  UNL     1     -11.334 -10.959  -8.759  1.00  0.00    -0.401 OA
ATOM     26  H2  UNL     1     -11.843 -11.758  -8.688  1.00  0.00     0.209 HD
ENDBRANCH  24  25
ENDBRANCH  23  24
ENDBRANCH  22  23
ENDBRANCH  12  22
BRANCH  11  27
HETATM   27  N6  UNL     1     -11.090  -8.205  -7.272  1.00  0.00    -0.234 N 
ATOM     28  H62 UNL     1     -11.622  -7.709  -6.557  1.00  0.00     0.174 HD
ATOM     29  H61 UNL     1     -11.651  -9.014  -7.539  1.00  0.00     0.174 HD
ENDBRANCH  11  27
TORSDOF 10
ENDMDL
MODEL 5
REMARK VINA RESULT: -7.987238385      1.403      1.831
REMARK  10 active torsions:
REMARK  status: ('A' for Active; 'I' for Inactive)
REMARK    1  A    between atoms: N1_2  and  C3_5 
REMARK    2  A    between atoms: C3_5  and  C4_6 
REMARK    3  A    between atoms: C4_6  and  C5_7 
REMARK    4  A    between atoms: C5_7  and  N2_8 
REMARK    5  A    between atoms: N2_8  and  C6_10 
REMARK    6  A    between atoms: C10_20  and  N6_21 
REMARK    7  A    between atoms: N7_24  and  C11_25 
REMARK    8  A    between atoms: C11_25  and  C12_26 
REMARK    9  A    between atoms: C12_26  and  C13_27 
REMARK   10  A    between atoms: C13_27  and  O2_28 
ROOT
HETATM    1  C6  UNL     1      -7.378  -7.124  -8.628  1.00  0.00     0.133 A 
HETATM    2  N3  UNL     1      -7.036  -7.323  -9.948  1.00  0.00    -0.337 N 
ATOM      3  H3  UNL     1      -6.164  -6.943 -10.314  1.00  0.00     0.168 HD
HETATM    4  C7  UNL     1      -7.851  -8.015 -10.740  1.00  0.00     0.183 A 
HETATM    5  N4  UNL     1      -9.007  -8.531 -10.300  1.00  0.00    -0.336 N 
ATOM      6  H4  UNL     1      -9.599  -9.053 -10.945  1.00  0.00     0.168 HD
HETATM    7  C8  UNL     1      -9.399  -8.373  -9.029  1.00  0.00     0.155 A 
HETATM    8  C9  UNL     1      -8.586  -7.664  -8.165  1.00  0.00     0.137 A 
HETATM    9  N5  UNL     1      -9.222  -7.668  -6.983  1.00  0.00    -0.184 N 
ATOM     10  H5  UNL     1      -8.873  -7.222  -6.136  1.00  0.00     0.184 HD
HETATM   11  C10 UNL     1     -10.390  -8.347  -7.070  1.00  0.00     0.680 A 
HETATM   12  N7  UNL     1     -10.484  -8.775  -8.330  1.00  0.00    -0.166 N 
ENDROOT
BRANCH   1  13
HETATM   13  N2  UNL     1      -6.627  -6.487  -7.884  1.00  0.00    -0.374 N 
ATOM     14  H2  UNL     1      -6.754  -5.487  -8.044  1.00  0.00     0.161 HD
BRANCH  13  15
HETATM   15  C5  UNL     1      -5.665  -6.684  -6.900  1.00  0.00     0.123 C 
BRANCH  15  16
HETATM   16  C4  UNL     1      -4.244  -6.778  -7.470  1.00  0.00     0.056 C 
BRANCH  16  17
HETATM   17  C3  UNL     1      -3.513  -5.495  -7.499  1.00  0.00     0.312 C 
BRANCH  17  18
HETATM   18  N1  UNL     1      -2.427  -5.317  -6.601  1.00  0.00     0.005 N 
HETATM   19  C1  UNL     1      -2.077  -6.477  -5.847  1.00  0.00     0.355 C 
HETATM   20  C2  UNL     1      -2.556  -4.201  -5.690  1.00  0.00     0.355 C 
HETATM   21  O1  UNL     1      -1.336  -5.007  -7.390  1.00  0.00    -0.065 OA
ENDBRANCH  17  18
ENDBRANCH  16  17
ENDBRANCH  15  16
ENDBRANCH  13  15
ENDBRANCH   1  13
BRANCH  12  22
HETATM   22  C11 UNL     1     -11.562  -9.503  -8.930  1.00  0.00     0.151 C 
BRANCH  22  23
HETATM   23  C12 UNL     1     -11.602 -10.958  -8.683  1.00  0.00     0.047 C 
BRANCH  23  24
HETATM   24  C13 UNL     1     -12.600 -11.493  -7.729  1.00  0.00     0.165 C 
BRANCH  24  25
HETATM   25  O2  UNL     1     -12.201 -11.294  -6.416  1.00  0.00    -0.401 OA
ATOM     26  H2  UNL     1     -12.913 -10.956  -5.886  1.00  0.00     0.209 HD
ENDBRANCH  24  25
ENDBRANCH  23  24
ENDBRANCH  22  23
ENDBRANCH  12  22
BRANCH  11  27
HETATM   27  N6  UNL     1     -11.250  -8.501  -6.085  1.00  0.00    -0.234 N 
ATOM     28  H62 UNL     1     -11.852  -7.801  -5.652  1.00  0.00     0.174 HD
ATOM     29  H61 UNL     1     -11.418  -9.374  -5.585  1.00  0.00     0.174 HD
ENDBRANCH  11  27
TORSDOF 10
ENDMDL
