MODEL 1
REMARK VINA RESULT: -7.345387977      0.000      0.000
REMARK  8 active torsions:
REMARK  status: ('A' for Active; 'I' for Inactive)
REMARK    1  A    between atoms: C2_3  and  C4_8 
REMARK    2  A    between atoms: C6_10  and  C7_11 
REMARK    3  A    between atoms: C7_11  and  C8_12 
REMARK    4  A    between atoms: C8_12  and  C9_13 
REMARK    5  A    between atoms: C9_13  and  C10_14 
REMARK    6  A    between atoms: C10_14  and  N4_15 
REMARK    7  A    between atoms: N5_19  and  C11_20 
REMARK    8  A    between atoms: C11_20  and  C12_21 
ROOT
HETATM    1  C1  UNL     1      -2.849 -11.713  -3.644  1.00  0.00     0.231 C 
HETATM    2  N1  UNL     1      -2.820 -10.576  -3.418  1.00  0.00    -0.413 NA
HETATM    3  C2  UNL     1      -2.762  -9.233  -3.143  1.00  0.00     0.185 C 
HETATM    4  N2  UNL     1      -3.100  -8.803  -1.978  1.00  0.00    -0.270 N 
ATOM      5  H2  UNL     1      -3.050  -7.800  -1.797  1.00  0.00     0.180 HD
HETATM    6  C3  UNL     1      -3.528  -9.635  -0.960  1.00  0.00     0.184 C 
HETATM    7  N3  UNL     1      -3.866 -10.338  -0.117  1.00  0.00    -0.172 NA
ENDROOT
BRANCH   3   8
HETATM    8  C4  UNL     1      -2.297  -8.302  -4.230  1.00  0.00     0.162 C 
HETATM    9  C5  UNL     1      -3.311  -7.224  -4.351  1.00  0.00     0.058 C 
HETATM   10  C6  UNL     1      -3.048  -6.269  -5.534  1.00  0.00     0.087 C 
HETATM   11  N5  UNL     1      -2.189  -5.182  -4.995  1.00  0.00    -0.279 NA
HETATM   12  C13 UNL     1      -0.844  -5.735  -4.876  1.00  0.00     0.115 C 
HETATM   13  C14 UNL     1      -0.686  -6.570  -3.653  1.00  0.00     0.129 C 
HETATM   14  N7  UNL     1      -0.970  -7.936  -3.912  1.00  0.00    -0.408 N 
ATOM     15  H7  UNL     1      -0.232  -8.639  -3.869  1.00  0.00     0.154 HD
BRANCH  10  16
HETATM   16  C7  UNL     1      -4.295  -5.692  -6.018  1.00  0.00    -0.011 C 
BRANCH  16  17
HETATM   17  C8  UNL     1      -5.407  -6.499  -6.531  1.00  0.00    -0.027 C 
BRANCH  17  18
HETATM   18  C9  UNL     1      -5.537  -6.839  -7.948  1.00  0.00     0.054 C 
BRANCH  18  19
HETATM   19  C10 UNL     1      -6.938  -6.900  -8.468  1.00  0.00     0.233 C 
BRANCH  19  20
HETATM   20  N4  UNL     1      -7.809  -6.906  -7.244  1.00  0.00    -0.079 N 
ATOM     21  H43 UNL     1      -7.295  -6.787  -6.371  1.00  0.00     0.274 HD
ATOM     22  H42 UNL     1      -8.395  -6.076  -7.150  1.00  0.00     0.274 HD
ATOM     23  H41 UNL     1      -8.335  -7.778  -7.298  1.00  0.00     0.274 HD
ENDBRANCH  19  20
ENDBRANCH  18  19
ENDBRANCH  17  18
ENDBRANCH  16  17
ENDBRANCH  10  16
BRANCH  11  24
HETATM   24  C11 UNL     1      -2.291  -3.953  -5.659  1.00  0.00     0.131 C 
BRANCH  24  25
HETATM   25  C12 UNL     1      -2.449  -2.802  -4.740  1.00  0.00     0.265 C 
HETATM   26  N6  UNL     1      -2.143  -1.471  -5.137  1.00  0.00    -0.057 NA
HETATM   27  O1  UNL     1      -2.859  -2.980  -3.581  1.00  0.00    -0.271 OA
ENDBRANCH  24  25
ENDBRANCH  11  24
ENDBRANCH   3   8
TORSDOF 8
ENDMDL
MODEL 2
REMARK VINA RESULT: -7.073267805      1.035      1.796
REMARK  8 active torsions:
REMARK  status: ('A' for Active; 'I' for Inactive)
REMARK    1  A    between atoms: C2_3  and  C4_8 
REMARK    2  A    between atoms: C6_10  and  C7_11 
REMARK    3  A    between atoms: C7_11  and  C8_12 
REMARK    4  A    between atoms: C8_12  and  C9_13 
REMARK    5  A    between atoms: C9_13  and  C10_14 
REMARK    6  A    between atoms: C10_14  and  N4_15 
REMARK    7  A    between atoms: N5_19  and  C11_20 
REMARK    8  A    between atoms: C11_20  and  C12_21 
ROOT
HETATM    1  C1  UNL     1      -3.395  -9.601  -1.320  1.00  0.00     0.231 C 
HETATM    2  N1  UNL     1      -2.877  -9.738  -2.349  1.00  0.00    -0.413 NA
HETATM    3  C2  UNL     1      -2.285  -9.895  -3.576  1.00  0.00     0.185 C 
HETATM    4  N2  UNL     1      -2.343 -11.033  -4.175  1.00  0.00    -0.270 N 
ATOM      5  H2  UNL     1      -1.894 -11.126  -5.087  1.00  0.00     0.180 HD
HETATM    6  C3  UNL     1      -2.985 -12.135  -3.642  1.00  0.00     0.184 C 
HETATM    7  N3  UNL     1      -3.536 -13.039  -3.197  1.00  0.00    -0.172 NA
ENDROOT
BRANCH   3   8
HETATM    8  C4  UNL     1      -1.580  -8.711  -4.184  1.00  0.00     0.162 C 
HETATM    9  C5  UNL     1      -2.622  -7.840  -4.787  1.00  0.00     0.058 C 
HETATM   10  C6  UNL     1      -2.039  -6.655  -5.584  1.00  0.00     0.087 C 
HETATM   11  N5  UNL     1      -1.899  -5.541  -4.610  1.00  0.00    -0.279 NA
HETATM   12  C13 UNL     1      -0.722  -5.842  -3.800  1.00  0.00     0.115 C 
HETATM   13  C14 UNL     1      -1.014  -6.839  -2.733  1.00  0.00     0.129 C 
HETATM   14  N7  UNL     1      -0.759  -8.164  -3.173  1.00  0.00    -0.408 N 
ATOM     15  H7  UNL     1       0.001  -8.711  -2.767  1.00  0.00     0.154 HD
BRANCH  10  16
HETATM   16  C7  UNL     1      -2.953  -6.247  -6.642  1.00  0.00    -0.011 C 
BRANCH  16  17
HETATM   17  C8  UNL     1      -4.107  -7.049  -7.060  1.00  0.00    -0.027 C 
BRANCH  17  18
HETATM   18  C9  UNL     1      -5.485  -6.604  -6.851  1.00  0.00     0.054 C 
BRANCH  18  19
HETATM   19  C10 UNL     1      -6.447  -6.960  -7.939  1.00  0.00     0.233 C 
BRANCH  19  20
HETATM   20  N4  UNL     1      -7.800  -6.938  -7.287  1.00  0.00    -0.079 N 
ATOM     21  H43 UNL     1      -7.769  -7.008  -6.269  1.00  0.00     0.274 HD
ATOM     22  H42 UNL     1      -8.263  -6.030  -7.328  1.00  0.00     0.274 HD
ATOM     23  H41 UNL     1      -8.323  -7.688  -7.737  1.00  0.00     0.274 HD
ENDBRANCH  19  20
ENDBRANCH  18  19
ENDBRANCH  17  18
ENDBRANCH  16  17
ENDBRANCH  10  16
BRANCH  11  24
HETATM   24  C11 UNL     1      -1.954  -4.254  -5.159  1.00  0.00     0.131 C 
BRANCH  24  25
HETATM   25  C12 UNL     1      -2.791  -3.317  -4.374  1.00  0.00     0.265 C 
HETATM   26  N6  UNL     1      -2.329  -2.026  -3.997  1.00  0.00    -0.057 NA
HETATM   27  O1  UNL     1      -3.935  -3.647  -4.024  1.00  0.00    -0.271 OA
ENDBRANCH  24  25
ENDBRANCH  11  24
ENDBRANCH   3   8
TORSDOF 8
ENDMDL
MODEL 3
REMARK VINA RESULT: -6.978653461      2.619      6.199
REMARK  8 active torsions:
REMARK  status: ('A' for Active; 'I' for Inactive)
REMARK    1  A    between atoms: C2_3  and  C4_8 
REMARK    2  A    between atoms: C6_10  and  C7_11 
REMARK    3  A    between atoms: C7_11  and  C8_12 
REMARK    4  A    between atoms: C8_12  and  C9_13 
REMARK    5  A    between atoms: C9_13  and  C10_14 
REMARK    6  A    between atoms: C10_14  and  N4_15 
REMARK    7  A    between atoms: N5_19  and  C11_20 
REMARK    8  A    between atoms: C11_20  and  C12_21 
ROOT
HETATM    1  C1  UNL     1      -7.495  -8.730 -10.149  1.00  0.00     0.231 C 
HETATM    2  N1  UNL     1      -7.421  -8.003  -9.248  1.00  0.00    -0.413 NA
HETATM    3  C2  UNL     1      -7.324  -7.161  -8.170  1.00  0.00     0.185 C 
HETATM    4  N2  UNL     1      -8.302  -7.072  -7.337  1.00  0.00    -0.270 N 
ATOM      5  H2  UNL     1      -8.208  -6.438  -6.543  1.00  0.00     0.180 HD
HETATM    6  C3  UNL     1      -9.473  -7.793  -7.467  1.00  0.00     0.184 C 
HETATM    7  N3  UNL     1     -10.436  -8.411  -7.576  1.00  0.00    -0.172 NA
ENDROOT
BRANCH   3   8
HETATM    8  C4  UNL     1      -6.059  -6.364  -7.999  1.00  0.00     0.162 C 
HETATM    9  C5  UNL     1      -5.560  -6.618  -6.623  1.00  0.00     0.058 C 
HETATM   10  C6  UNL     1      -4.343  -5.747  -6.246  1.00  0.00     0.087 C 
HETATM   11  N5  UNL     1      -3.144  -6.527  -6.653  1.00  0.00    -0.279 NA
HETATM   12  C13 UNL     1      -3.042  -6.404  -8.103  1.00  0.00     0.115 C 
HETATM   13  C14 UNL     1      -3.975  -7.323  -8.813  1.00  0.00     0.129 C 
HETATM   14  N7  UNL     1      -5.219  -6.698  -9.085  1.00  0.00    -0.408 N 
ATOM     15  H7  UNL     1      -5.501  -6.494 -10.044  1.00  0.00     0.154 HD
BRANCH  10  16
HETATM   16  C7  UNL     1      -4.297  -5.524  -4.807  1.00  0.00    -0.011 C 
BRANCH  16  17
HETATM   17  C8  UNL     1      -3.959  -4.229  -4.206  1.00  0.00    -0.027 C 
BRANCH  17  18
HETATM   18  C9  UNL     1      -2.746  -4.029  -3.413  1.00  0.00     0.054 C 
BRANCH  18  19
HETATM   19  C10 UNL     1      -1.907  -2.856  -3.807  1.00  0.00     0.233 C 
BRANCH  19  20
HETATM   20  N4  UNL     1      -2.006  -2.792  -5.305  1.00  0.00    -0.079 N 
ATOM     21  H43 UNL     1      -2.927  -2.514  -5.647  1.00  0.00     0.274 HD
ATOM     22  H42 UNL     1      -1.488  -2.017  -5.720  1.00  0.00     0.274 HD
ATOM     23  H41 UNL     1      -1.704  -3.710  -5.630  1.00  0.00     0.274 HD
ENDBRANCH  19  20
ENDBRANCH  18  19
ENDBRANCH  17  18
ENDBRANCH  16  17
ENDBRANCH  10  16
BRANCH  11  24
HETATM   24  C11 UNL     1      -1.978  -6.254  -5.929  1.00  0.00     0.131 C 
BRANCH  24  25
HETATM   25  C12 UNL     1      -1.627  -7.317  -4.958  1.00  0.00     0.265 C 
HETATM   26  N6  UNL     1      -2.479  -8.430  -4.717  1.00  0.00    -0.057 NA
HETATM   27  O1  UNL     1      -0.563  -7.254  -4.323  1.00  0.00    -0.271 OA
ENDBRANCH  24  25
ENDBRANCH  11  24
ENDBRANCH   3   8
TORSDOF 8
ENDMDL
MODEL 4
REMARK VINA RESULT: -6.408679737      2.325      5.860
REMARK  8 active torsions:
REMARK  status: ('A' for Active; 'I' for Inactive)
REMARK    1  A    between atoms: C2_3  and  C4_8 
REMARK    2  A    between atoms: C6_10  and  C7_11 
REMARK    3  A    between atoms: C7_11  and  C8_12 
REMARK    4  A    between atoms: C8_12  and  C9_13 
REMARK    5  A    between atoms: C9_13  and  C10_14 
REMARK    6  A    between atoms: C10_14  and  N4_15 
REMARK    7  A    between atoms: N5_19  and  C11_20 
REMARK    8  A    between atoms: C11_20  and  C12_21 
ROOT
HETATM    1  C1  UNL     1      -4.017  -5.582  -8.691  1.00  0.00     0.231 C 
HETATM    2  N1  UNL     1      -4.618  -5.985  -7.784  1.00  0.00    -0.413 NA
HETATM    3  C2  UNL     1      -5.320  -6.483  -6.716  1.00  0.00     0.185 C 
HETATM    4  N2  UNL     1      -6.526  -6.902  -6.882  1.00  0.00    -0.270 N 
ATOM      5  H2  UNL     1      -7.029  -7.267  -6.072  1.00  0.00     0.180 HD
HETATM    6  C3  UNL     1      -7.172  -6.880  -8.103  1.00  0.00     0.184 C 
HETATM    7  N3  UNL     1      -7.693  -6.873  -9.127  1.00  0.00    -0.172 NA
ENDROOT
BRANCH   3   8
HETATM    8  C4  UNL     1      -4.641  -6.522  -5.373  1.00  0.00     0.162 C 
HETATM    9  C5  UNL     1      -3.359  -7.251  -5.548  1.00  0.00     0.058 C 
HETATM   10  C6  UNL     1      -2.616  -7.505  -4.220  1.00  0.00     0.087 C 
HETATM   11  N5  UNL     1      -1.733  -6.326  -4.016  1.00  0.00    -0.279 NA
HETATM   12  C13 UNL     1      -2.593  -5.237  -3.565  1.00  0.00     0.115 C 
HETATM   13  C14 UNL     1      -3.323  -4.592  -4.692  1.00  0.00     0.129 C 
HETATM   14  N7  UNL     1      -4.592  -5.191  -4.904  1.00  0.00    -0.408 N 
ATOM     15  H7  UNL     1      -5.450  -4.671  -4.721  1.00  0.00     0.154 HD
BRANCH  10  16
HETATM   16  C7  UNL     1      -1.792  -8.703  -4.312  1.00  0.00    -0.011 C 
BRANCH  16  17
HETATM   17  C8  UNL     1      -2.165  -9.984  -3.703  1.00  0.00    -0.027 C 
BRANCH  17  18
HETATM   18  C9  UNL     1      -2.070 -11.251  -4.426  1.00  0.00     0.054 C 
BRANCH  18  19
HETATM   19  C10 UNL     1      -0.693 -11.642  -4.858  1.00  0.00     0.233 C 
BRANCH  19  20
HETATM   20  N4  UNL     1       0.097 -11.761  -3.586  1.00  0.00    -0.079 N 
ATOM     21  H43 UNL     1       0.097 -10.912  -3.019  1.00  0.00     0.274 HD
ATOM     22  H42 UNL     1      -0.333 -12.368  -2.888  1.00  0.00     0.274 HD
ATOM     23  H41 UNL     1       1.026 -12.062  -3.878  1.00  0.00     0.274 HD
ENDBRANCH  19  20
ENDBRANCH  18  19
ENDBRANCH  17  18
ENDBRANCH  16  17
ENDBRANCH  10  16
BRANCH  11  24
HETATM   24  C11 UNL     1      -0.586  -6.562  -3.250  1.00  0.00     0.131 C 
BRANCH  24  25
HETATM   25  C12 UNL     1      -0.060  -5.344  -2.590  1.00  0.00     0.265 C 
HETATM   26  N6  UNL     1      -0.011  -5.212  -1.175  1.00  0.00    -0.057 NA
HETATM   27  O1  UNL     1       0.355  -4.395  -3.274  1.00  0.00    -0.271 OA
ENDBRANCH  24  25
ENDBRANCH  11  24
ENDBRANCH   3   8
TORSDOF 8
ENDMDL
MODEL 5
REMARK VINA RESULT: -6.400463074      1.970      5.832
REMARK  8 active torsions:
REMARK  status: ('A' for Active; 'I' for Inactive)
REMARK    1  A    between atoms: C2_3  and  C4_8 
REMARK    2  A    between atoms: C6_10  and  C7_11 
REMARK    3  A    between atoms: C7_11  and  C8_12 
REMARK    4  A    between atoms: C8_12  and  C9_13 
REMARK    5  A    between atoms: C9_13  and  C10_14 
REMARK    6  A    between atoms: C10_14  and  N4_15 
REMARK    7  A    between atoms: N5_19  and  C11_20 
REMARK    8  A    between atoms: C11_20  and  C12_21 
ROOT
HETATM    1  C1  UNL     1      -4.045  -5.648  -8.777  1.00  0.00     0.231 C 
HETATM    2  N1  UNL     1      -4.639  -6.010  -7.849  1.00  0.00    -0.413 NA
HETATM    3  C2  UNL     1      -5.334  -6.460  -6.756  1.00  0.00     0.185 C 
HETATM    4  N2  UNL     1      -6.547  -6.870  -6.891  1.00  0.00    -0.270 N 
ATOM      5  H2  UNL     1      -7.044  -7.199  -6.063  1.00  0.00     0.180 HD
HETATM    6  C3  UNL     1      -7.207  -6.884  -8.105  1.00  0.00     0.184 C 
HETATM    7  N3  UNL     1      -7.741  -6.908  -9.122  1.00  0.00    -0.172 NA
ENDROOT
BRANCH   3   8
HETATM    8  C4  UNL     1      -4.639  -6.460  -5.420  1.00  0.00     0.162 C 
HETATM    9  C5  UNL     1      -3.425  -7.306  -5.554  1.00  0.00     0.058 C 
HETATM   10  C6  UNL     1      -2.685  -7.525  -4.218  1.00  0.00     0.087 C 
HETATM   11  N5  UNL     1      -1.703  -6.413  -4.111  1.00  0.00    -0.279 NA
HETATM   12  C13 UNL     1      -2.461  -5.225  -3.732  1.00  0.00     0.115 C 
HETATM   13  C14 UNL     1      -3.152  -4.604  -4.896  1.00  0.00     0.129 C 
HETATM   14  N7  UNL     1      -4.470  -5.106  -5.051  1.00  0.00    -0.408 N 
ATOM     15  H7  UNL     1      -5.279  -4.504  -4.899  1.00  0.00     0.154 HD
BRANCH  10  16
HETATM   16  C7  UNL     1      -1.966  -8.792  -4.230  1.00  0.00    -0.011 C 
BRANCH  16  17
HETATM   17  C8  UNL     1      -2.265  -9.893  -3.310  1.00  0.00    -0.027 C 
BRANCH  17  18
HETATM   18  C9  UNL     1      -2.998  -9.691  -2.061  1.00  0.00     0.054 C 
BRANCH  18  19
HETATM   19  C10 UNL     1      -2.197  -9.133  -0.929  1.00  0.00     0.233 C 
BRANCH  19  20
HETATM   20  N4  UNL     1      -2.800  -7.787  -0.649  1.00  0.00    -0.079 N 
ATOM     21  H43 UNL     1      -2.125  -7.022  -0.655  1.00  0.00     0.274 HD
ATOM     22  H42 UNL     1      -3.387  -7.432  -1.404  1.00  0.00     0.274 HD
ATOM     23  H41 UNL     1      -3.292  -7.896   0.238  1.00  0.00     0.274 HD
ENDBRANCH  19  20
ENDBRANCH  18  19
ENDBRANCH  17  18
ENDBRANCH  16  17
ENDBRANCH  10  16
BRANCH  11  24
HETATM   24  C11 UNL     1      -0.567  -6.689  -3.341  1.00  0.00     0.131 C 
BRANCH  24  25
HETATM   25  C12 UNL     1      -0.217  -5.600  -2.400  1.00  0.00     0.265 C 
HETATM   26  N6  UNL     1      -0.504  -5.682  -1.009  1.00  0.00    -0.057 NA
HETATM   27  O1  UNL     1       0.344  -4.573  -2.815  1.00  0.00    -0.271 OA
ENDBRANCH  24  25
ENDBRANCH  11  24
ENDBRANCH   3   8
TORSDOF 8
ENDMDL
