MODEL 1
REMARK VINA RESULT: -9.417772354      0.000      0.000
REMARK  13 active torsions:
REMARK  status: ('A' for Active; 'I' for Inactive)
REMARK    1  A    between atoms: O1_2  and  C2_3 
REMARK    2  A    between atoms: C2_3  and  C3_4 
REMARK    3  A    between atoms: C3_4  and  N1_5 
REMARK       I    between atoms: N1_5  and  C4_7 
REMARK    4  A    between atoms: C4_7  and  C5_9 
REMARK    5  A    between atoms: C5_9  and  C6_10 
REMARK    6  A    between atoms: C6_10  and  C7_11 
REMARK    7  A    between atoms: C12_18  and  O3_19 
REMARK    8  A    between atoms: C13_21  and  C14_22 
REMARK    9  A    between atoms: C14_22  and  C15_23 
REMARK   10  A    between atoms: C19_34  and  C20_35 
REMARK   11  A    between atoms: C20_35  and  C21_36 
REMARK   12  A    between atoms: C21_36  and  C22_37 
REMARK   13  A    between atoms: C22_37  and  N6_38 
ROOT
HETATM    1  C7  UNL     1       3.313 -16.140 -22.074  1.00  0.00     0.077 C 
HETATM    2  C8  UNL     1       3.581 -16.808 -20.712  1.00  0.00     0.025 C 
HETATM    3  C9  UNL     1       3.838 -15.723 -19.677  1.00  0.00     0.004 C 
HETATM    4  C10 UNL     1       5.069 -16.027 -18.852  1.00  0.00     0.020 C 
HETATM    5  C11 UNL     1       6.132 -14.965 -19.032  1.00  0.00     0.121 C 
HETATM    6  N2  UNL     1       7.441 -15.518 -19.275  1.00  0.00    -0.369 N 
ATOM      7  H2  UNL     1       8.023 -15.621 -18.443  1.00  0.00     0.161 HD
HETATM    8  C12 UNL     1       8.037 -15.932 -20.454  1.00  0.00     0.159 C 
HETATM    9  C13 UNL     1       8.229 -15.255 -21.747  1.00  0.00     0.068 C 
HETATM   10  N5  UNL     1       7.595 -15.941 -22.866  1.00  0.00    -0.325 N 
ATOM     11  H5  UNL     1       8.222 -16.353 -23.557  1.00  0.00     0.169 HD
HETATM   12  C18 UNL     1       6.221 -16.098 -23.100  1.00  0.00     0.244 C 
HETATM   13  O4  UNL     1       5.790 -17.302 -23.229  1.00  0.00    -0.271 OA
HETATM   14  C19 UNL     1       5.183 -15.057 -23.223  1.00  0.00     0.170 C 
HETATM   15  N9  UNL     1       4.180 -15.060 -22.225  1.00  0.00    -0.405 N 
ATOM     16  H9  UNL     1       4.090 -14.256 -21.604  1.00  0.00     0.154 HD
ENDROOT
BRANCH   1  17
HETATM   17  C6  UNL     1       1.844 -15.773 -21.994  1.00  0.00     0.034 C 
BRANCH  17  18
HETATM   18  C5  UNL     1       1.024 -16.162 -23.163  1.00  0.00     0.105 C 
BRANCH  18  19
HETATM   19  C4  UNL     1       0.053 -17.208 -22.686  1.00  0.00     0.217 C 
HETATM   20  N1  UNL     1      -0.884 -17.710 -23.610  1.00  0.00    -0.359 N 
ATOM     21  H1  UNL     1      -0.874 -17.344 -24.563  1.00  0.00     0.162 HD
HETATM   22  O2  UNL     1       0.065 -17.627 -21.512  1.00  0.00    -0.274 OA
BRANCH  20  23
HETATM   23  C3  UNL     1      -1.857 -18.720 -23.269  1.00  0.00     0.148 C 
BRANCH  23  24
HETATM   24  C2  UNL     1      -3.236 -18.249 -23.607  1.00  0.00     0.186 C 
BRANCH  24  25
HETATM   25  O1  UNL     1      -4.031 -19.314 -23.967  1.00  0.00    -0.394 OA
HETATM   26  C1  UNL     1      -4.186 -20.295 -23.018  1.00  0.00     0.201 C 
ENDBRANCH  24  25
ENDBRANCH  23  24
ENDBRANCH  20  23
ENDBRANCH  18  19
ENDBRANCH  17  18
ENDBRANCH   1  17
BRANCH  14  27
HETATM   27  C20 UNL     1       4.585 -15.132 -24.647  1.00  0.00     0.036 C 
BRANCH  27  28
HETATM   28  C21 UNL     1       3.851 -13.826 -24.867  1.00  0.00     0.022 C 
BRANCH  28  29
HETATM   29  C22 UNL     1       3.366 -13.689 -26.286  1.00  0.00     0.122 C 
BRANCH  29  30
HETATM   30  N6  UNL     1       4.278 -12.966 -27.130  1.00  0.00    -0.367 N 
HETATM   31  C23 UNL     1       4.834 -13.472 -28.160  1.00  0.00     0.196 C 
HETATM   32  N7  UNL     1       4.567 -14.815 -28.529  1.00  0.00    -0.067 NA
HETATM   33  N8  UNL     1       5.722 -12.702 -28.946  1.00  0.00    -0.067 NA
ATOM     34  H6  UNL     1       4.491 -11.997 -26.893  1.00  0.00     0.161 HD
ENDBRANCH  29  30
ENDBRANCH  28  29
ENDBRANCH  27  28
ENDBRANCH  14  27
BRANCH   9  35
HETATM   35  C14 UNL     1       8.141 -13.779 -21.789  1.00  0.00     0.120 C 
BRANCH  35  36
HETATM   36  C15 UNL     1       8.839 -13.229 -22.979  1.00  0.00     0.031 A 
HETATM   37  C16 UNL     1      10.107 -13.365 -23.451  1.00  0.00     0.114 A 
HETATM   38  N3  UNL     1      10.219 -12.674 -24.582  1.00  0.00    -0.360 N 
HETATM   39  C17 UNL     1       9.029 -12.101 -24.829  1.00  0.00     0.180 A 
ATOM     40  H3  UNL     1      11.056 -12.593 -25.158  1.00  0.00     0.166 HD
HETATM   41  N4  UNL     1       8.181 -12.433 -23.858  1.00  0.00    -0.354 N 
ATOM     42  H4  UNL     1       7.207 -12.140 -23.788  1.00  0.00     0.166 HD
ENDBRANCH  35  36
ENDBRANCH   9  35
BRANCH   8  43
HETATM   43  O3  UNL     1       8.529 -17.137 -20.452  1.00  0.00    -0.345 OA
ATOM     44  H3  UNL     1       8.994 -17.398 -21.238  1.00  0.00     0.219 HD
ENDBRANCH   8  43
TORSDOF 13
ENDMDL
MODEL 2
REMARK VINA RESULT: -9.300549775      3.859      5.945
REMARK  13 active torsions:
REMARK  status: ('A' for Active; 'I' for Inactive)
REMARK    1  A    between atoms: O1_2  and  C2_3 
REMARK    2  A    between atoms: C2_3  and  C3_4 
REMARK    3  A    between atoms: C3_4  and  N1_5 
REMARK       I    between atoms: N1_5  and  C4_7 
REMARK    4  A    between atoms: C4_7  and  C5_9 
REMARK    5  A    between atoms: C5_9  and  C6_10 
REMARK    6  A    between atoms: C6_10  and  C7_11 
REMARK    7  A    between atoms: C12_18  and  O3_19 
REMARK    8  A    between atoms: C13_21  and  C14_22 
REMARK    9  A    between atoms: C14_22  and  C15_23 
REMARK   10  A    between atoms: C19_34  and  C20_35 
REMARK   11  A    between atoms: C20_35  and  C21_36 
REMARK   12  A    between atoms: C21_36  and  C22_37 
REMARK   13  A    between atoms: C22_37  and  N6_38 
ROOT
HETATM    1  C7  UNL     1       5.766 -15.171 -23.573  1.00  0.00     0.077 C 
HETATM    2  C8  UNL     1       7.084 -15.261 -22.779  1.00  0.00     0.025 C 
HETATM    3  C9  UNL     1       7.144 -14.102 -21.796  1.00  0.00     0.004 C 
HETATM    4  C10 UNL     1       8.482 -13.399 -21.850  1.00  0.00     0.020 C 
HETATM    5  C11 UNL     1       8.333 -11.956 -22.282  1.00  0.00     0.121 C 
HETATM    6  N2  UNL     1       9.272 -11.578 -23.308  1.00  0.00    -0.369 N 
ATOM      7  H2  UNL     1      10.126 -11.138 -22.964  1.00  0.00     0.161 HD
HETATM    8  C12 UNL     1       9.204 -11.715 -24.684  1.00  0.00     0.159 C 
HETATM    9  C13 UNL     1       8.178 -11.312 -25.661  1.00  0.00     0.068 C 
HETATM   10  N5  UNL     1       7.616 -12.428 -26.411  1.00  0.00    -0.325 N 
ATOM     11  H5  UNL     1       7.836 -12.458 -27.407  1.00  0.00     0.169 HD
HETATM   12  C18 UNL     1       6.808 -13.464 -25.921  1.00  0.00     0.244 C 
HETATM   13  O4  UNL     1       7.227 -14.664 -26.108  1.00  0.00    -0.271 OA
HETATM   14  C19 UNL     1       5.520 -13.367 -25.209  1.00  0.00     0.170 C 
HETATM   15  N9  UNL     1       5.512 -13.834 -23.874  1.00  0.00    -0.405 N 
ATOM     16  H9  UNL     1       5.317 -13.179 -23.116  1.00  0.00     0.154 HD
ENDROOT
BRANCH   1  17
HETATM   17  C6  UNL     1       4.760 -15.818 -22.643  1.00  0.00     0.034 C 
BRANCH  17  18
HETATM   18  C5  UNL     1       4.466 -17.243 -22.912  1.00  0.00     0.105 C 
BRANCH  18  19
HETATM   19  C4  UNL     1       5.437 -18.052 -22.096  1.00  0.00     0.217 C 
HETATM   20  N1  UNL     1       6.568 -18.581 -22.749  1.00  0.00    -0.359 N 
ATOM     21  H1  UNL     1       6.684 -18.403 -23.746  1.00  0.00     0.162 HD
HETATM   22  O2  UNL     1       5.261 -18.256 -20.880  1.00  0.00    -0.274 OA
BRANCH  20  23
HETATM   23  C3  UNL     1       7.571 -19.364 -22.067  1.00  0.00     0.148 C 
BRANCH  23  24
HETATM   24  C2  UNL     1       8.881 -18.644 -22.067  1.00  0.00     0.186 C 
BRANCH  24  25
HETATM   25  O1  UNL     1       8.973 -17.819 -20.967  1.00  0.00    -0.394 OA
HETATM   26  C1  UNL     1       8.685 -18.400 -19.755  1.00  0.00     0.201 C 
ENDBRANCH  24  25
ENDBRANCH  23  24
ENDBRANCH  20  23
ENDBRANCH  18  19
ENDBRANCH  17  18
ENDBRANCH   1  17
BRANCH  14  27
HETATM   27  C20 UNL     1       4.435 -14.056 -26.070  1.00  0.00     0.036 C 
BRANCH  27  28
HETATM   28  C21 UNL     1       3.393 -12.996 -26.365  1.00  0.00     0.022 C 
BRANCH  28  29
HETATM   29  C22 UNL     1       3.462 -12.528 -27.795  1.00  0.00     0.122 C 
BRANCH  29  30
HETATM   30  N6  UNL     1       4.338 -11.404 -27.982  1.00  0.00    -0.367 N 
HETATM   31  C23 UNL     1       5.437 -11.469 -28.625  1.00  0.00     0.196 C 
HETATM   32  N7  UNL     1       5.855 -12.694 -29.202  1.00  0.00    -0.067 NA
HETATM   33  N8  UNL     1       6.252 -10.322 -28.771  1.00  0.00    -0.067 NA
ATOM     34  H6  UNL     1       4.067 -10.507 -27.579  1.00  0.00     0.161 HD
ENDBRANCH  29  30
ENDBRANCH  28  29
ENDBRANCH  27  28
ENDBRANCH  14  27
BRANCH   9  35
HETATM   35  C14 UNL     1       7.205 -10.269 -25.270  1.00  0.00     0.120 C 
BRANCH  35  36
HETATM   36  C15 UNL     1       7.687  -8.915 -25.641  1.00  0.00     0.031 A 
HETATM   37  C16 UNL     1       7.103  -7.872 -26.290  1.00  0.00     0.114 A 
HETATM   38  N3  UNL     1       7.971  -6.864 -26.347  1.00  0.00    -0.360 N 
HETATM   39  C17 UNL     1       9.100  -7.264 -25.739  1.00  0.00     0.180 A 
ATOM     40  H3  UNL     1       7.808  -5.954 -26.775  1.00  0.00     0.166 HD
HETATM   41  N4  UNL     1       8.938  -8.512 -25.305  1.00  0.00    -0.354 N 
ATOM     42  H4  UNL     1       9.633  -9.068 -24.808  1.00  0.00     0.166 HD
ENDBRANCH  35  36
ENDBRANCH   9  35
BRANCH   8  43
HETATM   43  O3  UNL     1      10.218 -12.304 -25.250  1.00  0.00    -0.345 OA
ATOM     44  H3  UNL     1      10.048 -13.164 -25.617  1.00  0.00     0.219 HD
ENDBRANCH   8  43
TORSDOF 13
ENDMDL
MODEL 3
REMARK VINA RESULT: -9.137281154      2.293      2.997
REMARK  13 active torsions:
REMARK  status: ('A' for Active; 'I' for Inactive)
REMARK    1  A    between atoms: O1_2  and  C2_3 
REMARK    2  A    between atoms: C2_3  and  C3_4 
REMARK    3  A    between atoms: C3_4  and  N1_5 
REMARK       I    between atoms: N1_5  and  C4_7 
REMARK    4  A    between atoms: C4_7  and  C5_9 
REMARK    5  A    between atoms: C5_9  and  C6_10 
REMARK    6  A    between atoms: C6_10  and  C7_11 
REMARK    7  A    between atoms: C12_18  and  O3_19 
REMARK    8  A    between atoms: C13_21  and  C14_22 
REMARK    9  A    between atoms: C14_22  and  C15_23 
REMARK   10  A    between atoms: C19_34  and  C20_35 
REMARK   11  A    between atoms: C20_35  and  C21_36 
REMARK   12  A    between atoms: C21_36  and  C22_37 
REMARK   13  A    between atoms: C22_37  and  N6_38 
ROOT
HETATM    1  C7  UNL     1       4.866 -16.118 -20.770  1.00  0.00     0.077 C 
HETATM    2  C8  UNL     1       5.391 -17.547 -20.532  1.00  0.00     0.025 C 
HETATM    3  C9  UNL     1       6.523 -17.491 -19.517  1.00  0.00     0.004 C 
HETATM    4  C10 UNL     1       7.723 -18.286 -19.982  1.00  0.00     0.020 C 
HETATM    5  C11 UNL     1       8.937 -17.402 -20.164  1.00  0.00     0.121 C 
HETATM    6  N2  UNL     1       9.616 -17.633 -21.415  1.00  0.00    -0.369 N 
ATOM      7  H2  UNL     1      10.396 -18.288 -21.363  1.00  0.00     0.161 HD
HETATM    8  C12 UNL     1       9.381 -17.110 -22.675  1.00  0.00     0.159 C 
HETATM    9  C13 UNL     1       9.251 -15.723 -23.154  1.00  0.00     0.068 C 
HETATM   10  N5  UNL     1       7.959 -15.435 -23.765  1.00  0.00    -0.325 N 
ATOM     11  H5  UNL     1       7.966 -15.251 -24.768  1.00  0.00     0.169 HD
HETATM   12  C18 UNL     1       6.710 -15.381 -23.130  1.00  0.00     0.244 C 
HETATM   13  O4  UNL     1       5.792 -16.153 -23.591  1.00  0.00    -0.271 OA
HETATM   14  C19 UNL     1       6.293 -14.546 -21.988  1.00  0.00     0.170 C 
HETATM   15  N9  UNL     1       5.948 -15.240 -20.804  1.00  0.00    -0.405 N 
ATOM     16  H9  UNL     1       6.502 -15.096 -19.960  1.00  0.00     0.154 HD
ENDROOT
BRANCH   1  17
HETATM   17  C6  UNL     1       3.910 -15.907 -19.613  1.00  0.00     0.034 C 
BRANCH  17  18
HETATM   18  C5  UNL     1       3.176 -14.622 -19.618  1.00  0.00     0.105 C 
BRANCH  18  19
HETATM   19  C4  UNL     1       2.268 -14.642 -20.817  1.00  0.00     0.217 C 
HETATM   20  N1  UNL     1       1.782 -15.889 -21.258  1.00  0.00    -0.359 N 
ATOM     21  H1  UNL     1       2.067 -16.729 -20.754  1.00  0.00     0.162 HD
HETATM   22  O2  UNL     1       1.945 -13.596 -21.413  1.00  0.00    -0.274 OA
BRANCH  20  23
HETATM   23  C3  UNL     1       0.899 -16.030 -22.390  1.00  0.00     0.148 C 
BRANCH  23  24
HETATM   24  C2  UNL     1       0.058 -17.258 -22.243  1.00  0.00     0.186 C 
BRANCH  24  25
HETATM   25  O1  UNL     1      -1.196 -17.045 -22.772  1.00  0.00    -0.394 OA
HETATM   26  C1  UNL     1      -1.616 -15.737 -22.814  1.00  0.00     0.201 C 
ENDBRANCH  24  25
ENDBRANCH  23  24
ENDBRANCH  20  23
ENDBRANCH  18  19
ENDBRANCH  17  18
ENDBRANCH   1  17
BRANCH  14  27
HETATM   27  C20 UNL     1       5.159 -13.606 -22.460  1.00  0.00     0.036 C 
BRANCH  27  28
HETATM   28  C21 UNL     1       5.838 -12.411 -23.097  1.00  0.00     0.022 C 
BRANCH  28  29
HETATM   29  C22 UNL     1       5.518 -12.304 -24.565  1.00  0.00     0.122 C 
BRANCH  29  30
HETATM   30  N6  UNL     1       6.686 -12.319 -25.402  1.00  0.00    -0.367 N 
HETATM   31  C23 UNL     1       6.939 -13.246 -26.240  1.00  0.00     0.196 C 
HETATM   32  N7  UNL     1       6.048 -14.339 -26.386  1.00  0.00    -0.067 NA
HETATM   33  N8  UNL     1       8.109 -13.196 -27.033  1.00  0.00    -0.067 NA
ATOM     34  H6  UNL     1       7.348 -11.547 -25.322  1.00  0.00     0.161 HD
ENDBRANCH  29  30
ENDBRANCH  28  29
ENDBRANCH  27  28
ENDBRANCH  14  27
BRANCH   9  35
HETATM   35  C14 UNL     1       9.804 -14.635 -22.318  1.00  0.00     0.120 C 
BRANCH  35  36
HETATM   36  C15 UNL     1       9.802 -13.341 -23.046  1.00  0.00     0.031 A 
HETATM   37  C16 UNL     1       9.461 -12.076 -22.681  1.00  0.00     0.114 A 
HETATM   38  N3  UNL     1       9.664 -11.264 -23.715  1.00  0.00    -0.360 N 
HETATM   39  C17 UNL     1      10.132 -12.007 -24.732  1.00  0.00     0.180 A 
ATOM     40  H3  UNL     1       9.496 -10.258 -23.733  1.00  0.00     0.166 HD
HETATM   41  N4  UNL     1      10.219 -13.275 -24.335  1.00  0.00    -0.354 N 
ATOM     42  H4  UNL     1      10.542 -14.058 -24.902  1.00  0.00     0.166 HD
ENDBRANCH  35  36
ENDBRANCH   9  35
BRANCH   8  43
HETATM   43  O3  UNL     1       9.245 -17.977 -23.636  1.00  0.00    -0.345 OA
ATOM     44  H3  UNL     1       8.408 -18.425 -23.678  1.00  0.00     0.219 HD
ENDBRANCH   8  43
TORSDOF 13
ENDMDL
MODEL 4
REMARK VINA RESULT: -8.963251844      2.478      4.330
REMARK  13 active torsions:
REMARK  status: ('A' for Active; 'I' for Inactive)
REMARK    1  A    between atoms: O1_2  and  C2_3 
REMARK    2  A    between atoms: C2_3  and  C3_4 
REMARK    3  A    between atoms: C3_4  and  N1_5 
REMARK       I    between atoms: N1_5  and  C4_7 
REMARK    4  A    between atoms: C4_7  and  C5_9 
REMARK    5  A    between atoms: C5_9  and  C6_10 
REMARK    6  A    between atoms: C6_10  and  C7_11 
REMARK    7  A    between atoms: C12_18  and  O3_19 
REMARK    8  A    between atoms: C13_21  and  C14_22 
REMARK    9  A    between atoms: C14_22  and  C15_23 
REMARK   10  A    between atoms: C19_34  and  C20_35 
REMARK   11  A    between atoms: C20_35  and  C21_36 
REMARK   12  A    between atoms: C21_36  and  C22_37 
REMARK   13  A    between atoms: C22_37  and  N6_38 
ROOT
HETATM    1  C7  UNL     1       5.955 -15.386 -23.486  1.00  0.00     0.077 C 
HETATM    2  C8  UNL     1       7.392 -15.405 -22.932  1.00  0.00     0.025 C 
HETATM    3  C9  UNL     1       7.538 -14.288 -21.909  1.00  0.00     0.004 C 
HETATM    4  C10 UNL     1       8.792 -13.479 -22.148  1.00  0.00     0.020 C 
HETATM    5  C11 UNL     1       8.469 -12.036 -22.467  1.00  0.00     0.121 C 
HETATM    6  N2  UNL     1       9.189 -11.540 -23.614  1.00  0.00    -0.369 N 
ATOM      7  H2  UNL     1      10.055 -11.048 -23.394  1.00  0.00     0.161 HD
HETATM    8  C12 UNL     1       8.894 -11.623 -24.964  1.00  0.00     0.159 C 
HETATM    9  C13 UNL     1       7.690 -11.261 -25.730  1.00  0.00     0.068 C 
HETATM   10  N5  UNL     1       7.088 -12.385 -26.437  1.00  0.00    -0.325 N 
ATOM     11  H5  UNL     1       7.136 -12.355 -27.456  1.00  0.00     0.169 HD
HETATM   12  C18 UNL     1       6.452 -13.502 -25.877  1.00  0.00     0.244 C 
HETATM   13  O4  UNL     1       6.918 -14.656 -26.199  1.00  0.00    -0.271 OA
HETATM   14  C19 UNL     1       5.302 -13.539 -24.954  1.00  0.00     0.170 C 
HETATM   15  N9  UNL     1       5.558 -14.063 -23.664  1.00  0.00    -0.405 N 
ATOM     16  H9  UNL     1       5.449 -13.459 -22.849  1.00  0.00     0.154 HD
ENDROOT
BRANCH   1  17
HETATM   17  C6  UNL     1       5.172 -16.152 -22.438  1.00  0.00     0.034 C 
BRANCH  17  18
HETATM   18  C5  UNL     1       4.257 -17.192 -22.957  1.00  0.00     0.105 C 
BRANCH  18  19
HETATM   19  C4  UNL     1       2.897 -16.904 -22.382  1.00  0.00     0.217 C 
HETATM   20  N1  UNL     1       1.859 -16.572 -23.275  1.00  0.00    -0.359 N 
ATOM     21  H1  UNL     1       2.067 -16.534 -24.273  1.00  0.00     0.162 HD
HETATM   22  O2  UNL     1       2.679 -16.953 -21.156  1.00  0.00    -0.274 OA
BRANCH  20  23
HETATM   23  C3  UNL     1       0.513 -16.284 -22.840  1.00  0.00     0.148 C 
BRANCH  23  24
HETATM   24  C2  UNL     1      -0.323 -17.523 -22.882  1.00  0.00     0.186 C 
BRANCH  24  25
HETATM   25  O1  UNL     1      -0.970 -17.705 -21.679  1.00  0.00    -0.394 OA
HETATM   26  C1  UNL     1      -2.288 -18.085 -21.758  1.00  0.00     0.201 C 
ENDBRANCH  24  25
ENDBRANCH  23  24
ENDBRANCH  20  23
ENDBRANCH  18  19
ENDBRANCH  17  18
ENDBRANCH   1  17
BRANCH  14  27
HETATM   27  C20 UNL     1       4.138 -14.275 -25.657  1.00  0.00     0.036 C 
BRANCH  27  28
HETATM   28  C21 UNL     1       3.175 -13.200 -26.118  1.00  0.00     0.022 C 
BRANCH  28  29
HETATM   29  C22 UNL     1       3.046 -13.172 -27.619  1.00  0.00     0.122 C 
BRANCH  29  30
HETATM   30  N6  UNL     1       4.212 -12.650 -28.278  1.00  0.00    -0.367 N 
HETATM   31  C23 UNL     1       4.883 -13.304 -29.143  1.00  0.00     0.196 C 
HETATM   32  N7  UNL     1       4.493 -14.619 -29.502  1.00  0.00    -0.067 NA
HETATM   33  N8  UNL     1       6.020 -12.727 -29.754  1.00  0.00    -0.067 NA
ATOM     34  H6  UNL     1       4.519 -11.706 -28.042  1.00  0.00     0.161 HD
ENDBRANCH  29  30
ENDBRANCH  28  29
ENDBRANCH  27  28
ENDBRANCH  14  27
BRANCH   9  35
HETATM   35  C14 UNL     1       6.726 -10.317 -25.123  1.00  0.00     0.120 C 
BRANCH  35  36
HETATM   36  C15 UNL     1       5.690  -9.900 -26.101  1.00  0.00     0.031 A 
HETATM   37  C16 UNL     1       4.335  -9.807 -26.029  1.00  0.00     0.114 A 
HETATM   38  N3  UNL     1       3.875  -9.355 -27.192  1.00  0.00    -0.360 N 
HETATM   39  C17 UNL     1       4.930  -9.162 -28.001  1.00  0.00     0.180 A 
ATOM     40  H3  UNL     1       2.897  -9.186 -27.428  1.00  0.00     0.166 HD
HETATM   41  N4  UNL     1       6.041  -9.492 -27.346  1.00  0.00    -0.354 N 
ATOM     42  H4  UNL     1       6.990  -9.445 -27.716  1.00  0.00     0.166 HD
ENDBRANCH  35  36
ENDBRANCH   9  35
BRANCH   8  43
HETATM   43  O3  UNL     1       9.835 -12.104 -25.724  1.00  0.00    -0.345 OA
ATOM     44  H3  UNL     1      10.000 -13.036 -25.644  1.00  0.00     0.219 HD
ENDBRANCH   8  43
TORSDOF 13
ENDMDL
MODEL 5
REMARK VINA RESULT: -8.936584742      2.841      4.096
REMARK  13 active torsions:
REMARK  status: ('A' for Active; 'I' for Inactive)
REMARK    1  A    between atoms: O1_2  and  C2_3 
REMARK    2  A    between atoms: C2_3  and  C3_4 
REMARK    3  A    between atoms: C3_4  and  N1_5 
REMARK       I    between atoms: N1_5  and  C4_7 
REMARK    4  A    between atoms: C4_7  and  C5_9 
REMARK    5  A    between atoms: C5_9  and  C6_10 
REMARK    6  A    between atoms: C6_10  and  C7_11 
REMARK    7  A    between atoms: C12_18  and  O3_19 
REMARK    8  A    between atoms: C13_21  and  C14_22 
REMARK    9  A    between atoms: C14_22  and  C15_23 
REMARK   10  A    between atoms: C19_34  and  C20_35 
REMARK   11  A    between atoms: C20_35  and  C21_36 
REMARK   12  A    between atoms: C21_36  and  C22_37 
REMARK   13  A    between atoms: C22_37  and  N6_38 
ROOT
HETATM    1  C7  UNL     1       5.322 -14.957 -23.966  1.00  0.00     0.077 C 
HETATM    2  C8  UNL     1       6.509 -15.159 -23.006  1.00  0.00     0.025 C 
HETATM    3  C9  UNL     1       6.556 -13.991 -22.032  1.00  0.00     0.004 C 
HETATM    4  C10 UNL     1       7.952 -13.422 -21.916  1.00  0.00     0.020 C 
HETATM    5  C11 UNL     1       8.004 -11.981 -22.375  1.00  0.00     0.121 C 
HETATM    6  N2  UNL     1       9.102 -11.718 -23.271  1.00  0.00    -0.369 N 
ATOM      7  H2  UNL     1       9.943 -11.356 -22.822  1.00  0.00     0.161 HD
HETATM    8  C12 UNL     1       9.199 -11.876 -24.643  1.00  0.00     0.159 C 
HETATM    9  C13 UNL     1       8.354 -11.395 -25.749  1.00  0.00     0.068 C 
HETATM   10  N5  UNL     1       7.787 -12.466 -26.559  1.00  0.00    -0.325 N 
ATOM     11  H5  UNL     1       8.130 -12.538 -27.517  1.00  0.00     0.169 HD
HETATM   12  C18 UNL     1       6.823 -13.408 -26.171  1.00  0.00     0.244 C 
HETATM   13  O4  UNL     1       7.142 -14.647 -26.292  1.00  0.00    -0.271 OA
HETATM   14  C19 UNL     1       5.470 -13.172 -25.635  1.00  0.00     0.170 C 
HETATM   15  N9  UNL     1       5.242 -13.609 -24.308  1.00  0.00    -0.405 N 
ATOM     16  H9  UNL     1       5.016 -12.922 -23.588  1.00  0.00     0.154 HD
ENDROOT
BRANCH   1  17
HETATM   17  C6  UNL     1       4.144 -15.484 -23.171  1.00  0.00     0.034 C 
BRANCH  17  18
HETATM   18  C5  UNL     1       2.940 -15.826 -23.963  1.00  0.00     0.105 C 
BRANCH  18  19
HETATM   19  C4  UNL     1       1.981 -16.509 -23.026  1.00  0.00     0.217 C 
HETATM   20  N1  UNL     1       0.673 -16.758 -23.485  1.00  0.00    -0.359 N 
ATOM     21  H1  UNL     1       0.423 -16.463 -24.430  1.00  0.00     0.162 HD
HETATM   22  O2  UNL     1       2.319 -16.849 -21.876  1.00  0.00    -0.274 OA
BRANCH  20  23
HETATM   23  C3  UNL     1      -0.329 -17.413 -22.679  1.00  0.00     0.148 C 
BRANCH  23  24
HETATM   24  C2  UNL     1      -1.497 -17.811 -23.525  1.00  0.00     0.186 C 
BRANCH  24  25
HETATM   25  O1  UNL     1      -2.673 -17.638 -22.828  1.00  0.00    -0.394 OA
HETATM   26  C1  UNL     1      -3.054 -16.336 -22.609  1.00  0.00     0.201 C 
ENDBRANCH  24  25
ENDBRANCH  23  24
ENDBRANCH  20  23
ENDBRANCH  18  19
ENDBRANCH  17  18
ENDBRANCH   1  17
BRANCH  14  27
HETATM   27  C20 UNL     1       4.443 -13.770 -26.625  1.00  0.00     0.036 C 
BRANCH  27  28
HETATM   28  C21 UNL     1       3.336 -12.744 -26.758  1.00  0.00     0.022 C 
BRANCH  28  29
HETATM   29  C22 UNL     1       3.401 -12.020 -28.077  1.00  0.00     0.122 C 
BRANCH  29  30
HETATM   30  N6  UNL     1       3.694 -10.619 -27.941  1.00  0.00    -0.367 N 
HETATM   31  C23 UNL     1       4.836 -10.112 -28.196  1.00  0.00     0.196 C 
HETATM   32  N7  UNL     1       5.900 -10.936 -28.640  1.00  0.00    -0.067 NA
HETATM   33  N8  UNL     1       5.055  -8.723 -28.040  1.00  0.00    -0.067 NA
ATOM     34  H6  UNL     1       2.950  -9.998 -27.624  1.00  0.00     0.161 HD
ENDBRANCH  29  30
ENDBRANCH  28  29
ENDBRANCH  27  28
ENDBRANCH  14  27
BRANCH   9  35
HETATM   35  C14 UNL     1       7.447 -10.255 -25.498  1.00  0.00     0.120 C 
BRANCH  35  36
HETATM   36  C15 UNL     1       8.143  -8.957 -25.692  1.00  0.00     0.031 A 
HETATM   37  C16 UNL     1       9.438  -8.572 -25.540  1.00  0.00     0.114 A 
HETATM   38  N3  UNL     1       9.543  -7.287 -25.867  1.00  0.00    -0.360 N 
HETATM   39  C17 UNL     1       8.321  -6.857 -26.225  1.00  0.00     0.180 A 
ATOM     40  H3  UNL     1      10.396  -6.729 -25.850  1.00  0.00     0.166 HD
HETATM   41  N4  UNL     1       7.461  -7.866 -26.121  1.00  0.00    -0.354 N 
ATOM     42  H4  UNL     1       6.463  -7.827 -26.329  1.00  0.00     0.166 HD
ENDBRANCH  35  36
ENDBRANCH   9  35
BRANCH   8  43
HETATM   43  O3  UNL     1      10.215 -12.572 -25.067  1.00  0.00    -0.345 OA
ATOM     44  H3  UNL     1      10.433 -12.473 -25.986  1.00  0.00     0.219 HD
ENDBRANCH   8  43
TORSDOF 13
ENDMDL
