MODEL 1
REMARK VINA RESULT: -8.764928249      0.000      0.000
REMARK  15 active torsions:
REMARK  status: ('A' for Active; 'I' for Inactive)
REMARK    1  A    between atoms: C2_2  and  C3_3 
REMARK    2  A    between atoms: C2_2  and  C7_11 
REMARK    3  A    between atoms: C3_3  and  C4_4 
REMARK    4  A    between atoms: C4_4  and  C5_5 
REMARK    5  A    between atoms: C5_5  and  C6_6 
REMARK    6  A    between atoms: C6_6  and  N1_7 
REMARK       I    between atoms: C7_11  and  N2_13 
REMARK    7  A    between atoms: C9_15  and  S1_16 
REMARK    8  A    between atoms: S1_16  and  C10_17 
REMARK    9  A    between atoms: C12_21  and  N4_22 
REMARK       I    between atoms: N4_22  and  C13_24 
REMARK   10  A    between atoms: C13_24  and  C14_26 
REMARK   11  A    between atoms: C14_26  and  C15_27 
REMARK   12  A    between atoms: C15_27  and  C16_28 
REMARK   13  A    between atoms: C16_28  and  N5_29 
REMARK   14  A    between atoms: C19_35  and  N8_36 
REMARK   15  A    between atoms: C21_41  and  C22_42 
ROOT
HETATM    1  C10 UNL     1       2.594 -15.464 -21.908  1.00  0.00     0.095 C 
HETATM    2  C11 UNL     1       1.153 -15.111 -21.699  1.00  0.00     0.133 C 
HETATM    3  N3  UNL     1       0.228 -16.178 -21.858  1.00  0.00    -0.400 N 
ATOM      4  H3  UNL     1      -0.614 -16.237 -21.285  1.00  0.00     0.155 HD
HETATM    5  C12 UNL     1       0.516 -17.150 -22.833  1.00  0.00     0.181 C 
HETATM    6  C18 UNL     1       1.512 -16.583 -23.834  1.00  0.00     0.080 C 
HETATM    7  C19 UNL     1       2.813 -16.447 -23.029  1.00  0.00     0.202 C 
ENDROOT
BRANCH   1   8
HETATM    8  S1  UNL     1       3.356 -15.990 -20.345  1.00  0.00    -0.154 SA
BRANCH   8   9
HETATM    9  C9  UNL     1       4.775 -14.935 -20.043  1.00  0.00     0.068 C 
HETATM   10  C8  UNL     1       5.412 -14.410 -21.286  1.00  0.00     0.141 C 
HETATM   11  N2  UNL     1       6.586 -15.233 -21.519  1.00  0.00    -0.338 N 
HETATM   12  C7  UNL     1       7.507 -15.037 -22.569  1.00  0.00     0.224 C 
HETATM   13  C21 UNL     1       6.633 -16.273 -20.532  1.00  0.00     0.177 C 
HETATM   14  O1  UNL     1       7.289 -14.089 -23.388  1.00  0.00    -0.273 OA
HETATM   15  C20 UNL     1       5.922 -15.620 -19.349  1.00  0.00     0.051 C 
BRANCH  12  16
HETATM   16  C2  UNL     1       8.724 -15.843 -22.808  1.00  0.00     0.074 C 
HETATM   17  C1  UNL     1       9.452 -15.143 -23.972  1.00  0.00     0.020 C 
BRANCH  16  18
HETATM   18  C3  UNL     1       9.690 -15.826 -21.638  1.00  0.00     0.013 C 
BRANCH  18  19
HETATM   19  C4  UNL     1       9.777 -17.185 -21.043  1.00  0.00     0.002 C 
BRANCH  19  20
HETATM   20  C5  UNL     1       9.355 -18.280 -21.998  1.00  0.00     0.027 C 
BRANCH  20  21
HETATM   21  C6  UNL     1       8.922 -19.530 -21.259  1.00  0.00     0.229 C 
BRANCH  21  22
HETATM   22  N1  UNL     1       7.804 -20.104 -21.974  1.00  0.00    -0.079 N 
ATOM     23  H13 UNL     1       7.005 -19.473 -22.032  1.00  0.00     0.274 HD
ATOM     24  H12 UNL     1       7.979 -20.194 -22.975  1.00  0.00     0.274 HD
ATOM     25  H11 UNL     1       7.573 -20.994 -21.533  1.00  0.00     0.274 HD
ENDBRANCH  21  22
ENDBRANCH  20  21
ENDBRANCH  19  20
ENDBRANCH  18  19
ENDBRANCH  16  18
ENDBRANCH  12  16
BRANCH  13  26
HETATM   26  C22 UNL     1       5.961 -17.512 -20.955  1.00  0.00     0.254 C 
HETATM   27  N9  UNL     1       5.625 -18.481 -19.979  1.00  0.00    -0.060 NA
HETATM   28  O3  UNL     1       5.680 -17.734 -22.146  1.00  0.00    -0.275 OA
ENDBRANCH  13  26
ENDBRANCH   8   9
ENDBRANCH   1   8
BRANCH   7  29
HETATM   29  N8  UNL     1       3.812 -15.977 -23.969  1.00  0.00    -0.074 N 
ATOM     30  H83 UNL     1       3.429 -15.269 -24.595  1.00  0.00     0.274 HD
ATOM     31  H82 UNL     1       4.523 -15.413 -23.505  1.00  0.00     0.274 HD
ATOM     32  H81 UNL     1       4.232 -16.747 -24.491  1.00  0.00     0.274 HD
ENDBRANCH   7  29
BRANCH   5  33
HETATM   33  N4  UNL     1      -0.703 -17.493 -23.581  1.00  0.00    -0.340 N 
HETATM   34  C13 UNL     1      -1.763 -18.161 -22.920  1.00  0.00     0.219 C 
HETATM   35  O2  UNL     1      -1.705 -18.478 -21.701  1.00  0.00    -0.274 OA
ATOM     36  H4  UNL     1      -0.785 -17.253 -24.569  1.00  0.00     0.164 HD
BRANCH  34  37
HETATM   37  C14 UNL     1      -2.980 -18.501 -23.685  1.00  0.00     0.104 C 
BRANCH  37  38
HETATM   38  C15 UNL     1      -3.385 -19.946 -23.492  1.00  0.00     0.029 C 
BRANCH  38  39
HETATM   39  C16 UNL     1      -4.671 -19.960 -22.667  1.00  0.00     0.122 C 
BRANCH  39  40
HETATM   40  N5  UNL     1      -5.057 -21.306 -22.329  1.00  0.00    -0.367 N 
HETATM   41  C17 UNL     1      -5.449 -21.641 -21.145  1.00  0.00     0.196 C 
HETATM   42  N6  UNL     1      -5.814 -22.985 -20.884  1.00  0.00    -0.067 NA
HETATM   43  N7  UNL     1      -5.495 -20.632 -20.157  1.00  0.00    -0.067 NA
ATOM     44  H5  UNL     1      -5.021 -22.023 -23.054  1.00  0.00     0.161 HD
ENDBRANCH  39  40
ENDBRANCH  38  39
ENDBRANCH  37  38
ENDBRANCH  34  37
ENDBRANCH   5  33
TORSDOF 15
ENDMDL
MODEL 2
REMARK VINA RESULT: -8.710421258      4.141      5.963
REMARK  15 active torsions:
REMARK  status: ('A' for Active; 'I' for Inactive)
REMARK    1  A    between atoms: C2_2  and  C3_3 
REMARK    2  A    between atoms: C2_2  and  C7_11 
REMARK    3  A    between atoms: C3_3  and  C4_4 
REMARK    4  A    between atoms: C4_4  and  C5_5 
REMARK    5  A    between atoms: C5_5  and  C6_6 
REMARK    6  A    between atoms: C6_6  and  N1_7 
REMARK       I    between atoms: C7_11  and  N2_13 
REMARK    7  A    between atoms: C9_15  and  S1_16 
REMARK    8  A    between atoms: S1_16  and  C10_17 
REMARK    9  A    between atoms: C12_21  and  N4_22 
REMARK       I    between atoms: N4_22  and  C13_24 
REMARK   10  A    between atoms: C13_24  and  C14_26 
REMARK   11  A    between atoms: C14_26  and  C15_27 
REMARK   12  A    between atoms: C15_27  and  C16_28 
REMARK   13  A    between atoms: C16_28  and  N5_29 
REMARK   14  A    between atoms: C19_35  and  N8_36 
REMARK   15  A    between atoms: C21_41  and  C22_42 
ROOT
HETATM    1  C10 UNL     1       4.772 -16.221 -22.059  1.00  0.00     0.095 C 
HETATM    2  C11 UNL     1       4.335 -17.157 -23.145  1.00  0.00     0.133 C 
HETATM    3  N3  UNL     1       3.080 -16.865 -23.742  1.00  0.00    -0.400 N 
ATOM      4  H3  UNL     1       2.912 -17.039 -24.733  1.00  0.00     0.155 HD
HETATM    5  C12 UNL     1       2.076 -16.326 -22.917  1.00  0.00     0.181 C 
HETATM    6  C18 UNL     1       2.402 -16.624 -21.462  1.00  0.00     0.080 C 
HETATM    7  C19 UNL     1       3.641 -15.763 -21.174  1.00  0.00     0.202 C 
ENDROOT
BRANCH   1   8
HETATM    8  S1  UNL     1       5.733 -14.844 -22.752  1.00  0.00    -0.154 SA
BRANCH   8   9
HETATM    9  C9  UNL     1       5.087 -14.491 -24.387  1.00  0.00     0.068 C 
HETATM   10  C8  UNL     1       6.060 -13.807 -25.287  1.00  0.00     0.141 C 
HETATM   11  N2  UNL     1       5.697 -12.401 -25.285  1.00  0.00    -0.338 N 
HETATM   12  C7  UNL     1       6.334 -11.407 -26.055  1.00  0.00     0.224 C 
HETATM   13  C21 UNL     1       4.614 -12.198 -24.365  1.00  0.00     0.177 C 
HETATM   14  O1  UNL     1       7.314 -11.754 -26.789  1.00  0.00    -0.273 OA
HETATM   15  C20 UNL     1       3.910 -13.552 -24.401  1.00  0.00     0.051 C 
BRANCH  12  16
HETATM   16  C2  UNL     1       5.963  -9.975 -26.092  1.00  0.00     0.074 C 
HETATM   17  C1  UNL     1       7.299  -9.209 -26.090  1.00  0.00     0.020 C 
BRANCH  16  18
HETATM   18  C3  UNL     1       5.251  -9.577 -27.371  1.00  0.00     0.013 C 
BRANCH  18  19
HETATM   19  C4  UNL     1       3.794  -9.439 -27.110  1.00  0.00     0.002 C 
BRANCH  19  20
HETATM   20  C5  UNL     1       2.942 -10.272 -28.041  1.00  0.00     0.027 C 
BRANCH  20  21
HETATM   21  C6  UNL     1       3.130 -11.755 -27.794  1.00  0.00     0.229 C 
BRANCH  21  22
HETATM   22  N1  UNL     1       3.200 -12.414 -29.079  1.00  0.00    -0.079 N 
ATOM     23  H13 UNL     1       3.071 -11.771 -29.861  1.00  0.00     0.274 HD
ATOM     24  H12 UNL     1       4.144 -12.725 -29.312  1.00  0.00     0.274 HD
ATOM     25  H11 UNL     1       2.523 -13.176 -29.078  1.00  0.00     0.274 HD
ENDBRANCH  21  22
ENDBRANCH  20  21
ENDBRANCH  19  20
ENDBRANCH  18  19
ENDBRANCH  16  18
ENDBRANCH  12  16
BRANCH  13  26
HETATM   26  C22 UNL     1       5.060 -11.851 -23.006  1.00  0.00     0.254 C 
HETATM   27  N9  UNL     1       4.120 -11.874 -21.948  1.00  0.00    -0.060 NA
HETATM   28  O3  UNL     1       6.237 -11.536 -22.760  1.00  0.00    -0.275 OA
ENDBRANCH  13  26
ENDBRANCH   8   9
ENDBRANCH   1   8
BRANCH   7  29
HETATM   29  N8  UNL     1       3.944 -15.962 -19.769  1.00  0.00    -0.074 N 
ATOM     30  H83 UNL     1       4.195 -16.931 -19.578  1.00  0.00     0.274 HD
ATOM     31  H82 UNL     1       4.824 -15.515 -19.512  1.00  0.00     0.274 HD
ATOM     32  H81 UNL     1       3.180 -15.649 -19.170  1.00  0.00     0.274 HD
ENDBRANCH   7  29
BRANCH   5  33
HETATM   33  N4  UNL     1       0.782 -16.963 -23.210  1.00  0.00    -0.340 N 
HETATM   34  C13 UNL     1      -0.416 -16.328 -22.801  1.00  0.00     0.219 C 
HETATM   35  O2  UNL     1      -0.422 -15.227 -22.189  1.00  0.00    -0.274 OA
ATOM     36  H4  UNL     1       0.749 -17.855 -23.704  1.00  0.00     0.164 HD
BRANCH  34  37
HETATM   37  C14 UNL     1      -1.708 -16.981 -23.101  1.00  0.00     0.104 C 
BRANCH  37  38
HETATM   38  C15 UNL     1      -1.728 -18.427 -22.657  1.00  0.00     0.029 C 
BRANCH  38  39
HETATM   39  C16 UNL     1      -2.922 -18.606 -21.721  1.00  0.00     0.122 C 
BRANCH  39  40
HETATM   40  N5  UNL     1      -3.005 -17.525 -20.772  1.00  0.00    -0.367 N 
HETATM   41  C17 UNL     1      -4.077 -17.274 -20.097  1.00  0.00     0.196 C 
HETATM   42  N6  UNL     1      -4.089 -16.194 -19.180  1.00  0.00    -0.067 NA
HETATM   43  N7  UNL     1      -5.199 -18.105 -20.310  1.00  0.00    -0.067 NA
ATOM     44  H5  UNL     1      -2.186 -16.935 -20.627  1.00  0.00     0.161 HD
ENDBRANCH  39  40
ENDBRANCH  38  39
ENDBRANCH  37  38
ENDBRANCH  34  37
ENDBRANCH   5  33
TORSDOF 15
ENDMDL
MODEL 3
REMARK VINA RESULT: -8.490848921      3.882      5.621
REMARK  15 active torsions:
REMARK  status: ('A' for Active; 'I' for Inactive)
REMARK    1  A    between atoms: C2_2  and  C3_3 
REMARK    2  A    between atoms: C2_2  and  C7_11 
REMARK    3  A    between atoms: C3_3  and  C4_4 
REMARK    4  A    between atoms: C4_4  and  C5_5 
REMARK    5  A    between atoms: C5_5  and  C6_6 
REMARK    6  A    between atoms: C6_6  and  N1_7 
REMARK       I    between atoms: C7_11  and  N2_13 
REMARK    7  A    between atoms: C9_15  and  S1_16 
REMARK    8  A    between atoms: S1_16  and  C10_17 
REMARK    9  A    between atoms: C12_21  and  N4_22 
REMARK       I    between atoms: N4_22  and  C13_24 
REMARK   10  A    between atoms: C13_24  and  C14_26 
REMARK   11  A    between atoms: C14_26  and  C15_27 
REMARK   12  A    between atoms: C15_27  and  C16_28 
REMARK   13  A    between atoms: C16_28  and  N5_29 
REMARK   14  A    between atoms: C19_35  and  N8_36 
REMARK   15  A    between atoms: C21_41  and  C22_42 
ROOT
HETATM    1  C10 UNL     1       3.986 -15.586 -21.620  1.00  0.00     0.095 C 
HETATM    2  C11 UNL     1       3.657 -16.933 -22.188  1.00  0.00     0.133 C 
HETATM    3  N3  UNL     1       2.737 -16.937 -23.270  1.00  0.00    -0.400 N 
ATOM      4  H3  UNL     1       2.820 -17.611 -24.032  1.00  0.00     0.155 HD
HETATM    5  C12 UNL     1       1.708 -15.979 -23.255  1.00  0.00     0.181 C 
HETATM    6  C18 UNL     1       1.523 -15.459 -21.838  1.00  0.00     0.080 C 
HETATM    7  C19 UNL     1       2.802 -14.654 -21.565  1.00  0.00     0.202 C 
ENDROOT
BRANCH   1   8
HETATM    8  S1  UNL     1       5.417 -14.864 -22.477  1.00  0.00    -0.154 SA
BRANCH   8   9
HETATM    9  C9  UNL     1       4.949 -14.586 -24.186  1.00  0.00     0.068 C 
HETATM   10  C8  UNL     1       6.062 -14.080 -25.042  1.00  0.00     0.141 C 
HETATM   11  N2  UNL     1       5.851 -12.650 -25.178  1.00  0.00    -0.338 N 
HETATM   12  C7  UNL     1       6.653 -11.791 -25.957  1.00  0.00     0.224 C 
HETATM   13  C21 UNL     1       4.724 -12.264 -24.378  1.00  0.00     0.177 C 
HETATM   14  O1  UNL     1       7.648 -12.294 -26.571  1.00  0.00    -0.273 OA
HETATM   15  C20 UNL     1       3.885 -13.538 -24.377  1.00  0.00     0.051 C 
BRANCH  12  16
HETATM   16  C2  UNL     1       6.441 -10.338 -26.134  1.00  0.00     0.074 C 
HETATM   17  C1  UNL     1       7.845  -9.709 -26.053  1.00  0.00     0.020 C 
BRANCH  16  18
HETATM   18  C3  UNL     1       5.897  -9.978 -27.504  1.00  0.00     0.013 C 
BRANCH  18  19
HETATM   19  C4  UNL     1       4.680  -9.138 -27.353  1.00  0.00     0.002 C 
BRANCH  19  20
HETATM   20  C5  UNL     1       3.452  -9.752 -27.988  1.00  0.00     0.027 C 
BRANCH  20  21
HETATM   21  C6  UNL     1       3.371 -11.241 -27.723  1.00  0.00     0.229 C 
BRANCH  21  22
HETATM   22  N1  UNL     1       3.142 -11.906 -28.987  1.00  0.00    -0.079 N 
ATOM     23  H13 UNL     1       3.029 -11.252 -29.762  1.00  0.00     0.274 HD
ATOM     24  H12 UNL     1       3.970 -12.389 -29.335  1.00  0.00     0.274 HD
ATOM     25  H11 UNL     1       2.340 -12.526 -28.874  1.00  0.00     0.274 HD
ENDBRANCH  21  22
ENDBRANCH  20  21
ENDBRANCH  19  20
ENDBRANCH  18  19
ENDBRANCH  16  18
ENDBRANCH  12  16
BRANCH  13  26
HETATM   26  C22 UNL     1       5.090 -11.850 -23.013  1.00  0.00     0.254 C 
HETATM   27  N9  UNL     1       4.063 -11.621 -22.066  1.00  0.00    -0.060 NA
HETATM   28  O3  UNL     1       6.274 -11.696 -22.668  1.00  0.00    -0.275 OA
ENDBRANCH  13  26
ENDBRANCH   8   9
ENDBRANCH   1   8
BRANCH   7  29
HETATM   29  N8  UNL     1       2.633 -14.077 -20.245  1.00  0.00    -0.074 N 
ATOM     30  H83 UNL     1       3.190 -14.573 -19.549  1.00  0.00     0.274 HD
ATOM     31  H82 UNL     1       3.076 -13.161 -20.181  1.00  0.00     0.274 HD
ATOM     32  H81 UNL     1       1.651 -14.034 -19.975  1.00  0.00     0.274 HD
ENDBRANCH   7  29
BRANCH   5  33
HETATM   33  N4  UNL     1       0.435 -16.595 -23.660  1.00  0.00    -0.340 N 
HETATM   34  C13 UNL     1      -0.258 -17.427 -22.748  1.00  0.00     0.219 C 
HETATM   35  O2  UNL     1       0.174 -17.666 -21.588  1.00  0.00    -0.274 OA
ATOM     36  H4  UNL     1       0.055 -16.425 -24.591  1.00  0.00     0.164 HD
BRANCH  34  37
HETATM   37  C14 UNL     1      -1.535 -18.041 -23.170  1.00  0.00     0.104 C 
BRANCH  37  38
HETATM   38  C15 UNL     1      -2.558 -18.041 -22.057  1.00  0.00     0.029 C 
BRANCH  38  39
HETATM   39  C16 UNL     1      -3.362 -19.335 -22.167  1.00  0.00     0.122 C 
BRANCH  39  40
HETATM   40  N5  UNL     1      -3.982 -19.671 -20.910  1.00  0.00    -0.367 N 
HETATM   41  C17 UNL     1      -4.710 -20.725 -20.753  1.00  0.00     0.196 C 
HETATM   42  N6  UNL     1      -5.290 -20.993 -19.489  1.00  0.00    -0.067 NA
HETATM   43  N7  UNL     1      -4.891 -21.572 -21.870  1.00  0.00    -0.067 NA
ATOM     44  H5  UNL     1      -3.841 -19.051 -20.112  1.00  0.00     0.161 HD
ENDBRANCH  39  40
ENDBRANCH  38  39
ENDBRANCH  37  38
ENDBRANCH  34  37
ENDBRANCH   5  33
TORSDOF 15
ENDMDL
MODEL 4
REMARK VINA RESULT: -8.405825079      4.751     13.229
REMARK  15 active torsions:
REMARK  status: ('A' for Active; 'I' for Inactive)
REMARK    1  A    between atoms: C2_2  and  C3_3 
REMARK    2  A    between atoms: C2_2  and  C7_11 
REMARK    3  A    between atoms: C3_3  and  C4_4 
REMARK    4  A    between atoms: C4_4  and  C5_5 
REMARK    5  A    between atoms: C5_5  and  C6_6 
REMARK    6  A    between atoms: C6_6  and  N1_7 
REMARK       I    between atoms: C7_11  and  N2_13 
REMARK    7  A    between atoms: C9_15  and  S1_16 
REMARK    8  A    between atoms: S1_16  and  C10_17 
REMARK    9  A    between atoms: C12_21  and  N4_22 
REMARK       I    between atoms: N4_22  and  C13_24 
REMARK   10  A    between atoms: C13_24  and  C14_26 
REMARK   11  A    between atoms: C14_26  and  C15_27 
REMARK   12  A    between atoms: C15_27  and  C16_28 
REMARK   13  A    between atoms: C16_28  and  N5_29 
REMARK   14  A    between atoms: C19_35  and  N8_36 
REMARK   15  A    between atoms: C21_41  and  C22_42 
ROOT
HETATM    1  C10 UNL     1      -4.809 -16.945 -22.854  1.00  0.00     0.095 C 
HETATM    2  C11 UNL     1      -3.681 -17.846 -23.257  1.00  0.00     0.133 C 
HETATM    3  N3  UNL     1      -2.417 -17.543 -22.684  1.00  0.00    -0.400 N 
ATOM      4  H3  UNL     1      -1.756 -18.281 -22.441  1.00  0.00     0.155 HD
HETATM    5  C12 UNL     1      -2.109 -16.188 -22.464  1.00  0.00     0.181 C 
HETATM    6  C18 UNL     1      -3.005 -15.318 -23.332  1.00  0.00     0.080 C 
HETATM    7  C19 UNL     1      -4.404 -15.499 -22.725  1.00  0.00     0.202 C 
ENDROOT
BRANCH   1   8
HETATM    8  S1  UNL     1      -5.638 -17.585 -21.369  1.00  0.00    -0.154 SA
BRANCH   8   9
HETATM    9  C9  UNL     1      -6.700 -18.939 -21.873  1.00  0.00     0.068 C 
HETATM   10  C8  UNL     1      -6.926 -19.013 -23.346  1.00  0.00     0.141 C 
HETATM   11  N2  UNL     1      -8.235 -18.433 -23.587  1.00  0.00    -0.338 N 
HETATM   12  C7  UNL     1      -8.859 -18.357 -24.849  1.00  0.00     0.224 C 
HETATM   13  C21 UNL     1      -8.763 -17.938 -22.348  1.00  0.00     0.177 C 
HETATM   14  O1  UNL     1      -8.226 -18.806 -25.858  1.00  0.00    -0.273 OA
HETATM   15  C20 UNL     1      -8.103 -18.864 -21.330  1.00  0.00     0.051 C 
BRANCH  12  16
HETATM   16  C2  UNL     1     -10.203 -17.798 -25.114  1.00  0.00     0.074 C 
HETATM   17  C1  UNL     1      -9.963 -16.571 -26.013  1.00  0.00     0.020 C 
BRANCH  16  18
HETATM   18  C3  UNL     1     -11.092 -18.736 -25.909  1.00  0.00     0.013 C 
BRANCH  18  19
HETATM   19  C4  UNL     1     -11.467 -19.902 -25.068  1.00  0.00     0.002 C 
BRANCH  19  20
HETATM   20  C5  UNL     1     -10.774 -21.181 -25.482  1.00  0.00     0.027 C 
BRANCH  20  21
HETATM   21  C6  UNL     1     -10.115 -21.866 -24.302  1.00  0.00     0.229 C 
BRANCH  21  22
HETATM   22  N1  UNL     1      -8.685 -21.842 -24.517  1.00  0.00    -0.079 N 
ATOM     23  H13 UNL     1      -8.413 -22.248 -25.412  1.00  0.00     0.274 HD
ATOM     24  H12 UNL     1      -8.326 -20.901 -24.679  1.00  0.00     0.274 HD
ATOM     25  H11 UNL     1      -8.241 -22.303 -23.723  1.00  0.00     0.274 HD
ENDBRANCH  21  22
ENDBRANCH  20  21
ENDBRANCH  19  20
ENDBRANCH  18  19
ENDBRANCH  16  18
ENDBRANCH  12  16
BRANCH  13  26
HETATM   26  C22 UNL     1      -8.436 -16.526 -22.095  1.00  0.00     0.254 C 
HETATM   27  N9  UNL     1      -8.540 -16.022 -20.776  1.00  0.00    -0.060 NA
HETATM   28  O3  UNL     1      -8.071 -15.762 -23.005  1.00  0.00    -0.275 OA
ENDBRANCH  13  26
ENDBRANCH   8   9
ENDBRANCH   1   8
BRANCH   7  29
HETATM   29  N8  UNL     1      -5.280 -14.626 -23.481  1.00  0.00    -0.074 N 
ATOM     30  H83 UNL     1      -6.156 -15.091 -23.716  1.00  0.00     0.274 HD
ATOM     31  H82 UNL     1      -5.649 -13.875 -22.898  1.00  0.00     0.274 HD
ATOM     32  H81 UNL     1      -4.819 -14.257 -24.313  1.00  0.00     0.274 HD
ENDBRANCH   7  29
BRANCH   5  33
HETATM   33  N4  UNL     1      -0.719 -15.913 -22.861  1.00  0.00    -0.340 N 
HETATM   34  C13 UNL     1       0.329 -16.692 -22.316  1.00  0.00     0.219 C 
HETATM   35  O2  UNL     1       0.121 -17.624 -21.493  1.00  0.00    -0.274 OA
ATOM     36  H4  UNL     1      -0.513 -15.166 -23.524  1.00  0.00     0.164 HD
BRANCH  34  37
HETATM   37  C14 UNL     1       1.720 -16.403 -22.723  1.00  0.00     0.104 C 
BRANCH  37  38
HETATM   38  C15 UNL     1       2.616 -16.143 -21.533  1.00  0.00     0.029 C 
BRANCH  38  39
HETATM   39  C16 UNL     1       2.318 -14.731 -21.029  1.00  0.00     0.122 C 
BRANCH  39  40
HETATM   40  N5  UNL     1       3.056 -13.745 -21.778  1.00  0.00    -0.367 N 
HETATM   41  C17 UNL     1       3.295 -12.562 -21.321  1.00  0.00     0.196 C 
HETATM   42  N6  UNL     1       4.027 -11.642 -22.113  1.00  0.00    -0.067 NA
HETATM   43  N7  UNL     1       2.809 -12.242 -20.034  1.00  0.00    -0.067 NA
ATOM     44  H5  UNL     1       3.402 -13.992 -22.705  1.00  0.00     0.161 HD
ENDBRANCH  39  40
ENDBRANCH  38  39
ENDBRANCH  37  38
ENDBRANCH  34  37
ENDBRANCH   5  33
TORSDOF 15
ENDMDL
MODEL 5
REMARK VINA RESULT: -8.405600289      8.412     12.611
REMARK  15 active torsions:
REMARK  status: ('A' for Active; 'I' for Inactive)
REMARK    1  A    between atoms: C2_2  and  C3_3 
REMARK    2  A    between atoms: C2_2  and  C7_11 
REMARK    3  A    between atoms: C3_3  and  C4_4 
REMARK    4  A    between atoms: C4_4  and  C5_5 
REMARK    5  A    between atoms: C5_5  and  C6_6 
REMARK    6  A    between atoms: C6_6  and  N1_7 
REMARK       I    between atoms: C7_11  and  N2_13 
REMARK    7  A    between atoms: C9_15  and  S1_16 
REMARK    8  A    between atoms: S1_16  and  C10_17 
REMARK    9  A    between atoms: C12_21  and  N4_22 
REMARK       I    between atoms: N4_22  and  C13_24 
REMARK   10  A    between atoms: C13_24  and  C14_26 
REMARK   11  A    between atoms: C14_26  and  C15_27 
REMARK   12  A    between atoms: C15_27  and  C16_28 
REMARK   13  A    between atoms: C16_28  and  N5_29 
REMARK   14  A    between atoms: C19_35  and  N8_36 
REMARK   15  A    between atoms: C21_41  and  C22_42 
ROOT
HETATM    1  C10 UNL     1      -3.426 -16.914 -21.478  1.00  0.00     0.095 C 
HETATM    2  C11 UNL     1      -4.425 -16.125 -20.687  1.00  0.00     0.133 C 
HETATM    3  N3  UNL     1      -5.613 -15.767 -21.379  1.00  0.00    -0.400 N 
ATOM      4  H3  UNL     1      -6.512 -15.722 -20.898  1.00  0.00     0.155 HD
HETATM    5  C12 UNL     1      -5.507 -15.475 -22.750  1.00  0.00     0.181 C 
HETATM    6  C18 UNL     1      -4.061 -15.140 -23.086  1.00  0.00     0.080 C 
HETATM    7  C19 UNL     1      -3.320 -16.475 -22.917  1.00  0.00     0.202 C 
ENDROOT
BRANCH   1   8
HETATM    8  S1  UNL     1      -3.737 -18.696 -21.302  1.00  0.00    -0.154 SA
BRANCH   8   9
HETATM    9  C9  UNL     1      -4.364 -19.301 -22.870  1.00  0.00     0.068 C 
HETATM   10  C8  UNL     1      -5.762 -18.875 -23.166  1.00  0.00     0.141 C 
HETATM   11  N2  UNL     1      -6.609 -20.012 -22.853  1.00  0.00    -0.338 N 
HETATM   12  C7  UNL     1      -8.005 -20.049 -23.043  1.00  0.00     0.224 C 
HETATM   13  C21 UNL     1      -5.799 -21.062 -22.304  1.00  0.00     0.177 C 
HETATM   14  O1  UNL     1      -8.576 -19.008 -23.501  1.00  0.00    -0.273 OA
HETATM   15  C20 UNL     1      -4.450 -20.801 -22.967  1.00  0.00     0.051 C 
BRANCH  12  16
HETATM   16  C2  UNL     1      -8.883 -21.206 -22.760  1.00  0.00     0.074 C 
HETATM   17  C1  UNL     1     -10.220 -20.597 -22.297  1.00  0.00     0.020 C 
BRANCH  16  18
HETATM   18  C3  UNL     1      -9.200 -22.030 -23.993  1.00  0.00     0.013 C 
BRANCH  18  19
HETATM   19  C4  UNL     1     -10.531 -21.638 -24.527  1.00  0.00     0.002 C 
BRANCH  19  20
HETATM   20  C5  UNL     1     -10.460 -21.030 -25.911  1.00  0.00     0.027 C 
BRANCH  20  21
HETATM   21  C6  UNL     1     -11.056 -19.637 -25.940  1.00  0.00     0.229 C 
BRANCH  21  22
HETATM   22  N1  UNL     1      -9.967 -18.687 -25.917  1.00  0.00    -0.079 N 
ATOM     23  H13 UNL     1      -9.145 -19.040 -25.426  1.00  0.00     0.274 HD
ATOM     24  H12 UNL     1      -9.534 -18.559 -26.832  1.00  0.00     0.274 HD
ATOM     25  H11 UNL     1     -10.319 -17.816 -25.521  1.00  0.00     0.274 HD
ENDBRANCH  21  22
ENDBRANCH  20  21
ENDBRANCH  19  20
ENDBRANCH  18  19
ENDBRANCH  16  18
ENDBRANCH  12  16
BRANCH  13  26
HETATM   26  C22 UNL     1      -5.702 -21.019 -20.836  1.00  0.00     0.254 C 
HETATM   27  N9  UNL     1      -4.895 -21.974 -20.172  1.00  0.00    -0.060 NA
HETATM   28  O3  UNL     1      -6.310 -20.169 -20.161  1.00  0.00    -0.275 OA
ENDBRANCH  13  26
ENDBRANCH   8   9
ENDBRANCH   1   8
BRANCH   7  29
HETATM   29  N8  UNL     1      -1.946 -16.216 -23.299  1.00  0.00    -0.074 N 
ATOM     30  H83 UNL     1      -1.884 -15.444 -23.963  1.00  0.00     0.274 HD
ATOM     31  H82 UNL     1      -1.416 -15.806 -22.530  1.00  0.00     0.274 HD
ATOM     32  H81 UNL     1      -1.489 -17.054 -23.659  1.00  0.00     0.274 HD
ENDBRANCH   7  29
BRANCH   5  33
HETATM   33  N4  UNL     1      -6.314 -14.290 -23.082  1.00  0.00    -0.340 N 
HETATM   34  C13 UNL     1      -7.722 -14.346 -22.945  1.00  0.00     0.219 C 
HETATM   35  O2  UNL     1      -8.322 -15.382 -22.548  1.00  0.00    -0.274 OA
ATOM     36  H4  UNL     1      -5.863 -13.436 -23.407  1.00  0.00     0.164 HD
BRANCH  34  37
HETATM   37  C14 UNL     1      -8.520 -13.149 -23.283  1.00  0.00     0.104 C 
BRANCH  37  38
HETATM   38  C15 UNL     1      -7.916 -12.372 -24.431  1.00  0.00     0.029 C 
BRANCH  38  39
HETATM   39  C16 UNL     1      -8.328 -13.066 -25.728  1.00  0.00     0.122 C 
BRANCH  39  40
HETATM   40  N5  UNL     1      -7.244 -13.080 -26.677  1.00  0.00    -0.367 N 
HETATM   41  C17 UNL     1      -6.529 -14.132 -26.900  1.00  0.00     0.196 C 
HETATM   42  N6  UNL     1      -5.477 -14.075 -27.848  1.00  0.00    -0.067 NA
HETATM   43  N7  UNL     1      -6.840 -15.305 -26.177  1.00  0.00    -0.067 NA
ATOM     44  H5  UNL     1      -7.032 -12.226 -27.193  1.00  0.00     0.161 HD
ENDBRANCH  39  40
ENDBRANCH  38  39
ENDBRANCH  37  38
ENDBRANCH  34  37
ENDBRANCH   5  33
TORSDOF 15
ENDMDL
