MODEL 1
REMARK VINA RESULT: -9.169401104      0.000      0.000
REMARK  13 active torsions:
REMARK  status: ('A' for Active; 'I' for Inactive)
REMARK    1  A    between atoms: C1_2  and  C2_4 
REMARK    2  A    between atoms: C6_11  and  C7_12 
REMARK    3  A    between atoms: C7_12  and  C8_13 
REMARK    4  A    between atoms: C8_13  and  C9_14 
REMARK    5  A    between atoms: C9_14  and  C10_15 
REMARK    6  A    between atoms: C10_15  and  C11_16 
REMARK    7  A    between atoms: C11_16  and  C12_17 
REMARK    8  A    between atoms: C12_17  and  C13_18 
REMARK    9  A    between atoms: C13_18  and  C14_19 
REMARK   10  A    between atoms: C14_19  and  C15_20 
REMARK   11  A    between atoms: C18_31  and  C19_32 
REMARK   12  A    between atoms: C19_32  and  C20_33 
REMARK   13  A    between atoms: C20_33  and  C21_34 
ROOT
HETATM    1  C2  UNL     1       2.459 -16.474 -22.181  1.00  0.00     0.174 C 
HETATM    2  C3  UNL     1       2.755 -15.109 -22.831  1.00  0.00     0.043 C 
HETATM    3  C4  UNL     1       2.651 -14.014 -21.866  1.00  0.00     0.105 C 
HETATM    4  C5  UNL     1       3.833 -13.235 -21.510  1.00  0.00     0.218 C 
HETATM    5  O2  UNL     1       3.541 -12.283 -20.679  1.00  0.00    -0.274 OA
HETATM    6  N2  UNL     1       5.164 -13.313 -21.877  1.00  0.00    -0.348 N 
ATOM      7  H2  UNL     1       5.813 -13.291 -21.090  1.00  0.00     0.163 HD
HETATM    8  C6  UNL     1       5.799 -13.419 -23.157  1.00  0.00     0.177 C 
HETATM    9  C16 UNL     1       6.715 -14.532 -23.349  1.00  0.00     0.248 C 
HETATM   10  O5  UNL     1       6.679 -15.028 -24.515  1.00  0.00    -0.271 OA
HETATM   11  N3  UNL     1       7.616 -15.124 -22.448  1.00  0.00    -0.278 N 
ATOM     12  H3  UNL     1       8.538 -15.335 -22.831  1.00  0.00     0.173 HD
HETATM   13  C17 UNL     1       7.433 -15.471 -21.092  1.00  0.00     0.323 C 
HETATM   14  O6  UNL     1       8.321 -14.998 -20.282  1.00  0.00    -0.247 OA
HETATM   15  N4  UNL     1       6.456 -16.241 -20.464  1.00  0.00    -0.330 N 
ATOM     16  H4  UNL     1       6.454 -16.272 -19.444  1.00  0.00     0.165 HD
HETATM   17  C18 UNL     1       5.408 -17.026 -21.190  1.00  0.00     0.178 C 
HETATM   18  C22 UNL     1       4.215 -16.862 -20.389  1.00  0.00     0.241 C 
HETATM   19  O9  UNL     1       4.355 -17.025 -19.121  1.00  0.00    -0.271 OA
HETATM   20  N5  UNL     1       2.905 -16.538 -20.825  1.00  0.00    -0.346 N 
ATOM     21  H5  UNL     1       2.216 -16.331 -20.102  1.00  0.00     0.163 HD
ENDROOT
BRANCH   8  22
HETATM   22  C7  UNL     1       6.607 -12.133 -23.432  1.00  0.00     0.035 C 
BRANCH  22  23
HETATM   23  C8  UNL     1       5.739 -10.915 -23.431  1.00  0.00     0.002 C 
BRANCH  23  24
HETATM   24  C9  UNL     1       5.165 -10.738 -24.816  1.00  0.00     0.000 C 
BRANCH  24  25
HETATM   25  C10 UNL     1       6.222 -10.559 -25.854  1.00  0.00     0.000 C 
BRANCH  25  26
HETATM   26  C11 UNL     1       5.925  -9.362 -26.723  1.00  0.00     0.000 C 
BRANCH  26  27
HETATM   27  C12 UNL     1       4.443  -9.057 -26.830  1.00  0.00     0.001 C 
BRANCH  27  28
HETATM   28  C13 UNL     1       3.881  -9.433 -28.162  1.00  0.00     0.010 C 
BRANCH  28  29
HETATM   29  C14 UNL     1       2.847 -10.497 -28.143  1.00  0.00     0.113 C 
BRANCH  29  30
HETATM   30  C15 UNL     1       3.339 -11.854 -27.879  1.00  0.00     0.172 C 
HETATM   31  O3  UNL     1       4.337 -12.323 -28.467  1.00  0.00    -0.648 OA
HETATM   32  O4  UNL     1       2.670 -12.656 -26.934  1.00  0.00    -0.648 OA
ENDBRANCH  29  30
ENDBRANCH  28  29
ENDBRANCH  27  28
ENDBRANCH  26  27
ENDBRANCH  25  26
ENDBRANCH  24  25
ENDBRANCH  23  24
ENDBRANCH  22  23
ENDBRANCH   8  22
BRANCH   1  33
HETATM   33  C1  UNL     1       0.976 -16.729 -22.260  1.00  0.00     0.254 C 
HETATM   34  N1  UNL     1       0.193 -16.081 -23.247  1.00  0.00    -0.060 NA
HETATM   35  O1  UNL     1       0.432 -17.501 -21.467  1.00  0.00    -0.275 OA
ENDBRANCH   1  33
BRANCH  17  36
HETATM   36  C19 UNL     1       5.961 -18.405 -21.211  1.00  0.00     0.045 C 
BRANCH  36  37
HETATM   37  C20 UNL     1       6.792 -18.885 -22.310  1.00  0.00     0.116 C 
BRANCH  37  38
HETATM   38  C21 UNL     1       8.224 -18.830 -22.330  1.00  0.00     0.172 C 
HETATM   39  O7  UNL     1       9.036 -19.403 -21.606  1.00  0.00    -0.648 OA
HETATM   40  O8  UNL     1       8.812 -18.000 -23.323  1.00  0.00    -0.648 OA
ENDBRANCH  37  38
ENDBRANCH  36  37
ENDBRANCH  17  36
TORSDOF 13
ENDMDL
MODEL 2
REMARK VINA RESULT: -9.165917210      1.355      1.632
REMARK  13 active torsions:
REMARK  status: ('A' for Active; 'I' for Inactive)
REMARK    1  A    between atoms: C1_2  and  C2_4 
REMARK    2  A    between atoms: C6_11  and  C7_12 
REMARK    3  A    between atoms: C7_12  and  C8_13 
REMARK    4  A    between atoms: C8_13  and  C9_14 
REMARK    5  A    between atoms: C9_14  and  C10_15 
REMARK    6  A    between atoms: C10_15  and  C11_16 
REMARK    7  A    between atoms: C11_16  and  C12_17 
REMARK    8  A    between atoms: C12_17  and  C13_18 
REMARK    9  A    between atoms: C13_18  and  C14_19 
REMARK   10  A    between atoms: C14_19  and  C15_20 
REMARK   11  A    between atoms: C18_31  and  C19_32 
REMARK   12  A    between atoms: C19_32  and  C20_33 
REMARK   13  A    between atoms: C20_33  and  C21_34 
ROOT
HETATM    1  C2  UNL     1       2.438 -16.560 -22.135  1.00  0.00     0.174 C 
HETATM    2  C3  UNL     1       2.708 -15.178 -22.760  1.00  0.00     0.043 C 
HETATM    3  C4  UNL     1       2.570 -14.102 -21.779  1.00  0.00     0.105 C 
HETATM    4  C5  UNL     1       3.729 -13.302 -21.399  1.00  0.00     0.218 C 
HETATM    5  O2  UNL     1       3.408 -12.370 -20.556  1.00  0.00    -0.274 OA
HETATM    6  N2  UNL     1       5.065 -13.343 -21.754  1.00  0.00    -0.348 N 
ATOM      7  H2  UNL     1       5.706 -13.319 -20.961  1.00  0.00     0.163 HD
HETATM    8  C6  UNL     1       5.715 -13.413 -23.029  1.00  0.00     0.177 C 
HETATM    9  C16 UNL     1       6.658 -14.502 -23.230  1.00  0.00     0.248 C 
HETATM   10  O5  UNL     1       6.645 -14.980 -24.404  1.00  0.00    -0.271 OA
HETATM   11  N3  UNL     1       7.564 -15.087 -22.329  1.00  0.00    -0.278 N 
ATOM     12  H3  UNL     1       8.494 -15.270 -22.706  1.00  0.00     0.173 HD
HETATM   13  C17 UNL     1       7.377 -15.460 -20.981  1.00  0.00     0.323 C 
HETATM   14  O6  UNL     1       8.245 -14.979 -20.155  1.00  0.00    -0.247 OA
HETATM   15  N4  UNL     1       6.411 -16.263 -20.374  1.00  0.00    -0.330 N 
ATOM     16  H4  UNL     1       6.400 -16.310 -19.356  1.00  0.00     0.165 HD
HETATM   17  C18 UNL     1       5.389 -17.060 -21.124  1.00  0.00     0.178 C 
HETATM   18  C22 UNL     1       4.185 -16.937 -20.332  1.00  0.00     0.241 C 
HETATM   19  O9  UNL     1       4.317 -17.116 -19.065  1.00  0.00    -0.271 OA
HETATM   20  N5  UNL     1       2.872 -16.636 -20.775  1.00  0.00    -0.346 N 
ATOM     21  H5  UNL     1       2.172 -16.456 -20.056  1.00  0.00     0.163 HD
ENDROOT
BRANCH   8  22
HETATM   22  C7  UNL     1       6.495 -12.105 -23.276  1.00  0.00     0.035 C 
BRANCH  22  23
HETATM   23  C8  UNL     1       5.601 -10.997 -23.735  1.00  0.00     0.002 C 
BRANCH  23  24
HETATM   24  C9  UNL     1       6.004 -10.611 -25.138  1.00  0.00     0.000 C 
BRANCH  24  25
HETATM   25  C10 UNL     1       4.858 -10.088 -25.938  1.00  0.00     0.000 C 
BRANCH  25  26
HETATM   26  C11 UNL     1       5.322  -9.042 -26.921  1.00  0.00     0.000 C 
BRANCH  26  27
HETATM   27  C12 UNL     1       4.298  -8.738 -27.998  1.00  0.00     0.001 C 
BRANCH  27  28
HETATM   28  C13 UNL     1       3.075  -9.587 -27.873  1.00  0.00     0.010 C 
BRANCH  28  29
HETATM   29  C14 UNL     1       1.911  -9.155 -28.686  1.00  0.00     0.113 C 
BRANCH  29  30
HETATM   30  C15 UNL     1       0.733  -8.722 -27.926  1.00  0.00     0.172 C 
HETATM   31  O3  UNL     1       0.779  -8.510 -26.696  1.00  0.00    -0.648 OA
HETATM   32  O4  UNL     1      -0.490  -8.536 -28.600  1.00  0.00    -0.648 OA
ENDBRANCH  29  30
ENDBRANCH  28  29
ENDBRANCH  27  28
ENDBRANCH  26  27
ENDBRANCH  25  26
ENDBRANCH  24  25
ENDBRANCH  23  24
ENDBRANCH  22  23
ENDBRANCH   8  22
BRANCH   1  33
HETATM   33  C1  UNL     1       0.962 -16.848 -22.232  1.00  0.00     0.254 C 
HETATM   34  N1  UNL     1       0.199 -16.305 -23.295  1.00  0.00    -0.060 NA
HETATM   35  O1  UNL     1       0.407 -17.557 -21.390  1.00  0.00    -0.275 OA
ENDBRANCH   1  33
BRANCH  17  36
HETATM   36  C19 UNL     1       5.974 -18.425 -21.161  1.00  0.00     0.045 C 
BRANCH  36  37
HETATM   37  C20 UNL     1       6.743 -18.902 -22.305  1.00  0.00     0.116 C 
BRANCH  37  38
HETATM   38  C21 UNL     1       8.153 -18.708 -22.476  1.00  0.00     0.172 C 
HETATM   39  O7  UNL     1       8.749 -17.996 -23.283  1.00  0.00    -0.648 OA
HETATM   40  O8  UNL     1       9.004 -19.432 -21.596  1.00  0.00    -0.648 OA
ENDBRANCH  37  38
ENDBRANCH  36  37
ENDBRANCH  17  36
TORSDOF 13
ENDMDL
MODEL 3
REMARK VINA RESULT: -9.131274235      9.433     14.136
REMARK  13 active torsions:
REMARK  status: ('A' for Active; 'I' for Inactive)
REMARK    1  A    between atoms: C1_2  and  C2_4 
REMARK    2  A    between atoms: C6_11  and  C7_12 
REMARK    3  A    between atoms: C7_12  and  C8_13 
REMARK    4  A    between atoms: C8_13  and  C9_14 
REMARK    5  A    between atoms: C9_14  and  C10_15 
REMARK    6  A    between atoms: C10_15  and  C11_16 
REMARK    7  A    between atoms: C11_16  and  C12_17 
REMARK    8  A    between atoms: C12_17  and  C13_18 
REMARK    9  A    between atoms: C13_18  and  C14_19 
REMARK   10  A    between atoms: C14_19  and  C15_20 
REMARK   11  A    between atoms: C18_31  and  C19_32 
REMARK   12  A    between atoms: C19_32  and  C20_33 
REMARK   13  A    between atoms: C20_33  and  C21_34 
ROOT
HETATM    1  C2  UNL     1      -6.248 -19.489 -22.404  1.00  0.00     0.174 C 
HETATM    2  C3  UNL     1      -7.554 -19.259 -23.189  1.00  0.00     0.043 C 
HETATM    3  C4  UNL     1      -8.666 -18.915 -22.304  1.00  0.00     0.105 C 
HETATM    4  C5  UNL     1      -9.290 -17.598 -22.386  1.00  0.00     0.218 C 
HETATM    5  O2  UNL     1     -10.284 -17.490 -21.560  1.00  0.00    -0.274 OA
HETATM    6  N2  UNL     1      -9.035 -16.476 -23.153  1.00  0.00    -0.348 N 
ATOM      7  H2  UNL     1      -8.983 -15.610 -22.617  1.00  0.00     0.163 HD
HETATM    8  C6  UNL     1      -8.829 -16.306 -24.562  1.00  0.00     0.177 C 
HETATM    9  C16 UNL     1      -7.604 -15.640 -24.973  1.00  0.00     0.248 C 
HETATM   10  O5  UNL     1      -7.100 -16.110 -26.037  1.00  0.00    -0.271 OA
HETATM   11  N3  UNL     1      -6.912 -14.574 -24.375  1.00  0.00    -0.278 N 
ATOM     12  H3  UNL     1      -6.578 -13.856 -25.019  1.00  0.00     0.173 HD
HETATM   13  C17 UNL     1      -6.612 -14.348 -23.015  1.00  0.00     0.323 C 
HETATM   14  O6  UNL     1      -6.976 -13.197 -22.557  1.00  0.00    -0.247 OA
HETATM   15  N4  UNL     1      -5.984 -15.154 -22.065  1.00  0.00    -0.330 N 
ATOM     16  H4  UNL     1      -5.968 -14.830 -21.099  1.00  0.00     0.165 HD
HETATM   17  C18 UNL     1      -5.331 -16.465 -22.376  1.00  0.00     0.178 C 
HETATM   18  C22 UNL     1      -5.661 -17.308 -21.247  1.00  0.00     0.241 C 
HETATM   19  O9  UNL     1      -5.499 -16.785 -20.082  1.00  0.00    -0.271 OA
HETATM   20  N5  UNL     1      -6.146 -18.639 -21.259  1.00  0.00    -0.346 N 
ATOM     21  H5  UNL     1      -6.452 -19.028 -20.367  1.00  0.00     0.163 HD
ENDROOT
BRANCH   8  22
HETATM   22  C7  UNL     1      -9.995 -15.484 -25.150  1.00  0.00     0.035 C 
BRANCH  22  23
HETATM   23  C8  UNL     1     -10.638 -16.174 -26.311  1.00  0.00     0.002 C 
BRANCH  23  24
HETATM   24  C9  UNL     1     -12.001 -16.661 -25.880  1.00  0.00     0.000 C 
BRANCH  24  25
HETATM   25  C10 UNL     1     -12.199 -18.116 -26.151  1.00  0.00     0.000 C 
BRANCH  25  26
HETATM   26  C11 UNL     1     -11.380 -18.955 -25.202  1.00  0.00     0.000 C 
BRANCH  26  27
HETATM   27  C12 UNL     1     -10.235 -19.680 -25.884  1.00  0.00     0.001 C 
BRANCH  27  28
HETATM   28  C13 UNL     1     -10.447 -21.158 -25.930  1.00  0.00     0.010 C 
BRANCH  28  29
HETATM   29  C14 UNL     1     -10.974 -21.768 -24.684  1.00  0.00     0.113 C 
BRANCH  29  30
HETATM   30  C15 UNL     1      -9.973 -22.387 -23.809  1.00  0.00     0.172 C 
HETATM   31  O3  UNL     1      -8.851 -22.739 -24.229  1.00  0.00    -0.648 OA
HETATM   32  O4  UNL     1     -10.282 -22.591 -22.449  1.00  0.00    -0.648 OA
ENDBRANCH  29  30
ENDBRANCH  28  29
ENDBRANCH  27  28
ENDBRANCH  26  27
ENDBRANCH  25  26
ENDBRANCH  24  25
ENDBRANCH  23  24
ENDBRANCH  22  23
ENDBRANCH   8  22
BRANCH   1  33
HETATM   33  C1  UNL     1      -6.188 -20.937 -21.991  1.00  0.00     0.254 C 
HETATM   34  N1  UNL     1      -4.951 -21.628 -21.997  1.00  0.00    -0.060 NA
HETATM   35  O1  UNL     1      -7.211 -21.532 -21.646  1.00  0.00    -0.275 OA
ENDBRANCH   1  33
BRANCH  17  36
HETATM   36  C19 UNL     1      -3.892 -16.116 -22.495  1.00  0.00     0.045 C 
BRANCH  36  37
HETATM   37  C20 UNL     1      -2.898 -17.090 -22.934  1.00  0.00     0.116 C 
BRANCH  37  38
HETATM   38  C21 UNL     1      -2.087 -17.877 -22.054  1.00  0.00     0.172 C 
HETATM   39  O7  UNL     1      -0.985 -17.620 -21.570  1.00  0.00    -0.648 OA
HETATM   40  O8  UNL     1      -2.611 -19.143 -21.671  1.00  0.00    -0.648 OA
ENDBRANCH  37  38
ENDBRANCH  36  37
ENDBRANCH  17  36
TORSDOF 13
ENDMDL
MODEL 4
REMARK VINA RESULT: -9.076162486      1.999      2.960
REMARK  13 active torsions:
REMARK  status: ('A' for Active; 'I' for Inactive)
REMARK    1  A    between atoms: C1_2  and  C2_4 
REMARK    2  A    between atoms: C6_11  and  C7_12 
REMARK    3  A    between atoms: C7_12  and  C8_13 
REMARK    4  A    between atoms: C8_13  and  C9_14 
REMARK    5  A    between atoms: C9_14  and  C10_15 
REMARK    6  A    between atoms: C10_15  and  C11_16 
REMARK    7  A    between atoms: C11_16  and  C12_17 
REMARK    8  A    between atoms: C12_17  and  C13_18 
REMARK    9  A    between atoms: C13_18  and  C14_19 
REMARK   10  A    between atoms: C14_19  and  C15_20 
REMARK   11  A    between atoms: C18_31  and  C19_32 
REMARK   12  A    between atoms: C19_32  and  C20_33 
REMARK   13  A    between atoms: C20_33  and  C21_34 
ROOT
HETATM    1  C2  UNL     1       3.957 -14.544 -22.644  1.00  0.00     0.174 C 
HETATM    2  C3  UNL     1       4.162 -13.454 -23.714  1.00  0.00     0.043 C 
HETATM    3  C4  UNL     1       4.435 -12.149 -23.114  1.00  0.00     0.105 C 
HETATM    4  C5  UNL     1       5.729 -11.504 -23.315  1.00  0.00     0.218 C 
HETATM    5  O2  UNL     1       5.772 -10.338 -22.749  1.00  0.00    -0.274 OA
HETATM    6  N2  UNL     1       6.883 -11.885 -23.973  1.00  0.00    -0.348 N 
ATOM      7  H2  UNL     1       7.734 -11.768 -23.422  1.00  0.00     0.163 HD
HETATM    8  C6  UNL     1       7.106 -12.413 -25.287  1.00  0.00     0.177 C 
HETATM    9  C16 UNL     1       7.831 -13.670 -25.378  1.00  0.00     0.248 C 
HETATM   10  O5  UNL     1       7.415 -14.434 -26.301  1.00  0.00    -0.271 OA
HETATM   11  N3  UNL     1       8.904 -14.150 -24.609  1.00  0.00    -0.278 N 
ATOM     12  H3  UNL     1       9.653 -14.596 -25.138  1.00  0.00     0.173 HD
HETATM   13  C17 UNL     1       9.097 -14.107 -23.211  1.00  0.00     0.323 C 
HETATM   14  O6  UNL     1      10.219 -13.593 -22.830  1.00  0.00    -0.247 OA
HETATM   15  N4  UNL     1       8.286 -14.526 -22.157  1.00  0.00    -0.330 N 
ATOM     16  H4  UNL     1       8.579 -14.296 -21.208  1.00  0.00     0.165 HD
HETATM   17  C18 UNL     1       7.011 -15.292 -22.331  1.00  0.00     0.178 C 
HETATM   18  C22 UNL     1       6.121 -14.740 -21.332  1.00  0.00     0.241 C 
HETATM   19  O9  UNL     1       6.612 -14.596 -20.152  1.00  0.00    -0.271 OA
HETATM   20  N5  UNL     1       4.773 -14.332 -21.490  1.00  0.00    -0.346 N 
ATOM     21  H5  UNL     1       4.345 -13.840 -20.706  1.00  0.00     0.163 HD
ENDROOT
BRANCH   8  22
HETATM   22  C7  UNL     1       7.901 -11.386 -26.120  1.00  0.00     0.035 C 
BRANCH  22  23
HETATM   23  C8  UNL     1       7.027 -10.647 -27.083  1.00  0.00     0.002 C 
BRANCH  23  24
HETATM   24  C9  UNL     1       6.489  -9.418 -26.392  1.00  0.00     0.000 C 
BRANCH  24  25
HETATM   25  C10 UNL     1       5.094  -9.092 -26.811  1.00  0.00     0.000 C 
BRANCH  25  26
HETATM   26  C11 UNL     1       4.146 -10.203 -26.432  1.00  0.00     0.000 C 
BRANCH  26  27
HETATM   27  C12 UNL     1       3.301 -10.688 -27.595  1.00  0.00     0.001 C 
BRANCH  27  28
HETATM   28  C13 UNL     1       3.049 -12.159 -27.539  1.00  0.00     0.010 C 
BRANCH  28  29
HETATM   29  C14 UNL     1       4.257 -13.010 -27.403  1.00  0.00     0.113 C 
BRANCH  29  30
HETATM   30  C15 UNL     1       4.849 -13.475 -28.662  1.00  0.00     0.172 C 
HETATM   31  O3  UNL     1       5.704 -12.807 -29.279  1.00  0.00    -0.648 OA
HETATM   32  O4  UNL     1       4.444 -14.714 -29.196  1.00  0.00    -0.648 OA
ENDBRANCH  29  30
ENDBRANCH  28  29
ENDBRANCH  27  28
ENDBRANCH  26  27
ENDBRANCH  25  26
ENDBRANCH  24  25
ENDBRANCH  23  24
ENDBRANCH  22  23
ENDBRANCH   8  22
BRANCH   1  33
HETATM   33  C1  UNL     1       2.500 -14.569 -22.261  1.00  0.00     0.254 C 
HETATM   34  N1  UNL     1       1.598 -15.422 -22.944  1.00  0.00    -0.060 NA
HETATM   35  O1  UNL     1       2.080 -13.849 -21.352  1.00  0.00    -0.275 OA
ENDBRANCH   1  33
BRANCH  17  36
HETATM   36  C19 UNL     1       7.418 -16.700 -22.094  1.00  0.00     0.045 C 
BRANCH  36  37
HETATM   37  C20 UNL     1       6.464 -17.801 -22.175  1.00  0.00     0.116 C 
BRANCH  37  38
HETATM   38  C21 UNL     1       5.379 -18.006 -21.262  1.00  0.00     0.172 C 
HETATM   39  O7  UNL     1       4.201 -17.666 -21.362  1.00  0.00    -0.648 OA
HETATM   40  O8  UNL     1       5.685 -18.701 -20.059  1.00  0.00    -0.648 OA
ENDBRANCH  37  38
ENDBRANCH  36  37
ENDBRANCH  17  36
TORSDOF 13
ENDMDL
MODEL 5
REMARK VINA RESULT: -9.064170982      2.383      6.976
REMARK  13 active torsions:
REMARK  status: ('A' for Active; 'I' for Inactive)
REMARK    1  A    between atoms: C1_2  and  C2_4 
REMARK    2  A    between atoms: C6_11  and  C7_12 
REMARK    3  A    between atoms: C7_12  and  C8_13 
REMARK    4  A    between atoms: C8_13  and  C9_14 
REMARK    5  A    between atoms: C9_14  and  C10_15 
REMARK    6  A    between atoms: C10_15  and  C11_16 
REMARK    7  A    between atoms: C11_16  and  C12_17 
REMARK    8  A    between atoms: C12_17  and  C13_18 
REMARK    9  A    between atoms: C13_18  and  C14_19 
REMARK   10  A    between atoms: C14_19  and  C15_20 
REMARK   11  A    between atoms: C18_31  and  C19_32 
REMARK   12  A    between atoms: C19_32  and  C20_33 
REMARK   13  A    between atoms: C20_33  and  C21_34 
ROOT
HETATM    1  C2  UNL     1       2.760 -14.902 -22.848  1.00  0.00     0.174 C 
HETATM    2  C3  UNL     1       3.858 -15.491 -21.942  1.00  0.00     0.043 C 
HETATM    3  C4  UNL     1       4.279 -16.817 -22.391  1.00  0.00     0.105 C 
HETATM    4  C5  UNL     1       5.639 -17.032 -22.874  1.00  0.00     0.218 C 
HETATM    5  O2  UNL     1       5.843 -18.274 -23.185  1.00  0.00    -0.274 OA
HETATM    6  N2  UNL     1       6.721 -16.192 -23.059  1.00  0.00    -0.348 N 
ATOM      7  H2  UNL     1       7.165 -16.280 -23.973  1.00  0.00     0.163 HD
HETATM    8  C6  UNL     1       7.335 -15.218 -22.203  1.00  0.00     0.177 C 
HETATM    9  C16 UNL     1       7.468 -13.869 -22.728  1.00  0.00     0.248 C 
HETATM   10  O5  UNL     1       7.299 -12.963 -21.858  1.00  0.00    -0.271 OA
HETATM   11  N3  UNL     1       7.752 -13.434 -24.033  1.00  0.00    -0.278 N 
ATOM     12  H3  UNL     1       8.429 -12.673 -24.100  1.00  0.00     0.173 HD
HETATM   13  C17 UNL     1       7.240 -13.893 -25.266  1.00  0.00     0.323 C 
HETATM   14  O6  UNL     1       8.132 -14.224 -26.140  1.00  0.00    -0.247 OA
HETATM   15  N4  UNL     1       5.930 -14.055 -25.714  1.00  0.00    -0.330 N 
ATOM     16  H4  UNL     1       5.786 -14.512 -26.614  1.00  0.00     0.165 HD
HETATM   17  C18 UNL     1       4.721 -13.600 -24.957  1.00  0.00     0.178 C 
HETATM   18  C22 UNL     1       3.746 -14.647 -25.174  1.00  0.00     0.241 C 
HETATM   19  O9  UNL     1       3.612 -15.057 -26.386  1.00  0.00    -0.271 OA
HETATM   20  N5  UNL     1       2.920 -15.287 -24.216  1.00  0.00    -0.346 N 
ATOM     21  H5  UNL     1       2.389 -16.099 -24.532  1.00  0.00     0.163 HD
ENDROOT
BRANCH   8  22
HETATM   22  C7  UNL     1       8.757 -15.689 -21.835  1.00  0.00     0.035 C 
BRANCH  22  23
HETATM   23  C8  UNL     1       8.819 -16.260 -20.454  1.00  0.00     0.002 C 
BRANCH  23  24
HETATM   24  C9  UNL     1       8.964 -17.760 -20.564  1.00  0.00     0.000 C 
BRANCH  24  25
HETATM   25  C10 UNL     1       7.725 -18.484 -20.156  1.00  0.00     0.000 C 
BRANCH  25  26
HETATM   26  C11 UNL     1       6.754 -17.548 -19.480  1.00  0.00     0.000 C 
BRANCH  26  27
HETATM   27  C12 UNL     1       5.397 -18.177 -19.226  1.00  0.00     0.001 C 
BRANCH  27  28
HETATM   28  C13 UNL     1       4.368 -17.169 -18.834  1.00  0.00     0.010 C 
BRANCH  28  29
HETATM   29  C14 UNL     1       4.867 -16.020 -18.038  1.00  0.00     0.113 C 
BRANCH  29  30
HETATM   30  C15 UNL     1       4.643 -14.696 -18.627  1.00  0.00     0.172 C 
HETATM   31  O3  UNL     1       5.518 -14.113 -19.301  1.00  0.00    -0.648 OA
HETATM   32  O4  UNL     1       3.403 -14.057 -18.430  1.00  0.00    -0.648 OA
ENDBRANCH  29  30
ENDBRANCH  28  29
ENDBRANCH  27  28
ENDBRANCH  26  27
ENDBRANCH  25  26
ENDBRANCH  24  25
ENDBRANCH  23  24
ENDBRANCH  22  23
ENDBRANCH   8  22
BRANCH   1  33
HETATM   33  C1  UNL     1       1.419 -15.352 -22.328  1.00  0.00     0.254 C 
HETATM   34  N1  UNL     1       0.789 -16.495 -22.878  1.00  0.00    -0.060 NA
HETATM   35  O1  UNL     1       0.861 -14.730 -21.421  1.00  0.00    -0.275 OA
ENDBRANCH   1  33
BRANCH  17  36
HETATM   36  C19 UNL     1       4.387 -12.297 -25.588  1.00  0.00     0.045 C 
BRANCH  36  37
HETATM   37  C20 UNL     1       4.445 -11.045 -24.843  1.00  0.00     0.116 C 
BRANCH  37  38
HETATM   38  C21 UNL     1       5.182 -10.853 -23.629  1.00  0.00     0.172 C 
HETATM   39  O7  UNL     1       4.797 -10.925 -22.463  1.00  0.00    -0.648 OA
HETATM   40  O8  UNL     1       6.561 -10.535 -23.769  1.00  0.00    -0.648 OA
ENDBRANCH  37  38
ENDBRANCH  36  37
ENDBRANCH  17  36
TORSDOF 13
ENDMDL
