MODEL 1
REMARK VINA RESULT: -4.292037649      0.000      0.000
REMARK  3 active torsions:
REMARK  status: ('A' for Active; 'I' for Inactive)
REMARK    1  A    between atoms: C2_2  and  C5_5 
REMARK    2  A    between atoms: C6_8  and  C7_9 
REMARK    3  A    between atoms: C7_9  and  O3_10 
ROOT
HETATM    1  C5  UNL     1      23.524  -1.652 -21.806  1.00  0.00     0.307 C 
HETATM    2  O1  UNL     1      24.815  -2.106 -21.978  1.00  0.00    -0.204 OA
HETATM    3  O2  UNL     1      25.209  -2.598 -20.819  1.00  0.00    -0.203 OA
HETATM    4  C6  UNL     1      24.173  -2.408 -19.921  1.00  0.00     0.323 C 
HETATM    5  O4  UNL     1      23.069  -2.491 -20.773  1.00  0.00    -0.323 OA
ENDROOT
BRANCH   1   6
HETATM    6  C2  UNL     1      22.671  -1.753 -23.027  1.00  0.00     0.002 C 
HETATM    7  C1  UNL     1      22.906  -3.043 -23.744  1.00  0.00     0.019 C 
HETATM    8  C3  UNL     1      22.986  -0.599 -23.934  1.00  0.00     0.019 C 
HETATM    9  C4  UNL     1      21.220  -1.593 -22.588  1.00  0.00     0.019 C 
ENDBRANCH   1   6
BRANCH   4  10
HETATM   10  C7  UNL     1      24.140  -3.424 -18.821  1.00  0.00     0.227 C 
BRANCH  10  11
HETATM   11  O3  UNL     1      25.398  -3.511 -18.264  1.00  0.00    -0.396 OA
ATOM     12  H3  UNL     1      25.314  -3.823 -17.370  1.00  0.00     0.209 HD
ENDBRANCH  10  11
ENDBRANCH   4  10
TORSDOF 3
ENDMDL
MODEL 2
REMARK VINA RESULT: -4.282116888      0.700      1.467
REMARK  3 active torsions:
REMARK  status: ('A' for Active; 'I' for Inactive)
REMARK    1  A    between atoms: C2_2  and  C5_5 
REMARK    2  A    between atoms: C6_8  and  C7_9 
REMARK    3  A    between atoms: C7_9  and  O3_10 
ROOT
HETATM    1  C5  UNL     1      23.036  -1.585 -21.987  1.00  0.00     0.307 C 
HETATM    2  O1  UNL     1      24.382  -1.859 -21.856  1.00  0.00    -0.204 OA
HETATM    3  O2  UNL     1      24.559  -2.355 -20.646  1.00  0.00    -0.203 OA
HETATM    4  C6  UNL     1      23.326  -2.348 -20.017  1.00  0.00     0.323 C 
HETATM    5  O4  UNL     1      22.473  -2.528 -21.108  1.00  0.00    -0.323 OA
ENDROOT
BRANCH   1   6
HETATM    6  C2  UNL     1      22.513  -1.733 -23.377  1.00  0.00     0.002 C 
HETATM    7  C1  UNL     1      22.948  -0.593 -24.241  1.00  0.00     0.019 C 
HETATM    8  C3  UNL     1      21.014  -1.793 -23.327  1.00  0.00     0.019 C 
HETATM    9  C4  UNL     1      22.997  -3.077 -23.909  1.00  0.00     0.019 C 
ENDBRANCH   1   6
BRANCH   4  10
HETATM   10  C7  UNL     1      23.179  -3.414 -18.976  1.00  0.00     0.227 C 
BRANCH  10  11
HETATM   11  O3  UNL     1      24.280  -3.377 -18.148  1.00  0.00    -0.396 OA
ATOM     12  H3  UNL     1      24.227  -4.104 -17.538  1.00  0.00     0.209 HD
ENDBRANCH  10  11
ENDBRANCH   4  10
TORSDOF 3
ENDMDL
MODEL 3
REMARK VINA RESULT: -4.186235881      0.933      1.866
REMARK  3 active torsions:
REMARK  status: ('A' for Active; 'I' for Inactive)
REMARK    1  A    between atoms: C2_2  and  C5_5 
REMARK    2  A    between atoms: C6_8  and  C7_9 
REMARK    3  A    between atoms: C7_9  and  O3_10 
ROOT
HETATM    1  C5  UNL     1      23.066  -2.700 -21.570  1.00  0.00     0.307 C 
HETATM    2  O1  UNL     1      22.154  -2.597 -20.540  1.00  0.00    -0.204 OA
HETATM    3  O2  UNL     1      22.820  -2.772 -19.415  1.00  0.00    -0.203 OA
HETATM    4  C6  UNL     1      24.138  -3.023 -19.755  1.00  0.00     0.323 C 
HETATM    5  O4  UNL     1      24.250  -2.284 -20.935  1.00  0.00    -0.323 OA
ENDROOT
BRANCH   1   6
HETATM    6  C2  UNL     1      22.743  -1.860 -22.760  1.00  0.00     0.002 C 
HETATM    7  C1  UNL     1      23.805  -0.836 -23.002  1.00  0.00     0.019 C 
HETATM    8  C3  UNL     1      21.423  -1.183 -22.531  1.00  0.00     0.019 C 
HETATM    9  C4  UNL     1      22.564  -2.798 -23.949  1.00  0.00     0.019 C 
ENDBRANCH   1   6
BRANCH   4  10
HETATM   10  C7  UNL     1      25.119  -2.602 -18.705  1.00  0.00     0.227 C 
BRANCH  10  11
HETATM   11  O3  UNL     1      25.496  -3.713 -17.982  1.00  0.00    -0.396 OA
ATOM     12  H3  UNL     1      25.919  -3.425 -17.181  1.00  0.00     0.209 HD
ENDBRANCH  10  11
ENDBRANCH   4  10
TORSDOF 3
ENDMDL
MODEL 4
REMARK VINA RESULT: -4.166769159      0.965      1.964
REMARK  3 active torsions:
REMARK  status: ('A' for Active; 'I' for Inactive)
REMARK    1  A    between atoms: C2_2  and  C5_5 
REMARK    2  A    between atoms: C6_8  and  C7_9 
REMARK    3  A    between atoms: C7_9  and  O3_10 
ROOT
HETATM    1  C5  UNL     1      23.051  -2.715 -21.527  1.00  0.00     0.307 C 
HETATM    2  O1  UNL     1      22.151  -2.640 -20.483  1.00  0.00    -0.204 OA
HETATM    3  O2  UNL     1      22.837  -2.811 -19.369  1.00  0.00    -0.203 OA
HETATM    4  C6  UNL     1      24.154  -3.033 -19.730  1.00  0.00     0.323 C 
HETATM    5  O4  UNL     1      24.235  -2.281 -20.904  1.00  0.00    -0.323 OA
ENDROOT
BRANCH   1   6
HETATM    6  C2  UNL     1      22.695  -1.871 -22.705  1.00  0.00     0.002 C 
HETATM    7  C1  UNL     1      21.407  -1.145 -22.479  1.00  0.00     0.019 C 
HETATM    8  C3  UNL     1      22.580  -2.752 -23.915  1.00  0.00     0.019 C 
HETATM    9  C4  UNL     1      23.858  -0.918 -22.954  1.00  0.00     0.019 C 
ENDBRANCH   1   6
BRANCH   4  10
HETATM   10  C7  UNL     1      25.141  -2.602 -18.689  1.00  0.00     0.227 C 
BRANCH  10  11
HETATM   11  O3  UNL     1      25.513  -3.704 -17.950  1.00  0.00    -0.396 OA
ATOM     12  H3  UNL     1      26.443  -3.645 -17.763  1.00  0.00     0.209 HD
ENDBRANCH  10  11
ENDBRANCH   4  10
TORSDOF 3
ENDMDL
MODEL 5
REMARK VINA RESULT: -4.114784783      0.958      1.500
REMARK  3 active torsions:
REMARK  status: ('A' for Active; 'I' for Inactive)
REMARK    1  A    between atoms: C2_2  and  C5_5 
REMARK    2  A    between atoms: C6_8  and  C7_9 
REMARK    3  A    between atoms: C7_9  and  O3_10 
ROOT
HETATM    1  C5  UNL     1      23.050  -2.728 -21.543  1.00  0.00     0.307 C 
HETATM    2  O1  UNL     1      22.150  -2.629 -20.502  1.00  0.00    -0.204 OA
HETATM    3  O2  UNL     1      22.834  -2.785 -19.385  1.00  0.00    -0.203 OA
HETATM    4  C6  UNL     1      24.150  -3.023 -19.740  1.00  0.00     0.323 C 
HETATM    5  O4  UNL     1      24.237  -2.292 -20.928  1.00  0.00    -0.323 OA
ENDROOT
BRANCH   1   6
HETATM    6  C2  UNL     1      22.701  -1.902 -22.736  1.00  0.00     0.002 C 
HETATM    7  C1  UNL     1      22.550  -2.752 -23.956  1.00  0.00     0.019 C 
HETATM    8  C3  UNL     1      23.782  -0.884 -22.953  1.00  0.00     0.019 C 
HETATM    9  C4  UNL     1      21.425  -1.136 -22.406  1.00  0.00     0.019 C 
ENDBRANCH   1   6
BRANCH   4  10
HETATM   10  C7  UNL     1      25.139  -2.580 -18.706  1.00  0.00     0.227 C 
BRANCH  10  11
HETATM   11  O3  UNL     1      25.507  -3.673 -17.952  1.00  0.00    -0.396 OA
ATOM     12  H3  UNL     1      24.945  -4.404 -18.181  1.00  0.00     0.209 HD
ENDBRANCH  10  11
ENDBRANCH   4  10
TORSDOF 3
ENDMDL
