MODEL 1
REMARK VINA RESULT: -2.398661112      0.000      0.000
REMARK  2 active torsions:
REMARK  status: ('A' for Active; 'I' for Inactive)
REMARK    1  A    between atoms: S1_2  and  C2_3 
REMARK    2  A    between atoms: C2_3  and  O1_4 
ROOT
HETATM    1  C2  UNL     1      24.169  -1.942 -21.905  1.00  0.00     0.239 C 
HETATM    2  C3  UNL     1      23.657  -3.094 -22.767  1.00  0.00     0.252 C 
HETATM    3  O2  UNL     1      23.550  -2.365 -23.967  1.00  0.00    -0.349 OA
HETATM    4  C4  UNL     1      22.803  -1.271 -23.529  1.00  0.00     0.161 C 
HETATM    5  C5  UNL     1      23.006  -0.048 -24.377  1.00  0.00     0.078 C 
HETATM    6  C6  UNL     1      21.345  -1.690 -23.695  1.00  0.00     0.078 C 
HETATM    7  O3  UNL     1      23.126  -1.047 -22.198  1.00  0.00    -0.308 OA
ENDROOT
BRANCH   1   8
HETATM    8  S1  UNL     1      24.328  -2.330 -20.184  1.00  0.00    -0.104 SA
HETATM    9  C1  UNL     1      22.735  -2.936 -19.563  1.00  0.00     0.095 C 
ENDBRANCH   1   8
BRANCH   1  10
HETATM   10  O1  UNL     1      25.392  -1.491 -22.411  1.00  0.00    -0.355 OA
ATOM     11  H1  UNL     1      25.658  -0.697 -21.963  1.00  0.00     0.214 HD
ENDBRANCH   1  10
TORSDOF 2
ENDMDL
MODEL 2
REMARK VINA RESULT: -1.843932863      1.889      2.684
REMARK  2 active torsions:
REMARK  status: ('A' for Active; 'I' for Inactive)
REMARK    1  A    between atoms: S1_2  and  C2_3 
REMARK    2  A    between atoms: C2_3  and  O1_4 
ROOT
HETATM    1  C2  UNL     1      22.115  -2.467 -20.917  1.00  0.00     0.239 C 
HETATM    2  C3  UNL     1      21.838  -1.004 -21.257  1.00  0.00     0.252 C 
HETATM    3  O2  UNL     1      21.448  -1.218 -22.593  1.00  0.00    -0.349 OA
HETATM    4  C4  UNL     1      22.525  -1.979 -23.050  1.00  0.00     0.161 C 
HETATM    5  C5  UNL     1      22.169  -2.852 -24.219  1.00  0.00     0.078 C 
HETATM    6  C6  UNL     1      23.548  -0.963 -23.549  1.00  0.00     0.078 C 
HETATM    7  O3  UNL     1      23.008  -2.711 -21.975  1.00  0.00    -0.308 OA
ENDROOT
BRANCH   1   8
HETATM    8  S1  UNL     1      22.810  -2.726 -19.308  1.00  0.00    -0.104 SA
HETATM    9  C1  UNL     1      24.607  -2.922 -19.463  1.00  0.00     0.095 C 
ENDBRANCH   1   8
BRANCH   1  10
HETATM   10  O1  UNL     1      20.938  -3.207 -21.057  1.00  0.00    -0.355 OA
ATOM     11  H1  UNL     1      20.637  -3.176 -21.958  1.00  0.00     0.214 HD
ENDBRANCH   1  10
TORSDOF 2
ENDMDL
MODEL 3
REMARK VINA RESULT: -1.807730729      2.204      3.142
REMARK  2 active torsions:
REMARK  status: ('A' for Active; 'I' for Inactive)
REMARK    1  A    between atoms: S1_2  and  C2_3 
REMARK    2  A    between atoms: C2_3  and  O1_4 
ROOT
HETATM    1  C2  UNL     1      23.437  -0.714 -23.782  1.00  0.00     0.239 C 
HETATM    2  C3  UNL     1      24.110  -1.721 -22.852  1.00  0.00     0.252 C 
HETATM    3  O2  UNL     1      23.178  -2.760 -23.034  1.00  0.00    -0.349 OA
HETATM    4  C4  UNL     1      21.987  -2.075 -22.784  1.00  0.00     0.161 C 
HETATM    5  C5  UNL     1      20.799  -2.709 -23.450  1.00  0.00     0.078 C 
HETATM    6  C6  UNL     1      21.769  -2.193 -21.278  1.00  0.00     0.078 C 
HETATM    7  O3  UNL     1      22.170  -0.757 -23.177  1.00  0.00    -0.308 OA
ENDROOT
BRANCH   1   8
HETATM    8  S1  UNL     1      24.184   0.893 -23.785  1.00  0.00    -0.104 SA
HETATM    9  C1  UNL     1      25.608   0.886 -22.662  1.00  0.00     0.095 C 
ENDBRANCH   1   8
BRANCH   1  10
HETATM   10  O1  UNL     1      23.406  -1.231 -25.080  1.00  0.00    -0.355 OA
ATOM     11  H1  UNL     1      22.667  -1.820 -25.180  1.00  0.00     0.214 HD
ENDBRANCH   1  10
TORSDOF 2
ENDMDL
MODEL 4
REMARK VINA RESULT: -1.740627772      1.798      2.639
REMARK  2 active torsions:
REMARK  status: ('A' for Active; 'I' for Inactive)
REMARK    1  A    between atoms: S1_2  and  C2_3 
REMARK    2  A    between atoms: C2_3  and  O1_4 
ROOT
HETATM    1  C2  UNL     1      24.658  -1.662 -22.115  1.00  0.00     0.239 C 
HETATM    2  C3  UNL     1      23.740  -1.935 -20.925  1.00  0.00     0.252 C 
HETATM    3  O2  UNL     1      22.889  -2.845 -21.580  1.00  0.00    -0.349 OA
HETATM    4  C4  UNL     1      22.563  -2.108 -22.719  1.00  0.00     0.161 C 
HETATM    5  C5  UNL     1      22.165  -2.974 -23.881  1.00  0.00     0.078 C 
HETATM    6  C6  UNL     1      21.332  -1.295 -22.329  1.00  0.00     0.078 C 
HETATM    7  O3  UNL     1      23.646  -1.293 -23.017  1.00  0.00    -0.308 OA
ENDROOT
BRANCH   1   8
HETATM    8  S1  UNL     1      25.870  -0.402 -21.832  1.00  0.00    -0.104 SA
HETATM    9  C1  UNL     1      25.407   1.085 -22.761  1.00  0.00     0.095 C 
ENDBRANCH   1   8
BRANCH   1  10
HETATM   10  O1  UNL     1      25.283  -2.852 -22.501  1.00  0.00    -0.355 OA
ATOM     11  H1  UNL     1      26.141  -2.667 -22.865  1.00  0.00     0.214 HD
ENDBRANCH   1  10
TORSDOF 2
ENDMDL
MODEL 5
REMARK VINA RESULT: -1.679475167      1.258      1.982
REMARK  2 active torsions:
REMARK  status: ('A' for Active; 'I' for Inactive)
REMARK    1  A    between atoms: S1_2  and  C2_3 
REMARK    2  A    between atoms: C2_3  and  O1_4 
ROOT
HETATM    1  C2  UNL     1      23.540  -1.808 -22.787  1.00  0.00     0.239 C 
HETATM    2  C3  UNL     1      22.158  -1.196 -23.014  1.00  0.00     0.252 C 
HETATM    3  O2  UNL     1      22.315  -0.946 -24.390  1.00  0.00    -0.349 OA
HETATM    4  C4  UNL     1      23.529  -0.257 -24.383  1.00  0.00     0.161 C 
HETATM    5  C5  UNL     1      24.265  -0.358 -25.689  1.00  0.00     0.078 C 
HETATM    6  C6  UNL     1      23.154   1.210 -24.197  1.00  0.00     0.078 C 
HETATM    7  O3  UNL     1      24.278  -0.737 -23.319  1.00  0.00    -0.308 OA
ENDROOT
BRANCH   1   8
HETATM    8  S1  UNL     1      23.909  -2.171 -21.093  1.00  0.00    -0.104 SA
HETATM    9  C1  UNL     1      22.377  -2.632 -20.238  1.00  0.00     0.095 C 
ENDBRANCH   1   8
BRANCH   1  10
HETATM   10  O1  UNL     1      23.670  -2.961 -23.565  1.00  0.00    -0.355 OA
ATOM     11  H1  UNL     1      23.396  -3.723 -23.068  1.00  0.00     0.214 HD
ENDBRANCH   1  10
TORSDOF 2
ENDMDL
