MODEL 1
REMARK VINA RESULT: -2.273067777      0.000      0.000
REMARK  2 active torsions:
REMARK  status: ('A' for Active; 'I' for Inactive)
REMARK    1  A    between atoms: C2_2  and  C3_3 
REMARK    2  A    between atoms: N3_13  and  O1_14 
ROOT
HETATM    1  C3  UNL     1      24.079  -2.226 -21.167  1.00  0.00     0.156 C 
HETATM    2  C4  UNL     1      25.038  -1.199 -21.581  1.00  0.00     0.089 C 
HETATM    3  N1  UNL     1      25.802  -0.364 -21.896  1.00  0.00    -0.195 NA
HETATM    4  C5  UNL     1      23.460  -2.966 -22.338  1.00  0.00     0.245 C 
HETATM    5  N2  UNL     1      23.623  -2.388 -23.619  1.00  0.00    -0.066 N 
ATOM      6  H21 UNL     1      24.256  -2.916 -24.219  1.00  0.00     0.277 HD
ATOM      7  H22 UNL     1      24.155  -1.518 -23.601  1.00  0.00     0.277 HD
HETATM    8  C6  UNL     1      22.293  -2.233 -24.188  1.00  0.00     0.234 C 
HETATM    9  C7  UNL     1      21.493  -1.708 -22.997  1.00  0.00     0.051 C 
HETATM   10  C8  UNL     1      22.093  -2.500 -21.866  1.00  0.00     0.123 C 
HETATM   11  N3  UNL     1      22.806  -1.671 -20.897  1.00  0.00    -0.167 NA
ENDROOT
BRANCH   1  12
HETATM   12  C2  UNL     1      24.694  -3.180 -20.210  1.00  0.00     0.041 C 
HETATM   13  C1  UNL     1      25.191  -2.611 -18.934  1.00  0.00     0.008 C 
ENDBRANCH   1  12
BRANCH  11  14
HETATM   14  O1  UNL     1      22.271  -1.820 -19.684  1.00  0.00    -0.311 OA
ATOM     15  H1  UNL     1      22.755  -2.291 -19.016  1.00  0.00     0.237 HD
ENDBRANCH  11  14
TORSDOF 2
ENDMDL
MODEL 2
REMARK VINA RESULT: -2.216344038      1.880      4.003
REMARK  2 active torsions:
REMARK  status: ('A' for Active; 'I' for Inactive)
REMARK    1  A    between atoms: C2_2  and  C3_3 
REMARK    2  A    between atoms: N3_13  and  O1_14 
ROOT
HETATM    1  C3  UNL     1      23.041  -1.692 -22.797  1.00  0.00     0.156 C 
HETATM    2  C4  UNL     1      21.795  -1.198 -22.206  1.00  0.00     0.089 C 
HETATM    3  N1  UNL     1      20.798  -0.784 -21.742  1.00  0.00    -0.195 NA
HETATM    4  C5  UNL     1      23.759  -2.697 -21.916  1.00  0.00     0.245 C 
HETATM    5  N2  UNL     1      23.336  -2.784 -20.569  1.00  0.00    -0.066 N 
ATOM      6  H21 UNL     1      22.842  -3.650 -20.359  1.00  0.00     0.277 HD
ATOM      7  H22 UNL     1      22.576  -2.142 -20.345  1.00  0.00     0.277 HD
HETATM    8  C6  UNL     1      24.515  -2.584 -19.739  1.00  0.00     0.234 C 
HETATM    9  C7  UNL     1      25.215  -1.426 -20.450  1.00  0.00     0.051 C 
HETATM   10  C8  UNL     1      24.960  -1.768 -21.894  1.00  0.00     0.123 C 
HETATM   11  N3  UNL     1      24.112  -0.794 -22.577  1.00  0.00    -0.167 NA
ENDROOT
BRANCH   1  12
HETATM   12  C2  UNL     1      22.808  -2.254 -24.151  1.00  0.00     0.041 C 
HETATM   13  C1  UNL     1      21.999  -3.496 -24.222  1.00  0.00     0.008 C 
ENDBRANCH   1  12
BRANCH  11  14
HETATM   14  O1  UNL     1      24.759  -0.276 -23.622  1.00  0.00    -0.311 OA
ATOM     15  H1  UNL     1      25.408   0.403 -23.479  1.00  0.00     0.237 HD
ENDBRANCH  11  14
TORSDOF 2
ENDMDL
MODEL 3
REMARK VINA RESULT: -2.162054239      1.396      1.655
REMARK  2 active torsions:
REMARK  status: ('A' for Active; 'I' for Inactive)
REMARK    1  A    between atoms: C2_2  and  C3_3 
REMARK    2  A    between atoms: N3_13  and  O1_14 
ROOT
HETATM    1  C3  UNL     1      22.619  -2.237 -21.157  1.00  0.00     0.156 C 
HETATM    2  C4  UNL     1      24.012  -1.879 -20.877  1.00  0.00     0.089 C 
HETATM    3  N1  UNL     1      25.122  -1.576 -20.640  1.00  0.00    -0.195 NA
HETATM    4  C5  UNL     1      22.437  -2.900 -22.509  1.00  0.00     0.245 C 
HETATM    5  N2  UNL     1      23.515  -2.800 -23.421  1.00  0.00    -0.066 N 
ATOM      6  H21 UNL     1      23.997  -3.686 -23.570  1.00  0.00     0.277 HD
ATOM      7  H22 UNL     1      24.309  -2.280 -23.048  1.00  0.00     0.277 HD
HETATM    8  C6  UNL     1      22.982  -2.227 -24.648  1.00  0.00     0.234 C 
HETATM    9  C7  UNL     1      22.073  -1.119 -24.116  1.00  0.00     0.051 C 
HETATM   10  C8  UNL     1      21.490  -1.777 -22.894  1.00  0.00     0.123 C 
HETATM   11  N3  UNL     1      21.887  -1.130 -21.646  1.00  0.00    -0.167 NA
ENDROOT
BRANCH   1  12
HETATM   12  C2  UNL     1      22.055  -3.085 -20.078  1.00  0.00     0.041 C 
HETATM   13  C1  UNL     1      22.947  -3.376 -18.929  1.00  0.00     0.008 C 
ENDBRANCH   1  12
BRANCH  11  14
HETATM   14  O1  UNL     1      20.808  -0.714 -20.982  1.00  0.00    -0.311 OA
ATOM     15  H1  UNL     1      20.882   0.023 -20.386  1.00  0.00     0.237 HD
ENDBRANCH  11  14
TORSDOF 2
ENDMDL
MODEL 4
REMARK VINA RESULT: -1.979574561      1.717      3.758
REMARK  2 active torsions:
REMARK  status: ('A' for Active; 'I' for Inactive)
REMARK    1  A    between atoms: C2_2  and  C3_3 
REMARK    2  A    between atoms: N3_13  and  O1_14 
ROOT
HETATM    1  C3  UNL     1      22.454  -1.661 -23.133  1.00  0.00     0.156 C 
HETATM    2  C4  UNL     1      22.515  -2.872 -23.957  1.00  0.00     0.089 C 
HETATM    3  N1  UNL     1      22.542  -3.842 -24.617  1.00  0.00    -0.195 NA
HETATM    4  C5  UNL     1      23.674  -1.484 -22.249  1.00  0.00     0.245 C 
HETATM    5  N2  UNL     1      24.519  -2.608 -22.091  1.00  0.00    -0.066 N 
ATOM      6  H21 UNL     1      25.418  -2.502 -22.560  1.00  0.00     0.277 HD
ATOM      7  H22 UNL     1      24.198  -3.427 -22.607  1.00  0.00     0.277 HD
HETATM    8  C6  UNL     1      24.646  -2.848 -20.661  1.00  0.00     0.234 C 
HETATM    9  C7  UNL     1      23.209  -2.654 -20.176  1.00  0.00     0.051 C 
HETATM   10  C8  UNL     1      22.758  -1.506 -21.038  1.00  0.00     0.123 C 
HETATM   11  N3  UNL     1      21.686  -1.867 -21.963  1.00  0.00    -0.167 NA
ENDROOT
BRANCH   1  12
HETATM   12  C2  UNL     1      22.232  -0.454 -23.967  1.00  0.00     0.041 C 
HETATM   13  C1  UNL     1      23.439   0.176 -24.556  1.00  0.00     0.008 C 
ENDBRANCH   1  12
BRANCH  11  14
HETATM   14  O1  UNL     1      20.613  -1.106 -21.742  1.00  0.00    -0.311 OA
ATOM     15  H1  UNL     1      20.376  -0.439 -22.376  1.00  0.00     0.237 HD
ENDBRANCH  11  14
TORSDOF 2
ENDMDL
MODEL 5
REMARK VINA RESULT: -1.779608587      2.354      3.991
REMARK  2 active torsions:
REMARK  status: ('A' for Active; 'I' for Inactive)
REMARK    1  A    between atoms: C2_2  and  C3_3 
REMARK    2  A    between atoms: N3_13  and  O1_14 
ROOT
HETATM    1  C3  UNL     1      23.045  -1.816 -23.016  1.00  0.00     0.156 C 
HETATM    2  C4  UNL     1      22.417  -1.928 -21.697  1.00  0.00     0.089 C 
HETATM    3  N1  UNL     1      21.896  -2.005 -20.647  1.00  0.00    -0.195 NA
HETATM    4  C5  UNL     1      24.561  -1.841 -22.955  1.00  0.00     0.245 C 
HETATM    5  N2  UNL     1      25.154  -1.647 -21.685  1.00  0.00    -0.066 N 
ATOM      6  H21 UNL     1      25.588  -2.491 -21.312  1.00  0.00     0.277 HD
ATOM      7  H22 UNL     1      24.470  -1.512 -20.940  1.00  0.00     0.277 HD
HETATM    8  C6  UNL     1      26.085  -0.537 -21.815  1.00  0.00     0.234 C 
HETATM    9  C7  UNL     1      25.285   0.455 -22.659  1.00  0.00     0.051 C 
HETATM   10  C8  UNL     1      24.576  -0.471 -23.610  1.00  0.00     0.123 C 
HETATM   11  N3  UNL     1      23.124  -0.470 -23.442  1.00  0.00    -0.167 NA
ENDROOT
BRANCH   1  12
HETATM   12  C2  UNL     1      22.541  -2.862 -23.941  1.00  0.00     0.041 C 
HETATM   13  C1  UNL     1      21.102  -3.204 -23.833  1.00  0.00     0.008 C 
ENDBRANCH   1  12
BRANCH  11  14
HETATM   14  O1  UNL     1      22.531  -0.107 -24.580  1.00  0.00    -0.311 OA
ATOM     15  H1  UNL     1      22.525   0.809 -24.832  1.00  0.00     0.237 HD
ENDBRANCH  11  14
TORSDOF 2
ENDMDL
