MODEL 1
REMARK VINA RESULT: -8.624978316      0.000      0.000
REMARK  6 active torsions:
REMARK  status: ('A' for Active; 'I' for Inactive)
REMARK    1  A    between atoms: C2_2  and  C3_3 
REMARK    2  A    between atoms: C4_6  and  C5_7 
REMARK    3  A    between atoms: C5_7  and  S1_8 
REMARK    4  A    between atoms: S1_8  and  C6_9 
REMARK    5  A    between atoms: C7_12  and  N3_13 
REMARK    6  A    between atoms: N3_13  and  C8_15 
ROOT
HETATM    1  C6  UNL     1       6.966   8.221  21.818  1.00  0.00     0.121 A 
HETATM    2  N2  UNL     1       7.124   9.269  22.568  1.00  0.00    -0.325 N 
ATOM      3  H2  UNL     1       7.544   9.162  23.491  1.00  0.00     0.169 HD
HETATM    4  C7  UNL     1       6.754  10.468  22.162  1.00  0.00     0.157 A 
HETATM    5  S2  UNL     1       6.059  10.532  20.591  1.00  0.00    -0.014 SA
HETATM    6  S3  UNL     1       6.256   8.466  20.281  1.00  0.00    -0.024 SA
ENDROOT
BRANCH   1   7
HETATM    7  S1  UNL     1       7.458   6.540  22.324  1.00  0.00    -0.098 SA
BRANCH   7   8
HETATM    8  C5  UNL     1       6.395   5.321  21.507  1.00  0.00     0.142 C 
BRANCH   8   9
HETATM    9  C4  UNL     1       7.257   4.174  21.130  1.00  0.00     0.069 A 
HETATM   10  N1  UNL     1       8.317   4.143  20.290  1.00  0.00    -0.340 N 
HETATM   11  C3  UNL     1       8.765   2.874  20.278  1.00  0.00     0.125 A 
ATOM     12  H1  UNL     1       8.703   4.930  19.768  1.00  0.00     0.167 HD
HETATM   13  O1  UNL     1       8.008   2.162  21.077  1.00  0.00    -0.281 OA
HETATM   14  C15 UNL     1       7.077   2.891  21.623  1.00  0.00     0.182 A 
HETATM   15  N4  UNL     1       6.081   2.461  22.536  1.00  0.00    -0.072 NA
BRANCH  11  16
HETATM   16  C2  UNL     1       9.921   2.344  19.497  1.00  0.00     0.080 C 
HETATM   17  C1  UNL     1      10.145   0.883  19.874  1.00  0.00     0.013 C 
ENDBRANCH  11  16
ENDBRANCH   8   9
ENDBRANCH   7   8
ENDBRANCH   1   7
BRANCH   4  18
HETATM   18  N3  UNL     1       6.926  11.526  22.948  1.00  0.00    -0.326 N 
ATOM     19  H3  UNL     1       7.858  11.779  23.275  1.00  0.00     0.169 HD
BRANCH  18  20
HETATM   20  C8  UNL     1       5.816  12.288  23.322  1.00  0.00     0.107 C 
HETATM   21 CL1  UNL     1       4.630  11.638  24.432  1.00  0.00    -0.064 Cl
HETATM   22  C9  UNL     1       5.628  13.517  22.853  1.00  0.00    -0.041 C 
HETATM   23  C10 UNL     1       4.475  14.351  23.222  1.00  0.00     0.037 C 
HETATM   24  C14 UNL     1       6.618  14.120  21.898  1.00  0.00     0.037 C 
HETATM   25  C11 UNL     1       4.867  15.743  23.647  1.00  0.00     0.004 C 
HETATM   26  C12 UNL     1       5.974  16.332  22.847  1.00  0.00     0.001 C 
HETATM   27  C13 UNL     1       7.102  15.397  22.549  1.00  0.00     0.004 C 
ENDBRANCH  18  20
ENDBRANCH   4  18
TORSDOF 6
ENDMDL
MODEL 2
REMARK VINA RESULT: -8.599820691      6.454     12.530
REMARK  6 active torsions:
REMARK  status: ('A' for Active; 'I' for Inactive)
REMARK    1  A    between atoms: C2_2  and  C3_3 
REMARK    2  A    between atoms: C4_6  and  C5_7 
REMARK    3  A    between atoms: C5_7  and  S1_8 
REMARK    4  A    between atoms: S1_8  and  C6_9 
REMARK    5  A    between atoms: C7_12  and  N3_13 
REMARK    6  A    between atoms: N3_13  and  C8_15 
ROOT
HETATM    1  C6  UNL     1       3.602  15.775  22.906  1.00  0.00     0.121 A 
HETATM    2  N2  UNL     1       3.756  14.593  22.392  1.00  0.00    -0.325 N 
ATOM      3  H2  UNL     1       2.935  14.077  22.074  1.00  0.00     0.169 HD
HETATM    4  C7  UNL     1       4.949  14.044  22.271  1.00  0.00     0.157 A 
HETATM    5  S2  UNL     1       6.260  15.000  22.839  1.00  0.00    -0.014 SA
HETATM    6  S3  UNL     1       5.018  16.587  23.421  1.00  0.00    -0.024 SA
ENDROOT
BRANCH   1   7
HETATM    7  S1  UNL     1       1.980  16.583  23.099  1.00  0.00    -0.098 SA
BRANCH   7   8
HETATM    8  C5  UNL     1       2.094  17.891  24.347  1.00  0.00     0.142 C 
BRANCH   8   9
HETATM    9  C4  UNL     1       1.883  19.182  23.646  1.00  0.00     0.069 A 
HETATM   10  N1  UNL     1       2.799  20.063  23.183  1.00  0.00    -0.340 N 
HETATM   11  C3  UNL     1       2.115  21.078  22.625  1.00  0.00     0.125 A 
ATOM     12  H1  UNL     1       3.814  19.974  23.246  1.00  0.00     0.167 HD
HETATM   13  O1  UNL     1       0.834  20.825  22.744  1.00  0.00    -0.281 OA
HETATM   14  C15 UNL     1       0.628  19.693  23.353  1.00  0.00     0.182 A 
HETATM   15  N4  UNL     1      -0.625  19.101  23.655  1.00  0.00    -0.072 NA
BRANCH  11  16
HETATM   16  C2  UNL     1       2.691  22.293  21.977  1.00  0.00     0.080 C 
HETATM   17  C1  UNL     1       1.696  22.825  20.951  1.00  0.00     0.013 C 
ENDBRANCH  11  16
ENDBRANCH   8   9
ENDBRANCH   7   8
ENDBRANCH   1   7
BRANCH   4  18
HETATM   18  N3  UNL     1       5.081  12.832  21.741  1.00  0.00    -0.326 N 
ATOM     19  H3  UNL     1       4.899  12.681  20.750  1.00  0.00     0.169 HD
BRANCH  18  20
HETATM   20  C8  UNL     1       5.473  11.767  22.557  1.00  0.00     0.107 C 
HETATM   21 CL1  UNL     1       4.999  11.722  24.241  1.00  0.00    -0.064 Cl
HETATM   22  C9  UNL     1       6.208  10.766  22.086  1.00  0.00    -0.041 C 
HETATM   23  C10 UNL     1       6.641   9.628  22.911  1.00  0.00     0.037 C 
HETATM   24  C14 UNL     1       6.640  10.758  20.648  1.00  0.00     0.037 C 
HETATM   25  C11 UNL     1       6.366   8.295  22.264  1.00  0.00     0.004 C 
HETATM   26  C12 UNL     1       6.606   8.271  20.796  1.00  0.00     0.001 C 
HETATM   27  C13 UNL     1       6.106   9.472  20.058  1.00  0.00     0.004 C 
ENDBRANCH  18  20
ENDBRANCH   4  18
TORSDOF 6
ENDMDL
MODEL 3
REMARK VINA RESULT: -8.207740596      6.223     11.926
REMARK  6 active torsions:
REMARK  status: ('A' for Active; 'I' for Inactive)
REMARK    1  A    between atoms: C2_2  and  C3_3 
REMARK    2  A    between atoms: C4_6  and  C5_7 
REMARK    3  A    between atoms: C5_7  and  S1_8 
REMARK    4  A    between atoms: S1_8  and  C6_9 
REMARK    5  A    between atoms: C7_12  and  N3_13 
REMARK    6  A    between atoms: N3_13  and  C8_15 
ROOT
HETATM    1  C6  UNL     1       3.402  15.276  22.715  1.00  0.00     0.121 A 
HETATM    2  N2  UNL     1       3.756  14.138  22.198  1.00  0.00    -0.325 N 
ATOM      3  H2  UNL     1       3.040  13.517  21.822  1.00  0.00     0.169 HD
HETATM    4  C7  UNL     1       5.020  13.768  22.149  1.00  0.00     0.157 A 
HETATM    5  S2  UNL     1       6.143  14.890  22.811  1.00  0.00    -0.014 SA
HETATM    6  S3  UNL     1       4.651  16.271  23.328  1.00  0.00    -0.024 SA
ENDROOT
BRANCH   1   7
HETATM    7  S1  UNL     1       1.671  15.840  22.810  1.00  0.00    -0.098 SA
BRANCH   7   8
HETATM    8  C5  UNL     1       1.620  17.651  22.804  1.00  0.00     0.142 C 
BRANCH   8   9
HETATM    9  C4  UNL     1       1.439  18.087  24.211  1.00  0.00     0.069 A 
HETATM   10  N1  UNL     1       2.018  17.607  25.335  1.00  0.00    -0.340 N 
HETATM   11  C3  UNL     1       1.532  18.329  26.361  1.00  0.00     0.125 A 
ATOM     12  H1  UNL     1       2.693  16.844  25.393  1.00  0.00     0.167 HD
HETATM   13  O1  UNL     1       0.691  19.213  25.881  1.00  0.00    -0.281 OA
HETATM   14  C15 UNL     1       0.591  19.118  24.586  1.00  0.00     0.182 A 
HETATM   15  N4  UNL     1      -0.221  19.907  23.732  1.00  0.00    -0.072 NA
BRANCH  11  16
HETATM   16  C2  UNL     1       1.875  18.170  27.805  1.00  0.00     0.080 C 
HETATM   17  C1  UNL     1       3.235  18.809  28.064  1.00  0.00     0.013 C 
ENDBRANCH  11  16
ENDBRANCH   8   9
ENDBRANCH   7   8
ENDBRANCH   1   7
BRANCH   4  18
HETATM   18  N3  UNL     1       5.358  12.598  21.616  1.00  0.00    -0.326 N 
ATOM     19  H3  UNL     1       5.409  12.489  20.603  1.00  0.00     0.169 HD
BRANCH  18  20
HETATM   20  C8  UNL     1       5.643  11.519  22.457  1.00  0.00     0.107 C 
HETATM   21 CL1  UNL     1       5.097  11.525  24.119  1.00  0.00    -0.064 Cl
HETATM   22  C9  UNL     1       6.329  10.466  22.026  1.00  0.00    -0.041 C 
HETATM   23  C10 UNL     1       6.649   9.311  22.878  1.00  0.00     0.037 C 
HETATM   24  C14 UNL     1       6.820  10.413  20.608  1.00  0.00     0.037 C 
HETATM   25  C11 UNL     1       6.313   7.992  22.231  1.00  0.00     0.004 C 
HETATM   26  C12 UNL     1       6.613   7.936  20.775  1.00  0.00     0.001 C 
HETATM   27  C13 UNL     1       6.226   9.158  20.006  1.00  0.00     0.004 C 
ENDBRANCH  18  20
ENDBRANCH   4  18
TORSDOF 6
ENDMDL
MODEL 4
REMARK VINA RESULT: -8.111550092      6.233     12.431
REMARK  6 active torsions:
REMARK  status: ('A' for Active; 'I' for Inactive)
REMARK    1  A    between atoms: C2_2  and  C3_3 
REMARK    2  A    between atoms: C4_6  and  C5_7 
REMARK    3  A    between atoms: C5_7  and  S1_8 
REMARK    4  A    between atoms: S1_8  and  C6_9 
REMARK    5  A    between atoms: C7_12  and  N3_13 
REMARK    6  A    between atoms: N3_13  and  C8_15 
ROOT
HETATM    1  C6  UNL     1       4.396  15.564  22.892  1.00  0.00     0.121 A 
HETATM    2  N2  UNL     1       4.412  14.364  22.397  1.00  0.00    -0.325 N 
ATOM      3  H2  UNL     1       3.530  13.869  22.260  1.00  0.00     0.169 HD
HETATM    4  C7  UNL     1       5.542  13.771  22.066  1.00  0.00     0.157 A 
HETATM    5  S2  UNL     1       6.966  14.695  22.339  1.00  0.00    -0.014 SA
HETATM    6  S3  UNL     1       5.907  16.339  23.097  1.00  0.00    -0.024 SA
ENDROOT
BRANCH   1   7
HETATM    7  S1  UNL     1       2.866  16.434  23.367  1.00  0.00    -0.098 SA
BRANCH   7   8
HETATM    8  C5  UNL     1       3.004  18.188  22.938  1.00  0.00     0.142 C 
BRANCH   8   9
HETATM    9  C4  UNL     1       1.731  18.837  23.340  1.00  0.00     0.069 A 
HETATM   10  N1  UNL     1       1.479  19.641  24.398  1.00  0.00    -0.340 N 
HETATM   11  C3  UNL     1       0.177  19.974  24.332  1.00  0.00     0.125 A 
ATOM     12  H1  UNL     1       2.147  19.938  25.109  1.00  0.00     0.167 HD
HETATM   13  O1  UNL     1      -0.343  19.395  23.277  1.00  0.00    -0.281 OA
HETATM   14  C15 UNL     1       0.546  18.692  22.634  1.00  0.00     0.182 A 
HETATM   15  N4  UNL     1       0.345  17.934  21.453  1.00  0.00    -0.072 NA
BRANCH  11  16
HETATM   16  C2  UNL     1      -0.570  20.848  25.283  1.00  0.00     0.080 C 
HETATM   17  C1  UNL     1      -0.318  22.306  24.918  1.00  0.00     0.013 C 
ENDBRANCH  11  16
ENDBRANCH   8   9
ENDBRANCH   7   8
ENDBRANCH   1   7
BRANCH   4  18
HETATM   18  N3  UNL     1       5.534  12.541  21.561  1.00  0.00    -0.326 N 
ATOM     19  H3  UNL     1       5.377  12.395  20.565  1.00  0.00     0.169 HD
BRANCH  18  20
HETATM   20  C8  UNL     1       5.741  11.450  22.411  1.00  0.00     0.107 C 
HETATM   21 CL1  UNL     1       5.134  11.480  24.052  1.00  0.00    -0.064 Cl
HETATM   22  C9  UNL     1       6.396  10.369  22.004  1.00  0.00    -0.041 C 
HETATM   23  C10 UNL     1       6.635   9.201  22.865  1.00  0.00     0.037 C 
HETATM   24  C14 UNL     1       6.935  10.295  20.604  1.00  0.00     0.037 C 
HETATM   25  C11 UNL     1       6.266   7.898  22.205  1.00  0.00     0.004 C 
HETATM   26  C12 UNL     1       6.616   7.829  20.760  1.00  0.00     0.001 C 
HETATM   27  C13 UNL     1       6.310   9.067  19.979  1.00  0.00     0.004 C 
ENDBRANCH  18  20
ENDBRANCH   4  18
TORSDOF 6
ENDMDL
MODEL 5
REMARK VINA RESULT: -8.085752506      1.160      1.548
REMARK  6 active torsions:
REMARK  status: ('A' for Active; 'I' for Inactive)
REMARK    1  A    between atoms: C2_2  and  C3_3 
REMARK    2  A    between atoms: C4_6  and  C5_7 
REMARK    3  A    between atoms: C5_7  and  S1_8 
REMARK    4  A    between atoms: S1_8  and  C6_9 
REMARK    5  A    between atoms: C7_12  and  N3_13 
REMARK    6  A    between atoms: N3_13  and  C8_15 
ROOT
HETATM    1  C6  UNL     1       6.980   7.780  21.644  1.00  0.00     0.121 A 
HETATM    2  N2  UNL     1       6.719   8.753  22.463  1.00  0.00    -0.325 N 
ATOM      3  H2  UNL     1       6.855   8.612  23.464  1.00  0.00     0.169 HD
HETATM    4  C7  UNL     1       6.281   9.919  22.030  1.00  0.00     0.157 A 
HETATM    5  S2  UNL     1       6.088  10.046  20.326  1.00  0.00    -0.014 SA
HETATM    6  S3  UNL     1       6.732   8.080  19.978  1.00  0.00    -0.024 SA
ENDROOT
BRANCH   1   7
HETATM    7  S1  UNL     1       7.587   6.148  22.185  1.00  0.00    -0.098 SA
BRANCH   7   8
HETATM    8  C5  UNL     1       6.605   4.843  21.402  1.00  0.00     0.142 C 
BRANCH   8   9
HETATM    9  C4  UNL     1       7.527   3.716  21.115  1.00  0.00     0.069 A 
HETATM   10  N1  UNL     1       8.486   3.618  20.167  1.00  0.00    -0.340 N 
HETATM   11  C3  UNL     1       9.051   2.405  20.309  1.00  0.00     0.125 A 
ATOM     12  H1  UNL     1       8.734   4.327  19.477  1.00  0.00     0.167 HD
HETATM   13  O1  UNL     1       8.458   1.789  21.303  1.00  0.00    -0.281 OA
HETATM   14  C15 UNL     1       7.527   2.530  21.833  1.00  0.00     0.182 A 
HETATM   15  N4  UNL     1       6.684   2.194  22.922  1.00  0.00    -0.072 NA
BRANCH  11  16
HETATM   16  C2  UNL     1      10.159   1.835  19.488  1.00  0.00     0.080 C 
HETATM   17  C1  UNL     1      10.104   0.313  19.571  1.00  0.00     0.013 C 
ENDBRANCH  11  16
ENDBRANCH   8   9
ENDBRANCH   7   8
ENDBRANCH   1   7
BRANCH   4  18
HETATM   18  N3  UNL     1       6.019  10.900  22.888  1.00  0.00    -0.326 N 
ATOM     19  H3  UNL     1       5.329  10.768  23.626  1.00  0.00     0.169 HD
BRANCH  18  20
HETATM   20  C8  UNL     1       6.700  12.115  22.767  1.00  0.00     0.107 C 
HETATM   21 CL1  UNL     1       8.338  12.154  22.155  1.00  0.00    -0.064 Cl
HETATM   22  C9  UNL     1       6.130  13.266  23.109  1.00  0.00    -0.041 C 
HETATM   23  C10 UNL     1       6.811  14.564  22.997  1.00  0.00     0.037 C 
HETATM   24  C14 UNL     1       4.725  13.285  23.639  1.00  0.00     0.037 C 
HETATM   25  C11 UNL     1       5.977  15.607  22.299  1.00  0.00     0.004 C 
HETATM   26  C12 UNL     1       4.532  15.564  22.649  1.00  0.00     0.001 C 
HETATM   27  C13 UNL     1       3.942  14.191  22.714  1.00  0.00     0.004 C 
ENDBRANCH  18  20
ENDBRANCH   4  18
TORSDOF 6
ENDMDL
