MODEL 1
REMARK VINA RESULT: -6.154939310      0.000      0.000
REMARK  8 active torsions:
REMARK  status: ('A' for Active; 'I' for Inactive)
REMARK    1  A    between atoms: O1_2  and  C2_3 
REMARK    2  A    between atoms: C4_5  and  C5_6 
REMARK    3  A    between atoms: C11_15  and  N2_16 
REMARK    4  A    between atoms: N2_16  and  N3_18 
REMARK    5  A    between atoms: N3_18  and  N4_19 
REMARK    6  A    between atoms: C12_22  and  O2_23 
REMARK    7  A    between atoms: C15_27  and  O3_28 
REMARK    8  A    between atoms: C17_30  and  O4_31 
ROOT
HETATM    1  C5  UNL     1       2.668  17.490  23.991  1.00  0.00     0.003 A 
HETATM    2  C6  UNL     1       1.328  17.622  23.708  1.00  0.00    -0.007 A 
HETATM    3  C7  UNL     1       0.396  18.738  24.126  1.00  0.00     0.057 C 
HETATM    4  S1  UNL     1       0.989  16.232  22.787  1.00  0.00    -0.075 SA
HETATM    5  C8  UNL     1       2.536  15.517  22.778  1.00  0.00     0.088 A 
HETATM    6  N1  UNL     1       3.013  14.365  22.220  1.00  0.00    -0.351 N 
ATOM      7  H1  UNL     1       2.377  13.768  21.691  1.00  0.00     0.166 HD
HETATM    8  C9  UNL     1       4.313  13.994  22.351  1.00  0.00     0.038 A 
HETATM    9  C10 UNL     1       4.794  12.745  21.722  1.00  0.00     0.070 C 
HETATM   10  C11 UNL     1       5.082  14.868  23.082  1.00  0.00     0.118 A 
HETATM   11  C12 UNL     1       4.644  16.020  23.650  1.00  0.00     0.110 A 
HETATM   12  C13 UNL     1       3.288  16.392  23.503  1.00  0.00     0.045 A 
ENDROOT
BRANCH   1  13
HETATM   13  C4  UNL     1       3.314  18.565  24.784  1.00  0.00    -0.018 A 
HETATM   14  C3  UNL     1       3.799  19.708  24.194  1.00  0.00     0.052 A 
HETATM   15  C2  UNL     1       4.381  20.728  24.901  1.00  0.00     0.105 A 
HETATM   16  C17 UNL     1       4.466  20.561  26.266  1.00  0.00     0.135 A 
HETATM   17  C15 UNL     1       3.986  19.415  26.890  1.00  0.00     0.105 A 
HETATM   18  C14 UNL     1       3.398  18.392  26.135  1.00  0.00     0.052 A 
BRANCH  15  19
HETATM   19  O1  UNL     1       4.881  21.900  24.332  1.00  0.00    -0.353 OA
HETATM   20  C1  UNL     1       3.894  22.775  23.766  1.00  0.00     0.210 C 
ENDBRANCH  15  19
BRANCH  16  21
HETATM   21  O4  UNL     1       5.038  21.550  27.017  1.00  0.00    -0.351 OA
HETATM   22  C18 UNL     1       4.359  22.627  27.631  1.00  0.00     0.210 C 
ENDBRANCH  16  21
BRANCH  17  23
HETATM   23  O3  UNL     1       4.103  19.304  28.267  1.00  0.00    -0.353 OA
HETATM   24  C16 UNL     1       2.993  19.357  29.124  1.00  0.00     0.210 C 
ENDBRANCH  17  23
ENDBRANCH   1  13
BRANCH  11  25
HETATM   25  O2  UNL     1       5.530  16.808  24.361  1.00  0.00    -0.357 OA
ATOM     26  H2  UNL     1       5.197  17.514  24.904  1.00  0.00     0.217 HD
ENDBRANCH  11  25
BRANCH  10  27
HETATM   27  N2  UNL     1       6.473  14.531  23.276  1.00  0.00    -0.212 N 
ATOM     28  H2  UNL     1       6.764  14.046  24.125  1.00  0.00     0.204 HD
BRANCH  27  29
HETATM   29  N3  UNL     1       7.311  14.828  22.418  1.00  0.00    -0.243 NA
BRANCH  29  30
HETATM   30  N4  UNL     1       8.040  14.731  21.438  1.00  0.00    -0.260 N 
ATOM     31  H42 UNL     1       8.580  13.931  21.768  1.00  0.00     0.193 HD
ATOM     32  H41 UNL     1       8.450  14.928  20.525  1.00  0.00     0.193 HD
ENDBRANCH  29  30
ENDBRANCH  27  29
ENDBRANCH  10  27
TORSDOF 8
ENDMDL
MODEL 2
REMARK VINA RESULT: -6.132769648      0.077      2.366
REMARK  8 active torsions:
REMARK  status: ('A' for Active; 'I' for Inactive)
REMARK    1  A    between atoms: O1_2  and  C2_3 
REMARK    2  A    between atoms: C4_5  and  C5_6 
REMARK    3  A    between atoms: C11_15  and  N2_16 
REMARK    4  A    between atoms: N2_16  and  N3_18 
REMARK    5  A    between atoms: N3_18  and  N4_19 
REMARK    6  A    between atoms: C12_22  and  O2_23 
REMARK    7  A    between atoms: C15_27  and  O3_28 
REMARK    8  A    between atoms: C17_30  and  O4_31 
ROOT
HETATM    1  C5  UNL     1       2.595  17.478  23.970  1.00  0.00     0.003 A 
HETATM    2  C6  UNL     1       1.259  17.608  23.667  1.00  0.00    -0.007 A 
HETATM    3  C7  UNL     1       0.317  18.717  24.082  1.00  0.00     0.057 C 
HETATM    4  S1  UNL     1       0.939  16.228  22.725  1.00  0.00    -0.075 SA
HETATM    5  C8  UNL     1       2.489  15.519  22.732  1.00  0.00     0.088 A 
HETATM    6  N1  UNL     1       2.979  14.374  22.169  1.00  0.00    -0.351 N 
ATOM      7  H1  UNL     1       2.353  13.781  21.624  1.00  0.00     0.166 HD
HETATM    8  C9  UNL     1       4.277  14.006  22.317  1.00  0.00     0.038 A 
HETATM    9  C10 UNL     1       4.773  12.766  21.681  1.00  0.00     0.070 C 
HETATM   10  C11 UNL     1       5.032  14.874  23.070  1.00  0.00     0.118 A 
HETATM   11  C12 UNL     1       4.581  16.019  23.643  1.00  0.00     0.110 A 
HETATM   12  C13 UNL     1       3.226  16.388  23.479  1.00  0.00     0.045 A 
ENDROOT
BRANCH   1  13
HETATM   13  C4  UNL     1       3.224  18.546  24.785  1.00  0.00    -0.018 A 
HETATM   14  C3  UNL     1       3.365  18.428  26.148  1.00  0.00     0.052 A 
HETATM   15  C2  UNL     1       3.961  19.386  26.925  1.00  0.00     0.105 A 
HETATM   16  C17 UNL     1       4.429  20.506  26.273  1.00  0.00     0.135 A 
HETATM   17  C15 UNL     1       4.300  20.653  24.896  1.00  0.00     0.105 A 
HETATM   18  C14 UNL     1       3.684  19.653  24.133  1.00  0.00     0.052 A 
BRANCH  15  19
HETATM   19  O1  UNL     1       4.118  19.296  28.309  1.00  0.00    -0.353 OA
HETATM   20  C1  UNL     1       2.903  19.373  29.070  1.00  0.00     0.210 C 
ENDBRANCH  15  19
BRANCH  16  21
HETATM   21  O4  UNL     1       5.032  21.491  27.004  1.00  0.00    -0.351 OA
HETATM   22  C18 UNL     1       4.391  22.611  27.579  1.00  0.00     0.210 C 
ENDBRANCH  16  21
BRANCH  17  23
HETATM   23  O3  UNL     1       4.789  21.804  24.298  1.00  0.00    -0.353 OA
HETATM   24  C16 UNL     1       3.947  22.766  23.719  1.00  0.00     0.210 C 
ENDBRANCH  17  23
ENDBRANCH   1  13
BRANCH  11  25
HETATM   25  O2  UNL     1       5.452  16.802  24.377  1.00  0.00    -0.357 OA
ATOM     26  H2  UNL     1       6.085  17.347  23.925  1.00  0.00     0.217 HD
ENDBRANCH  11  25
BRANCH  10  27
HETATM   27  N2  UNL     1       6.420  14.540  23.281  1.00  0.00    -0.212 N 
ATOM     28  H2  UNL     1       6.702  14.059  24.136  1.00  0.00     0.204 HD
BRANCH  27  29
HETATM   29  N3  UNL     1       7.269  14.833  22.432  1.00  0.00    -0.243 NA
BRANCH  29  30
HETATM   30  N4  UNL     1       7.988  14.746  21.444  1.00  0.00    -0.260 N 
ATOM     31  H42 UNL     1       8.404  13.843  21.679  1.00  0.00     0.193 HD
ATOM     32  H41 UNL     1       8.433  14.983  20.558  1.00  0.00     0.193 HD
ENDBRANCH  29  30
ENDBRANCH  27  29
ENDBRANCH  10  27
TORSDOF 8
ENDMDL
MODEL 3
REMARK VINA RESULT: -5.667412059      1.036      2.669
REMARK  8 active torsions:
REMARK  status: ('A' for Active; 'I' for Inactive)
REMARK    1  A    between atoms: O1_2  and  C2_3 
REMARK    2  A    between atoms: C4_5  and  C5_6 
REMARK    3  A    between atoms: C11_15  and  N2_16 
REMARK    4  A    between atoms: N2_16  and  N3_18 
REMARK    5  A    between atoms: N3_18  and  N4_19 
REMARK    6  A    between atoms: C12_22  and  O2_23 
REMARK    7  A    between atoms: C15_27  and  O3_28 
REMARK    8  A    between atoms: C17_30  and  O4_31 
ROOT
HETATM    1  C5  UNL     1       2.162  18.661  24.248  1.00  0.00     0.003 A 
HETATM    2  C6  UNL     1       0.873  19.011  23.917  1.00  0.00    -0.007 A 
HETATM    3  C7  UNL     1       0.113  20.252  24.331  1.00  0.00     0.057 C 
HETATM    4  S1  UNL     1       0.357  17.714  22.944  1.00  0.00    -0.075 SA
HETATM    5  C8  UNL     1       1.771  16.762  22.974  1.00  0.00     0.088 A 
HETATM    6  N1  UNL     1       2.083  15.561  22.401  1.00  0.00    -0.351 N 
ATOM      7  H1  UNL     1       1.383  15.085  21.832  1.00  0.00     0.166 HD
HETATM    8  C9  UNL     1       3.300  14.985  22.571  1.00  0.00     0.038 A 
HETATM    9  C10 UNL     1       3.604  13.690  21.925  1.00  0.00     0.070 C 
HETATM   10  C11 UNL     1       4.167  15.708  23.356  1.00  0.00     0.118 A 
HETATM   11  C12 UNL     1       3.893  16.903  23.940  1.00  0.00     0.110 A 
HETATM   12  C13 UNL     1       2.621  17.490  23.752  1.00  0.00     0.045 A 
ENDROOT
BRANCH   1  13
HETATM   13  C4  UNL     1       2.936  19.601  25.095  1.00  0.00    -0.018 A 
HETATM   14  C3  UNL     1       2.984  19.470  26.463  1.00  0.00     0.052 A 
HETATM   15  C2  UNL     1       3.707  20.308  27.272  1.00  0.00     0.105 A 
HETATM   16  C17 UNL     1       4.405  21.317  26.646  1.00  0.00     0.135 A 
HETATM   17  C15 UNL     1       4.374  21.475  25.265  1.00  0.00     0.105 A 
HETATM   18  C14 UNL     1       3.624  20.599  24.470  1.00  0.00     0.052 A 
BRANCH  15  19
HETATM   19  O1  UNL     1       3.775  20.201  28.661  1.00  0.00    -0.353 OA
HETATM   20  C1  UNL     1       2.530  20.379  29.352  1.00  0.00     0.210 C 
ENDBRANCH  15  19
BRANCH  16  21
HETATM   21  O4  UNL     1       5.142  22.181  27.408  1.00  0.00    -0.351 OA
HETATM   22  C18 UNL     1       4.656  23.335  28.063  1.00  0.00     0.210 C 
ENDBRANCH  16  21
BRANCH  17  23
HETATM   23  O3  UNL     1       5.095  22.512  24.693  1.00  0.00    -0.353 OA
HETATM   24  C16 UNL     1       4.625  23.235  23.585  1.00  0.00     0.210 C 
ENDBRANCH  17  23
ENDBRANCH   1  13
BRANCH  11  25
HETATM   25  O2  UNL     1       4.861  17.524  24.707  1.00  0.00    -0.357 OA
ATOM     26  H2  UNL     1       4.605  18.188  25.336  1.00  0.00     0.217 HD
ENDBRANCH  11  25
BRANCH  10  27
HETATM   27  N2  UNL     1       5.477  15.150  23.593  1.00  0.00    -0.212 N 
ATOM     28  H2  UNL     1       5.611  14.468  24.340  1.00  0.00     0.204 HD
BRANCH  27  29
HETATM   29  N3  UNL     1       6.437  15.495  22.895  1.00  0.00    -0.243 NA
BRANCH  29  30
HETATM   30  N4  UNL     1       7.297  15.464  22.023  1.00  0.00    -0.260 N 
ATOM     31  H42 UNL     1       6.760  15.955  21.307  1.00  0.00     0.193 HD
ATOM     32  H41 UNL     1       8.184  15.270  21.557  1.00  0.00     0.193 HD
ENDBRANCH  29  30
ENDBRANCH  27  29
ENDBRANCH  10  27
TORSDOF 8
ENDMDL
MODEL 4
REMARK VINA RESULT: -5.660412194     15.341     17.157
REMARK  8 active torsions:
REMARK  status: ('A' for Active; 'I' for Inactive)
REMARK    1  A    between atoms: O1_2  and  C2_3 
REMARK    2  A    between atoms: C4_5  and  C5_6 
REMARK    3  A    between atoms: C11_15  and  N2_16 
REMARK    4  A    between atoms: N2_16  and  N3_18 
REMARK    5  A    between atoms: N3_18  and  N4_19 
REMARK    6  A    between atoms: C12_22  and  O2_23 
REMARK    7  A    between atoms: C15_27  and  O3_28 
REMARK    8  A    between atoms: C17_30  and  O4_31 
ROOT
HETATM    1  C5  UNL     1       3.761  -0.171  23.000  1.00  0.00     0.003 A 
HETATM    2  C6  UNL     1       3.355  -1.472  23.191  1.00  0.00    -0.007 A 
HETATM    3  C7  UNL     1       1.958  -1.977  23.474  1.00  0.00     0.057 C 
HETATM    4  S1  UNL     1       4.802  -2.354  23.034  1.00  0.00    -0.075 SA
HETATM    5  C8  UNL     1       5.882  -1.071  22.732  1.00  0.00     0.088 A 
HETATM    6  N1  UNL     1       7.229  -1.037  22.505  1.00  0.00    -0.351 N 
ATOM      7  H1  UNL     1       7.754  -1.911  22.500  1.00  0.00     0.166 HD
HETATM    8  C9  UNL     1       7.886   0.131  22.286  1.00  0.00     0.038 A 
HETATM    9  C10 UNL     1       9.343   0.125  22.033  1.00  0.00     0.070 C 
HETATM   10  C11 UNL     1       7.085   1.248  22.315  1.00  0.00     0.118 A 
HETATM   11  C12 UNL     1       5.745   1.253  22.536  1.00  0.00     0.110 A 
HETATM   12  C13 UNL     1       5.076   0.028  22.762  1.00  0.00     0.045 A 
ENDROOT
BRANCH   1  13
HETATM   13  C4  UNL     1       2.724   0.889  23.052  1.00  0.00    -0.018 A 
HETATM   14  C3  UNL     1       2.556   1.682  24.163  1.00  0.00     0.052 A 
HETATM   15  C2  UNL     1       1.622   2.683  24.235  1.00  0.00     0.105 A 
HETATM   16  C17 UNL     1       0.834   2.872  23.121  1.00  0.00     0.135 A 
HETATM   17  C15 UNL     1       0.981   2.085  21.984  1.00  0.00     0.105 A 
HETATM   18  C14 UNL     1       1.946   1.070  21.947  1.00  0.00     0.052 A 
BRANCH  15  19
HETATM   19  O1  UNL     1       1.428   3.504  25.346  1.00  0.00    -0.353 OA
HETATM   20  C1  UNL     1       0.991   2.831  26.536  1.00  0.00     0.210 C 
ENDBRANCH  15  19
BRANCH  16  21
HETATM   21  O4  UNL     1      -0.112   3.859  23.141  1.00  0.00    -0.351 OA
HETATM   22  C18 UNL     1      -1.433   3.734  23.628  1.00  0.00     0.210 C 
ENDBRANCH  16  21
BRANCH  17  23
HETATM   23  O3  UNL     1       0.156   2.322  20.895  1.00  0.00    -0.353 OA
HETATM   24  C16 UNL     1      -0.988   1.551  20.636  1.00  0.00     0.210 C 
ENDBRANCH  17  23
ENDBRANCH   1  13
BRANCH  11  25
HETATM   25  O2  UNL     1       5.060   2.454  22.538  1.00  0.00    -0.357 OA
ATOM     26  H2  UNL     1       4.345   2.585  21.926  1.00  0.00     0.217 HD
ENDBRANCH  11  25
BRANCH  10  27
HETATM   27  N2  UNL     1       7.718   2.528  22.105  1.00  0.00    -0.212 N 
ATOM     28  H2  UNL     1       8.326   2.919  22.825  1.00  0.00     0.204 HD
BRANCH  27  29
HETATM   29  N3  UNL     1       7.526   3.153  21.056  1.00  0.00    -0.243 NA
BRANCH  29  30
HETATM   30  N4  UNL     1       7.480   4.086  20.263  1.00  0.00    -0.260 N 
ATOM     31  H42 UNL     1       8.471   4.081  20.016  1.00  0.00     0.193 HD
ATOM     32  H41 UNL     1       7.103   4.849  19.700  1.00  0.00     0.193 HD
ENDBRANCH  29  30
ENDBRANCH  27  29
ENDBRANCH  10  27
TORSDOF 8
ENDMDL
MODEL 5
REMARK VINA RESULT: -5.619940316     15.278     16.979
REMARK  8 active torsions:
REMARK  status: ('A' for Active; 'I' for Inactive)
REMARK    1  A    between atoms: O1_2  and  C2_3 
REMARK    2  A    between atoms: C4_5  and  C5_6 
REMARK    3  A    between atoms: C11_15  and  N2_16 
REMARK    4  A    between atoms: N2_16  and  N3_18 
REMARK    5  A    between atoms: N3_18  and  N4_19 
REMARK    6  A    between atoms: C12_22  and  O2_23 
REMARK    7  A    between atoms: C15_27  and  O3_28 
REMARK    8  A    between atoms: C17_30  and  O4_31 
ROOT
HETATM    1  C5  UNL     1       3.771  -0.076  22.984  1.00  0.00     0.003 A 
HETATM    2  C6  UNL     1       3.345  -1.370  23.177  1.00  0.00    -0.007 A 
HETATM    3  C7  UNL     1       1.939  -1.853  23.458  1.00  0.00     0.057 C 
HETATM    4  S1  UNL     1       4.778  -2.276  23.025  1.00  0.00    -0.075 SA
HETATM    5  C8  UNL     1       5.878  -1.009  22.723  1.00  0.00     0.088 A 
HETATM    6  N1  UNL     1       7.226  -0.996  22.499  1.00  0.00    -0.351 N 
ATOM      7  H1  UNL     1       7.738  -1.878  22.497  1.00  0.00     0.166 HD
HETATM    8  C9  UNL     1       7.901   0.161  22.279  1.00  0.00     0.038 A 
HETATM    9  C10 UNL     1       9.359   0.132  22.028  1.00  0.00     0.070 C 
HETATM   10  C11 UNL     1       7.118   1.290  22.303  1.00  0.00     0.118 A 
HETATM   11  C12 UNL     1       5.778   1.316  22.522  1.00  0.00     0.110 A 
HETATM   12  C13 UNL     1       5.090   0.102  22.748  1.00  0.00     0.045 A 
ENDROOT
BRANCH   1  13
HETATM   13  C4  UNL     1       2.750   1.000  23.032  1.00  0.00    -0.018 A 
HETATM   14  C3  UNL     1       1.932   1.270  21.960  1.00  0.00     0.052 A 
HETATM   15  C2  UNL     1       0.966   2.241  21.981  1.00  0.00     0.105 A 
HETATM   16  C17 UNL     1       0.840   2.960  23.149  1.00  0.00     0.135 A 
HETATM   17  C15 UNL     1       1.654   2.711  24.248  1.00  0.00     0.105 A 
HETATM   18  C14 UNL     1       2.632   1.709  24.191  1.00  0.00     0.052 A 
BRANCH  15  19
HETATM   19  O1  UNL     1       0.121   2.538  20.910  1.00  0.00    -0.353 OA
HETATM   20  C1  UNL     1      -0.938   1.596  20.686  1.00  0.00     0.210 C 
ENDBRANCH  15  19
BRANCH  16  21
HETATM   21  O4  UNL     1      -0.110   3.941  23.221  1.00  0.00    -0.351 OA
HETATM   22  C18 UNL     1      -1.435   3.783  23.686  1.00  0.00     0.210 C 
ENDBRANCH  16  21
BRANCH  17  23
HETATM   23  O3  UNL     1       1.480   3.470  25.395  1.00  0.00    -0.353 OA
HETATM   24  C16 UNL     1       0.842   2.968  26.541  1.00  0.00     0.210 C 
ENDBRANCH  17  23
ENDBRANCH   1  13
BRANCH  11  25
HETATM   25  O2  UNL     1       5.111   2.527  22.519  1.00  0.00    -0.357 OA
ATOM     26  H2  UNL     1       5.295   3.164  23.199  1.00  0.00     0.217 HD
ENDBRANCH  11  25
BRANCH  10  27
HETATM   27  N2  UNL     1       7.770   2.560  22.091  1.00  0.00    -0.212 N 
ATOM     28  H2  UNL     1       8.437   2.910  22.780  1.00  0.00     0.204 HD
BRANCH  27  29
HETATM   29  N3  UNL     1       7.526   3.225  21.079  1.00  0.00    -0.243 NA
BRANCH  29  30
HETATM   30  N4  UNL     1       7.195   4.171  20.374  1.00  0.00    -0.260 N 
ATOM     31  H42 UNL     1       8.067   4.693  20.458  1.00  0.00     0.193 HD
ATOM     32  H41 UNL     1       6.625   4.764  19.771  1.00  0.00     0.193 HD
ENDBRANCH  29  30
ENDBRANCH  27  29
ENDBRANCH  10  27
TORSDOF 8
ENDMDL
