MODEL 1
REMARK VINA RESULT: -8.617717157      0.000      0.000
REMARK  5 active torsions:
REMARK  status: ('A' for Active; 'I' for Inactive)
REMARK    1  A    between atoms: C7_8  and  N2_9 
REMARK    2  A    between atoms: N2_9  and  N3_10 
REMARK    3  A    between atoms: C8_11  and  C9_12 
REMARK    4  A    between atoms: C9_12  and  S1_13 
REMARK    5  A    between atoms: S1_13  and  C10_14 
ROOT
HETATM    1  N1  UNL     1       1.593  16.625  27.887  1.00  0.00    -0.196 NA
HETATM    2  C1  UNL     1       2.321  17.468  27.581  1.00  0.00     0.071 C 
HETATM    3  C2  UNL     1       3.232  18.547  27.204  1.00  0.00     0.154 C 
HETATM    4  C3  UNL     1       3.804  19.164  28.452  1.00  0.00     0.026 C 
HETATM    5  C4  UNL     1       2.645  19.472  29.384  1.00  0.00     0.002 C 
HETATM    6  C5  UNL     1       1.660  20.404  28.710  1.00  0.00     0.007 C 
HETATM    7  C6  UNL     1       2.092  20.820  27.319  1.00  0.00     0.072 C 
HETATM    8  C7  UNL     1       2.441  19.619  26.491  1.00  0.00     0.105 C 
ENDROOT
BRANCH   8   9
HETATM    9  N2  UNL     1       2.121  19.464  25.348  1.00  0.00    -0.322 NA
BRANCH   9  10
HETATM   10  N3  UNL     1       1.782  19.313  24.116  1.00  0.00    -0.148 N 
HETATM   11  C8  UNL     1       1.804  18.168  23.364  1.00  0.00     0.143 A 
HETATM   12  N5  UNL     1       1.299  18.407  22.137  1.00  0.00    -0.284 N 
HETATM   13  N6  UNL     1       0.961  19.654  22.077  1.00  0.00    -0.272 N 
ATOM     14  H5  UNL     1       1.200  17.723  21.388  1.00  0.00     0.188 HD
HETATM   15  C17 UNL     1       1.229  20.236  23.234  1.00  0.00     0.225 A 
ATOM     16  H6  UNL     1       0.552  20.115  21.265  1.00  0.00     0.189 HD
HETATM   17  S2  UNL     1       0.946  21.829  23.571  1.00  0.00    -0.036 SA
BRANCH  11  18
HETATM   18  C9  UNL     1       2.395  16.873  23.822  1.00  0.00     0.164 C 
BRANCH  18  19
HETATM   19  S1  UNL     1       4.218  17.026  23.720  1.00  0.00    -0.079 SA
BRANCH  19  20
HETATM   20  C10 UNL     1       4.873  15.411  23.213  1.00  0.00     0.188 A 
HETATM   21  N4  UNL     1       5.735  15.112  22.234  1.00  0.00    -0.329 N 
HETATM   22  C11 UNL     1       5.968  13.777  22.196  1.00  0.00     0.069 A 
ATOM     23  H4  UNL     1       6.157  15.795  21.605  1.00  0.00     0.168 HD
HETATM   24  C12 UNL     1       6.733  12.912  21.445  1.00  0.00     0.035 A 
HETATM   25  C16 UNL     1       5.183  13.251  23.228  1.00  0.00     0.108 A 
HETATM   26  C13 UNL     1       6.788  11.550  21.634  1.00  0.00     0.044 A 
HETATM   27  C14 UNL     1       5.990  11.049  22.676  1.00  0.00     0.119 A 
HETATM   28  F1  UNL     1       6.024   9.703  22.883  1.00  0.00    -0.206 F 
HETATM   29  C15 UNL     1       5.217  11.891  23.440  1.00  0.00     0.082 A 
HETATM   30  O1  UNL     1       4.576  14.265  23.771  1.00  0.00    -0.285 OA
ENDBRANCH  19  20
ENDBRANCH  18  19
ENDBRANCH  11  18
ENDBRANCH   9  10
ENDBRANCH   8   9
TORSDOF 5
ENDMDL
MODEL 2
REMARK VINA RESULT: -8.365301847      1.016      1.307
REMARK  5 active torsions:
REMARK  status: ('A' for Active; 'I' for Inactive)
REMARK    1  A    between atoms: C7_8  and  N2_9 
REMARK    2  A    between atoms: N2_9  and  N3_10 
REMARK    3  A    between atoms: C8_11  and  C9_12 
REMARK    4  A    between atoms: C9_12  and  S1_13 
REMARK    5  A    between atoms: S1_13  and  C10_14 
ROOT
HETATM    1  N1  UNL     1       1.574  16.596  27.895  1.00  0.00    -0.196 NA
HETATM    2  C1  UNL     1       2.322  17.412  27.565  1.00  0.00     0.071 C 
HETATM    3  C2  UNL     1       3.260  18.456  27.156  1.00  0.00     0.154 C 
HETATM    4  C3  UNL     1       3.853  19.089  28.386  1.00  0.00     0.026 C 
HETATM    5  C4  UNL     1       2.708  19.451  29.316  1.00  0.00     0.002 C 
HETATM    6  C5  UNL     1       1.745  20.392  28.622  1.00  0.00     0.007 C 
HETATM    7  C6  UNL     1       2.181  20.762  27.219  1.00  0.00     0.072 C 
HETATM    8  C7  UNL     1       2.494  19.531  26.421  1.00  0.00     0.105 C 
ENDROOT
BRANCH   8   9
HETATM    9  N2  UNL     1       2.164  19.356  25.283  1.00  0.00    -0.322 NA
BRANCH   9  10
HETATM   10  N3  UNL     1       1.809  19.185  24.058  1.00  0.00    -0.148 N 
HETATM   11  C8  UNL     1       1.825  18.028  23.324  1.00  0.00     0.143 A 
HETATM   12  N5  UNL     1       1.303  18.246  22.100  1.00  0.00    -0.284 N 
HETATM   13  N6  UNL     1       0.961  19.491  22.025  1.00  0.00    -0.272 N 
ATOM     14  H5  UNL     1       1.196  17.550  21.363  1.00  0.00     0.188 HD
HETATM   15  C17 UNL     1       1.243  20.092  23.169  1.00  0.00     0.225 A 
ATOM     16  H6  UNL     1       0.540  19.938  21.211  1.00  0.00     0.189 HD
HETATM   17  S2  UNL     1       0.959  21.689  23.484  1.00  0.00    -0.036 SA
BRANCH  11  18
HETATM   18  C9  UNL     1       2.425  16.742  23.794  1.00  0.00     0.164 C 
BRANCH  18  19
HETATM   19  S1  UNL     1       4.237  16.986  23.919  1.00  0.00    -0.079 SA
BRANCH  19  20
HETATM   20  C10 UNL     1       5.033  15.452  23.365  1.00  0.00     0.188 A 
HETATM   21  N4  UNL     1       4.529  14.215  23.283  1.00  0.00    -0.329 N 
HETATM   22  C11 UNL     1       5.461  13.351  22.809  1.00  0.00     0.069 A 
ATOM     23  H4  UNL     1       3.577  13.957  23.543  1.00  0.00     0.168 HD
HETATM   24  C12 UNL     1       5.528  12.007  22.514  1.00  0.00     0.035 A 
HETATM   25  C16 UNL     1       6.598  14.140  22.597  1.00  0.00     0.108 A 
HETATM   26  C13 UNL     1       6.642  11.370  22.018  1.00  0.00     0.044 A 
HETATM   27  C14 UNL     1       7.769  12.184  21.816  1.00  0.00     0.119 A 
HETATM   28  F1  UNL     1       8.886  11.576  21.329  1.00  0.00    -0.206 F 
HETATM   29  C15 UNL     1       7.728  13.529  22.103  1.00  0.00     0.082 A 
HETATM   30  O1  UNL     1       6.268  15.349  22.946  1.00  0.00    -0.285 OA
ENDBRANCH  19  20
ENDBRANCH  18  19
ENDBRANCH  11  18
ENDBRANCH   9  10
ENDBRANCH   8   9
TORSDOF 5
ENDMDL
MODEL 3
REMARK VINA RESULT: -8.292005572      1.645      2.215
REMARK  5 active torsions:
REMARK  status: ('A' for Active; 'I' for Inactive)
REMARK    1  A    between atoms: C7_8  and  N2_9 
REMARK    2  A    between atoms: N2_9  and  N3_10 
REMARK    3  A    between atoms: C8_11  and  C9_12 
REMARK    4  A    between atoms: C9_12  and  S1_13 
REMARK    5  A    between atoms: S1_13  and  C10_14 
ROOT
HETATM    1  N1  UNL     1       5.690  20.337  26.384  1.00  0.00    -0.196 NA
HETATM    2  C1  UNL     1       4.583  20.637  26.247  1.00  0.00     0.071 C 
HETATM    3  C2  UNL     1       3.178  21.010  26.089  1.00  0.00     0.154 C 
HETATM    4  C3  UNL     1       2.809  21.992  27.167  1.00  0.00     0.026 C 
HETATM    5  C4  UNL     1       3.272  21.414  28.493  1.00  0.00     0.002 C 
HETATM    6  C5  UNL     1       2.628  20.065  28.733  1.00  0.00     0.007 C 
HETATM    7  C6  UNL     1       1.670  19.659  27.632  1.00  0.00     0.072 C 
HETATM    8  C7  UNL     1       2.327  19.778  26.288  1.00  0.00     0.105 C 
ENDROOT
BRANCH   8   9
HETATM    9  N2  UNL     1       2.231  18.970  25.410  1.00  0.00    -0.322 NA
BRANCH   9  10
HETATM   10  N3  UNL     1       2.143  18.096  24.469  1.00  0.00    -0.148 N 
HETATM   11  C8  UNL     1       3.101  17.218  24.035  1.00  0.00     0.143 A 
HETATM   12  N5  UNL     1       2.594  16.413  23.080  1.00  0.00    -0.284 N 
HETATM   13  N6  UNL     1       1.360  16.744  22.886  1.00  0.00    -0.272 N 
ATOM     14  H5  UNL     1       3.098  15.671  22.595  1.00  0.00     0.188 HD
HETATM   15  C17 UNL     1       1.044  17.744  23.693  1.00  0.00     0.225 A 
ATOM     16  H6  UNL     1       0.729  16.304  22.217  1.00  0.00     0.189 HD
HETATM   17  S2  UNL     1      -0.443  18.463  23.759  1.00  0.00    -0.036 SA
BRANCH  11  18
HETATM   18  C9  UNL     1       4.523  17.228  24.498  1.00  0.00     0.164 C 
BRANCH  18  19
HETATM   19  S1  UNL     1       5.591  17.195  23.010  1.00  0.00    -0.079 SA
BRANCH  19  20
HETATM   20  C10 UNL     1       6.029  15.462  22.692  1.00  0.00     0.188 A 
HETATM   21  N4  UNL     1       7.061  14.959  22.004  1.00  0.00    -0.329 N 
HETATM   22  C11 UNL     1       7.025  13.603  22.015  1.00  0.00     0.069 A 
ATOM     23  H4  UNL     1       7.776  15.518  21.537  1.00  0.00     0.168 HD
HETATM   24  C12 UNL     1       7.786  12.574  21.507  1.00  0.00     0.035 A 
HETATM   25  C16 UNL     1       5.885  13.287  22.762  1.00  0.00     0.108 A 
HETATM   26  C13 UNL     1       7.511  11.237  21.683  1.00  0.00     0.044 A 
HETATM   27  C14 UNL     1       6.362  10.947  22.437  1.00  0.00     0.119 A 
HETATM   28  F1  UNL     1       6.065   9.631  22.623  1.00  0.00    -0.206 F 
HETATM   29  C15 UNL     1       5.584  11.957  22.954  1.00  0.00     0.082 A 
HETATM   30  O1  UNL     1       5.361  14.422  23.120  1.00  0.00    -0.285 OA
ENDBRANCH  19  20
ENDBRANCH  18  19
ENDBRANCH  11  18
ENDBRANCH   9  10
ENDBRANCH   8   9
TORSDOF 5
ENDMDL
MODEL 4
REMARK VINA RESULT: -8.177479935      0.967      1.550
REMARK  5 active torsions:
REMARK  status: ('A' for Active; 'I' for Inactive)
REMARK    1  A    between atoms: C7_8  and  N2_9 
REMARK    2  A    between atoms: N2_9  and  N3_10 
REMARK    3  A    between atoms: C8_11  and  C9_12 
REMARK    4  A    between atoms: C9_12  and  S1_13 
REMARK    5  A    between atoms: S1_13  and  C10_14 
ROOT
HETATM    1  N1  UNL     1       5.319  20.342  26.770  1.00  0.00    -0.196 NA
HETATM    2  C1  UNL     1       4.202  20.577  26.945  1.00  0.00     0.071 C 
HETATM    3  C2  UNL     1       2.786  20.860  27.176  1.00  0.00     0.154 C 
HETATM    4  C3  UNL     1       2.534  20.917  28.658  1.00  0.00     0.026 C 
HETATM    5  C4  UNL     1       3.146  19.672  29.277  1.00  0.00     0.002 C 
HETATM    6  C5  UNL     1       2.541  18.427  28.662  1.00  0.00     0.007 C 
HETATM    7  C6  UNL     1       1.468  18.731  27.637  1.00  0.00     0.072 C 
HETATM    8  C7  UNL     1       1.970  19.716  26.622  1.00  0.00     0.105 C 
ENDROOT
BRANCH   8   9
HETATM    9  N2  UNL     1       1.780  19.633  25.443  1.00  0.00    -0.322 NA
BRANCH   9  10
HETATM   10  N3  UNL     1       1.590  19.553  24.172  1.00  0.00    -0.148 N 
HETATM   11  C8  UNL     1       1.768  18.467  23.355  1.00  0.00     0.143 A 
HETATM   12  N5  UNL     1       1.388  18.766  22.097  1.00  0.00    -0.284 N 
HETATM   13  N6  UNL     1       0.982  19.994  22.079  1.00  0.00    -0.272 N 
ATOM     14  H5  UNL     1       1.415  18.134  21.298  1.00  0.00     0.188 HD
HETATM   15  C17 UNL     1       1.083  20.505  23.295  1.00  0.00     0.225 A 
ATOM     16  H6  UNL     1       0.638  20.489  21.257  1.00  0.00     0.189 HD
HETATM   17  S2  UNL     1       0.667  22.052  23.700  1.00  0.00    -0.036 SA
BRANCH  11  18
HETATM   18  C9  UNL     1       2.382  17.176  23.792  1.00  0.00     0.164 C 
BRANCH  18  19
HETATM   19  S1  UNL     1       4.200  17.343  23.630  1.00  0.00    -0.079 SA
BRANCH  19  20
HETATM   20  C10 UNL     1       4.856  15.719  23.154  1.00  0.00     0.188 A 
HETATM   21  N4  UNL     1       5.721  15.404  22.183  1.00  0.00    -0.329 N 
HETATM   22  C11 UNL     1       5.954  14.068  22.169  1.00  0.00     0.069 A 
ATOM     23  H4  UNL     1       6.146  16.075  21.543  1.00  0.00     0.168 HD
HETATM   24  C12 UNL     1       6.721  13.190  21.435  1.00  0.00     0.035 A 
HETATM   25  C16 UNL     1       5.166  13.560  23.207  1.00  0.00     0.108 A 
HETATM   26  C13 UNL     1       6.775  11.831  21.648  1.00  0.00     0.044 A 
HETATM   27  C14 UNL     1       5.974  11.348  22.697  1.00  0.00     0.119 A 
HETATM   28  F1  UNL     1       6.007  10.006  22.926  1.00  0.00    -0.206 F 
HETATM   29  C15 UNL     1       5.198  12.205  23.443  1.00  0.00     0.082 A 
HETATM   30  O1  UNL     1       4.557  14.584  23.731  1.00  0.00    -0.285 OA
ENDBRANCH  19  20
ENDBRANCH  18  19
ENDBRANCH  11  18
ENDBRANCH   9  10
ENDBRANCH   8   9
TORSDOF 5
ENDMDL
MODEL 5
REMARK VINA RESULT: -8.099637772      2.143      3.040
REMARK  5 active torsions:
REMARK  status: ('A' for Active; 'I' for Inactive)
REMARK    1  A    between atoms: C7_8  and  N2_9 
REMARK    2  A    between atoms: N2_9  and  N3_10 
REMARK    3  A    between atoms: C8_11  and  C9_12 
REMARK    4  A    between atoms: C9_12  and  S1_13 
REMARK    5  A    between atoms: S1_13  and  C10_14 
ROOT
HETATM    1  N1  UNL     1       2.334  20.719  26.840  1.00  0.00    -0.196 NA
HETATM    2  C1  UNL     1       2.878  20.811  25.825  1.00  0.00     0.071 C 
HETATM    3  C2  UNL     1       3.553  20.937  24.535  1.00  0.00     0.154 C 
HETATM    4  C3  UNL     1       3.848  22.390  24.278  1.00  0.00     0.026 C 
HETATM    5  C4  UNL     1       2.566  23.169  24.518  1.00  0.00     0.002 C 
HETATM    6  C5  UNL     1       1.465  22.662  23.611  1.00  0.00     0.007 C 
HETATM    7  C6  UNL     1       1.922  21.557  22.681  1.00  0.00     0.072 C 
HETATM    8  C7  UNL     1       2.611  20.469  23.450  1.00  0.00     0.105 C 
ENDROOT
BRANCH   8   9
HETATM    9  N2  UNL     1       2.444  19.298  23.269  1.00  0.00    -0.322 NA
BRANCH   9  10
HETATM   10  N3  UNL     1       2.276  18.038  23.063  1.00  0.00    -0.148 N 
HETATM   11  C8  UNL     1       3.012  16.993  23.554  1.00  0.00     0.143 A 
HETATM   12  N5  UNL     1       2.470  15.820  23.168  1.00  0.00    -0.284 N 
HETATM   13  N6  UNL     1       1.427  16.077  22.449  1.00  0.00    -0.272 N 
ATOM     14  H5  UNL     1       2.822  14.893  23.402  1.00  0.00     0.188 HD
HETATM   15  C17 UNL     1       1.269  17.388  22.358  1.00  0.00     0.225 A 
ATOM     16  H6  UNL     1       0.820  15.378  22.020  1.00  0.00     0.189 HD
HETATM   17  S2  UNL     1       0.051  18.131  21.525  1.00  0.00    -0.036 SA
BRANCH  11  18
HETATM   18  C9  UNL     1       4.283  17.148  24.328  1.00  0.00     0.164 C 
BRANCH  18  19
HETATM   19  S1  UNL     1       5.667  17.147  23.128  1.00  0.00    -0.079 SA
BRANCH  19  20
HETATM   20  C10 UNL     1       6.068  15.416  22.758  1.00  0.00     0.188 A 
HETATM   21  N4  UNL     1       7.061  14.914  22.016  1.00  0.00    -0.329 N 
HETATM   22  C11 UNL     1       7.007  13.558  22.003  1.00  0.00     0.069 A 
ATOM     23  H4  UNL     1       7.761  15.472  21.528  1.00  0.00     0.168 HD
HETATM   24  C12 UNL     1       7.731  12.530  21.442  1.00  0.00     0.035 A 
HETATM   25  C16 UNL     1       5.898  13.242  22.795  1.00  0.00     0.108 A 
HETATM   26  C13 UNL     1       7.447  11.193  21.605  1.00  0.00     0.044 A 
HETATM   27  C14 UNL     1       6.328  10.903  22.405  1.00  0.00     0.119 A 
HETATM   28  F1  UNL     1       6.023   9.587  22.579  1.00  0.00    -0.206 F 
HETATM   29  C15 UNL     1       5.588  11.912  22.975  1.00  0.00     0.082 A 
HETATM   30  O1  UNL     1       5.405  14.377  23.197  1.00  0.00    -0.285 OA
ENDBRANCH  19  20
ENDBRANCH  18  19
ENDBRANCH  11  18
ENDBRANCH   9  10
ENDBRANCH   8   9
TORSDOF 5
ENDMDL
