MODEL 1
REMARK VINA RESULT: -8.666178368      0.000      0.000
REMARK  5 active torsions:
REMARK  status: ('A' for Active; 'I' for Inactive)
REMARK    1  A    between atoms: C7_7  and  C9_9 
REMARK    2  A    between atoms: C9_9  and  N1_10 
REMARK    3  A    between atoms: N1_10  and  C10_12 
REMARK    4  A    between atoms: C12_14  and  O1_15 
REMARK    5  A    between atoms: C14_17  and  S1_18 
ROOT
HETATM    1  C1  UNL     1       6.008  10.372  20.997  1.00  0.00     0.013 C 
HETATM    2  C2  UNL     1       5.813  11.206  21.847  1.00  0.00    -0.106 C 
HETATM    3  C3  UNL     1       5.588  12.236  22.886  1.00  0.00     0.036 C 
HETATM    4  C4  UNL     1       5.060  11.479  24.101  1.00  0.00     0.030 C 
HETATM    5  C5  UNL     1       4.501  13.129  22.394  1.00  0.00     0.024 C 
HETATM    6  C6  UNL     1       4.645  14.520  23.008  1.00  0.00     0.012 C 
HETATM    7  C7  UNL     1       5.907  15.141  22.450  1.00  0.00    -0.027 C 
HETATM    8  C8  UNL     1       5.589  15.493  20.991  1.00  0.00     0.017 C 
HETATM    9  C18 UNL     1       7.070  14.204  22.430  1.00  0.00     0.032 C 
HETATM   10  C19 UNL     1       6.868  12.941  23.196  1.00  0.00     0.103 C 
HETATM   11 CL1  UNL     1       8.204  11.827  22.735  1.00  0.00    -0.123 Cl
ENDROOT
BRANCH   7  12
HETATM   12  C9  UNL     1       6.231  16.446  23.135  1.00  0.00     0.129 C 
BRANCH  12  13
HETATM   13  N1  UNL     1       5.378  17.467  22.646  1.00  0.00    -0.387 N 
ATOM     14  H1  UNL     1       5.560  17.806  21.701  1.00  0.00     0.159 HD
BRANCH  13  15
HETATM   15  C10 UNL     1       4.300  18.061  23.339  1.00  0.00     0.062 A 
HETATM   16  C11 UNL     1       2.976  17.697  23.152  1.00  0.00     0.069 A 
HETATM   17  C12 UNL     1       1.940  18.290  23.840  1.00  0.00     0.090 A 
HETATM   18  C14 UNL     1       2.219  19.272  24.740  1.00  0.00     0.079 A 
HETATM   19  C16 UNL     1       3.528  19.682  24.973  1.00  0.00     0.108 A 
HETATM   20  N3  UNL     1       4.131  20.588  25.763  1.00  0.00    -0.238 N 
HETATM   21  C17 UNL     1       4.550  19.054  24.253  1.00  0.00     0.113 A 
HETATM   22  O2  UNL     1       5.417  20.549  25.570  1.00  0.00    -0.156 OA
ATOM     23  H3  UNL     1       3.653  21.212  26.413  1.00  0.00     0.197 HD
HETATM   24  N4  UNL     1       5.667  19.634  24.671  1.00  0.00    -0.237 N 
ATOM     25  H4  UNL     1       6.600  19.397  24.334  1.00  0.00     0.197 HD
BRANCH  17  26
HETATM   26  O1  UNL     1       0.623  17.917  23.643  1.00  0.00    -0.354 OA
HETATM   27  C13 UNL     1       0.041  18.202  22.385  1.00  0.00     0.210 C 
ENDBRANCH  17  26
BRANCH  18  28
HETATM   28  S1  UNL     1       0.927  20.065  25.650  1.00  0.00    -0.006 SA
HETATM   29  C15 UNL     1       0.186  21.313  24.646  1.00  0.00     0.139 C 
HETATM   30  N2  UNL     1      -0.283  22.138  23.980  1.00  0.00    -0.184 NA
ENDBRANCH  18  28
ENDBRANCH  13  15
ENDBRANCH  12  13
ENDBRANCH   7  12
TORSDOF 5
ENDMDL
MODEL 2
REMARK VINA RESULT: -8.530041898      1.745      2.283
REMARK  5 active torsions:
REMARK  status: ('A' for Active; 'I' for Inactive)
REMARK    1  A    between atoms: C7_7  and  C9_9 
REMARK    2  A    between atoms: C9_9  and  N1_10 
REMARK    3  A    between atoms: N1_10  and  C10_12 
REMARK    4  A    between atoms: C12_14  and  O1_15 
REMARK    5  A    between atoms: C14_17  and  S1_18 
ROOT
HETATM    1  C1  UNL     1       7.178   9.297  22.989  1.00  0.00     0.013 C 
HETATM    2  C2  UNL     1       6.793  10.279  22.403  1.00  0.00    -0.106 C 
HETATM    3  C3  UNL     1       6.317  11.491  21.699  1.00  0.00     0.036 C 
HETATM    4  C4  UNL     1       5.385  10.985  20.602  1.00  0.00     0.030 C 
HETATM    5  C5  UNL     1       7.502  12.113  21.042  1.00  0.00     0.024 C 
HETATM    6  C6  UNL     1       7.285  13.616  20.881  1.00  0.00     0.012 C 
HETATM    7  C7  UNL     1       7.271  14.229  22.265  1.00  0.00    -0.027 C 
HETATM    8  C8  UNL     1       8.725  14.191  22.754  1.00  0.00     0.017 C 
HETATM    9  C18 UNL     1       6.459  13.454  23.250  1.00  0.00     0.032 C 
HETATM   10  C19 UNL     1       5.601  12.391  22.652  1.00  0.00     0.103 C 
HETATM   11 CL1  UNL     1       5.019  11.360  24.008  1.00  0.00    -0.123 Cl
ENDROOT
BRANCH   7  12
HETATM   12  C9  UNL     1       6.883  15.688  22.221  1.00  0.00     0.129 C 
BRANCH  12  13
HETATM   13  N1  UNL     1       6.154  16.023  23.389  1.00  0.00    -0.387 N 
ATOM     14  H1  UNL     1       6.573  15.765  24.283  1.00  0.00     0.159 HD
BRANCH  13  15
HETATM   15  C10 UNL     1       4.905  16.680  23.436  1.00  0.00     0.062 A 
HETATM   16  C11 UNL     1       3.702  16.060  23.133  1.00  0.00     0.069 A 
HETATM   17  C12 UNL     1       2.494  16.721  23.185  1.00  0.00     0.090 A 
HETATM   18  C14 UNL     1       2.471  18.033  23.548  1.00  0.00     0.079 A 
HETATM   19  C16 UNL     1       3.645  18.710  23.865  1.00  0.00     0.108 A 
HETATM   20  N3  UNL     1       3.967  19.959  24.248  1.00  0.00    -0.238 N 
HETATM   21  C17 UNL     1       4.849  18.003  23.799  1.00  0.00     0.113 A 
HETATM   22  O2  UNL     1       5.254  20.048  24.412  1.00  0.00    -0.156 OA
ATOM     23  H3  UNL     1       3.302  20.720  24.388  1.00  0.00     0.197 HD
HETATM   24  N4  UNL     1       5.781  18.882  24.145  1.00  0.00    -0.237 N 
ATOM     25  H4  UNL     1       6.778  18.674  24.196  1.00  0.00     0.197 HD
BRANCH  17  26
HETATM   26  O1  UNL     1       1.302  16.090  22.880  1.00  0.00    -0.354 OA
HETATM   27  C13 UNL     1       1.367  14.763  22.394  1.00  0.00     0.210 C 
ENDBRANCH  17  26
BRANCH  18  28
HETATM   28  S1  UNL     1       0.949  18.926  23.632  1.00  0.00    -0.006 SA
HETATM   29  C15 UNL     1       1.129  20.470  22.795  1.00  0.00     0.139 C 
HETATM   30  N2  UNL     1       1.266  21.485  22.253  1.00  0.00    -0.184 NA
ENDBRANCH  18  28
ENDBRANCH  13  15
ENDBRANCH  12  13
ENDBRANCH   7  12
TORSDOF 5
ENDMDL
MODEL 3
REMARK VINA RESULT: -8.489628035      1.051      1.087
REMARK  5 active torsions:
REMARK  status: ('A' for Active; 'I' for Inactive)
REMARK    1  A    between atoms: C7_7  and  C9_9 
REMARK    2  A    between atoms: C9_9  and  N1_10 
REMARK    3  A    between atoms: N1_10  and  C10_12 
REMARK    4  A    between atoms: C12_14  and  O1_15 
REMARK    5  A    between atoms: C14_17  and  S1_18 
ROOT
HETATM    1  C1  UNL     1       6.518   9.979  20.129  1.00  0.00     0.013 C 
HETATM    2  C2  UNL     1       6.359  10.691  21.091  1.00  0.00    -0.106 C 
HETATM    3  C3  UNL     1       6.179  11.572  22.267  1.00  0.00     0.036 C 
HETATM    4  C4  UNL     1       5.804  10.642  23.417  1.00  0.00     0.030 C 
HETATM    5  C5  UNL     1       5.007  12.448  21.985  1.00  0.00     0.024 C 
HETATM    6  C6  UNL     1       5.135  13.761  22.756  1.00  0.00     0.012 C 
HETATM    7  C7  UNL     1       6.307  14.522  22.175  1.00  0.00    -0.027 C 
HETATM    8  C8  UNL     1       5.840  15.028  20.804  1.00  0.00     0.017 C 
HETATM    9  C18 UNL     1       7.510  13.668  21.939  1.00  0.00     0.032 C 
HETATM   10  C19 UNL     1       7.444  12.312  22.554  1.00  0.00     0.103 C 
HETATM   11 CL1  UNL     1       8.787  11.346  21.845  1.00  0.00    -0.123 Cl
ENDROOT
BRANCH   7  12
HETATM   12  C9  UNL     1       6.626  15.753  22.989  1.00  0.00     0.129 C 
BRANCH  12  13
HETATM   13  N1  UNL     1       5.811  16.831  22.564  1.00  0.00    -0.387 N 
ATOM     14  H1  UNL     1       6.081  17.299  21.699  1.00  0.00     0.159 HD
BRANCH  13  15
HETATM   15  C10 UNL     1       4.660  17.320  23.220  1.00  0.00     0.062 A 
HETATM   16  C11 UNL     1       3.425  16.695  23.167  1.00  0.00     0.069 A 
HETATM   17  C12 UNL     1       2.314  17.190  23.816  1.00  0.00     0.090 A 
HETATM   18  C14 UNL     1       2.427  18.338  24.539  1.00  0.00     0.079 A 
HETATM   19  C16 UNL     1       3.641  19.012  24.632  1.00  0.00     0.108 A 
HETATM   20  N3  UNL     1       4.083  20.128  25.239  1.00  0.00    -0.238 N 
HETATM   21  C17 UNL     1       4.742  18.475  23.957  1.00  0.00     0.113 A 
HETATM   22  O2  UNL     1       5.346  20.295  24.981  1.00  0.00    -0.156 OA
ATOM     23  H3  UNL     1       3.513  20.749  25.814  1.00  0.00     0.197 HD
HETATM   24  N4  UNL     1       5.740  19.309  24.217  1.00  0.00    -0.237 N 
ATOM     25  H4  UNL     1       6.692  19.196  23.867  1.00  0.00     0.197 HD
BRANCH  17  26
HETATM   26  O1  UNL     1       1.087  16.555  23.754  1.00  0.00    -0.354 OA
HETATM   27  C13 UNL     1       0.921  15.542  22.781  1.00  0.00     0.210 C 
ENDBRANCH  17  26
BRANCH  18  28
HETATM   28  S1  UNL     1       1.035  19.015  25.392  1.00  0.00    -0.006 SA
HETATM   29  C15 UNL     1       0.392  20.378  24.472  1.00  0.00     0.139 C 
HETATM   30  N2  UNL     1      -0.011  21.278  23.864  1.00  0.00    -0.184 NA
ENDBRANCH  18  28
ENDBRANCH  13  15
ENDBRANCH  12  13
ENDBRANCH   7  12
TORSDOF 5
ENDMDL
MODEL 4
REMARK VINA RESULT: -8.477746191      2.054      3.374
REMARK  5 active torsions:
REMARK  status: ('A' for Active; 'I' for Inactive)
REMARK    1  A    between atoms: C7_7  and  C9_9 
REMARK    2  A    between atoms: C9_9  and  N1_10 
REMARK    3  A    between atoms: N1_10  and  C10_12 
REMARK    4  A    between atoms: C12_14  and  O1_15 
REMARK    5  A    between atoms: C14_17  and  S1_18 
ROOT
HETATM    1  C1  UNL     1       7.195   9.337  22.985  1.00  0.00     0.013 C 
HETATM    2  C2  UNL     1       6.775  10.321  22.428  1.00  0.00    -0.106 C 
HETATM    3  C3  UNL     1       6.254  11.536  21.759  1.00  0.00     0.036 C 
HETATM    4  C4  UNL     1       5.312  11.029  20.672  1.00  0.00     0.030 C 
HETATM    5  C5  UNL     1       7.410  12.200  21.092  1.00  0.00     0.024 C 
HETATM    6  C6  UNL     1       7.153  13.700  20.967  1.00  0.00     0.012 C 
HETATM    7  C7  UNL     1       7.154  14.285  22.363  1.00  0.00    -0.027 C 
HETATM    8  C8  UNL     1       8.618  14.272  22.821  1.00  0.00     0.017 C 
HETATM    9  C18 UNL     1       6.381  13.469  23.347  1.00  0.00     0.032 C 
HETATM   10  C19 UNL     1       5.537  12.398  22.746  1.00  0.00     0.103 C 
HETATM   11 CL1  UNL     1       5.009  11.325  24.091  1.00  0.00    -0.123 Cl
ENDROOT
BRANCH   7  12
HETATM   12  C9  UNL     1       6.729  15.733  22.357  1.00  0.00     0.129 C 
BRANCH  12  13
HETATM   13  N1  UNL     1       5.330  15.820  22.143  1.00  0.00    -0.387 N 
ATOM     14  H1  UNL     1       4.965  15.372  21.302  1.00  0.00     0.159 HD
BRANCH  13  15
HETATM   15  C10 UNL     1       4.394  16.465  22.979  1.00  0.00     0.062 A 
HETATM   16  C11 UNL     1       4.719  17.510  23.830  1.00  0.00     0.069 A 
HETATM   17  C12 UNL     1       3.789  18.125  24.639  1.00  0.00     0.090 A 
HETATM   18  C14 UNL     1       2.497  17.696  24.607  1.00  0.00     0.079 A 
HETATM   19  C16 UNL     1       2.107  16.652  23.774  1.00  0.00     0.108 A 
HETATM   20  N3  UNL     1       0.958  16.005  23.508  1.00  0.00    -0.238 N 
HETATM   21  C17 UNL     1       3.084  16.055  22.970  1.00  0.00     0.113 A 
HETATM   22  O2  UNL     1       1.173  15.081  22.619  1.00  0.00    -0.156 OA
ATOM     23  H3  UNL     1       0.056  16.209  23.938  1.00  0.00     0.197 HD
HETATM   24  N4  UNL     1       2.440  15.110  22.298  1.00  0.00    -0.237 N 
ATOM     25  H4  UNL     1       2.877  14.487  21.618  1.00  0.00     0.197 HD
BRANCH  17  26
HETATM   26  O1  UNL     1       4.128  19.167  25.483  1.00  0.00    -0.354 OA
HETATM   27  C13 UNL     1       4.607  20.360  24.892  1.00  0.00     0.210 C 
ENDBRANCH  17  26
BRANCH  18  28
HETATM   28  S1  UNL     1       1.264  18.451  25.623  1.00  0.00    -0.006 SA
HETATM   29  C15 UNL     1       0.327  19.593  24.656  1.00  0.00     0.139 C 
HETATM   30  N2  UNL     1      -0.271  20.348  24.011  1.00  0.00    -0.184 NA
ENDBRANCH  18  28
ENDBRANCH  13  15
ENDBRANCH  12  13
ENDBRANCH   7  12
TORSDOF 5
ENDMDL
MODEL 5
REMARK VINA RESULT: -8.465850111      1.884      3.091
REMARK  5 active torsions:
REMARK  status: ('A' for Active; 'I' for Inactive)
REMARK    1  A    between atoms: C7_7  and  C9_9 
REMARK    2  A    between atoms: C9_9  and  N1_10 
REMARK    3  A    between atoms: N1_10  and  C10_12 
REMARK    4  A    between atoms: C12_14  and  O1_15 
REMARK    5  A    between atoms: C14_17  and  S1_18 
ROOT
HETATM    1  C1  UNL     1       6.720   9.834  20.187  1.00  0.00     0.013 C 
HETATM    2  C2  UNL     1       6.823  10.525  21.171  1.00  0.00    -0.106 C 
HETATM    3  C3  UNL     1       6.954  11.386  22.368  1.00  0.00     0.036 C 
HETATM    4  C4  UNL     1       7.856  10.615  23.327  1.00  0.00     0.030 C 
HETATM    5  C5  UNL     1       5.602  11.484  22.990  1.00  0.00     0.024 C 
HETATM    6  C6  UNL     1       5.474  12.793  23.765  1.00  0.00     0.012 C 
HETATM    7  C7  UNL     1       5.497  13.926  22.761  1.00  0.00    -0.027 C 
HETATM    8  C8  UNL     1       4.143  13.874  22.041  1.00  0.00     0.017 C 
HETATM    9  C18 UNL     1       6.553  13.771  21.716  1.00  0.00     0.032 C 
HETATM   10  C19 UNL     1       7.553  12.701  21.993  1.00  0.00     0.103 C 
HETATM   11 CL1  UNL     1       8.478  12.439  20.471  1.00  0.00    -0.123 Cl
ENDROOT
BRANCH   7  12
HETATM   12  C9  UNL     1       5.557  15.271  23.444  1.00  0.00     0.129 C 
BRANCH  12  13
HETATM   13  N1  UNL     1       4.246  15.693  23.782  1.00  0.00    -0.387 N 
ATOM     14  H1  UNL     1       3.608  14.979  24.132  1.00  0.00     0.159 HD
BRANCH  13  15
HETATM   15  C10 UNL     1       3.739  17.007  23.680  1.00  0.00     0.062 A 
HETATM   16  C11 UNL     1       4.359  18.113  24.239  1.00  0.00     0.069 A 
HETATM   17  C12 UNL     1       3.846  19.387  24.127  1.00  0.00     0.090 A 
HETATM   18  C14 UNL     1       2.685  19.576  23.442  1.00  0.00     0.079 A 
HETATM   19  C16 UNL     1       2.014  18.505  22.857  1.00  0.00     0.108 A 
HETATM   20  N3  UNL     1       0.888  18.346  22.139  1.00  0.00    -0.238 N 
HETATM   21  C17 UNL     1       2.570  17.229  22.996  1.00  0.00     0.113 A 
HETATM   22  O2  UNL     1       0.733  17.090  21.843  1.00  0.00    -0.156 OA
ATOM     23  H3  UNL     1       0.253  19.097  21.868  1.00  0.00     0.197 HD
HETATM   24  N4  UNL     1       1.735  16.423  22.353  1.00  0.00    -0.237 N 
ATOM     25  H4  UNL     1       1.860  15.414  22.268  1.00  0.00     0.197 HD
BRANCH  17  26
HETATM   26  O1  UNL     1       4.476  20.482  24.690  1.00  0.00    -0.354 OA
HETATM   27  C13 UNL     1       4.911  20.370  26.032  1.00  0.00     0.210 C 
ENDBRANCH  17  26
BRANCH  18  28
HETATM   28  S1  UNL     1       1.984  21.188  23.268  1.00  0.00    -0.006 SA
HETATM   29  C15 UNL     1       0.417  21.236  24.079  1.00  0.00     0.139 C 
HETATM   30  N2  UNL     1      -0.616  21.249  24.605  1.00  0.00    -0.184 NA
ENDBRANCH  18  28
ENDBRANCH  13  15
ENDBRANCH  12  13
ENDBRANCH   7  12
TORSDOF 5
ENDMDL
