MODEL 1
REMARK VINA RESULT: -8.781316916      0.000      0.000
REMARK  6 active torsions:
REMARK  status: ('A' for Active; 'I' for Inactive)
REMARK    1  A    between atoms: C2_2  and  C3_3 
REMARK    2  A    between atoms: C8_15  and  C9_16 
REMARK    3  A    between atoms: C9_16  and  C10_17 
REMARK    4  A    between atoms: C10_17  and  C11_18 
REMARK    5  A    between atoms: C11_18  and  C12_19 
REMARK    6  A    between atoms: C14_25  and  C15_26 
ROOT
HETATM    1  C3  UNL     1      -7.986 -26.370  -5.195  1.00  0.00     0.173 C 
HETATM    2  N1  UNL     1      -7.347 -25.180  -5.626  1.00  0.00    -0.385 N 
ATOM      3  H1  UNL     1      -7.990 -24.452  -5.939  1.00  0.00     0.159 HD
HETATM    4  C4  UNL     1      -6.137 -24.859  -5.694  1.00  0.00     0.101 C 
HETATM    5  C5  UNL     1      -5.059 -25.742  -5.302  1.00  0.00     0.105 C 
HETATM    6  N2  UNL     1      -4.978 -26.362  -4.217  1.00  0.00    -0.361 N 
ATOM      7  H2  UNL     1      -5.316 -27.319  -4.116  1.00  0.00     0.166 HD
HETATM    8  C6  UNL     1      -4.458 -25.740  -3.264  1.00  0.00     0.183 C 
HETATM    9  N3  UNL     1      -4.399 -26.308  -2.154  1.00  0.00    -0.321 N 
ATOM     10  H3  UNL     1      -4.431 -27.328  -2.164  1.00  0.00     0.169 HD
HETATM   11  C7  UNL     1      -4.294 -25.699  -0.893  1.00  0.00     0.245 C 
HETATM   12  O1  UNL     1      -4.703 -26.267   0.156  1.00  0.00    -0.271 OA
HETATM   13  C8  UNL     1      -3.689 -24.341  -0.715  1.00  0.00     0.177 C 
HETATM   14  N4  UNL     1      -4.359 -23.585   0.324  1.00  0.00    -0.346 N 
ATOM     15  H4  UNL     1      -3.800 -22.943   0.884  1.00  0.00     0.163 HD
HETATM   16  C13 UNL     1      -5.746 -23.686   0.608  1.00  0.00     0.241 C 
HETATM   17  O2  UNL     1      -6.129 -23.683   1.807  1.00  0.00    -0.271 OA
HETATM   18  C14 UNL     1      -6.808 -23.799  -0.426  1.00  0.00     0.176 C 
HETATM   19  N5  UNL     1      -7.871 -24.681  -0.039  1.00  0.00    -0.346 N 
ATOM     20  H5  UNL     1      -8.045 -24.823   0.957  1.00  0.00     0.163 HD
HETATM   21  C17 UNL     1      -8.694 -25.367  -0.971  1.00  0.00     0.236 C 
HETATM   22  O3  UNL     1      -9.839 -25.815  -0.625  1.00  0.00    -0.272 OA
HETATM   23  C18 UNL     1      -8.290 -25.599  -2.364  1.00  0.00     0.225 C 
HETATM   24  N6  UNL     1      -9.451 -25.626  -3.243  1.00  0.00    -0.351 N 
ATOM     25  H6  UNL     1     -10.372 -25.399  -2.865  1.00  0.00     0.163 HD
HETATM   26  C19 UNL     1      -9.323 -25.962  -4.618  1.00  0.00     0.240 C 
HETATM   27  O4  UNL     1     -10.359 -25.909  -5.330  1.00  0.00    -0.271 OA
ENDROOT
BRANCH  13  28
HETATM   28  C9  UNL     1      -2.254 -24.556  -0.270  1.00  0.00     0.035 C 
BRANCH  28  29
HETATM   29  C10 UNL     1      -1.294 -24.595  -1.409  1.00  0.00     0.003 C 
BRANCH  29  30
HETATM   30  C11 UNL     1       0.114 -24.590  -0.856  1.00  0.00     0.011 C 
BRANCH  30  31
HETATM   31  C12 UNL     1       0.149 -24.276   0.625  1.00  0.00     0.086 C 
HETATM   32  S1  UNL     1       1.782 -23.545   1.009  1.00  0.00    -0.098 SA
ENDBRANCH  30  31
ENDBRANCH  29  30
ENDBRANCH  28  29
ENDBRANCH  13  28
BRANCH  18  33
HETATM   33  C15 UNL     1      -7.437 -22.415  -0.616  1.00  0.00     0.030 C 
HETATM   34  C16 UNL     1      -6.634 -21.560  -1.554  1.00  0.00     0.007 C 
ENDBRANCH  18  33
BRANCH   1  35
HETATM   35  C2  UNL     1      -8.343 -27.299  -6.348  1.00  0.00     0.030 C 
HETATM   36  C1  UNL     1      -7.605 -28.594  -6.303  1.00  0.00     0.007 C 
ENDBRANCH   1  35
TORSDOF 6
ENDMDL
MODEL 2
REMARK VINA RESULT: -8.107543604      1.232      1.317
REMARK  6 active torsions:
REMARK  status: ('A' for Active; 'I' for Inactive)
REMARK    1  A    between atoms: C2_2  and  C3_3 
REMARK    2  A    between atoms: C8_15  and  C9_16 
REMARK    3  A    between atoms: C9_16  and  C10_17 
REMARK    4  A    between atoms: C10_17  and  C11_18 
REMARK    5  A    between atoms: C11_18  and  C12_19 
REMARK    6  A    between atoms: C14_25  and  C15_26 
ROOT
HETATM    1  C3  UNL     1      -7.878 -26.081  -5.023  1.00  0.00     0.173 C 
HETATM    2  N1  UNL     1      -7.246 -24.947  -5.594  1.00  0.00    -0.385 N 
ATOM      3  H1  UNL     1      -7.892 -24.215  -5.889  1.00  0.00     0.159 HD
HETATM    4  C4  UNL     1      -6.040 -24.680  -5.804  1.00  0.00     0.101 C 
HETATM    5  C5  UNL     1      -4.958 -25.580  -5.463  1.00  0.00     0.105 C 
HETATM    6  N2  UNL     1      -4.787 -26.133  -4.353  1.00  0.00    -0.361 N 
ATOM      7  H2  UNL     1      -5.145 -27.068  -4.156  1.00  0.00     0.166 HD
HETATM    8  C6  UNL     1      -4.152 -25.475  -3.500  1.00  0.00     0.183 C 
HETATM    9  N3  UNL     1      -3.999 -25.974  -2.366  1.00  0.00    -0.321 N 
ATOM     10  H3  UNL     1      -4.066 -26.991  -2.305  1.00  0.00     0.169 HD
HETATM   11  C7  UNL     1      -3.745 -25.292  -1.165  1.00  0.00     0.245 C 
HETATM   12  O1  UNL     1      -4.064 -25.776  -0.045  1.00  0.00    -0.271 OA
HETATM   13  C8  UNL     1      -3.079 -23.951  -1.139  1.00  0.00     0.177 C 
HETATM   14  N4  UNL     1      -3.614 -23.105  -0.091  1.00  0.00    -0.346 N 
ATOM     15  H4  UNL     1      -2.980 -22.452   0.367  1.00  0.00     0.163 HD
HETATM   16  C13 UNL     1      -4.968 -23.131   0.336  1.00  0.00     0.241 C 
HETATM   17  O2  UNL     1      -5.226 -23.038   1.564  1.00  0.00    -0.271 OA
HETATM   18  C14 UNL     1      -6.133 -23.266  -0.578  1.00  0.00     0.176 C 
HETATM   19  N5  UNL     1      -7.180 -24.078  -0.028  1.00  0.00    -0.346 N 
ATOM     20  H5  UNL     1      -7.256 -24.151   0.987  1.00  0.00     0.163 HD
HETATM   21  C17 UNL     1      -8.116 -24.787  -0.826  1.00  0.00     0.236 C 
HETATM   22  O3  UNL     1      -9.235 -25.167  -0.339  1.00  0.00    -0.272 OA
HETATM   23  C18 UNL     1      -7.866 -25.122  -2.234  1.00  0.00     0.225 C 
HETATM   24  N6  UNL     1      -9.110 -25.157  -2.989  1.00  0.00    -0.351 N 
ATOM     25  H6  UNL     1      -9.979 -24.870  -2.538  1.00  0.00     0.163 HD
HETATM   26  C19 UNL     1      -9.134 -25.584  -4.345  1.00  0.00     0.240 C 
HETATM   27  O4  UNL     1     -10.235 -25.534  -4.951  1.00  0.00    -0.271 OA
ENDROOT
BRANCH  13  28
HETATM   28  C9  UNL     1      -1.615 -24.196  -0.826  1.00  0.00     0.035 C 
BRANCH  28  29
HETATM   29  C10 UNL     1      -1.251 -23.824   0.570  1.00  0.00     0.003 C 
BRANCH  29  30
HETATM   30  C11 UNL     1      -0.851 -25.078   1.316  1.00  0.00     0.011 C 
BRANCH  30  31
HETATM   31  C12 UNL     1      -0.170 -26.089   0.418  1.00  0.00     0.086 C 
HETATM   32  S1  UNL     1      -0.968 -27.713   0.690  1.00  0.00    -0.098 SA
ENDBRANCH  30  31
ENDBRANCH  29  30
ENDBRANCH  28  29
ENDBRANCH  13  28
BRANCH  18  33
HETATM   33  C15 UNL     1      -6.730 -21.872  -0.795  1.00  0.00     0.030 C 
HETATM   34  C16 UNL     1      -6.104 -21.172  -1.967  1.00  0.00     0.007 C 
ENDBRANCH  18  33
BRANCH   1  35
HETATM   35  C2  UNL     1      -8.382 -27.065  -6.071  1.00  0.00     0.030 C 
HETATM   36  C1  UNL     1      -7.623 -28.349  -6.078  1.00  0.00     0.007 C 
ENDBRANCH   1  35
TORSDOF 6
ENDMDL
MODEL 3
REMARK VINA RESULT: -7.663885948      1.073      1.129
REMARK  6 active torsions:
REMARK  status: ('A' for Active; 'I' for Inactive)
REMARK    1  A    between atoms: C2_2  and  C3_3 
REMARK    2  A    between atoms: C8_15  and  C9_16 
REMARK    3  A    between atoms: C9_16  and  C10_17 
REMARK    4  A    between atoms: C10_17  and  C11_18 
REMARK    5  A    between atoms: C11_18  and  C12_19 
REMARK    6  A    between atoms: C14_25  and  C15_26 
ROOT
HETATM    1  C3  UNL     1      -7.953 -25.936  -4.645  1.00  0.00     0.173 C 
HETATM    2  N1  UNL     1      -7.116 -25.045  -5.363  1.00  0.00    -0.385 N 
ATOM      3  H1  UNL     1      -7.609 -24.257  -5.782  1.00  0.00     0.159 HD
HETATM    4  C4  UNL     1      -5.881 -25.049  -5.576  1.00  0.00     0.101 C 
HETATM    5  C5  UNL     1      -4.992 -26.076  -5.074  1.00  0.00     0.105 C 
HETATM    6  N2  UNL     1      -4.930 -26.475  -3.889  1.00  0.00    -0.361 N 
ATOM      7  H2  UNL     1      -5.461 -27.282  -3.563  1.00  0.00     0.166 HD
HETATM    8  C6  UNL     1      -4.178 -25.827  -3.127  1.00  0.00     0.183 C 
HETATM    9  N3  UNL     1      -4.122 -26.167  -1.927  1.00  0.00    -0.321 N 
ATOM     10  H3  UNL     1      -4.384 -27.130  -1.715  1.00  0.00     0.169 HD
HETATM   11  C7  UNL     1      -3.739 -25.370  -0.836  1.00  0.00     0.245 C 
HETATM   12  O1  UNL     1      -4.143 -25.607   0.335  1.00  0.00    -0.271 OA
HETATM   13  C8  UNL     1      -2.827 -24.193  -0.994  1.00  0.00     0.177 C 
HETATM   14  N4  UNL     1      -3.186 -23.110  -0.101  1.00  0.00    -0.346 N 
ATOM     15  H4  UNL     1      -2.437 -22.528   0.272  1.00  0.00     0.163 HD
HETATM   16  C13 UNL     1      -4.519 -22.812   0.288  1.00  0.00     0.241 C 
HETATM   17  O2  UNL     1      -4.752 -22.484   1.480  1.00  0.00    -0.271 OA
HETATM   18  C14 UNL     1      -5.690 -22.859  -0.627  1.00  0.00     0.176 C 
HETATM   19  N5  UNL     1      -6.873 -23.363   0.009  1.00  0.00    -0.346 N 
ATOM     20  H5  UNL     1      -6.960 -23.263   1.021  1.00  0.00     0.163 HD
HETATM   21  C17 UNL     1      -7.930 -23.994  -0.699  1.00  0.00     0.236 C 
HETATM   22  O3  UNL     1      -9.100 -24.073  -0.191  1.00  0.00    -0.272 OA
HETATM   23  C18 UNL     1      -7.751 -24.582  -2.032  1.00  0.00     0.225 C 
HETATM   24  N6  UNL     1      -8.980 -24.494  -2.808  1.00  0.00    -0.351 N 
ATOM     25  H6  UNL     1      -9.777 -23.981  -2.430  1.00  0.00     0.163 HD
HETATM   26  C19 UNL     1      -9.089 -25.111  -4.084  1.00  0.00     0.240 C 
HETATM   27  O4  UNL     1     -10.160 -24.945  -4.722  1.00  0.00    -0.271 OA
ENDROOT
BRANCH  13  28
HETATM   28  C9  UNL     1      -1.436 -24.662  -0.607  1.00  0.00     0.035 C 
BRANCH  28  29
HETATM   29  C10 UNL     1      -0.384 -24.202  -1.555  1.00  0.00     0.003 C 
BRANCH  29  30
HETATM   30  C11 UNL     1       0.939 -24.157  -0.826  1.00  0.00     0.011 C 
BRANCH  30  31
HETATM   31  C12 UNL     1       0.766 -24.050   0.675  1.00  0.00     0.086 C 
HETATM   32  S1  UNL     1       2.299 -23.333   1.370  1.00  0.00    -0.098 SA
ENDBRANCH  30  31
ENDBRANCH  29  30
ENDBRANCH  28  29
ENDBRANCH  13  28
BRANCH  18  33
HETATM   33  C15 UNL     1      -6.007 -21.428  -1.069  1.00  0.00     0.030 C 
HETATM   34  C16 UNL     1      -5.343 -21.084  -2.371  1.00  0.00     0.007 C 
ENDBRANCH  18  33
BRANCH   1  35
HETATM   35  C2  UNL     1      -8.640 -26.955  -5.546  1.00  0.00     0.030 C 
HETATM   36  C1  UNL     1      -7.726 -28.043  -5.998  1.00  0.00     0.007 C 
ENDBRANCH   1  35
TORSDOF 6
ENDMDL
MODEL 4
REMARK VINA RESULT: -7.508001437      2.272      3.104
REMARK  6 active torsions:
REMARK  status: ('A' for Active; 'I' for Inactive)
REMARK    1  A    between atoms: C2_2  and  C3_3 
REMARK    2  A    between atoms: C8_15  and  C9_16 
REMARK    3  A    between atoms: C9_16  and  C10_17 
REMARK    4  A    between atoms: C10_17  and  C11_18 
REMARK    5  A    between atoms: C11_18  and  C12_19 
REMARK    6  A    between atoms: C14_25  and  C15_26 
ROOT
HETATM    1  C3  UNL     1      -6.017 -25.622  -4.513  1.00  0.00     0.173 C 
HETATM    2  N1  UNL     1      -4.775 -25.029  -4.172  1.00  0.00    -0.385 N 
ATOM      3  H1  UNL     1      -4.502 -24.257  -4.780  1.00  0.00     0.159 HD
HETATM    4  C4  UNL     1      -3.951 -25.279  -3.261  1.00  0.00     0.101 C 
HETATM    5  C5  UNL     1      -4.141 -26.334  -2.288  1.00  0.00     0.105 C 
HETATM    6  N2  UNL     1      -5.171 -26.519  -1.600  1.00  0.00    -0.361 N 
ATOM      7  H2  UNL     1      -5.912 -27.154  -1.898  1.00  0.00     0.166 HD
HETATM    8  C6  UNL     1      -5.238 -25.882  -0.526  1.00  0.00     0.183 C 
HETATM    9  N3  UNL     1      -6.269 -26.005   0.168  1.00  0.00    -0.321 N 
ATOM     10  H3  UNL     1      -6.813 -26.857   0.024  1.00  0.00     0.169 HD
HETATM   11  C7  UNL     1      -6.763 -25.102   1.123  1.00  0.00     0.245 C 
HETATM   12  O1  UNL     1      -7.987 -25.053   1.422  1.00  0.00    -0.271 OA
HETATM   13  C8  UNL     1      -5.868 -24.143   1.846  1.00  0.00     0.177 C 
HETATM   14  N4  UNL     1      -6.522 -22.873   2.086  1.00  0.00    -0.346 N 
ATOM     15  H4  UNL     1      -6.290 -22.369   2.941  1.00  0.00     0.163 HD
HETATM   16  C13 UNL     1      -7.468 -22.289   1.203  1.00  0.00     0.241 C 
HETATM   17  O2  UNL     1      -8.483 -21.718   1.681  1.00  0.00    -0.271 OA
HETATM   18  C14 UNL     1      -7.351 -22.301  -0.279  1.00  0.00     0.176 C 
HETATM   19  N5  UNL     1      -8.615 -22.476  -0.935  1.00  0.00    -0.346 N 
ATOM     20  H5  UNL     1      -9.461 -22.183  -0.445  1.00  0.00     0.163 HD
HETATM   21  C17 UNL     1      -8.748 -23.035  -2.234  1.00  0.00     0.236 C 
HETATM   22  O3  UNL     1      -9.797 -22.824  -2.932  1.00  0.00    -0.272 OA
HETATM   23  C18 UNL     1      -7.710 -23.875  -2.845  1.00  0.00     0.225 C 
HETATM   24  N6  UNL     1      -7.704 -23.721  -4.293  1.00  0.00    -0.351 N 
ATOM     25  H6  UNL     1      -8.308 -23.021  -4.726  1.00  0.00     0.163 HD
HETATM   26  C19 UNL     1      -6.871 -24.529  -5.114  1.00  0.00     0.240 C 
HETATM   27  O4  UNL     1      -6.876 -24.302  -6.351  1.00  0.00    -0.271 OA
ENDROOT
BRANCH  13  28
HETATM   28  C9  UNL     1      -5.565 -24.764   3.198  1.00  0.00     0.035 C 
BRANCH  28  29
HETATM   29  C10 UNL     1      -4.263 -25.488   3.224  1.00  0.00     0.003 C 
BRANCH  29  30
HETATM   30  C11 UNL     1      -3.237 -24.665   2.480  1.00  0.00     0.011 C 
BRANCH  30  31
HETATM   31  C12 UNL     1      -2.263 -25.525   1.702  1.00  0.00     0.086 C 
HETATM   32  S1  UNL     1      -0.866 -24.466   1.180  1.00  0.00    -0.098 SA
ENDBRANCH  30  31
ENDBRANCH  29  30
ENDBRANCH  28  29
ENDBRANCH  13  28
BRANCH  18  33
HETATM   33  C15 UNL     1      -6.812 -20.940  -0.725  1.00  0.00     0.030 C 
HETATM   34  C16 UNL     1      -5.390 -21.030  -1.203  1.00  0.00     0.007 C 
ENDBRANCH  18  33
BRANCH   1  35
HETATM   35  C2  UNL     1      -5.891 -26.655  -5.626  1.00  0.00     0.030 C 
HETATM   36  C1  UNL     1      -7.085 -27.541  -5.736  1.00  0.00     0.007 C 
ENDBRANCH   1  35
TORSDOF 6
ENDMDL
MODEL 5
REMARK VINA RESULT: -7.504461347      3.697      6.326
REMARK  6 active torsions:
REMARK  status: ('A' for Active; 'I' for Inactive)
REMARK    1  A    between atoms: C2_2  and  C3_3 
REMARK    2  A    between atoms: C8_15  and  C9_16 
REMARK    3  A    between atoms: C9_16  and  C10_17 
REMARK    4  A    between atoms: C10_17  and  C11_18 
REMARK    5  A    between atoms: C11_18  and  C12_19 
REMARK    6  A    between atoms: C14_25  and  C15_26 
ROOT
HETATM    1  C3  UNL     1      -8.129 -25.490  -0.469  1.00  0.00     0.173 C 
HETATM    2  N1  UNL     1      -8.820 -24.448  -1.138  1.00  0.00    -0.385 N 
ATOM      3  H1  UNL     1      -9.010 -23.633  -0.555  1.00  0.00     0.159 HD
HETATM    4  C4  UNL     1      -9.240 -24.346  -2.315  1.00  0.00     0.101 C 
HETATM    5  C5  UNL     1      -9.077 -25.386  -3.308  1.00  0.00     0.105 C 
HETATM    6  N2  UNL     1      -8.005 -25.966  -3.593  1.00  0.00    -0.361 N 
ATOM      7  H2  UNL     1      -7.733 -26.844  -3.152  1.00  0.00     0.166 HD
HETATM    8  C6  UNL     1      -7.286 -25.406  -4.450  1.00  0.00     0.183 C 
HETATM    9  N3  UNL     1      -6.187 -25.929  -4.729  1.00  0.00    -0.321 N 
ATOM     10  H3  UNL     1      -6.099 -26.928  -4.537  1.00  0.00     0.169 HD
HETATM   11  C7  UNL     1      -5.060 -25.297  -5.278  1.00  0.00     0.245 C 
HETATM   12  O1  UNL     1      -3.894 -25.741  -5.097  1.00  0.00    -0.271 OA
HETATM   13  C8  UNL     1      -5.173 -24.058  -6.113  1.00  0.00     0.177 C 
HETATM   14  N4  UNL     1      -4.062 -23.155  -5.888  1.00  0.00    -0.346 N 
ATOM     15  H4  UNL     1      -3.731 -22.597  -6.675  1.00  0.00     0.163 HD
HETATM   16  C13 UNL     1      -3.406 -23.001  -4.638  1.00  0.00     0.241 C 
HETATM   17  O2  UNL     1      -2.153 -22.882  -4.613  1.00  0.00    -0.271 OA
HETATM   18  C14 UNL     1      -4.101 -22.969  -3.324  1.00  0.00     0.176 C 
HETATM   19  N5  UNL     1      -3.365 -23.637  -2.289  1.00  0.00    -0.346 N 
ATOM     20  H5  UNL     1      -2.351 -23.705  -2.382  1.00  0.00     0.163 HD
HETATM   21  C17 UNL     1      -3.977 -24.206  -1.141  1.00  0.00     0.236 C 
HETATM   22  O3  UNL     1      -3.296 -24.434  -0.084  1.00  0.00    -0.272 OA
HETATM   23  C18 UNL     1      -5.400 -24.562  -1.096  1.00  0.00     0.225 C 
HETATM   24  N6  UNL     1      -5.927 -24.422   0.254  1.00  0.00    -0.351 N 
ATOM     25  H6  UNL     1      -5.337 -24.024   0.985  1.00  0.00     0.163 HD
HETATM   26  C19 UNL     1      -7.251 -24.832   0.572  1.00  0.00     0.240 C 
HETATM   27  O4  UNL     1      -7.658 -24.629   1.744  1.00  0.00    -0.271 OA
ENDROOT
BRANCH  13  28
HETATM   28  C9  UNL     1      -5.114 -24.502  -7.563  1.00  0.00     0.035 C 
BRANCH  28  29
HETATM   29  C10 UNL     1      -3.818 -24.171  -8.219  1.00  0.00     0.003 C 
BRANCH  29  30
HETATM   30  C11 UNL     1      -4.094 -23.308  -9.429  1.00  0.00     0.011 C 
BRANCH  30  31
HETATM   31  C12 UNL     1      -2.833 -22.976 -10.199  1.00  0.00     0.086 C 
HETATM   32  S1  UNL     1      -3.184 -21.529 -11.262  1.00  0.00    -0.098 SA
ENDBRANCH  30  31
ENDBRANCH  29  30
ENDBRANCH  28  29
ENDBRANCH  13  28
BRANCH  18  33
HETATM   33  C15 UNL     1      -4.234 -21.507  -2.892  1.00  0.00     0.030 C 
HETATM   34  C16 UNL     1      -5.635 -21.177  -2.460  1.00  0.00     0.007 C 
ENDBRANCH  18  33
BRANCH   1  35
HETATM   35  C2  UNL     1      -9.057 -26.389   0.338  1.00  0.00     0.030 C 
HETATM   36  C1  UNL     1     -10.501 -26.119   0.080  1.00  0.00     0.007 C 
ENDBRANCH   1  35
TORSDOF 6
ENDMDL
