MODEL 1
REMARK VINA RESULT: -7.849527330      0.000      0.000
REMARK  6 active torsions:
REMARK  status: ('A' for Active; 'I' for Inactive)
REMARK    1  A    between atoms: C2_2  and  C3_3 
REMARK    2  A    between atoms: C3_3  and  N1_4 
REMARK    3  A    between atoms: C6_10  and  C7_11 
REMARK    4  A    between atoms: C7_11  and  C8_12 
REMARK    5  A    between atoms: C8_12  and  C9_13 
REMARK    6  A    between atoms: C9_13  and  N3_14 
REMARK       I    between atoms: N3_14  and  C10_16 
ROOT
HETATM    1  N1  UNL     1      -3.385 -26.571   0.649  1.00  0.00    -0.340 N 
HETATM    2  C4  UNL     1      -3.683 -26.727  -0.750  1.00  0.00     0.228 C 
HETATM    3  C5  UNL     1      -2.992 -25.769  -1.619  1.00  0.00     0.236 C 
HETATM    4  O1  UNL     1      -1.832 -26.107  -2.043  1.00  0.00    -0.272 OA
HETATM    5  N2  UNL     1      -3.474 -24.511  -2.037  1.00  0.00    -0.346 N 
ATOM      6  H2  UNL     1      -2.823 -23.726  -2.038  1.00  0.00     0.163 HD
HETATM    7  C6  UNL     1      -4.848 -24.262  -2.468  1.00  0.00     0.176 C 
HETATM    8  C11 UNL     1      -5.131 -22.813  -2.346  1.00  0.00     0.242 C 
HETATM    9  O2  UNL     1      -4.165 -22.074  -1.940  1.00  0.00    -0.271 OA
HETATM   10  N6  UNL     1      -6.342 -22.158  -2.626  1.00  0.00    -0.329 N 
ATOM     11  H6  UNL     1      -6.285 -21.413  -3.320  1.00  0.00     0.164 HD
HETATM   12  C12 UNL     1      -7.642 -22.384  -2.078  1.00  0.00     0.324 C 
HETATM   13  C13 UNL     1      -8.578 -22.804  -3.203  1.00  0.00     0.059 C 
HETATM   14  C14 UNL     1      -9.777 -23.238  -2.346  1.00  0.00     0.034 C 
HETATM   15  C15 UNL     1      -9.094 -23.982  -1.232  1.00  0.00     0.275 C 
HETATM   16  N7  UNL     1      -7.752 -23.396  -1.082  1.00  0.00     0.111 N 
HETATM   17  C16 UNL     1      -7.765 -22.692   0.211  1.00  0.00     0.275 C 
HETATM   18  C17 UNL     1      -6.851 -23.316   1.208  1.00  0.00     0.030 C 
HETATM   19  C18 UNL     1      -7.503 -24.450   1.973  1.00  0.00     0.002 C 
HETATM   20  C19 UNL     1      -6.351 -25.214   2.626  1.00  0.00     0.009 C 
HETATM   21  C20 UNL     1      -5.699 -26.159   1.658  1.00  0.00     0.103 C 
HETATM   22  C21 UNL     1      -4.222 -25.971   1.605  1.00  0.00     0.220 C 
HETATM   23  O3  UNL     1      -3.723 -25.220   2.484  1.00  0.00    -0.273 OA
ENDROOT
BRANCH   7  24
HETATM   24  C7  UNL     1      -5.006 -24.717  -3.915  1.00  0.00     0.036 C 
BRANCH  24  25
HETATM   25  C8  UNL     1      -6.276 -25.518  -4.093  1.00  0.00     0.022 C 
BRANCH  25  26
HETATM   26  C9  UNL     1      -6.950 -25.074  -5.398  1.00  0.00     0.122 C 
BRANCH  26  27
HETATM   27  N3  UNL     1      -7.499 -26.200  -6.119  1.00  0.00    -0.365 N 
HETATM   28  C10 UNL     1      -8.519 -26.971  -5.519  1.00  0.00     0.181 C 
HETATM   29  N4  UNL     1      -8.298 -28.151  -5.059  1.00  0.00    -0.374 N 
HETATM   30  N5  UNL     1      -9.811 -26.402  -5.441  1.00  0.00    -0.064 NA
ATOM     31  H42 UNL     1      -7.366 -28.561  -5.115  1.00  0.00     0.158 HD
ATOM     32  H41 UNL     1      -9.034 -28.707  -4.625  1.00  0.00     0.158 HD
ATOM     33  H3  UNL     1      -7.154 -26.435  -7.050  1.00  0.00     0.162 HD
ENDBRANCH  26  27
ENDBRANCH  25  26
ENDBRANCH  24  25
ENDBRANCH   7  24
BRANCH   1  34
HETATM   34  C3  UNL     1      -2.086 -27.092   1.108  1.00  0.00     0.153 C 
BRANCH  34  35
HETATM   35  C2  UNL     1      -1.938 -28.490   0.671  1.00  0.00    -0.017 C 
HETATM   36  C1  UNL     1      -0.860 -28.899   0.027  1.00  0.00     0.008 C 
ENDBRANCH  34  35
ENDBRANCH   1  34
TORSDOF 6
ENDMDL
MODEL 2
REMARK VINA RESULT: -7.689251552      2.187      5.166
REMARK  6 active torsions:
REMARK  status: ('A' for Active; 'I' for Inactive)
REMARK    1  A    between atoms: C2_2  and  C3_3 
REMARK    2  A    between atoms: C3_3  and  N1_4 
REMARK    3  A    between atoms: C6_10  and  C7_11 
REMARK    4  A    between atoms: C7_11  and  C8_12 
REMARK    5  A    between atoms: C8_12  and  C9_13 
REMARK    6  A    between atoms: C9_13  and  N3_14 
REMARK       I    between atoms: N3_14  and  C10_16 
ROOT
HETATM    1  N1  UNL     1      -3.493 -23.572  -3.105  1.00  0.00    -0.340 N 
HETATM    2  C4  UNL     1      -4.808 -23.035  -2.870  1.00  0.00     0.228 C 
HETATM    3  C5  UNL     1      -4.810 -21.730  -2.201  1.00  0.00     0.236 C 
HETATM    4  O1  UNL     1      -4.749 -20.696  -2.954  1.00  0.00    -0.272 OA
HETATM    5  N2  UNL     1      -4.871 -21.495  -0.811  1.00  0.00    -0.346 N 
ATOM      6  H2  UNL     1      -4.266 -20.773  -0.421  1.00  0.00     0.163 HD
HETATM    7  C6  UNL     1      -5.747 -22.224   0.105  1.00  0.00     0.176 C 
HETATM    8  C11 UNL     1      -5.211 -22.095   1.479  1.00  0.00     0.242 C 
HETATM    9  O2  UNL     1      -4.155 -21.381   1.618  1.00  0.00    -0.271 OA
HETATM   10  N6  UNL     1      -5.732 -22.670   2.651  1.00  0.00    -0.329 N 
ATOM     11  H6  UNL     1      -5.968 -22.011   3.393  1.00  0.00     0.164 HD
HETATM   12  C12 UNL     1      -5.978 -24.045   2.953  1.00  0.00     0.324 C 
HETATM   13  C13 UNL     1      -7.470 -24.228   3.202  1.00  0.00     0.059 C 
HETATM   14  C14 UNL     1      -7.505 -25.764   3.224  1.00  0.00     0.034 C 
HETATM   15  C15 UNL     1      -6.595 -26.100   2.075  1.00  0.00     0.275 C 
HETATM   16  N7  UNL     1      -5.631 -24.995   1.951  1.00  0.00     0.111 N 
HETATM   17  C16 UNL     1      -4.329 -25.551   2.355  1.00  0.00     0.275 C 
HETATM   18  C17 UNL     1      -3.359 -25.609   1.227  1.00  0.00     0.030 C 
HETATM   19  C18 UNL     1      -3.491 -26.875   0.404  1.00  0.00     0.002 C 
HETATM   20  C19 UNL     1      -2.742 -26.592  -0.899  1.00  0.00     0.009 C 
HETATM   21  C20 UNL     1      -3.586 -25.805  -1.859  1.00  0.00     0.103 C 
HETATM   22  C21 UNL     1      -2.878 -24.592  -2.358  1.00  0.00     0.220 C 
HETATM   23  O3  UNL     1      -1.654 -24.505  -2.077  1.00  0.00    -0.273 OA
ENDROOT
BRANCH   7  24
HETATM   24  C7  UNL     1      -7.152 -21.637   0.021  1.00  0.00     0.036 C 
BRANCH  24  25
HETATM   25  C8  UNL     1      -8.169 -22.715  -0.277  1.00  0.00     0.022 C 
BRANCH  25  26
HETATM   26  C9  UNL     1      -8.436 -22.726  -1.788  1.00  0.00     0.122 C 
BRANCH  26  27
HETATM   27  N3  UNL     1      -9.600 -23.518  -2.114  1.00  0.00    -0.365 N 
HETATM   28  C10 UNL     1      -9.459 -24.619  -2.990  1.00  0.00     0.181 C 
HETATM   29  N4  UNL     1      -9.895 -24.584  -4.199  1.00  0.00    -0.374 N 
HETATM   30  N5  UNL     1      -8.820 -25.776  -2.490  1.00  0.00    -0.064 NA
ATOM     31  H42 UNL     1     -10.357 -23.749  -4.559  1.00  0.00     0.158 HD
ATOM     32  H41 UNL     1      -9.793 -25.378  -4.831  1.00  0.00     0.158 HD
ATOM     33  H3  UNL     1     -10.510 -23.287  -1.717  1.00  0.00     0.162 HD
ENDBRANCH  26  27
ENDBRANCH  25  26
ENDBRANCH  24  25
ENDBRANCH   7  24
BRANCH   1  34
HETATM   34  C3  UNL     1      -2.737 -22.995  -4.228  1.00  0.00     0.153 C 
BRANCH  34  35
HETATM   35  C2  UNL     1      -3.460 -23.250  -5.485  1.00  0.00    -0.017 C 
HETATM   36  C1  UNL     1      -2.815 -23.445  -6.621  1.00  0.00     0.008 C 
ENDBRANCH  34  35
ENDBRANCH   1  34
TORSDOF 6
ENDMDL
MODEL 3
REMARK VINA RESULT: -7.582708043      1.228      1.365
REMARK  6 active torsions:
REMARK  status: ('A' for Active; 'I' for Inactive)
REMARK    1  A    between atoms: C2_2  and  C3_3 
REMARK    2  A    between atoms: C3_3  and  N1_4 
REMARK    3  A    between atoms: C6_10  and  C7_11 
REMARK    4  A    between atoms: C7_11  and  C8_12 
REMARK    5  A    between atoms: C8_12  and  C9_13 
REMARK    6  A    between atoms: C9_13  and  N3_14 
REMARK       I    between atoms: N3_14  and  C10_16 
ROOT
HETATM    1  N1  UNL     1      -2.523 -25.552   0.701  1.00  0.00    -0.340 N 
HETATM    2  C4  UNL     1      -2.583 -25.667  -0.732  1.00  0.00     0.228 C 
HETATM    3  C5  UNL     1      -2.216 -24.439  -1.446  1.00  0.00     0.236 C 
HETATM    4  O1  UNL     1      -0.976 -24.280  -1.719  1.00  0.00    -0.272 OA
HETATM    5  N2  UNL     1      -3.091 -23.414  -1.863  1.00  0.00    -0.346 N 
ATOM      6  H2  UNL     1      -2.791 -22.448  -1.733  1.00  0.00     0.163 HD
HETATM    7  C6  UNL     1      -4.399 -23.649  -2.469  1.00  0.00     0.176 C 
HETATM    8  C11 UNL     1      -5.222 -22.427  -2.314  1.00  0.00     0.242 C 
HETATM    9  O2  UNL     1      -4.661 -21.428  -1.740  1.00  0.00    -0.271 OA
HETATM   10  N6  UNL     1      -6.553 -22.242  -2.728  1.00  0.00    -0.329 N 
ATOM     11  H6  UNL     1      -6.706 -21.463  -3.369  1.00  0.00     0.164 HD
HETATM   12  C12 UNL     1      -7.721 -22.987  -2.379  1.00  0.00     0.324 C 
HETATM   13  C13 UNL     1      -8.297 -23.608  -3.645  1.00  0.00     0.059 C 
HETATM   14  C14 UNL     1      -9.329 -24.538  -2.988  1.00  0.00     0.034 C 
HETATM   15  C15 UNL     1      -8.542 -25.084  -1.829  1.00  0.00     0.275 C 
HETATM   16  N7  UNL     1      -7.549 -24.061  -1.462  1.00  0.00     0.111 N 
HETATM   17  C16 UNL     1      -7.971 -23.545  -0.150  1.00  0.00     0.275 C 
HETATM   18  C17 UNL     1      -7.006 -23.883   0.933  1.00  0.00     0.030 C 
HETATM   19  C18 UNL     1      -7.258 -25.248   1.541  1.00  0.00     0.002 C 
HETATM   20  C19 UNL     1      -5.982 -25.593   2.309  1.00  0.00     0.009 C 
HETATM   21  C20 UNL     1      -4.918 -26.128   1.395  1.00  0.00     0.103 C 
HETATM   22  C21 UNL     1      -3.626 -25.402   1.560  1.00  0.00     0.220 C 
HETATM   23  O3  UNL     1      -3.551 -24.612   2.537  1.00  0.00    -0.273 OA
ENDROOT
BRANCH   7  24
HETATM   24  C7  UNL     1      -4.211 -23.983  -3.945  1.00  0.00     0.036 C 
BRANCH  24  25
HETATM   25  C8  UNL     1      -4.257 -25.477  -4.169  1.00  0.00     0.022 C 
BRANCH  25  26
HETATM   26  C9  UNL     1      -5.709 -25.948  -4.010  1.00  0.00     0.122 C 
BRANCH  26  27
HETATM   27  N3  UNL     1      -6.048 -26.958  -4.985  1.00  0.00    -0.365 N 
HETATM   28  C10 UNL     1      -7.394 -27.098  -5.392  1.00  0.00     0.181 C 
HETATM   29  N4  UNL     1      -8.120 -28.088  -5.010  1.00  0.00    -0.374 N 
HETATM   30  N5  UNL     1      -7.926 -26.106  -6.246  1.00  0.00    -0.064 NA
ATOM     31  H42 UNL     1      -7.736 -28.804  -4.394  1.00  0.00     0.158 HD
ATOM     32  H41 UNL     1      -9.092 -28.189  -5.303  1.00  0.00     0.158 HD
ATOM     33  H3  UNL     1      -5.325 -27.563  -5.375  1.00  0.00     0.162 HD
ENDBRANCH  26  27
ENDBRANCH  25  26
ENDBRANCH  24  25
ENDBRANCH   7  24
BRANCH   1  34
HETATM   34  C3  UNL     1      -1.184 -25.599   1.311  1.00  0.00     0.153 C 
BRANCH  34  35
HETATM   35  C2  UNL     1      -0.517 -26.854   0.928  1.00  0.00    -0.017 C 
HETATM   36  C1  UNL     1       0.690 -26.855   0.392  1.00  0.00     0.008 C 
ENDBRANCH  34  35
ENDBRANCH   1  34
TORSDOF 6
ENDMDL
MODEL 4
REMARK VINA RESULT: -7.566166105      2.505      4.993
REMARK  6 active torsions:
REMARK  status: ('A' for Active; 'I' for Inactive)
REMARK    1  A    between atoms: C2_2  and  C3_3 
REMARK    2  A    between atoms: C3_3  and  N1_4 
REMARK    3  A    between atoms: C6_10  and  C7_11 
REMARK    4  A    between atoms: C7_11  and  C8_12 
REMARK    5  A    between atoms: C8_12  and  C9_13 
REMARK    6  A    between atoms: C9_13  and  N3_14 
REMARK       I    between atoms: N3_14  and  C10_16 
ROOT
HETATM    1  N1  UNL     1      -3.940 -24.155  -4.665  1.00  0.00    -0.340 N 
HETATM    2  C4  UNL     1      -5.061 -25.051  -4.554  1.00  0.00     0.228 C 
HETATM    3  C5  UNL     1      -6.366 -24.386  -4.623  1.00  0.00     0.236 C 
HETATM    4  O1  UNL     1      -6.873 -24.230  -5.788  1.00  0.00    -0.272 OA
HETATM    5  N2  UNL     1      -7.123 -23.899  -3.536  1.00  0.00    -0.346 N 
ATOM      6  H2  UNL     1      -7.576 -22.991  -3.638  1.00  0.00     0.163 HD
HETATM    7  C6  UNL     1      -7.296 -24.614  -2.273  1.00  0.00     0.176 C 
HETATM    8  C11 UNL     1      -7.689 -23.642  -1.226  1.00  0.00     0.242 C 
HETATM    9  O2  UNL     1      -7.832 -22.424  -1.600  1.00  0.00    -0.271 OA
HETATM   10  N6  UNL     1      -7.923 -23.907   0.134  1.00  0.00    -0.329 N 
ATOM     11  H6  UNL     1      -8.846 -23.645   0.477  1.00  0.00     0.164 HD
HETATM   12  C12 UNL     1      -7.053 -24.492   1.104  1.00  0.00     0.324 C 
HETATM   13  C13 UNL     1      -7.683 -25.784   1.607  1.00  0.00     0.059 C 
HETATM   14  C14 UNL     1      -6.479 -26.331   2.390  1.00  0.00     0.034 C 
HETATM   15  C15 UNL     1      -5.348 -26.026   1.447  1.00  0.00     0.275 C 
HETATM   16  N7  UNL     1      -5.744 -24.843   0.667  1.00  0.00     0.111 N 
HETATM   17  C16 UNL     1      -4.862 -23.753   1.115  1.00  0.00     0.275 C 
HETATM   18  C17 UNL     1      -3.933 -23.294   0.045  1.00  0.00     0.030 C 
HETATM   19  C18 UNL     1      -2.661 -24.114  -0.020  1.00  0.00     0.002 C 
HETATM   20  C19 UNL     1      -2.038 -23.791  -1.379  1.00  0.00     0.009 C 
HETATM   21  C20 UNL     1      -2.680 -24.584  -2.480  1.00  0.00     0.103 C 
HETATM   22  C21 UNL     1      -3.133 -23.714  -3.602  1.00  0.00     0.220 C 
HETATM   23  O3  UNL     1      -2.754 -22.515  -3.566  1.00  0.00    -0.273 OA
ENDROOT
BRANCH   7  24
HETATM   24  C7  UNL     1      -8.375 -25.677  -2.447  1.00  0.00     0.036 C 
BRANCH  24  25
HETATM   25  C8  UNL     1      -9.420 -25.226  -3.442  1.00  0.00     0.022 C 
BRANCH  25  26
HETATM   26  C9  UNL     1      -9.664 -26.366  -4.441  1.00  0.00     0.122 C 
BRANCH  26  27
HETATM   27  N3  UNL     1      -8.441 -26.761  -5.101  1.00  0.00    -0.365 N 
HETATM   28  C10 UNL     1      -8.515 -27.441  -6.338  1.00  0.00     0.181 C 
HETATM   29  N4  UNL     1      -8.261 -28.697  -6.439  1.00  0.00    -0.374 N 
HETATM   30  N5  UNL     1      -8.878 -26.688  -7.478  1.00  0.00    -0.064 NA
ATOM     31  H42 UNL     1      -7.999 -29.240  -5.617  1.00  0.00     0.158 HD
ATOM     32  H41 UNL     1      -8.316 -29.187  -7.332  1.00  0.00     0.158 HD
ATOM     33  H3  UNL     1      -7.536 -26.552  -4.680  1.00  0.00     0.162 HD
ENDBRANCH  26  27
ENDBRANCH  25  26
ENDBRANCH  24  25
ENDBRANCH   7  24
BRANCH   1  34
HETATM   34  C3  UNL     1      -3.619 -23.666  -6.016  1.00  0.00     0.153 C 
BRANCH  34  35
HETATM   35  C2  UNL     1      -3.601 -24.801  -6.955  1.00  0.00    -0.017 C 
HETATM   36  C1  UNL     1      -3.878 -24.637  -8.236  1.00  0.00     0.008 C 
ENDBRANCH  34  35
ENDBRANCH   1  34
TORSDOF 6
ENDMDL
MODEL 5
REMARK VINA RESULT: -7.475476193      2.943      6.842
REMARK  6 active torsions:
REMARK  status: ('A' for Active; 'I' for Inactive)
REMARK    1  A    between atoms: C2_2  and  C3_3 
REMARK    2  A    between atoms: C3_3  and  N1_4 
REMARK    3  A    between atoms: C6_10  and  C7_11 
REMARK    4  A    between atoms: C7_11  and  C8_12 
REMARK    5  A    between atoms: C8_12  and  C9_13 
REMARK    6  A    between atoms: C9_13  and  N3_14 
REMARK       I    between atoms: N3_14  and  C10_16 
ROOT
HETATM    1  N1  UNL     1      -7.488 -26.348  -5.723  1.00  0.00    -0.340 N 
HETATM    2  C4  UNL     1      -7.924 -26.700  -4.397  1.00  0.00     0.228 C 
HETATM    3  C5  UNL     1      -9.075 -25.926  -3.921  1.00  0.00     0.236 C 
HETATM    4  O1  UNL     1     -10.236 -26.389  -4.199  1.00  0.00    -0.272 OA
HETATM    5  N2  UNL     1      -9.036 -24.721  -3.188  1.00  0.00    -0.346 N 
ATOM      6  H2  UNL     1      -9.691 -23.984  -3.445  1.00  0.00     0.163 HD
HETATM    7  C6  UNL     1      -8.115 -24.465  -2.082  1.00  0.00     0.176 C 
HETATM    8  C11 UNL     1      -7.996 -23.001  -1.892  1.00  0.00     0.242 C 
HETATM    9  O2  UNL     1      -8.707 -22.263  -2.662  1.00  0.00    -0.271 OA
HETATM   10  N6  UNL     1      -7.189 -22.329  -0.958  1.00  0.00    -0.329 N 
ATOM     11  H6  UNL     1      -7.684 -21.704  -0.322  1.00  0.00     0.164 HD
HETATM   12  C12 UNL     1      -5.774 -22.396  -0.770  1.00  0.00     0.324 C 
HETATM   13  C13 UNL     1      -5.493 -22.930   0.628  1.00  0.00     0.059 C 
HETATM   14  C14 UNL     1      -3.981 -23.160   0.480  1.00  0.00     0.034 C 
HETATM   15  C15 UNL     1      -3.904 -23.762  -0.895  1.00  0.00     0.275 C 
HETATM   16  N7  UNL     1      -5.046 -23.236  -1.660  1.00  0.00     0.111 N 
HETATM   17  C16 UNL     1      -4.470 -22.343  -2.679  1.00  0.00     0.275 C 
HETATM   18  C17 UNL     1      -4.663 -22.857  -4.063  1.00  0.00     0.030 C 
HETATM   19  C18 UNL     1      -3.575 -23.822  -4.489  1.00  0.00     0.002 C 
HETATM   20  C19 UNL     1      -4.129 -24.541  -5.720  1.00  0.00     0.009 C 
HETATM   21  C20 UNL     1      -5.056 -25.657  -5.334  1.00  0.00     0.103 C 
HETATM   22  C21 UNL     1      -6.366 -25.562  -6.037  1.00  0.00     0.220 C 
HETATM   23  O3  UNL     1      -6.441 -24.715  -6.966  1.00  0.00    -0.273 OA
ENDROOT
BRANCH   7  24
HETATM   24  C7  UNL     1      -8.656 -25.127  -0.820  1.00  0.00     0.036 C 
BRANCH  24  25
HETATM   25  C8  UNL     1      -7.642 -26.083  -0.235  1.00  0.00     0.022 C 
BRANCH  25  26
HETATM   26  C9  UNL     1      -7.875 -26.172   1.279  1.00  0.00     0.122 C 
BRANCH  26  27
HETATM   27  N3  UNL     1      -6.821 -26.910   1.935  1.00  0.00    -0.365 N 
HETATM   28  C10 UNL     1      -5.586 -26.270   2.188  1.00  0.00     0.181 C 
HETATM   29  N4  UNL     1      -4.528 -26.542   1.511  1.00  0.00    -0.374 N 
HETATM   30  N5  UNL     1      -5.548 -25.310   3.224  1.00  0.00    -0.064 NA
ATOM     31  H42 UNL     1      -4.556 -27.236   0.763  1.00  0.00     0.158 HD
ATOM     32  H41 UNL     1      -3.638 -26.080   1.693  1.00  0.00     0.158 HD
ATOM     33  H3  UNL     1      -6.964 -27.881   2.211  1.00  0.00     0.162 HD
ENDBRANCH  26  27
ENDBRANCH  25  26
ENDBRANCH  24  25
ENDBRANCH   7  24
BRANCH   1  34
HETATM   34  C3  UNL     1      -8.297 -26.865  -6.840  1.00  0.00     0.153 C 
BRANCH  34  35
HETATM   35  C2  UNL     1      -8.546 -28.302  -6.639  1.00  0.00    -0.017 C 
HETATM   36  C1  UNL     1      -7.622 -29.205  -6.910  1.00  0.00     0.008 C 
ENDBRANCH  34  35
ENDBRANCH   1  34
TORSDOF 6
ENDMDL
