MODEL 1
REMARK VINA RESULT: -6.677287167      0.000      0.000
REMARK  5 active torsions:
REMARK  status: ('A' for Active; 'I' for Inactive)
REMARK    1  A    between atoms: C2_3  and  S1_4 
REMARK    2  A    between atoms: S1_4  and  C3_5 
REMARK    3  A    between atoms: C9_21  and  S4_22 
REMARK    4  A    between atoms: S4_22  and  C10_23 
REMARK    5  A    between atoms: C10_23  and  C11_24 
ROOT
HETATM    1  N1  UNL     1      -7.179  54.251  63.531  1.00  0.00    -0.197 NA
HETATM    2  C1  UNL     1      -6.848  54.884  62.604  1.00  0.00     0.069 C 
HETATM    3  C2  UNL     1      -6.449  55.694  61.447  1.00  0.00     0.204 C 
ENDROOT
BRANCH   3   4
HETATM    4  S1  UNL     1      -7.794  56.846  61.054  1.00  0.00    -0.095 SA
BRANCH   4   5
HETATM    5  C3  UNL     1      -7.086  58.453  60.750  1.00  0.00     0.105 A 
HETATM    6  N2  UNL     1      -6.744  58.863  59.507  1.00  0.00    -0.341 N 
HETATM    7  C4  UNL     1      -6.202  60.104  59.303  1.00  0.00     0.106 A 
ATOM      8  H2  UNL     1      -6.892  58.241  58.713  1.00  0.00     0.167 HD
HETATM    9  S2  UNL     1      -5.658  60.957  57.929  1.00  0.00    -0.050 SA
HETATM   10  C8  UNL     1      -5.976  60.984  60.317  1.00  0.00     0.097 A 
HETATM   11  C5  UNL     1      -5.159  62.410  58.678  1.00  0.00     0.107 A 
HETATM   12  N3  UNL     1      -4.616  63.657  58.490  1.00  0.00    -0.325 N 
HETATM   13  C7  UNL     1      -5.433  62.185  59.994  1.00  0.00     0.098 A 
HETATM   14  C6  UNL     1      -4.550  64.211  59.690  1.00  0.00     0.177 A 
ATOM     15  H3  UNL     1      -4.322  64.072  57.605  1.00  0.00     0.169 HD
HETATM   16  S3  UNL     1      -3.960  65.723  59.959  1.00  0.00    -0.040 SA
HETATM   17  N4  UNL     1      -5.031  63.356  60.599  1.00  0.00    -0.329 N 
ATOM     18  H4  UNL     1      -5.091  63.545  61.600  1.00  0.00     0.168 HD
HETATM   19  N5  UNL     1      -6.335  60.533  61.563  1.00  0.00    -0.344 N 
HETATM   20  C9  UNL     1      -6.855  59.347  61.772  1.00  0.00     0.104 A 
ATOM     21  H5  UNL     1      -6.191  61.149  62.363  1.00  0.00     0.167 HD
BRANCH  20  22
HETATM   22  S4  UNL     1      -7.313  58.794  63.427  1.00  0.00    -0.108 SA
BRANCH  22  23
HETATM   23  C10 UNL     1      -5.805  58.263  64.244  1.00  0.00     0.096 C 
BRANCH  23  24
HETATM   24  C11 UNL     1      -4.948  59.412  64.716  1.00  0.00     0.125 C 
HETATM   25 CL1  UNL     1      -5.899  60.770  65.308  1.00  0.00    -0.130 Cl
ENDBRANCH  23  24
ENDBRANCH  22  23
ENDBRANCH  20  22
ENDBRANCH   4   5
ENDBRANCH   3   4
TORSDOF 5
ENDMDL
MODEL 2
REMARK VINA RESULT: -6.553738768      1.501      1.695
REMARK  5 active torsions:
REMARK  status: ('A' for Active; 'I' for Inactive)
REMARK    1  A    between atoms: C2_3  and  S1_4 
REMARK    2  A    between atoms: S1_4  and  C3_5 
REMARK    3  A    between atoms: C9_21  and  S4_22 
REMARK    4  A    between atoms: S4_22  and  C10_23 
REMARK    5  A    between atoms: C10_23  and  C11_24 
ROOT
HETATM    1  N1  UNL     1      -9.062  55.437  60.602  1.00  0.00    -0.197 NA
HETATM    2  C1  UNL     1      -8.012  55.814  60.957  1.00  0.00     0.069 C 
HETATM    3  C2  UNL     1      -6.705  56.295  61.419  1.00  0.00     0.204 C 
ENDROOT
BRANCH   3   4
HETATM    4  S1  UNL     1      -6.971  57.624  62.626  1.00  0.00    -0.095 SA
BRANCH   4   5
HETATM    5  C3  UNL     1      -6.336  59.141  61.939  1.00  0.00     0.105 A 
HETATM    6  N2  UNL     1      -6.493  59.458  60.633  1.00  0.00    -0.341 N 
HETATM    7  C4  UNL     1      -5.996  60.631  60.133  1.00  0.00     0.106 A 
ATOM      8  H2  UNL     1      -6.987  58.815  60.015  1.00  0.00     0.167 HD
HETATM    9  S2  UNL     1      -5.989  61.363  58.591  1.00  0.00    -0.050 SA
HETATM   10  C8  UNL     1      -5.326  61.533  60.900  1.00  0.00     0.097 A 
HETATM   11  C5  UNL     1      -5.137  62.797  58.963  1.00  0.00     0.107 A 
HETATM   12  N3  UNL     1      -4.632  63.978  58.476  1.00  0.00    -0.325 N 
HETATM   13  C7  UNL     1      -4.877  62.662  60.294  1.00  0.00     0.098 A 
HETATM   14  C6  UNL     1      -4.056  64.579  59.504  1.00  0.00     0.177 A 
ATOM     15  H3  UNL     1      -4.689  64.320  57.517  1.00  0.00     0.169 HD
HETATM   16  S3  UNL     1      -3.308  66.040  59.396  1.00  0.00    -0.040 SA
HETATM   17  N4  UNL     1      -4.190  63.817  60.595  1.00  0.00    -0.329 N 
ATOM     18  H4  UNL     1      -3.832  64.058  61.520  1.00  0.00     0.168 HD
HETATM   19  N5  UNL     1      -5.187  61.178  62.219  1.00  0.00    -0.344 N 
HETATM   20  C9  UNL     1      -5.658  60.057  62.711  1.00  0.00     0.104 A 
ATOM     21  H5  UNL     1      -4.694  61.815  62.846  1.00  0.00     0.167 HD
BRANCH  20  22
HETATM   22  S4  UNL     1      -5.453  59.629  64.451  1.00  0.00    -0.108 SA
BRANCH  22  23
HETATM   23  C10 UNL     1      -3.821  60.190  64.947  1.00  0.00     0.096 C 
BRANCH  23  24
HETATM   24  C11 UNL     1      -3.850  61.462  65.757  1.00  0.00     0.125 C 
HETATM   25 CL1  UNL     1      -5.369  62.338  65.591  1.00  0.00    -0.130 Cl
ENDBRANCH  23  24
ENDBRANCH  22  23
ENDBRANCH  20  22
ENDBRANCH   4   5
ENDBRANCH   3   4
TORSDOF 5
ENDMDL
MODEL 3
REMARK VINA RESULT: -6.518020115      1.781      1.953
REMARK  5 active torsions:
REMARK  status: ('A' for Active; 'I' for Inactive)
REMARK    1  A    between atoms: C2_3  and  S1_4 
REMARK    2  A    between atoms: S1_4  and  C3_5 
REMARK    3  A    between atoms: C9_21  and  S4_22 
REMARK    4  A    between atoms: S4_22  and  C10_23 
REMARK    5  A    between atoms: C10_23  and  C11_24 
ROOT
HETATM    1  N1  UNL     1      -9.064  55.467  60.613  1.00  0.00    -0.197 NA
HETATM    2  C1  UNL     1      -7.991  55.820  60.923  1.00  0.00     0.069 C 
HETATM    3  C2  UNL     1      -6.655  56.270  61.330  1.00  0.00     0.204 C 
ENDROOT
BRANCH   3   4
HETATM    4  S1  UNL     1      -6.838  57.544  62.609  1.00  0.00    -0.095 SA
BRANCH   4   5
HETATM    5  C3  UNL     1      -6.246  59.091  61.950  1.00  0.00     0.105 A 
HETATM    6  N2  UNL     1      -6.459  59.450  60.663  1.00  0.00    -0.341 N 
HETATM    7  C4  UNL     1      -5.993  60.645  60.184  1.00  0.00     0.106 A 
ATOM      8  H2  UNL     1      -6.972  58.823  60.043  1.00  0.00     0.167 HD
HETATM    9  S2  UNL     1      -6.057  61.429  58.669  1.00  0.00    -0.050 SA
HETATM   10  C8  UNL     1      -5.301  61.527  60.954  1.00  0.00     0.097 A 
HETATM   11  C5  UNL     1      -5.203  62.858  59.056  1.00  0.00     0.107 A 
HETATM   12  N3  UNL     1      -4.729  64.060  58.589  1.00  0.00    -0.325 N 
HETATM   13  C7  UNL     1      -4.888  62.681  60.370  1.00  0.00     0.098 A 
HETATM   14  C6  UNL     1      -4.118  64.633  59.613  1.00  0.00     0.177 A 
ATOM     15  H3  UNL     1      -4.828  64.435  57.646  1.00  0.00     0.169 HD
HETATM   16  S3  UNL     1      -3.388  66.104  59.526  1.00  0.00    -0.040 SA
HETATM   17  N4  UNL     1      -4.199  63.832  60.682  1.00  0.00    -0.329 N 
ATOM     18  H4  UNL     1      -3.807  64.045  61.599  1.00  0.00     0.168 HD
HETATM   19  N5  UNL     1      -5.104  61.128  62.253  1.00  0.00    -0.344 N 
HETATM   20  C9  UNL     1      -5.545  59.987  62.725  1.00  0.00     0.104 A 
ATOM     21  H5  UNL     1      -4.592  61.749  62.881  1.00  0.00     0.167 HD
BRANCH  20  22
HETATM   22  S4  UNL     1      -5.265  59.502  64.440  1.00  0.00    -0.108 SA
BRANCH  22  23
HETATM   23  C10 UNL     1      -3.783  60.349  64.995  1.00  0.00     0.096 C 
BRANCH  23  24
HETATM   24  C11 UNL     1      -3.138  59.696  66.193  1.00  0.00     0.125 C 
HETATM   25 CL1  UNL     1      -1.975  58.451  65.743  1.00  0.00    -0.130 Cl
ENDBRANCH  23  24
ENDBRANCH  22  23
ENDBRANCH  20  22
ENDBRANCH   4   5
ENDBRANCH   3   4
TORSDOF 5
ENDMDL
MODEL 4
REMARK VINA RESULT: -6.407836461      1.972      2.100
REMARK  5 active torsions:
REMARK  status: ('A' for Active; 'I' for Inactive)
REMARK    1  A    between atoms: C2_3  and  S1_4 
REMARK    2  A    between atoms: S1_4  and  C3_5 
REMARK    3  A    between atoms: C9_21  and  S4_22 
REMARK    4  A    between atoms: S4_22  and  C10_23 
REMARK    5  A    between atoms: C10_23  and  C11_24 
ROOT
HETATM    1  N1  UNL     1      -9.144  55.409  60.585  1.00  0.00    -0.197 NA
HETATM    2  C1  UNL     1      -8.321  56.182  60.277  1.00  0.00     0.069 C 
HETATM    3  C2  UNL     1      -7.277  57.145  59.909  1.00  0.00     0.204 C 
ENDROOT
BRANCH   3   4
HETATM    4  S1  UNL     1      -6.302  57.536  61.389  1.00  0.00    -0.095 SA
BRANCH   4   5
HETATM    5  C3  UNL     1      -5.922  59.278  61.366  1.00  0.00     0.105 A 
HETATM    6  N2  UNL     1      -5.842  59.979  60.213  1.00  0.00    -0.341 N 
HETATM    7  C4  UNL     1      -5.549  61.316  60.225  1.00  0.00     0.106 A 
ATOM      8  H2  UNL     1      -6.002  59.507  59.323  1.00  0.00     0.167 HD
HETATM    9  S2  UNL     1      -5.364  62.510  59.018  1.00  0.00    -0.050 SA
HETATM   10  C8  UNL     1      -5.323  62.009  61.375  1.00  0.00     0.097 A 
HETATM   11  C5  UNL     1      -5.006  63.857  60.007  1.00  0.00     0.107 A 
HETATM   12  N3  UNL     1      -4.711  65.198  60.036  1.00  0.00    -0.325 N 
HETATM   13  C7  UNL     1      -5.041  63.333  61.264  1.00  0.00     0.098 A 
HETATM   14  C6  UNL     1      -4.560  65.510  61.313  1.00  0.00     0.177 A 
ATOM     15  H3  UNL     1      -4.625  65.826  59.236  1.00  0.00     0.169 HD
HETATM   16  S3  UNL     1      -4.195  67.025  61.838  1.00  0.00    -0.040 SA
HETATM   17  N4  UNL     1      -4.752  64.419  62.061  1.00  0.00    -0.329 N 
ATOM     18  H4  UNL     1      -4.693  64.394  63.079  1.00  0.00     0.168 HD
HETATM   19  N5  UNL     1      -5.413  61.264  62.525  1.00  0.00    -0.344 N 
HETATM   20  C9  UNL     1      -5.693  59.983  62.526  1.00  0.00     0.104 A 
ATOM     21  H5  UNL     1      -5.255  61.729  63.419  1.00  0.00     0.167 HD
BRANCH  20  22
HETATM   22  S4  UNL     1      -5.802  59.042  64.061  1.00  0.00    -0.108 SA
BRANCH  22  23
HETATM   23  C10 UNL     1      -6.162  60.210  65.375  1.00  0.00     0.096 C 
BRANCH  23  24
HETATM   24  C11 UNL     1      -4.937  60.634  66.147  1.00  0.00     0.125 C 
HETATM   25 CL1  UNL     1      -3.447  59.996  65.458  1.00  0.00    -0.130 Cl
ENDBRANCH  23  24
ENDBRANCH  22  23
ENDBRANCH  20  22
ENDBRANCH   4   5
ENDBRANCH   3   4
TORSDOF 5
ENDMDL
MODEL 5
REMARK VINA RESULT: -6.327071662      1.994      2.187
REMARK  5 active torsions:
REMARK  status: ('A' for Active; 'I' for Inactive)
REMARK    1  A    between atoms: C2_3  and  S1_4 
REMARK    2  A    between atoms: S1_4  and  C3_5 
REMARK    3  A    between atoms: C9_21  and  S4_22 
REMARK    4  A    between atoms: S4_22  and  C10_23 
REMARK    5  A    between atoms: C10_23  and  C11_24 
ROOT
HETATM    1  N1  UNL     1      -9.115  55.032  60.922  1.00  0.00    -0.197 NA
HETATM    2  C1  UNL     1      -8.442  55.960  60.687  1.00  0.00     0.069 C 
HETATM    3  C2  UNL     1      -7.587  57.120  60.408  1.00  0.00     0.204 C 
ENDROOT
BRANCH   3   4
HETATM    4  S1  UNL     1      -6.785  57.631  61.954  1.00  0.00    -0.095 SA
BRANCH   4   5
HETATM    5  C3  UNL     1      -6.323  59.347  61.805  1.00  0.00     0.105 A 
HETATM    6  N2  UNL     1      -6.129  59.936  60.603  1.00  0.00    -0.341 N 
HETATM    7  C4  UNL     1      -5.776  61.255  60.518  1.00  0.00     0.106 A 
ATOM      8  H2  UNL     1      -6.248  59.390  59.749  1.00  0.00     0.167 HD
HETATM    9  S2  UNL     1      -5.450  62.324  59.227  1.00  0.00    -0.050 SA
HETATM   10  C8  UNL     1      -5.600  62.042  61.615  1.00  0.00     0.097 A 
HETATM   11  C5  UNL     1      -5.100  63.741  60.115  1.00  0.00     0.107 A 
HETATM   12  N3  UNL     1      -4.746  65.066  60.047  1.00  0.00    -0.325 N 
HETATM   13  C7  UNL     1      -5.248  63.336  61.408  1.00  0.00     0.098 A 
HETATM   14  C6  UNL     1      -4.671  65.488  61.299  1.00  0.00     0.177 A 
ATOM     15  H3  UNL     1      -4.574  65.613  59.203  1.00  0.00     0.169 HD
HETATM   16  S3  UNL     1      -4.274  67.030  61.713  1.00  0.00    -0.040 SA
HETATM   17  N4  UNL     1      -4.967  64.479  62.125  1.00  0.00    -0.329 N 
ATOM     18  H4  UNL     1      -4.981  64.546  63.143  1.00  0.00     0.168 HD
HETATM   19  N5  UNL     1      -5.806  61.410  62.816  1.00  0.00    -0.344 N 
HETATM   20  C9  UNL     1      -6.144  60.146  62.911  1.00  0.00     0.104 A 
ATOM     21  H5  UNL     1      -5.690  61.949  63.675  1.00  0.00     0.167 HD
BRANCH  20  22
HETATM   22  S4  UNL     1      -6.405  59.356  64.511  1.00  0.00    -0.108 SA
BRANCH  22  23
HETATM   23  C10 UNL     1      -4.816  58.720  65.054  1.00  0.00     0.096 C 
BRANCH  23  24
HETATM   24  C11 UNL     1      -4.935  57.544  65.992  1.00  0.00     0.125 C 
HETATM   25 CL1  UNL     1      -5.631  56.124  65.217  1.00  0.00    -0.130 Cl
ENDBRANCH  23  24
ENDBRANCH  22  23
ENDBRANCH  20  22
ENDBRANCH   4   5
ENDBRANCH   3   4
TORSDOF 5
ENDMDL
