MODEL 1
REMARK VINA RESULT: -7.577367647      0.000      0.000
REMARK  6 active torsions:
REMARK  status: ('A' for Active; 'I' for Inactive)
REMARK    1  A    between atoms: C2_2  and  S1_4 
REMARK    2  A    between atoms: S1_4  and  C4_5 
REMARK    3  A    between atoms: C6_10  and  C7_11 
REMARK    4  A    between atoms: C8_14  and  N3_15 
REMARK    5  A    between atoms: C9_20  and  S2_21 
REMARK    6  A    between atoms: S2_21  and  C10_22 
ROOT
HETATM    1  C7  UNL     1      -5.992  61.622  62.082  1.00  0.00     0.094 A 
HETATM    2  N2  UNL     1      -6.289  61.294  63.390  1.00  0.00    -0.189 N 
ATOM      3  H2  UNL     1      -6.181  62.021  64.097  1.00  0.00     0.184 HD
HETATM    4  C8  UNL     1      -6.703  60.110  63.788  1.00  0.00     0.677 A 
HETATM    5  N4  UNL     1      -6.842  59.158  62.845  1.00  0.00    -0.184 N 
ATOM      6  H4  UNL     1      -7.162  58.235  63.134  1.00  0.00     0.185 HD
HETATM    7  C9  UNL     1      -6.584  59.359  61.557  1.00  0.00     0.109 A 
HETATM    8  C13 UNL     1      -6.141  60.644  61.176  1.00  0.00     0.107 A 
HETATM    9  C14 UNL     1      -5.779  60.731  59.788  1.00  0.00     0.104 C 
HETATM   10  N5  UNL     1      -5.452  60.772  58.669  1.00  0.00    -0.191 NA
ENDROOT
BRANCH   1  11
HETATM   11  C6  UNL     1      -5.478  62.961  61.821  1.00  0.00     0.092 A 
HETATM   12  C5  UNL     1      -5.648  63.941  60.920  1.00  0.00     0.209 A 
HETATM   13  N1  UNL     1      -4.890  65.004  60.963  1.00  0.00    -0.321 N 
HETATM   14  F1  UNL     1      -6.679  63.922  59.983  1.00  0.00    -0.185 F 
HETATM   15  C4  UNL     1      -3.965  65.106  61.895  1.00  0.00     0.115 A 
ATOM     16  H1  UNL     1      -5.014  65.751  60.279  1.00  0.00     0.169 HD
HETATM   17  S3  UNL     1      -4.144  63.666  62.759  1.00  0.00    -0.058 SA
BRANCH  15  18
HETATM   18  S1  UNL     1      -2.844  66.488  62.086  1.00  0.00    -0.101 SA
BRANCH  18  19
HETATM   19  C2  UNL     1      -3.288  67.535  63.466  1.00  0.00     0.046 C 
HETATM   20  C1  UNL     1      -3.314  66.862  64.795  1.00  0.00     0.021 C 
HETATM   21  C3  UNL     1      -2.337  68.740  63.454  1.00  0.00     0.021 C 
ENDBRANCH  18  19
ENDBRANCH  15  18
ENDBRANCH   1  11
BRANCH   7  22
HETATM   22  S2  UNL     1      -6.800  58.043  60.388  1.00  0.00    -0.106 SA
BRANCH  22  23
HETATM   23  C10 UNL     1      -7.558  56.631  61.225  1.00  0.00     0.045 C 
HETATM   24  C11 UNL     1      -6.438  55.696  61.632  1.00  0.00     0.021 C 
HETATM   25  C12 UNL     1      -8.545  55.885  60.356  1.00  0.00     0.021 C 
ENDBRANCH  22  23
ENDBRANCH   7  22
BRANCH   4  26
HETATM   26  N3  UNL     1      -6.969  59.855  65.037  1.00  0.00    -0.234 N 
ATOM     27  H32 UNL     1      -7.134  60.611  65.701  1.00  0.00     0.174 HD
ATOM     28  H31 UNL     1      -7.023  58.901  65.396  1.00  0.00     0.174 HD
ENDBRANCH   4  26
TORSDOF 6
ENDMDL
MODEL 2
REMARK VINA RESULT: -7.570956899      1.268      1.573
REMARK  6 active torsions:
REMARK  status: ('A' for Active; 'I' for Inactive)
REMARK    1  A    between atoms: C2_2  and  S1_4 
REMARK    2  A    between atoms: S1_4  and  C4_5 
REMARK    3  A    between atoms: C6_10  and  C7_11 
REMARK    4  A    between atoms: C8_14  and  N3_15 
REMARK    5  A    between atoms: C9_20  and  S2_21 
REMARK    6  A    between atoms: S2_21  and  C10_22 
ROOT
HETATM    1  C7  UNL     1      -6.005  61.569  61.992  1.00  0.00     0.094 A 
HETATM    2  N2  UNL     1      -6.308  61.277  63.306  1.00  0.00    -0.189 N 
ATOM      3  H2  UNL     1      -6.197  62.021  63.994  1.00  0.00     0.184 HD
HETATM    4  C8  UNL     1      -6.730  60.106  63.733  1.00  0.00     0.677 A 
HETATM    5  N4  UNL     1      -6.872  59.131  62.814  1.00  0.00    -0.184 N 
ATOM      6  H4  UNL     1      -7.199  58.217  63.126  1.00  0.00     0.185 HD
HETATM    7  C9  UNL     1      -6.609  59.297  61.523  1.00  0.00     0.109 A 
HETATM    8  C13 UNL     1      -6.157  60.568  61.110  1.00  0.00     0.107 A 
HETATM    9  C14 UNL     1      -5.790  60.618  59.721  1.00  0.00     0.104 C 
HETATM   10  N5  UNL     1      -5.460  60.628  58.603  1.00  0.00    -0.191 NA
ENDROOT
BRANCH   1  11
HETATM   11  C6  UNL     1      -5.482  62.897  61.697  1.00  0.00     0.092 A 
HETATM   12  C5  UNL     1      -5.660  63.865  60.785  1.00  0.00     0.209 A 
HETATM   13  N1  UNL     1      -4.890  64.920  60.794  1.00  0.00    -0.321 N 
HETATM   14  F1  UNL     1      -6.713  63.843  59.870  1.00  0.00    -0.185 F 
HETATM   15  C4  UNL     1      -3.944  65.026  61.704  1.00  0.00     0.115 A 
ATOM     16  H1  UNL     1      -5.021  65.657  60.101  1.00  0.00     0.169 HD
HETATM   17  S3  UNL     1      -4.120  63.602  62.595  1.00  0.00    -0.058 SA
BRANCH  15  18
HETATM   18  S1  UNL     1      -2.804  66.398  61.848  1.00  0.00    -0.101 SA
BRANCH  18  19
HETATM   19  C2  UNL     1      -1.865  66.658  60.348  1.00  0.00     0.046 C 
HETATM   20  C1  UNL     1      -2.534  67.496  59.313  1.00  0.00     0.021 C 
HETATM   21  C3  UNL     1      -0.500  67.233  60.753  1.00  0.00     0.021 C 
ENDBRANCH  18  19
ENDBRANCH  15  18
ENDBRANCH   1  11
BRANCH   7  22
HETATM   22  S2  UNL     1      -6.829  57.952  60.387  1.00  0.00    -0.106 SA
BRANCH  22  23
HETATM   23  C10 UNL     1      -7.616  56.574  61.253  1.00  0.00     0.045 C 
HETATM   24  C11 UNL     1      -6.512  55.637  61.702  1.00  0.00     0.021 C 
HETATM   25  C12 UNL     1      -8.600  55.815  60.393  1.00  0.00     0.021 C 
ENDBRANCH  22  23
ENDBRANCH   7  22
BRANCH   4  26
HETATM   26  N3  UNL     1      -7.001  59.884  64.988  1.00  0.00    -0.234 N 
ATOM     27  H32 UNL     1      -6.858  60.610  65.689  1.00  0.00     0.174 HD
ATOM     28  H31 UNL     1      -7.365  58.988  65.313  1.00  0.00     0.174 HD
ENDBRANCH   4  26
TORSDOF 6
ENDMDL
MODEL 3
REMARK VINA RESULT: -7.546724095      1.604      3.031
REMARK  6 active torsions:
REMARK  status: ('A' for Active; 'I' for Inactive)
REMARK    1  A    between atoms: C2_2  and  S1_4 
REMARK    2  A    between atoms: S1_4  and  C4_5 
REMARK    3  A    between atoms: C6_10  and  C7_11 
REMARK    4  A    between atoms: C8_14  and  N3_15 
REMARK    5  A    between atoms: C9_20  and  S2_21 
REMARK    6  A    between atoms: S2_21  and  C10_22 
ROOT
HETATM    1  C7  UNL     1      -5.725  61.232  60.153  1.00  0.00     0.094 A 
HETATM    2  N2  UNL     1      -6.128  61.096  58.840  1.00  0.00    -0.189 N 
ATOM      3  H2  UNL     1      -6.152  61.935  58.262  1.00  0.00     0.184 HD
HETATM    4  C8  UNL     1      -6.485  59.958  58.282  1.00  0.00     0.677 A 
HETATM    5  N4  UNL     1      -6.450  58.856  59.056  1.00  0.00    -0.184 N 
ATOM      6  H4  UNL     1      -6.721  57.966  58.641  1.00  0.00     0.185 HD
HETATM    7  C9  UNL     1      -6.080  58.869  60.332  1.00  0.00     0.109 A 
HETATM    8  C13 UNL     1      -5.708  60.110  60.889  1.00  0.00     0.107 A 
HETATM    9  C14 UNL     1      -5.436  60.042  62.299  1.00  0.00     0.104 C 
HETATM   10  N5  UNL     1      -5.258  59.975  63.449  1.00  0.00    -0.191 NA
ENDROOT
BRANCH   1  11
HETATM   11  C6  UNL     1      -5.431  62.576  60.634  1.00  0.00     0.092 A 
HETATM   12  C5  UNL     1      -5.810  63.390  61.631  1.00  0.00     0.209 A 
HETATM   13  N1  UNL     1      -5.378  64.621  61.669  1.00  0.00    -0.321 N 
HETATM   14  F1  UNL     1      -6.582  62.944  62.704  1.00  0.00    -0.185 F 
HETATM   15  C4  UNL     1      -4.568  65.055  60.726  1.00  0.00     0.115 A 
ATOM     16  H1  UNL     1      -5.666  65.244  62.424  1.00  0.00     0.169 HD
HETATM   17  S3  UNL     1      -4.390  63.701  59.733  1.00  0.00    -0.058 SA
BRANCH  15  18
HETATM   18  S1  UNL     1      -3.896  66.711  60.628  1.00  0.00    -0.101 SA
BRANCH  18  19
HETATM   19  C2  UNL     1      -2.871  67.111  62.039  1.00  0.00     0.046 C 
HETATM   20  C1  UNL     1      -3.610  67.461  63.285  1.00  0.00     0.021 C 
HETATM   21  C3  UNL     1      -1.907  65.936  62.256  1.00  0.00     0.021 C 
ENDBRANCH  18  19
ENDBRANCH  15  18
ENDBRANCH   1  11
BRANCH   7  22
HETATM   22  S2  UNL     1      -6.064  57.363  61.270  1.00  0.00    -0.106 SA
BRANCH  22  23
HETATM   23  C10 UNL     1      -7.725  56.649  61.266  1.00  0.00     0.045 C 
HETATM   24  C11 UNL     1      -7.646  55.326  62.001  1.00  0.00     0.021 C 
HETATM   25  C12 UNL     1      -8.271  56.421  59.876  1.00  0.00     0.021 C 
ENDBRANCH  22  23
ENDBRANCH   7  22
BRANCH   4  26
HETATM   26  N3  UNL     1      -6.859  59.887  57.037  1.00  0.00    -0.234 N 
ATOM     27  H32 UNL     1      -6.685  60.659  56.394  1.00  0.00     0.174 HD
ATOM     28  H31 UNL     1      -7.332  59.065  56.659  1.00  0.00     0.174 HD
ENDBRANCH   4  26
TORSDOF 6
ENDMDL
MODEL 4
REMARK VINA RESULT: -7.489947852      1.164      1.273
REMARK  6 active torsions:
REMARK  status: ('A' for Active; 'I' for Inactive)
REMARK    1  A    between atoms: C2_2  and  S1_4 
REMARK    2  A    between atoms: S1_4  and  C4_5 
REMARK    3  A    between atoms: C6_10  and  C7_11 
REMARK    4  A    between atoms: C8_14  and  N3_15 
REMARK    5  A    between atoms: C9_20  and  S2_21 
REMARK    6  A    between atoms: S2_21  and  C10_22 
ROOT
HETATM    1  C7  UNL     1      -5.924  61.740  61.117  1.00  0.00     0.094 A 
HETATM    2  N2  UNL     1      -6.105  61.576  62.475  1.00  0.00    -0.189 N 
ATOM      3  H2  UNL     1      -5.920  62.378  63.078  1.00  0.00     0.184 HD
HETATM    4  C8  UNL     1      -6.500  60.458  63.048  1.00  0.00     0.677 A 
HETATM    5  N4  UNL     1      -6.741  59.407  62.241  1.00  0.00    -0.184 N 
ATOM      6  H4  UNL     1      -7.048  58.533  62.666  1.00  0.00     0.185 HD
HETATM    7  C9  UNL     1      -6.599  59.448  60.921  1.00  0.00     0.109 A 
HETATM    8  C13 UNL     1      -6.172  60.666  60.351  1.00  0.00     0.107 A 
HETATM    9  C14 UNL     1      -5.937  60.579  58.936  1.00  0.00     0.104 C 
HETATM   10  N5  UNL     1      -5.714  60.479  57.795  1.00  0.00    -0.191 NA
ENDROOT
BRANCH   1  11
HETATM   11  C6  UNL     1      -5.414  63.023  60.652  1.00  0.00     0.092 A 
HETATM   12  C5  UNL     1      -5.654  63.899  59.664  1.00  0.00     0.209 A 
HETATM   13  N1  UNL     1      -4.877  64.937  59.509  1.00  0.00    -0.321 N 
HETATM   14  F1  UNL     1      -6.774  63.803  58.839  1.00  0.00    -0.185 F 
HETATM   15  C4  UNL     1      -3.863  65.118  60.329  1.00  0.00     0.115 A 
ATOM     16  H1  UNL     1      -5.055  65.604  58.758  1.00  0.00     0.169 HD
HETATM   17  S3  UNL     1      -3.981  63.792  61.369  1.00  0.00    -0.058 SA
BRANCH  15  18
HETATM   18  S1  UNL     1      -2.704  66.479  60.248  1.00  0.00    -0.101 SA
BRANCH  18  19
HETATM   19  C2  UNL     1      -2.367  67.180  61.859  1.00  0.00     0.046 C 
HETATM   20  C1  UNL     1      -3.560  67.378  62.730  1.00  0.00     0.021 C 
HETATM   21  C3  UNL     1      -1.307  66.297  62.533  1.00  0.00     0.021 C 
ENDBRANCH  18  19
ENDBRANCH  15  18
ENDBRANCH   1  11
BRANCH   7  22
HETATM   22  S2  UNL     1      -6.942  58.009  59.942  1.00  0.00    -0.106 SA
BRANCH  22  23
HETATM   23  C10 UNL     1      -7.559  56.696  61.021  1.00  0.00     0.045 C 
HETATM   24  C11 UNL     1      -6.370  55.844  61.414  1.00  0.00     0.021 C 
HETATM   25  C12 UNL     1      -8.605  55.827  60.362  1.00  0.00     0.021 C 
ENDBRANCH  22  23
ENDBRANCH   7  22
BRANCH   4  26
HETATM   26  N3  UNL     1      -6.654  60.359  64.337  1.00  0.00    -0.234 N 
ATOM     27  H32 UNL     1      -6.039  60.862  64.977  1.00  0.00     0.174 HD
ATOM     28  H31 UNL     1      -7.388  59.784  64.752  1.00  0.00     0.174 HD
ENDBRANCH   4  26
TORSDOF 6
ENDMDL
MODEL 5
REMARK VINA RESULT: -7.467001876      1.042      1.339
REMARK  6 active torsions:
REMARK  status: ('A' for Active; 'I' for Inactive)
REMARK    1  A    between atoms: C2_2  and  S1_4 
REMARK    2  A    between atoms: S1_4  and  C4_5 
REMARK    3  A    between atoms: C6_10  and  C7_11 
REMARK    4  A    between atoms: C8_14  and  N3_15 
REMARK    5  A    between atoms: C9_20  and  S2_21 
REMARK    6  A    between atoms: S2_21  and  C10_22 
ROOT
HETATM    1  C7  UNL     1      -5.961  61.448  61.834  1.00  0.00     0.094 A 
HETATM    2  N2  UNL     1      -6.280  61.409  63.176  1.00  0.00    -0.189 N 
ATOM      3  H2  UNL     1      -6.316  62.295  63.680  1.00  0.00     0.184 HD
HETATM    4  C8  UNL     1      -6.541  60.310  63.851  1.00  0.00     0.677 A 
HETATM    5  N4  UNL     1      -6.490  59.146  63.174  1.00  0.00    -0.184 N 
ATOM      6  H4  UNL     1      -6.689  58.284  63.680  1.00  0.00     0.185 HD
HETATM    7  C9  UNL     1      -6.192  59.063  61.882  1.00  0.00     0.109 A 
HETATM    8  C13 UNL     1      -5.919  60.266  61.199  1.00  0.00     0.107 A 
HETATM    9  C14 UNL     1      -5.496  60.065  59.840  1.00  0.00     0.104 C 
HETATM   10  N5  UNL     1      -5.118  59.880  58.752  1.00  0.00    -0.191 NA
ENDROOT
BRANCH   1  11
HETATM   11  C6  UNL     1      -5.632  62.744  61.254  1.00  0.00     0.092 A 
HETATM   12  C5  UNL     1      -5.839  63.412  60.109  1.00  0.00     0.209 A 
HETATM   13  N1  UNL     1      -5.265  64.569  59.915  1.00  0.00    -0.321 N 
HETATM   14  F1  UNL     1      -6.734  62.966  59.137  1.00  0.00    -0.185 F 
HETATM   15  C4  UNL     1      -4.487  65.073  60.851  1.00  0.00     0.115 A 
ATOM     16  H1  UNL     1      -5.418  65.079  59.045  1.00  0.00     0.169 HD
HETATM   17  S3  UNL     1      -4.546  63.897  62.061  1.00  0.00    -0.058 SA
BRANCH  15  18
HETATM   18  S1  UNL     1      -3.624  66.636  60.739  1.00  0.00    -0.101 SA
BRANCH  18  19
HETATM   19  C2  UNL     1      -2.731  67.027  62.239  1.00  0.00     0.046 C 
HETATM   20  C1  UNL     1      -1.665  68.058  62.097  1.00  0.00     0.021 C 
HETATM   21  C3  UNL     1      -3.767  67.418  63.303  1.00  0.00     0.021 C 
ENDBRANCH  18  19
ENDBRANCH  15  18
ENDBRANCH   1  11
BRANCH   7  22
HETATM   22  S2  UNL     1      -6.152  57.483  61.077  1.00  0.00    -0.106 SA
BRANCH  22  23
HETATM   23  C10 UNL     1      -7.724  57.216  60.225  1.00  0.00     0.045 C 
HETATM   24  C11 UNL     1      -8.227  55.845  60.632  1.00  0.00     0.021 C 
HETATM   25  C12 UNL     1      -7.604  57.281  58.720  1.00  0.00     0.021 C 
ENDBRANCH  22  23
ENDBRANCH   7  22
BRANCH   4  26
HETATM   26  N3  UNL     1      -6.835  60.331  65.120  1.00  0.00    -0.234 N 
ATOM     27  H32 UNL     1      -7.062  61.208  65.589  1.00  0.00     0.174 HD
ATOM     28  H31 UNL     1      -6.853  59.482  65.686  1.00  0.00     0.174 HD
ENDBRANCH   4  26
TORSDOF 6
ENDMDL
