MODEL 1
REMARK VINA RESULT: -7.504447020      0.000      0.000
REMARK  7 active torsions:
REMARK  status: ('A' for Active; 'I' for Inactive)
REMARK    1  A    between atoms: C2_2  and  C3_3 
REMARK    2  A    between atoms: C3_3  and  N1_4 
REMARK    3  A    between atoms: C4_5  and  N2_6 
REMARK    4  A    between atoms: C5_8  and  C6_9 
REMARK    5  A    between atoms: C8_11  and  O1_12 
REMARK    6  A    between atoms: C9_14  and  O2_15 
REMARK    7  A    between atoms: N3_17  and  C10_18 
ROOT
HETATM    1  C6  UNL     1      -5.564  60.372  60.306  1.00  0.00     0.050 A 
HETATM    2  C7  UNL     1      -5.837  60.763  59.028  1.00  0.00     0.059 A 
HETATM    3  C8  UNL     1      -6.458  59.891  58.192  1.00  0.00     0.118 A 
HETATM    4  C9  UNL     1      -6.798  58.624  58.660  1.00  0.00     0.179 A 
HETATM    5  N3  UNL     1      -6.540  58.224  59.908  1.00  0.00    -0.288 N 
HETATM    6  C13 UNL     1      -5.930  59.087  60.722  1.00  0.00     0.261 A 
HETATM    7  O3  UNL     1      -5.660  58.786  61.885  1.00  0.00    -0.267 OA
ENDROOT
BRANCH   1   8
HETATM    8  C5  UNL     1      -4.896  61.283  61.233  1.00  0.00     0.106 C 
HETATM    9  N2  UNL     1      -5.108  62.536  61.141  1.00  0.00    -0.351 N 
ATOM     10  H2  UNL     1      -5.739  62.893  60.424  1.00  0.00     0.166 HD
BRANCH   9  11
HETATM   11  C4  UNL     1      -4.446  63.466  62.065  1.00  0.00     0.115 A 
HETATM   12  N1  UNL     1      -4.179  64.727  61.794  1.00  0.00    -0.314 N 
HETATM   13  C15 UNL     1      -3.573  65.461  62.721  1.00  0.00     0.146 A 
HETATM   14  S1  UNL     1      -3.364  64.372  64.012  1.00  0.00    -0.068 SA
HETATM   15  S2  UNL     1      -3.137  67.062  62.613  1.00  0.00    -0.052 SA
HETATM   16  C14 UNL     1      -4.074  62.998  63.299  1.00  0.00     0.101 A 
BRANCH  12  17
HETATM   17  C3  UNL     1      -4.550  65.323  60.477  1.00  0.00     0.158 C 
BRANCH  17  18
HETATM   18  C2  UNL     1      -3.448  65.105  59.506  1.00  0.00    -0.017 C 
HETATM   19  C1  UNL     1      -3.691  64.446  58.398  1.00  0.00     0.008 C 
ENDBRANCH  17  18
ENDBRANCH  12  17
ENDBRANCH   9  11
ENDBRANCH   1   8
BRANCH   3  20
HETATM   20  O1  UNL     1      -6.734  60.291  56.889  1.00  0.00    -0.357 OA
ATOM     21  H1  UNL     1      -7.294  59.745  56.350  1.00  0.00     0.218 HD
ENDBRANCH   3  20
BRANCH   5  22
HETATM   22  C10 UNL     1      -6.903  56.932  60.340  1.00  0.00     0.087 C 
HETATM   23  C11 UNL     1      -5.735  56.076  60.787  1.00  0.00     0.032 C 
HETATM   24  C12 UNL     1      -7.936  56.872  61.420  1.00  0.00     0.032 C 
ENDBRANCH   5  22
BRANCH   4  25
HETATM   25  O2  UNL     1      -7.421  57.788  57.779  1.00  0.00    -0.344 OA
ATOM     26  H2  UNL     1      -8.301  57.507  58.002  1.00  0.00     0.219 HD
ENDBRANCH   4  25
TORSDOF 7
ENDMDL
MODEL 2
REMARK VINA RESULT: -7.473297754      0.798      1.071
REMARK  7 active torsions:
REMARK  status: ('A' for Active; 'I' for Inactive)
REMARK    1  A    between atoms: C2_2  and  C3_3 
REMARK    2  A    between atoms: C3_3  and  N1_4 
REMARK    3  A    between atoms: C4_5  and  N2_6 
REMARK    4  A    between atoms: C5_8  and  C6_9 
REMARK    5  A    between atoms: C8_11  and  O1_12 
REMARK    6  A    between atoms: C9_14  and  O2_15 
REMARK    7  A    between atoms: N3_17  and  C10_18 
ROOT
HETATM    1  C6  UNL     1      -5.616  60.483  60.219  1.00  0.00     0.050 A 
HETATM    2  C7  UNL     1      -5.907  60.679  58.900  1.00  0.00     0.059 A 
HETATM    3  C8  UNL     1      -6.549  59.698  58.216  1.00  0.00     0.118 A 
HETATM    4  C9  UNL     1      -6.892  58.520  58.876  1.00  0.00     0.179 A 
HETATM    5  N3  UNL     1      -6.616  58.311  60.165  1.00  0.00    -0.288 N 
HETATM    6  C13 UNL     1      -5.985  59.281  60.830  1.00  0.00     0.261 A 
HETATM    7  O3  UNL     1      -5.699  59.157  62.021  1.00  0.00    -0.267 OA
ENDROOT
BRANCH   1   8
HETATM    8  C5  UNL     1      -4.926  61.518  60.987  1.00  0.00     0.106 C 
HETATM    9  N2  UNL     1      -4.931  62.720  60.564  1.00  0.00    -0.351 N 
ATOM     10  H2  UNL     1      -5.414  62.951  59.696  1.00  0.00     0.166 HD
BRANCH   9  11
HETATM   11  C4  UNL     1      -4.243  63.771  61.324  1.00  0.00     0.115 A 
HETATM   12  N1  UNL     1      -3.882  64.938  60.830  1.00  0.00    -0.314 N 
HETATM   13  C15 UNL     1      -3.264  65.801  61.627  1.00  0.00     0.146 A 
HETATM   14  S1  UNL     1      -3.175  64.975  63.112  1.00  0.00    -0.068 SA
HETATM   15  S2  UNL     1      -2.718  67.323  61.236  1.00  0.00    -0.052 SA
HETATM   16  C14 UNL     1      -3.948  63.531  62.642  1.00  0.00     0.101 A 
BRANCH  12  17
HETATM   17  C3  UNL     1      -4.164  65.287  59.407  1.00  0.00     0.158 C 
BRANCH  17  18
HETATM   18  C2  UNL     1      -3.121  64.689  58.535  1.00  0.00    -0.017 C 
HETATM   19  C1  UNL     1      -2.275  65.478  57.914  1.00  0.00     0.008 C 
ENDBRANCH  17  18
ENDBRANCH  12  17
ENDBRANCH   9  11
ENDBRANCH   1   8
BRANCH   3  20
HETATM   20  O1  UNL     1      -6.843  59.899  56.871  1.00  0.00    -0.357 OA
ATOM     21  H1  UNL     1      -7.750  59.865  56.591  1.00  0.00     0.218 HD
ENDBRANCH   3  20
BRANCH   5  22
HETATM   22  C10 UNL     1      -6.982  57.103  60.794  1.00  0.00     0.087 C 
HETATM   23  C11 UNL     1      -8.234  56.464  60.229  1.00  0.00     0.032 C 
HETATM   24  C12 UNL     1      -5.926  56.046  60.839  1.00  0.00     0.032 C 
ENDBRANCH   5  22
BRANCH   4  25
HETATM   25  O2  UNL     1      -7.536  57.567  58.141  1.00  0.00    -0.344 OA
ATOM     26  H2  UNL     1      -8.442  57.390  58.367  1.00  0.00     0.219 HD
ENDBRANCH   4  25
TORSDOF 7
ENDMDL
MODEL 3
REMARK VINA RESULT: -7.390746092      3.402      7.076
REMARK  7 active torsions:
REMARK  status: ('A' for Active; 'I' for Inactive)
REMARK    1  A    between atoms: C2_2  and  C3_3 
REMARK    2  A    between atoms: C3_3  and  N1_4 
REMARK    3  A    between atoms: C4_5  and  N2_6 
REMARK    4  A    between atoms: C5_8  and  C6_9 
REMARK    5  A    between atoms: C8_11  and  O1_12 
REMARK    6  A    between atoms: C9_14  and  O2_15 
REMARK    7  A    between atoms: N3_17  and  C10_18 
ROOT
HETATM    1  C6  UNL     1      -5.151  61.570  60.958  1.00  0.00     0.050 A 
HETATM    2  C7  UNL     1      -5.579  61.355  59.680  1.00  0.00     0.059 A 
HETATM    3  C8  UNL     1      -5.375  62.320  58.747  1.00  0.00     0.118 A 
HETATM    4  C9  UNL     1      -4.736  63.501  59.118  1.00  0.00     0.179 A 
HETATM    5  N3  UNL     1      -4.310  63.729  60.362  1.00  0.00    -0.288 N 
HETATM    6  C13 UNL     1      -4.515  62.776  61.273  1.00  0.00     0.261 A 
HETATM    7  O3  UNL     1      -4.150  62.918  62.440  1.00  0.00    -0.267 OA
ENDROOT
BRANCH   1   8
HETATM    8  C5  UNL     1      -5.354  60.554  61.988  1.00  0.00     0.106 C 
HETATM    9  N2  UNL     1      -5.766  59.396  61.653  1.00  0.00    -0.351 N 
ATOM     10  H2  UNL     1      -5.950  59.186  60.672  1.00  0.00     0.166 HD
BRANCH   9  11
HETATM   11  C4  UNL     1      -5.975  58.363  62.675  1.00  0.00     0.115 A 
HETATM   12  N1  UNL     1      -6.314  57.115  62.421  1.00  0.00    -0.314 N 
HETATM   13  C15 UNL     1      -6.472  56.280  63.442  1.00  0.00     0.146 A 
HETATM   14  S1  UNL     1      -6.143  57.250  64.801  1.00  0.00    -0.068 SA
HETATM   15  S2  UNL     1      -6.893  54.673  63.373  1.00  0.00    -0.052 SA
HETATM   16  C14 UNL     1      -5.809  58.711  63.992  1.00  0.00     0.101 A 
BRANCH  12  17
HETATM   17  C3  UNL     1      -6.512  56.646  61.019  1.00  0.00     0.158 C 
BRANCH  17  18
HETATM   18  C2  UNL     1      -7.920  56.887  60.611  1.00  0.00    -0.017 C 
HETATM   19  C1  UNL     1      -8.668  55.869  60.256  1.00  0.00     0.008 C 
ENDBRANCH  17  18
ENDBRANCH  12  17
ENDBRANCH   9  11
ENDBRANCH   1   8
BRANCH   3  20
HETATM   20  O1  UNL     1      -5.812  62.099  57.445  1.00  0.00    -0.357 OA
ATOM     21  H1  UNL     1      -5.335  62.498  56.727  1.00  0.00     0.218 HD
ENDBRANCH   3  20
BRANCH   5  22
HETATM   22  C10 UNL     1      -3.668  64.940  60.694  1.00  0.00     0.087 C 
HETATM   23  C11 UNL     1      -2.698  65.437  59.641  1.00  0.00     0.032 C 
HETATM   24  C12 UNL     1      -4.569  66.082  61.042  1.00  0.00     0.032 C 
ENDBRANCH   5  22
BRANCH   4  25
HETATM   25  O2  UNL     1      -4.556  64.437  58.140  1.00  0.00    -0.344 OA
ATOM     26  H2  UNL     1      -4.451  64.116  57.252  1.00  0.00     0.219 HD
ENDBRANCH   4  25
TORSDOF 7
ENDMDL
MODEL 4
REMARK VINA RESULT: -7.380561055      1.862      3.296
REMARK  7 active torsions:
REMARK  status: ('A' for Active; 'I' for Inactive)
REMARK    1  A    between atoms: C2_2  and  C3_3 
REMARK    2  A    between atoms: C3_3  and  N1_4 
REMARK    3  A    between atoms: C4_5  and  N2_6 
REMARK    4  A    between atoms: C5_8  and  C6_9 
REMARK    5  A    between atoms: C8_11  and  O1_12 
REMARK    6  A    between atoms: C9_14  and  O2_15 
REMARK    7  A    between atoms: N3_17  and  C10_18 
ROOT
HETATM    1  C6  UNL     1      -5.812  60.424  61.224  1.00  0.00     0.050 A 
HETATM    2  C7  UNL     1      -6.597  60.660  62.315  1.00  0.00     0.059 A 
HETATM    3  C8  UNL     1      -7.397  59.665  62.776  1.00  0.00     0.118 A 
HETATM    4  C9  UNL     1      -7.396  58.433  62.125  1.00  0.00     0.179 A 
HETATM    5  N3  UNL     1      -6.635  58.184  61.057  1.00  0.00    -0.288 N 
HETATM    6  C13 UNL     1      -5.851  59.168  60.611  1.00  0.00     0.261 A 
HETATM    7  O3  UNL     1      -5.123  59.009  59.631  1.00  0.00    -0.267 OA
ENDROOT
BRANCH   1   8
HETATM    8  C5  UNL     1      -4.938  61.472  60.700  1.00  0.00     0.106 C 
HETATM    9  N2  UNL     1      -5.409  62.638  60.500  1.00  0.00    -0.351 N 
ATOM     10  H2  UNL     1      -6.389  62.833  60.706  1.00  0.00     0.166 HD
BRANCH   9  11
HETATM   11  C4  UNL     1      -4.545  63.703  59.975  1.00  0.00     0.115 A 
HETATM   12  N1  UNL     1      -4.101  64.725  60.679  1.00  0.00    -0.314 N 
HETATM   13  C15 UNL     1      -3.325  65.619  60.079  1.00  0.00     0.146 A 
HETATM   14  S1  UNL     1      -3.202  65.033  58.487  1.00  0.00    -0.068 SA
HETATM   15  S2  UNL     1      -2.649  66.981  60.755  1.00  0.00    -0.052 SA
HETATM   16  C14 UNL     1      -4.167  63.640  58.657  1.00  0.00     0.101 A 
BRANCH  12  17
HETATM   17  C3  UNL     1      -4.459  64.873  62.120  1.00  0.00     0.158 C 
BRANCH  17  18
HETATM   18  C2  UNL     1      -3.518  64.077  62.948  1.00  0.00    -0.017 C 
HETATM   19  C1  UNL     1      -3.995  63.291  63.885  1.00  0.00     0.008 C 
ENDBRANCH  17  18
ENDBRANCH  12  17
ENDBRANCH   9  11
ENDBRANCH   1   8
BRANCH   3  20
HETATM   20  O1  UNL     1      -8.198  59.907  63.888  1.00  0.00    -0.357 OA
ATOM     21  H1  UNL     1      -8.388  59.190  64.481  1.00  0.00     0.218 HD
ENDBRANCH   3  20
BRANCH   5  22
HETATM   22  C10 UNL     1      -6.665  56.922  60.429  1.00  0.00     0.087 C 
HETATM   23  C11 UNL     1      -6.203  55.779  61.309  1.00  0.00     0.032 C 
HETATM   24  C12 UNL     1      -7.977  56.522  59.833  1.00  0.00     0.032 C 
ENDBRANCH   5  22
BRANCH   4  25
HETATM   25  O2  UNL     1      -8.219  57.468  62.630  1.00  0.00    -0.344 OA
ATOM     26  H2  UNL     1      -7.900  56.574  62.601  1.00  0.00     0.219 HD
ENDBRANCH   4  25
TORSDOF 7
ENDMDL
MODEL 5
REMARK VINA RESULT: -7.325606233      1.299      1.479
REMARK  7 active torsions:
REMARK  status: ('A' for Active; 'I' for Inactive)
REMARK    1  A    between atoms: C2_2  and  C3_3 
REMARK    2  A    between atoms: C3_3  and  N1_4 
REMARK    3  A    between atoms: C4_5  and  N2_6 
REMARK    4  A    between atoms: C5_8  and  C6_9 
REMARK    5  A    between atoms: C8_11  and  O1_12 
REMARK    6  A    between atoms: C9_14  and  O2_15 
REMARK    7  A    between atoms: N3_17  and  C10_18 
ROOT
HETATM    1  C6  UNL     1      -5.529  60.517  60.745  1.00  0.00     0.050 A 
HETATM    2  C7  UNL     1      -5.683  61.225  59.589  1.00  0.00     0.059 A 
HETATM    3  C8  UNL     1      -6.190  60.598  58.497  1.00  0.00     0.118 A 
HETATM    4  C9  UNL     1      -6.538  59.252  58.586  1.00  0.00     0.179 A 
HETATM    5  N3  UNL     1      -6.395  58.543  59.708  1.00  0.00    -0.288 N 
HETATM    6  C13 UNL     1      -5.896  59.168  60.776  1.00  0.00     0.261 A 
HETATM    7  O3  UNL     1      -5.736  58.577  61.844  1.00  0.00    -0.267 OA
ENDROOT
BRANCH   1   8
HETATM    8  C5  UNL     1      -4.986  61.160  61.941  1.00  0.00     0.106 C 
HETATM    9  N2  UNL     1      -4.777  62.417  61.935  1.00  0.00    -0.351 N 
ATOM     10  H2  UNL     1      -4.988  62.964  61.101  1.00  0.00     0.166 HD
BRANCH   9  11
HETATM   11  C4  UNL     1      -4.232  63.078  63.128  1.00  0.00     0.115 A 
HETATM   12  N1  UNL     1      -3.565  64.215  63.115  1.00  0.00    -0.314 N 
HETATM   13  C15 UNL     1      -3.126  64.705  64.268  1.00  0.00     0.146 A 
HETATM   14  S1  UNL     1      -3.649  63.559  65.411  1.00  0.00    -0.068 SA
HETATM   15  S2  UNL     1      -2.269  66.111  64.504  1.00  0.00    -0.052 SA
HETATM   16  C14 UNL     1      -4.425  62.479  64.346  1.00  0.00     0.101 A 
BRANCH  12  17
HETATM   17  C3  UNL     1      -3.311  64.939  61.835  1.00  0.00     0.158 C 
BRANCH  17  18
HETATM   18  C2  UNL     1      -4.497  65.764  61.489  1.00  0.00    -0.017 C 
HETATM   19  C1  UNL     1      -4.412  67.071  61.567  1.00  0.00     0.008 C 
ENDBRANCH  17  18
ENDBRANCH  12  17
ENDBRANCH   9  11
ENDBRANCH   1   8
BRANCH   3  20
HETATM   20  O1  UNL     1      -6.346  61.321  57.319  1.00  0.00    -0.357 OA
ATOM     21  H1  UNL     1      -6.073  60.926  56.499  1.00  0.00     0.218 HD
ENDBRANCH   3  20
BRANCH   5  22
HETATM   22  C10 UNL     1      -6.760  57.182  59.753  1.00  0.00     0.087 C 
HETATM   23  C11 UNL     1      -5.743  56.288  60.433  1.00  0.00     0.032 C 
HETATM   24  C12 UNL     1      -8.092  56.885  60.366  1.00  0.00     0.032 C 
ENDBRANCH   5  22
BRANCH   4  25
HETATM   25  O2  UNL     1      -7.043  58.670  57.458  1.00  0.00    -0.344 OA
ATOM     26  H2  UNL     1      -7.860  58.194  57.551  1.00  0.00     0.219 HD
ENDBRANCH   4  25
TORSDOF 7
ENDMDL
