MODEL 1
REMARK VINA RESULT: -9.720776094      0.000      0.000
REMARK  9 active torsions:
REMARK  status: ('A' for Active; 'I' for Inactive)
REMARK    1  A    between atoms: C2_2  and  O1_3 
REMARK    2  A    between atoms: O1_3  and  C3_4 
REMARK    3  A    between atoms: C3_4  and  O3_6 
REMARK    4  A    between atoms: O3_6  and  C4_7 
REMARK    5  A    between atoms: C7_10  and  C8_11 
REMARK    6  A    between atoms: C9_13  and  O5_14 
REMARK    7  A    between atoms: O5_14  and  C10_15 
REMARK    8  A    between atoms: C16_22  and  C17_23 
REMARK    9  A    between atoms: C18_26  and  N1_27 
ROOT
HETATM    1  C8  UNL     1      44.600  45.959  62.233  1.00  0.00     0.192 C 
HETATM    2  O4  UNL     1      44.833  46.844  63.283  1.00  0.00    -0.326 OA
HETATM    3  C9  UNL     1      43.804  46.551  64.215  1.00  0.00     0.420 C 
HETATM    4  O6  UNL     1      42.643  47.100  63.685  1.00  0.00    -0.320 OA
HETATM    5  C16 UNL     1      42.179  46.495  62.541  1.00  0.00     0.259 C 
HETATM    6  C18 UNL     1      43.274  46.172  61.550  1.00  0.00     0.229 C 
ENDROOT
BRANCH   1   7
HETATM    7  C7  UNL     1      45.740  45.785  61.318  1.00  0.00    -0.027 A 
HETATM    8  C6  UNL     1      46.941  46.402  61.564  1.00  0.00     0.012 A 
HETATM    9  C5  UNL     1      48.010  46.246  60.702  1.00  0.00     0.038 A 
HETATM   10  C4  UNL     1      47.919  45.472  59.567  1.00  0.00     0.081 A 
HETATM   11  C20 UNL     1      46.724  44.847  59.307  1.00  0.00     0.038 A 
HETATM   12  C19 UNL     1      45.652  45.009  60.180  1.00  0.00     0.012 A 
BRANCH  10  13
HETATM   13  O3  UNL     1      49.039  45.371  58.760  1.00  0.00    -0.255 OA
BRANCH  13  14
HETATM   14  C3  UNL     1      49.754  44.192  58.769  1.00  0.00     0.416 C 
HETATM   15  O2  UNL     1      49.683  43.432  57.793  1.00  0.00    -0.229 OA
BRANCH  14  16
HETATM   16  O1  UNL     1      50.566  43.802  59.832  1.00  0.00    -0.268 OA
BRANCH  16  17
HETATM   17  C2  UNL     1      51.564  44.657  60.284  1.00  0.00     0.137 C 
HETATM   18  C1  UNL     1      52.506  44.998  59.414  1.00  0.00     0.038 C 
ENDBRANCH  16  17
ENDBRANCH  14  16
ENDBRANCH  13  14
ENDBRANCH  10  13
ENDBRANCH   1   7
BRANCH   6  19
HETATM   19  N1  UNL     1      43.313  47.236  60.590  1.00  0.00    -0.144 N 
HETATM   20  O9  UNL     1      43.544  48.396  60.943  1.00  0.00    -0.536 OA
HETATM   21  O10 UNL     1      43.093  46.966  59.273  1.00  0.00    -0.536 OA
ENDBRANCH   6  19
BRANCH   3  22
HETATM   22  O5  UNL     1      44.038  47.129  65.448  1.00  0.00    -0.297 OA
BRANCH  22  23
HETATM   23  C10 UNL     1      45.255  47.385  66.031  1.00  0.00     0.074 A 
HETATM   24  C11 UNL     1      46.453  47.132  65.401  1.00  0.00     0.037 A 
HETATM   25  C12 UNL     1      47.678  47.402  66.013  1.00  0.00     0.003 A 
HETATM   26  C13 UNL     1      47.703  47.933  67.278  1.00  0.00     0.000 A 
HETATM   27  C14 UNL     1      46.530  48.203  67.945  1.00  0.00     0.003 A 
HETATM   28  C15 UNL     1      45.345  47.928  67.316  1.00  0.00     0.037 A 
ENDBRANCH  22  23
ENDBRANCH   3  22
BRANCH   5  29
HETATM   29  C17 UNL     1      41.425  45.280  62.918  1.00  0.00     0.205 C 
HETATM   30  O7  UNL     1      41.963  44.153  63.018  1.00  0.00    -0.646 OA
HETATM   31  O8  UNL     1      40.068  45.362  63.178  1.00  0.00    -0.646 OA
ENDBRANCH   5  29
TORSDOF 9
ENDMDL
MODEL 2
REMARK VINA RESULT: -9.099354644      3.355      6.272
REMARK  9 active torsions:
REMARK  status: ('A' for Active; 'I' for Inactive)
REMARK    1  A    between atoms: C2_2  and  O1_3 
REMARK    2  A    between atoms: O1_3  and  C3_4 
REMARK    3  A    between atoms: C3_4  and  O3_6 
REMARK    4  A    between atoms: O3_6  and  C4_7 
REMARK    5  A    between atoms: C7_10  and  C8_11 
REMARK    6  A    between atoms: C9_13  and  O5_14 
REMARK    7  A    between atoms: O5_14  and  C10_15 
REMARK    8  A    between atoms: C16_22  and  C17_23 
REMARK    9  A    between atoms: C18_26  and  N1_27 
ROOT
HETATM    1  C8  UNL     1      49.827  44.755  60.918  1.00  0.00     0.192 C 
HETATM    2  O4  UNL     1      49.398  45.879  61.620  1.00  0.00    -0.326 OA
HETATM    3  C9  UNL     1      47.990  45.881  61.441  1.00  0.00     0.420 C 
HETATM    4  O6  UNL     1      47.774  46.309  60.137  1.00  0.00    -0.320 OA
HETATM    5  C16 UNL     1      48.189  45.439  59.158  1.00  0.00     0.259 C 
HETATM    6  C18 UNL     1      49.542  44.825  59.440  1.00  0.00     0.229 C 
ENDROOT
BRANCH   1   7
HETATM    7  C7  UNL     1      51.185  44.304  61.260  1.00  0.00    -0.027 A 
HETATM    8  C6  UNL     1      52.062  45.138  61.909  1.00  0.00     0.012 A 
HETATM    9  C5  UNL     1      53.340  44.718  62.225  1.00  0.00     0.038 A 
HETATM   10  C4  UNL     1      53.789  43.457  61.903  1.00  0.00     0.081 A 
HETATM   11  C20 UNL     1      52.924  42.610  61.255  1.00  0.00     0.038 A 
HETATM   12  C19 UNL     1      51.638  43.039  60.941  1.00  0.00     0.012 A 
BRANCH  10  13
HETATM   13  O3  UNL     1      55.085  43.120  62.258  1.00  0.00    -0.255 OA
BRANCH  13  14
HETATM   14  C3  UNL     1      55.934  44.122  62.679  1.00  0.00     0.416 C 
HETATM   15  O2  UNL     1      56.260  44.178  63.873  1.00  0.00    -0.229 OA
BRANCH  14  16
HETATM   16  O1  UNL     1      56.455  45.089  61.822  1.00  0.00    -0.268 OA
BRANCH  16  17
HETATM   17  C2  UNL     1      57.150  46.171  62.349  1.00  0.00     0.137 C 
HETATM   18  C1  UNL     1      56.462  47.286  62.558  1.00  0.00     0.038 C 
ENDBRANCH  16  17
ENDBRANCH  14  16
ENDBRANCH  13  14
ENDBRANCH  10  13
ENDBRANCH   1   7
BRANCH   6  19
HETATM   19  N1  UNL     1      50.520  45.592  58.726  1.00  0.00    -0.144 N 
HETATM   20  O9  UNL     1      50.445  46.824  58.680  1.00  0.00    -0.536 OA
HETATM   21  O10 UNL     1      51.544  44.957  58.090  1.00  0.00    -0.536 OA
ENDBRANCH   6  19
BRANCH   3  22
HETATM   22  O5  UNL     1      47.357  46.758  62.300  1.00  0.00    -0.297 OA
BRANCH  22  23
HETATM   23  C10 UNL     1      46.128  46.604  62.893  1.00  0.00     0.074 A 
HETATM   24  C11 UNL     1      45.925  46.765  64.245  1.00  0.00     0.037 A 
HETATM   25  C12 UNL     1      44.665  46.602  64.824  1.00  0.00     0.003 A 
HETATM   26  C13 UNL     1      43.592  46.273  64.036  1.00  0.00     0.000 A 
HETATM   27  C14 UNL     1      43.749  46.102  62.680  1.00  0.00     0.003 A 
HETATM   28  C15 UNL     1      44.997  46.269  62.142  1.00  0.00     0.037 A 
ENDBRANCH  22  23
ENDBRANCH   3  22
BRANCH   5  29
HETATM   29  C17 UNL     1      47.157  44.395  58.981  1.00  0.00     0.205 C 
HETATM   30  O7  UNL     1      47.429  43.228  58.613  1.00  0.00    -0.646 OA
HETATM   31  O8  UNL     1      45.827  44.690  59.225  1.00  0.00    -0.646 OA
ENDBRANCH   5  29
TORSDOF 9
ENDMDL
MODEL 3
REMARK VINA RESULT: -9.095658604      3.503      8.161
REMARK  9 active torsions:
REMARK  status: ('A' for Active; 'I' for Inactive)
REMARK    1  A    between atoms: C2_2  and  O1_3 
REMARK    2  A    between atoms: O1_3  and  C3_4 
REMARK    3  A    between atoms: C3_4  and  O3_6 
REMARK    4  A    between atoms: O3_6  and  C4_7 
REMARK    5  A    between atoms: C7_10  and  C8_11 
REMARK    6  A    between atoms: C9_13  and  O5_14 
REMARK    7  A    between atoms: O5_14  and  C10_15 
REMARK    8  A    between atoms: C16_22  and  C17_23 
REMARK    9  A    between atoms: C18_26  and  N1_27 
ROOT
HETATM    1  C8  UNL     1      50.982  44.513  61.214  1.00  0.00     0.192 C 
HETATM    2  O4  UNL     1      51.084  43.741  62.369  1.00  0.00    -0.326 OA
HETATM    3  C9  UNL     1      52.419  43.946  62.804  1.00  0.00     0.420 C 
HETATM    4  O6  UNL     1      53.217  43.204  61.943  1.00  0.00    -0.320 OA
HETATM    5  C16 UNL     1      53.262  43.660  60.647  1.00  0.00     0.259 C 
HETATM    6  C18 UNL     1      51.908  44.069  60.111  1.00  0.00     0.229 C 
ENDROOT
BRANCH   1   7
HETATM    7  C7  UNL     1      49.602  44.786  60.782  1.00  0.00    -0.027 A 
HETATM    8  C6  UNL     1      48.550  44.060  61.284  1.00  0.00     0.012 A 
HETATM    9  C5  UNL     1      47.254  44.310  60.874  1.00  0.00     0.038 A 
HETATM   10  C4  UNL     1      46.962  45.289  59.952  1.00  0.00     0.081 A 
HETATM   11  C20 UNL     1      48.003  46.026  59.441  1.00  0.00     0.038 A 
HETATM   12  C19 UNL     1      49.305  45.768  59.859  1.00  0.00     0.012 A 
BRANCH  10  13
HETATM   13  O3  UNL     1      45.635  45.472  59.599  1.00  0.00    -0.255 OA
BRANCH  13  14
HETATM   14  C3  UNL     1      44.796  46.102  60.493  1.00  0.00     0.416 C 
HETATM   15  O2  UNL     1      44.605  47.322  60.389  1.00  0.00    -0.229 OA
BRANCH  14  16
HETATM   16  O1  UNL     1      44.141  45.432  61.524  1.00  0.00    -0.268 OA
BRANCH  16  17
HETATM   17  C2  UNL     1      43.185  46.102  62.279  1.00  0.00     0.137 C 
HETATM   18  C1  UNL     1      42.407  45.363  63.059  1.00  0.00     0.038 C 
ENDBRANCH  16  17
ENDBRANCH  14  16
ENDBRANCH  13  14
ENDBRANCH  10  13
ENDBRANCH   1   7
BRANCH   6  19
HETATM   19  N1  UNL     1      51.387  42.961  59.367  1.00  0.00    -0.144 N 
HETATM   20  O9  UNL     1      51.765  41.809  59.601  1.00  0.00    -0.536 OA
HETATM   21  O10 UNL     1      50.464  43.179  58.387  1.00  0.00    -0.536 OA
ENDBRANCH   6  19
BRANCH   3  22
HETATM   22  O5  UNL     1      52.622  43.489  64.092  1.00  0.00    -0.297 OA
BRANCH  22  23
HETATM   23  C10 UNL     1      52.201  44.075  65.261  1.00  0.00     0.074 A 
HETATM   24  C11 UNL     1      51.679  45.349  65.312  1.00  0.00     0.037 A 
HETATM   25  C12 UNL     1      51.257  45.922  66.512  1.00  0.00     0.003 A 
HETATM   26  C13 UNL     1      51.359  45.210  67.680  1.00  0.00     0.000 A 
HETATM   27  C14 UNL     1      51.874  43.934  67.675  1.00  0.00     0.003 A 
HETATM   28  C15 UNL     1      52.278  43.398  66.482  1.00  0.00     0.037 A 
ENDBRANCH  22  23
ENDBRANCH   3  22
BRANCH   5  29
HETATM   29  C17 UNL     1      54.226  44.778  60.569  1.00  0.00     0.205 C 
HETATM   30  O7  UNL     1      53.977  45.847  59.965  1.00  0.00    -0.646 OA
HETATM   31  O8  UNL     1      55.463  44.666  61.179  1.00  0.00    -0.646 OA
ENDBRANCH   5  29
TORSDOF 9
ENDMDL
MODEL 4
REMARK VINA RESULT: -9.051531915      3.699      8.551
REMARK  9 active torsions:
REMARK  status: ('A' for Active; 'I' for Inactive)
REMARK    1  A    between atoms: C2_2  and  O1_3 
REMARK    2  A    between atoms: O1_3  and  C3_4 
REMARK    3  A    between atoms: C3_4  and  O3_6 
REMARK    4  A    between atoms: O3_6  and  C4_7 
REMARK    5  A    between atoms: C7_10  and  C8_11 
REMARK    6  A    between atoms: C9_13  and  O5_14 
REMARK    7  A    between atoms: O5_14  and  C10_15 
REMARK    8  A    between atoms: C16_22  and  C17_23 
REMARK    9  A    between atoms: C18_26  and  N1_27 
ROOT
HETATM    1  C8  UNL     1      50.761  44.476  60.978  1.00  0.00     0.192 C 
HETATM    2  O4  UNL     1      50.908  43.659  62.096  1.00  0.00    -0.326 OA
HETATM    3  C9  UNL     1      52.257  43.854  62.490  1.00  0.00     0.420 C 
HETATM    4  O6  UNL     1      53.026  43.152  61.571  1.00  0.00    -0.320 OA
HETATM    5  C16 UNL     1      53.021  43.660  60.294  1.00  0.00     0.259 C 
HETATM    6  C18 UNL     1      51.647  44.083  59.825  1.00  0.00     0.229 C 
ENDROOT
BRANCH   1   7
HETATM    7  C7  UNL     1      49.364  44.759  60.609  1.00  0.00    -0.027 A 
HETATM    8  C6  UNL     1      48.330  44.052  61.171  1.00  0.00     0.012 A 
HETATM    9  C5  UNL     1      47.019  44.311  60.820  1.00  0.00     0.038 A 
HETATM   10  C4  UNL     1      46.693  45.281  59.898  1.00  0.00     0.081 A 
HETATM   11  C20 UNL     1      47.716  45.998  59.327  1.00  0.00     0.038 A 
HETATM   12  C19 UNL     1      49.034  45.732  59.687  1.00  0.00     0.012 A 
BRANCH  10  13
HETATM   13  O3  UNL     1      45.353  45.473  59.606  1.00  0.00    -0.255 OA
BRANCH  13  14
HETATM   14  C3  UNL     1      44.594  46.235  60.469  1.00  0.00     0.416 C 
HETATM   15  O2  UNL     1      44.503  47.456  60.279  1.00  0.00    -0.229 OA
BRANCH  14  16
HETATM   16  O1  UNL     1      43.912  45.699  61.558  1.00  0.00    -0.268 OA
BRANCH  16  17
HETATM   17  C2  UNL     1      42.918  46.445  62.181  1.00  0.00     0.137 C 
HETATM   18  C1  UNL     1      42.947  46.502  63.506  1.00  0.00     0.038 C 
ENDBRANCH  16  17
ENDBRANCH  14  16
ENDBRANCH  13  14
ENDBRANCH  10  13
ENDBRANCH   1   7
BRANCH   6  19
HETATM   19  N1  UNL     1      51.104  43.003  59.056  1.00  0.00    -0.144 N 
HETATM   20  O9  UNL     1      50.235  43.209  58.204  1.00  0.00    -0.536 OA
HETATM   21  O10 UNL     1      51.549  41.732  59.266  1.00  0.00    -0.536 OA
ENDBRANCH   6  19
BRANCH   3  22
HETATM   22  O5  UNL     1      52.510  43.347  63.750  1.00  0.00    -0.297 OA
BRANCH  22  23
HETATM   23  C10 UNL     1      52.107  42.136  64.258  1.00  0.00     0.074 A 
HETATM   24  C11 UNL     1      51.687  41.094  63.460  1.00  0.00     0.037 A 
HETATM   25  C12 UNL     1      51.283  39.872  63.999  1.00  0.00     0.003 A 
HETATM   26  C13 UNL     1      51.297  39.691  65.359  1.00  0.00     0.000 A 
HETATM   27  C14 UNL     1      51.709  40.704  66.194  1.00  0.00     0.003 A 
HETATM   28  C15 UNL     1      52.101  41.891  65.634  1.00  0.00     0.037 A 
ENDBRANCH  22  23
ENDBRANCH   3  22
BRANCH   5  29
HETATM   29  C17 UNL     1      53.978  44.786  60.226  1.00  0.00     0.205 C 
HETATM   30  O7  UNL     1      53.713  45.865  59.648  1.00  0.00    -0.646 OA
HETATM   31  O8  UNL     1      55.224  44.669  60.817  1.00  0.00    -0.646 OA
ENDBRANCH   5  29
TORSDOF 9
ENDMDL
MODEL 5
REMARK VINA RESULT: -8.974782918      3.706      8.460
REMARK  9 active torsions:
REMARK  status: ('A' for Active; 'I' for Inactive)
REMARK    1  A    between atoms: C2_2  and  O1_3 
REMARK    2  A    between atoms: O1_3  and  C3_4 
REMARK    3  A    between atoms: C3_4  and  O3_6 
REMARK    4  A    between atoms: O3_6  and  C4_7 
REMARK    5  A    between atoms: C7_10  and  C8_11 
REMARK    6  A    between atoms: C9_13  and  O5_14 
REMARK    7  A    between atoms: O5_14  and  C10_15 
REMARK    8  A    between atoms: C16_22  and  C17_23 
REMARK    9  A    between atoms: C18_26  and  N1_27 
ROOT
HETATM    1  C8  UNL     1      50.509  44.233  61.257  1.00  0.00     0.192 C 
HETATM    2  O4  UNL     1      50.454  42.867  61.527  1.00  0.00    -0.326 OA
HETATM    3  C9  UNL     1      51.781  42.538  61.909  1.00  0.00     0.420 C 
HETATM    4  O6  UNL     1      52.522  42.526  60.735  1.00  0.00    -0.320 OA
HETATM    5  C16 UNL     1      52.689  43.752  60.136  1.00  0.00     0.259 C 
HETATM    6  C18 UNL     1      51.427  44.584  60.115  1.00  0.00     0.229 C 
ENDROOT
BRANCH   1   7
HETATM    7  C7  UNL     1      49.198  44.900  61.216  1.00  0.00    -0.027 A 
HETATM    8  C6  UNL     1      49.051  46.193  61.652  1.00  0.00     0.012 A 
HETATM    9  C5  UNL     1      47.819  46.819  61.621  1.00  0.00     0.038 A 
HETATM   10  C4  UNL     1      46.692  46.177  61.157  1.00  0.00     0.081 A 
HETATM   11  C20 UNL     1      46.822  44.883  60.717  1.00  0.00     0.038 A 
HETATM   12  C19 UNL     1      48.066  44.260  60.750  1.00  0.00     0.012 A 
BRANCH  10  13
HETATM   13  O3  UNL     1      45.499  46.880  61.162  1.00  0.00    -0.255 OA
BRANCH  13  14
HETATM   14  C3  UNL     1      44.324  46.185  60.964  1.00  0.00     0.416 C 
HETATM   15  O2  UNL     1      43.666  46.388  59.935  1.00  0.00    -0.229 OA
BRANCH  14  16
HETATM   16  O1  UNL     1      43.829  45.252  61.873  1.00  0.00    -0.268 OA
BRANCH  16  17
HETATM   17  C2  UNL     1      42.914  45.653  62.839  1.00  0.00     0.137 C 
HETATM   18  C1  UNL     1      41.987  44.773  63.194  1.00  0.00     0.038 C 
ENDBRANCH  16  17
ENDBRANCH  14  16
ENDBRANCH  13  14
ENDBRANCH  10  13
ENDBRANCH   1   7
BRANCH   6  19
HETATM   19  N1  UNL     1      50.810  44.398  58.835  1.00  0.00    -0.144 N 
HETATM   20  O9  UNL     1      50.509  43.269  58.437  1.00  0.00    -0.536 OA
HETATM   21  O10 UNL     1      50.551  45.479  58.046  1.00  0.00    -0.536 OA
ENDBRANCH   6  19
BRANCH   3  22
HETATM   22  O5  UNL     1      51.860  41.287  62.489  1.00  0.00    -0.297 OA
BRANCH  22  23
HETATM   23  C10 UNL     1      51.765  40.980  63.825  1.00  0.00     0.074 A 
HETATM   24  C11 UNL     1      51.335  39.753  64.281  1.00  0.00     0.037 A 
HETATM   25  C12 UNL     1      51.248  39.465  65.643  1.00  0.00     0.003 A 
HETATM   26  C13 UNL     1      51.596  40.420  66.565  1.00  0.00     0.000 A 
HETATM   27  C14 UNL     1      52.031  41.659  66.154  1.00  0.00     0.003 A 
HETATM   28  C15 UNL     1      52.106  41.911  64.810  1.00  0.00     0.037 A 
ENDBRANCH  22  23
ENDBRANCH   3  22
BRANCH   5  29
HETATM   29  C17 UNL     1      53.789  44.468  60.817  1.00  0.00     0.205 C 
HETATM   30  O7  UNL     1      53.603  45.501  61.502  1.00  0.00    -0.646 OA
HETATM   31  O8  UNL     1      55.088  44.001  60.710  1.00  0.00    -0.646 OA
ENDBRANCH   5  29
TORSDOF 9
ENDMDL
