MODEL 1
REMARK VINA RESULT: -8.423392208      0.000      0.000
REMARK  6 active torsions:
REMARK  status: ('A' for Active; 'I' for Inactive)
REMARK    1  A    between atoms: C6_7  and  C7_8 
REMARK    2  A    between atoms: C8_9  and  C9_10 
REMARK    3  A    between atoms: N2_16  and  C11_17 
REMARK    4  A    between atoms: C11_17  and  C12_18 
REMARK    5  A    between atoms: C14_20  and  N3_21 
REMARK    6  A    between atoms: C16_25  and  N4_26 
ROOT
HETATM    1  N1  UNL     1      55.538  46.803  63.752  1.00  0.00    -0.191 NA
HETATM    2  C1  UNL     1      54.504  46.294  63.716  1.00  0.00     0.099 C 
HETATM    3  C2  UNL     1      53.213  45.640  63.661  1.00  0.00     0.045 A 
HETATM    4  C3  UNL     1      52.632  45.195  64.831  1.00  0.00     0.023 A 
HETATM    5  C4  UNL     1      51.399  44.574  64.741  1.00  0.00     0.002 A 
HETATM    6  C5  UNL     1      50.794  44.416  63.526  1.00  0.00     0.014 A 
HETATM    7  C6  UNL     1      51.372  44.857  62.379  1.00  0.00    -0.006 A 
HETATM    8  C18 UNL     1      52.597  45.478  62.444  1.00  0.00     0.036 A 
ENDROOT
BRANCH   7   9
HETATM    9  C7  UNL     1      50.655  44.835  61.051  1.00  0.00     0.072 A 
HETATM   10  C8  UNL     1      50.974  43.851  60.146  1.00  0.00     0.114 A 
HETATM   11  S1  UNL     1      50.071  44.293  58.761  1.00  0.00    -0.020 SA
HETATM   12  C10 UNL     1      49.340  45.681  59.391  1.00  0.00     0.292 A 
HETATM   13  O3  UNL     1      48.514  46.461  58.782  1.00  0.00    -0.259 OA
HETATM   14  N2  UNL     1      49.811  45.788  60.670  1.00  0.00    -0.302 N 
BRANCH  10  15
HETATM   15  C9  UNL     1      51.776  42.616  60.301  1.00  0.00     0.219 C 
HETATM   16  O1  UNL     1      51.871  41.902  59.243  1.00  0.00    -0.643 OA
HETATM   17  O2  UNL     1      52.405  42.144  61.398  1.00  0.00    -0.643 OA
ENDBRANCH  10  15
BRANCH  14  18
HETATM   18  C11 UNL     1      49.373  47.003  61.410  1.00  0.00     0.171 C 
BRANCH  18  19
HETATM   19  C12 UNL     1      48.125  46.782  62.172  1.00  0.00    -0.035 A 
HETATM   20  C13 UNL     1      46.977  46.409  61.520  1.00  0.00     0.045 A 
HETATM   21  C14 UNL     1      45.755  46.192  62.155  1.00  0.00     0.105 A 
HETATM   22  C15 UNL     1      45.700  46.362  63.517  1.00  0.00     0.072 A 
HETATM   23  C16 UNL     1      46.829  46.738  64.213  1.00  0.00     0.105 A 
HETATM   24  C17 UNL     1      48.031  46.945  63.539  1.00  0.00     0.045 A 
BRANCH  21  25
HETATM   25  N3  UNL     1      44.597  45.807  61.439  1.00  0.00    -0.116 N 
HETATM   26  O4  UNL     1      43.633  45.278  61.981  1.00  0.00    -0.532 OA
HETATM   27  O5  UNL     1      44.523  46.025  60.073  1.00  0.00    -0.532 OA
ENDBRANCH  21  25
BRANCH  23  28
HETATM   28  N4  UNL     1      46.742  46.909  65.625  1.00  0.00    -0.116 N 
HETATM   29  O6  UNL     1      47.697  47.354  66.276  1.00  0.00    -0.532 OA
HETATM   30  O7  UNL     1      45.587  46.576  66.282  1.00  0.00    -0.532 OA
ENDBRANCH  23  28
ENDBRANCH  18  19
ENDBRANCH  14  18
ENDBRANCH   7   9
TORSDOF 6
ENDMDL
MODEL 2
REMARK VINA RESULT: -8.293635261      2.181      4.135
REMARK  6 active torsions:
REMARK  status: ('A' for Active; 'I' for Inactive)
REMARK    1  A    between atoms: C6_7  and  C7_8 
REMARK    2  A    between atoms: C8_9  and  C9_10 
REMARK    3  A    between atoms: N2_16  and  C11_17 
REMARK    4  A    between atoms: C11_17  and  C12_18 
REMARK    5  A    between atoms: C14_20  and  N3_21 
REMARK    6  A    between atoms: C16_25  and  N4_26 
ROOT
HETATM    1  N1  UNL     1      47.686  43.623  58.482  1.00  0.00    -0.191 NA
HETATM    2  C1  UNL     1      48.686  43.988  58.925  1.00  0.00     0.099 C 
HETATM    3  C2  UNL     1      49.947  44.428  59.485  1.00  0.00     0.045 A 
HETATM    4  C3  UNL     1      50.861  45.066  58.670  1.00  0.00     0.023 A 
HETATM    5  C4  UNL     1      52.054  45.472  59.238  1.00  0.00     0.002 A 
HETATM    6  C5  UNL     1      52.303  45.240  60.561  1.00  0.00     0.014 A 
HETATM    7  C6  UNL     1      51.399  44.612  61.357  1.00  0.00    -0.006 A 
HETATM    8  C18 UNL     1      50.204  44.200  60.815  1.00  0.00     0.036 A 
ENDROOT
BRANCH   7   9
HETATM    9  C7  UNL     1      51.585  44.486  62.850  1.00  0.00     0.072 A 
HETATM   10  C8  UNL     1      52.071  43.304  63.355  1.00  0.00     0.114 A 
HETATM   11  S1  UNL     1      51.965  43.537  65.048  1.00  0.00    -0.020 SA
HETATM   12  C10 UNL     1      51.324  45.101  65.030  1.00  0.00     0.292 A 
HETATM   13  O3  UNL     1      51.027  45.824  66.055  1.00  0.00    -0.259 OA
HETATM   14  N2  UNL     1      51.193  45.422  63.707  1.00  0.00    -0.302 N 
BRANCH  10  15
HETATM   15  C9  UNL     1      52.680  42.138  62.676  1.00  0.00     0.219 C 
HETATM   16  O1  UNL     1      52.113  41.018  62.922  1.00  0.00    -0.643 OA
HETATM   17  O2  UNL     1      53.746  42.099  61.849  1.00  0.00    -0.643 OA
ENDBRANCH  10  15
BRANCH  14  18
HETATM   18  C11 UNL     1      50.553  46.738  63.432  1.00  0.00     0.171 C 
BRANCH  18  19
HETATM   19  C12 UNL     1      49.077  46.666  63.463  1.00  0.00    -0.035 A 
HETATM   20  C13 UNL     1      48.377  46.384  62.318  1.00  0.00     0.045 A 
HETATM   21  C14 UNL     1      46.986  46.309  62.253  1.00  0.00     0.105 A 
HETATM   22  C15 UNL     1      46.276  46.532  63.408  1.00  0.00     0.072 A 
HETATM   23  C16 UNL     1      46.939  46.821  64.582  1.00  0.00     0.105 A 
HETATM   24  C17 UNL     1      48.330  46.886  64.603  1.00  0.00     0.045 A 
BRANCH  21  25
HETATM   25  N3  UNL     1      46.307  46.013  61.048  1.00  0.00    -0.116 N 
HETATM   26  O4  UNL     1      46.624  46.512  59.973  1.00  0.00    -0.532 OA
HETATM   27  O5  UNL     1      45.241  45.130  61.053  1.00  0.00    -0.532 OA
ENDBRANCH  21  25
BRANCH  23  28
HETATM   28  N4  UNL     1      46.176  47.048  65.764  1.00  0.00    -0.116 N 
HETATM   29  O6  UNL     1      46.716  47.440  66.808  1.00  0.00    -0.532 OA
HETATM   30  O7  UNL     1      44.824  46.832  65.756  1.00  0.00    -0.532 OA
ENDBRANCH  23  28
ENDBRANCH  18  19
ENDBRANCH  14  18
ENDBRANCH   7   9
TORSDOF 6
ENDMDL
MODEL 3
REMARK VINA RESULT: -8.283568555      3.536      7.764
REMARK  6 active torsions:
REMARK  status: ('A' for Active; 'I' for Inactive)
REMARK    1  A    between atoms: C6_7  and  C7_8 
REMARK    2  A    between atoms: C8_9  and  C9_10 
REMARK    3  A    between atoms: N2_16  and  C11_17 
REMARK    4  A    between atoms: C11_17  and  C12_18 
REMARK    5  A    between atoms: C14_20  and  N3_21 
REMARK    6  A    between atoms: C16_25  and  N4_26 
ROOT
HETATM    1  N1  UNL     1      51.509  45.807  58.489  1.00  0.00    -0.191 NA
HETATM    2  C1  UNL     1      50.900  45.527  59.427  1.00  0.00     0.099 C 
HETATM    3  C2  UNL     1      50.134  45.193  60.611  1.00  0.00     0.045 A 
HETATM    4  C3  UNL     1      48.887  44.620  60.467  1.00  0.00     0.023 A 
HETATM    5  C4  UNL     1      48.183  44.315  61.618  1.00  0.00     0.002 A 
HETATM    6  C5  UNL     1      48.721  44.582  62.846  1.00  0.00     0.014 A 
HETATM    7  C6  UNL     1      49.949  45.146  62.979  1.00  0.00    -0.006 A 
HETATM    8  C18 UNL     1      50.668  45.456  61.849  1.00  0.00     0.036 A 
ENDROOT
BRANCH   7   9
HETATM    9  C7  UNL     1      50.626  45.303  64.319  1.00  0.00     0.072 A 
HETATM   10  C8  UNL     1      50.529  46.511  64.968  1.00  0.00     0.114 A 
HETATM   11  S1  UNL     1      51.551  46.303  66.325  1.00  0.00    -0.020 SA
HETATM   12  C10 UNL     1      52.039  44.716  66.009  1.00  0.00     0.292 A 
HETATM   13  O3  UNL     1      52.839  43.999  66.722  1.00  0.00    -0.259 OA
HETATM   14  N2  UNL     1      51.406  44.368  64.848  1.00  0.00    -0.302 N 
BRANCH  10  15
HETATM   15  C9  UNL     1      49.671  47.688  64.700  1.00  0.00     0.219 C 
HETATM   16  O1  UNL     1      48.480  47.599  65.157  1.00  0.00    -0.643 OA
HETATM   17  O2  UNL     1      49.974  48.827  64.040  1.00  0.00    -0.643 OA
ENDBRANCH  10  15
BRANCH  14  18
HETATM   18  C11 UNL     1      51.756  43.024  64.310  1.00  0.00     0.171 C 
BRANCH  18  19
HETATM   19  C12 UNL     1      52.643  43.101  63.129  1.00  0.00    -0.035 A 
HETATM   20  C13 UNL     1      53.845  43.754  63.213  1.00  0.00     0.045 A 
HETATM   21  C14 UNL     1      54.736  43.886  62.148  1.00  0.00     0.105 A 
HETATM   22  C15 UNL     1      54.385  43.327  60.944  1.00  0.00     0.072 A 
HETATM   23  C16 UNL     1      53.184  42.663  60.814  1.00  0.00     0.105 A 
HETATM   24  C17 UNL     1      52.323  42.554  61.903  1.00  0.00     0.045 A 
BRANCH  21  25
HETATM   25  N3  UNL     1      55.968  44.569  62.283  1.00  0.00    -0.116 N 
HETATM   26  O4  UNL     1      56.451  45.242  61.379  1.00  0.00    -0.532 OA
HETATM   27  O5  UNL     1      56.676  44.491  63.471  1.00  0.00    -0.532 OA
ENDBRANCH  21  25
BRANCH  23  28
HETATM   28  N4  UNL     1      52.846  42.094  59.552  1.00  0.00    -0.116 N 
HETATM   29  O6  UNL     1      53.720  41.640  58.800  1.00  0.00    -0.532 OA
HETATM   30  O7  UNL     1      51.536  42.045  59.154  1.00  0.00    -0.532 OA
ENDBRANCH  23  28
ENDBRANCH  18  19
ENDBRANCH  14  18
ENDBRANCH   7   9
TORSDOF 6
ENDMDL
MODEL 4
REMARK VINA RESULT: -8.259910875      3.329      6.103
REMARK  6 active torsions:
REMARK  status: ('A' for Active; 'I' for Inactive)
REMARK    1  A    between atoms: C6_7  and  C7_8 
REMARK    2  A    between atoms: C8_9  and  C9_10 
REMARK    3  A    between atoms: N2_16  and  C11_17 
REMARK    4  A    between atoms: C11_17  and  C12_18 
REMARK    5  A    between atoms: C14_20  and  N3_21 
REMARK    6  A    between atoms: C16_25  and  N4_26 
ROOT
HETATM    1  N1  UNL     1      56.575  47.396  62.198  1.00  0.00    -0.191 NA
HETATM    2  C1  UNL     1      55.901  46.466  62.107  1.00  0.00     0.099 C 
HETATM    3  C2  UNL     1      55.048  45.302  61.975  1.00  0.00     0.045 A 
HETATM    4  C3  UNL     1      55.618  44.045  61.982  1.00  0.00     0.023 A 
HETATM    5  C4  UNL     1      54.774  42.956  61.853  1.00  0.00     0.002 A 
HETATM    6  C5  UNL     1      53.426  43.140  61.724  1.00  0.00     0.014 A 
HETATM    7  C6  UNL     1      52.874  44.381  61.719  1.00  0.00    -0.006 A 
HETATM    8  C18 UNL     1      53.692  45.478  61.846  1.00  0.00     0.036 A 
ENDROOT
BRANCH   7   9
HETATM    9  C7  UNL     1      51.380  44.601  61.736  1.00  0.00     0.072 A 
HETATM   10  C8  UNL     1      50.678  44.443  60.565  1.00  0.00     0.114 A 
HETATM   11  S1  UNL     1      49.096  44.938  60.994  1.00  0.00    -0.020 SA
HETATM   12  C10 UNL     1      49.399  45.310  62.615  1.00  0.00     0.292 A 
HETATM   13  O3  UNL     1      48.546  45.743  63.479  1.00  0.00    -0.259 OA
HETATM   14  N2  UNL     1      50.729  45.050  62.802  1.00  0.00    -0.302 N 
BRANCH  10  15
HETATM   15  C9  UNL     1      51.083  43.866  59.263  1.00  0.00     0.219 C 
HETATM   16  O1  UNL     1      51.107  42.587  59.227  1.00  0.00    -0.643 OA
HETATM   17  O2  UNL     1      51.432  44.501  58.124  1.00  0.00    -0.643 OA
ENDBRANCH  10  15
BRANCH  14  18
HETATM   18  C11 UNL     1      51.260  45.393  64.150  1.00  0.00     0.171 C 
BRANCH  18  19
HETATM   19  C12 UNL     1      51.603  44.193  64.944  1.00  0.00    -0.035 A 
HETATM   20  C13 UNL     1      52.164  44.329  66.188  1.00  0.00     0.045 A 
HETATM   21  C14 UNL     1      52.531  43.255  66.998  1.00  0.00     0.105 A 
HETATM   22  C15 UNL     1      52.315  41.986  66.520  1.00  0.00     0.072 A 
HETATM   23  C16 UNL     1      51.755  41.803  65.274  1.00  0.00     0.105 A 
HETATM   24  C17 UNL     1      51.404  42.903  64.495  1.00  0.00     0.045 A 
BRANCH  21  25
HETATM   25  N3  UNL     1      53.106  43.444  68.277  1.00  0.00    -0.116 N 
HETATM   26  O4  UNL     1      54.081  42.808  68.663  1.00  0.00    -0.532 OA
HETATM   27  O5  UNL     1      52.567  44.378  69.147  1.00  0.00    -0.532 OA
ENDBRANCH  21  25
BRANCH  23  28
HETATM   28  N4  UNL     1      51.545  40.475  64.803  1.00  0.00    -0.116 N 
HETATM   29  O6  UNL     1      51.658  40.196  63.600  1.00  0.00    -0.532 OA
HETATM   30  O7  UNL     1      51.210  39.482  65.685  1.00  0.00    -0.532 OA
ENDBRANCH  23  28
ENDBRANCH  18  19
ENDBRANCH  14  18
ENDBRANCH   7   9
TORSDOF 6
ENDMDL
MODEL 5
REMARK VINA RESULT: -8.218957562      0.208      2.737
REMARK  6 active torsions:
REMARK  status: ('A' for Active; 'I' for Inactive)
REMARK    1  A    between atoms: C6_7  and  C7_8 
REMARK    2  A    between atoms: C8_9  and  C9_10 
REMARK    3  A    between atoms: N2_16  and  C11_17 
REMARK    4  A    between atoms: C11_17  and  C12_18 
REMARK    5  A    between atoms: C14_20  and  N3_21 
REMARK    6  A    between atoms: C16_25  and  N4_26 
ROOT
HETATM    1  N1  UNL     1      55.754  46.539  63.390  1.00  0.00    -0.191 NA
HETATM    2  C1  UNL     1      54.679  46.125  63.425  1.00  0.00     0.099 C 
HETATM    3  C2  UNL     1      53.334  45.588  63.461  1.00  0.00     0.045 A 
HETATM    4  C3  UNL     1      52.760  45.288  64.679  1.00  0.00     0.023 A 
HETATM    5  C4  UNL     1      51.475  44.777  64.675  1.00  0.00     0.002 A 
HETATM    6  C5  UNL     1      50.813  44.582  63.495  1.00  0.00     0.014 A 
HETATM    7  C6  UNL     1      51.385  44.881  62.300  1.00  0.00    -0.006 A 
HETATM    8  C18 UNL     1      52.661  45.392  62.279  1.00  0.00     0.036 A 
ENDROOT
BRANCH   7   9
HETATM    9  C7  UNL     1      50.619  44.824  61.000  1.00  0.00     0.072 A 
HETATM   10  C8  UNL     1      50.924  43.832  60.100  1.00  0.00     0.114 A 
HETATM   11  S1  UNL     1      49.962  44.234  58.742  1.00  0.00    -0.020 SA
HETATM   12  C10 UNL     1      49.228  45.618  59.377  1.00  0.00     0.292 A 
HETATM   13  O3  UNL     1      48.366  46.373  58.788  1.00  0.00    -0.259 OA
HETATM   14  N2  UNL     1      49.744  45.755  60.636  1.00  0.00    -0.302 N 
BRANCH  10  15
HETATM   15  C9  UNL     1      51.754  42.614  60.244  1.00  0.00     0.219 C 
HETATM   16  O1  UNL     1      52.095  42.064  59.140  1.00  0.00    -0.643 OA
HETATM   17  O2  UNL     1      52.187  42.010  61.371  1.00  0.00    -0.643 OA
ENDBRANCH  10  15
BRANCH  14  18
HETATM   18  C11 UNL     1      49.311  46.973  61.373  1.00  0.00     0.171 C 
BRANCH  18  19
HETATM   19  C12 UNL     1      48.038  46.773  62.099  1.00  0.00    -0.035 A 
HETATM   20  C13 UNL     1      47.991  46.926  63.461  1.00  0.00     0.045 A 
HETATM   21  C14 UNL     1      46.839  46.744  64.226  1.00  0.00     0.105 A 
HETATM   22  C15 UNL     1      45.684  46.390  63.573  1.00  0.00     0.072 A 
HETATM   23  C16 UNL     1      45.686  46.223  62.205  1.00  0.00     0.105 A 
HETATM   24  C17 UNL     1      46.858  46.414  61.478  1.00  0.00     0.045 A 
BRANCH  21  25
HETATM   25  N3  UNL     1      46.839  46.915  65.631  1.00  0.00    -0.116 N 
HETATM   26  O4  UNL     1      45.837  46.741  66.316  1.00  0.00    -0.532 OA
HETATM   27  O5  UNL     1      48.001  47.293  66.282  1.00  0.00    -0.532 OA
ENDBRANCH  21  25
BRANCH  23  28
HETATM   28  N4  UNL     1      44.472  45.854  61.555  1.00  0.00    -0.116 N 
HETATM   29  O6  UNL     1      43.491  45.466  62.205  1.00  0.00    -0.532 OA
HETATM   30  O7  UNL     1      44.380  45.924  60.191  1.00  0.00    -0.532 OA
ENDBRANCH  23  28
ENDBRANCH  18  19
ENDBRANCH  14  18
ENDBRANCH   7   9
TORSDOF 6
ENDMDL
