MODEL 1
REMARK VINA RESULT: -7.263272023      0.000      0.000
REMARK  9 active torsions:
REMARK  status: ('A' for Active; 'I' for Inactive)
REMARK    1  A    between atoms: O1_2  and  C2_3 
REMARK    2  A    between atoms: C5_6  and  C6_7 
REMARK    3  A    between atoms: C6_7  and  N1_8 
REMARK    4  A    between atoms: N1_8  and  N2_10 
REMARK    5  A    between atoms: C7_11  and  S1_12 
REMARK    6  A    between atoms: S1_12  and  N3_14 
REMARK    7  A    between atoms: S1_12  and  C9_18 
REMARK    8  A    between atoms: N3_14  and  C8_16 
REMARK    9  A    between atoms: C17_29  and  O4_30 
ROOT
HETATM    1  N2  UNL     1      49.156  44.846  61.738  1.00  0.00    -0.195 N 
HETATM    2  C7  UNL     1      50.343  44.466  61.340  1.00  0.00     0.207 A 
HETATM    3  N4  UNL     1      50.703  44.143  60.120  1.00  0.00    -0.337 N 
ATOM      4  H4  UNL     1      51.658  43.856  59.904  1.00  0.00     0.168 HD
HETATM    5  C13 UNL     1      49.740  44.209  59.152  1.00  0.00     0.013 A 
HETATM    6  C14 UNL     1      50.032  43.869  57.741  1.00  0.00     0.068 C 
HETATM    7  C15 UNL     1      48.461  44.604  59.495  1.00  0.00     0.101 A 
HETATM    8  C16 UNL     1      48.155  44.929  60.808  1.00  0.00     0.270 A 
HETATM    9  O3  UNL     1      47.007  45.282  61.110  1.00  0.00    -0.266 OA
ENDROOT
BRANCH   1  10
HETATM   10  N1  UNL     1      48.846  45.172  63.049  1.00  0.00    -0.299 N 
ATOM     11  H1  UNL     1      48.697  44.425  63.728  1.00  0.00     0.186 HD
BRANCH  10  12
HETATM   12  C6  UNL     1      48.741  46.418  63.430  1.00  0.00     0.122 C 
BRANCH  12  13
HETATM   13  C5  UNL     1      47.758  46.792  64.439  1.00  0.00     0.014 A 
HETATM   14  C4  UNL     1      46.419  46.619  64.196  1.00  0.00     0.018 A 
HETATM   15  C3  UNL     1      45.510  46.972  65.153  1.00  0.00     0.038 A 
HETATM   16  C2  UNL     1      45.907  47.502  66.368  1.00  0.00     0.070 A 
HETATM   17  C19 UNL     1      47.260  47.662  66.576  1.00  0.00     0.074 A 
HETATM   18  C17 UNL     1      48.200  47.319  65.641  1.00  0.00     0.082 A 
BRANCH  16  19
HETATM   19  O1  UNL     1      44.964  47.848  67.307  1.00  0.00    -0.356 OA
HETATM   20  C1  UNL     1      44.904  47.137  68.515  1.00  0.00     0.210 C 
ENDBRANCH  16  19
BRANCH  18  21
HETATM   21  O4  UNL     1      49.555  47.498  65.894  1.00  0.00    -0.355 OA
HETATM   22  C18 UNL     1      50.172  46.833  66.961  1.00  0.00     0.210 C 
ENDBRANCH  18  21
ENDBRANCH  12  13
ENDBRANCH  10  12
ENDBRANCH   1  10
BRANCH   2  23
HETATM   23  S1  UNL     1      51.879  44.348  62.689  1.00  0.00     0.098 S 
HETATM   24  O2  UNL     1      51.415  44.237  64.381  1.00  0.00    -0.241 OA
BRANCH  23  25
HETATM   25  N3  UNL     1      51.517  42.512  62.622  1.00  0.00    -0.310 N 
ATOM     26  H3  UNL     1      51.371  42.145  61.681  1.00  0.00     0.176 HD
BRANCH  25  27
HETATM   27  C8  UNL     1      51.425  41.672  63.517  1.00  0.00     0.178 C 
HETATM   28  S2  UNL     1      51.373  40.226  64.266  1.00  0.00    -0.074 SA
ENDBRANCH  25  27
ENDBRANCH  23  25
BRANCH  23  29
HETATM   29  C9  UNL     1      53.550  44.119  61.929  1.00  0.00     0.041 C 
HETATM   30  C10 UNL     1      53.809  42.895  61.029  1.00  0.00     0.030 C 
HETATM   31  C11 UNL     1      54.655  43.969  62.992  1.00  0.00     0.030 C 
HETATM   32  C12 UNL     1      53.949  45.326  61.104  1.00  0.00     0.030 C 
ENDBRANCH  23  29
ENDBRANCH   2  23
TORSDOF 9
ENDMDL
MODEL 2
REMARK VINA RESULT: -7.184376532      1.568      2.463
REMARK  9 active torsions:
REMARK  status: ('A' for Active; 'I' for Inactive)
REMARK    1  A    between atoms: O1_2  and  C2_3 
REMARK    2  A    between atoms: C5_6  and  C6_7 
REMARK    3  A    between atoms: C6_7  and  N1_8 
REMARK    4  A    between atoms: N1_8  and  N2_10 
REMARK    5  A    between atoms: C7_11  and  S1_12 
REMARK    6  A    between atoms: S1_12  and  N3_14 
REMARK    7  A    between atoms: S1_12  and  C9_18 
REMARK    8  A    between atoms: N3_14  and  C8_16 
REMARK    9  A    between atoms: C17_29  and  O4_30 
ROOT
HETATM    1  N2  UNL     1      50.354  45.375  61.654  1.00  0.00    -0.195 N 
HETATM    2  C7  UNL     1      51.631  45.158  61.844  1.00  0.00     0.207 A 
HETATM    3  N4  UNL     1      52.550  44.992  60.922  1.00  0.00    -0.337 N 
ATOM      4  H4  UNL     1      53.527  44.827  61.166  1.00  0.00     0.168 HD
HETATM    5  C13 UNL     1      52.140  45.052  59.620  1.00  0.00     0.013 A 
HETATM    6  C14 UNL     1      53.090  44.880  58.497  1.00  0.00     0.068 C 
HETATM    7  C15 UNL     1      50.806  45.280  59.340  1.00  0.00     0.101 A 
HETATM    8  C16 UNL     1      49.891  45.445  60.368  1.00  0.00     0.270 A 
HETATM    9  O3  UNL     1      48.697  45.647  60.112  1.00  0.00    -0.266 OA
ENDROOT
BRANCH   1  10
HETATM   10  N1  UNL     1      49.437  45.540  62.679  1.00  0.00    -0.299 N 
ATOM     11  H1  UNL     1      48.972  44.721  63.072  1.00  0.00     0.186 HD
BRANCH  10  12
HETATM   12  C6  UNL     1      49.156  46.726  63.152  1.00  0.00     0.122 C 
BRANCH  12  13
HETATM   13  C5  UNL     1      48.026  46.903  64.056  1.00  0.00     0.014 A 
HETATM   14  C4  UNL     1      48.234  47.314  65.348  1.00  0.00     0.018 A 
HETATM   15  C3  UNL     1      47.165  47.477  66.183  1.00  0.00     0.038 A 
HETATM   16  C2  UNL     1      45.870  47.238  65.757  1.00  0.00     0.070 A 
HETATM   17  C19 UNL     1      45.701  46.825  64.453  1.00  0.00     0.074 A 
HETATM   18  C17 UNL     1      46.748  46.651  63.587  1.00  0.00     0.082 A 
BRANCH  16  19
HETATM   19  O1  UNL     1      44.819  47.412  66.625  1.00  0.00    -0.356 OA
HETATM   20  C1  UNL     1      45.065  47.916  67.911  1.00  0.00     0.210 C 
ENDBRANCH  16  19
BRANCH  18  21
HETATM   21  O4  UNL     1      46.529  46.234  62.280  1.00  0.00    -0.355 OA
HETATM   22  C18 UNL     1      45.235  46.219  61.746  1.00  0.00     0.210 C 
ENDBRANCH  18  21
ENDBRANCH  12  13
ENDBRANCH  10  12
ENDBRANCH   1  10
BRANCH   2  23
HETATM   23  S1  UNL     1      52.377  45.069  63.749  1.00  0.00     0.098 S 
HETATM   24  O2  UNL     1      51.240  44.593  65.002  1.00  0.00    -0.241 OA
BRANCH  23  25
HETATM   25  N3  UNL     1      52.514  43.237  63.383  1.00  0.00    -0.310 N 
ATOM     26  H3  UNL     1      53.107  43.009  62.585  1.00  0.00     0.176 HD
BRANCH  25  27
HETATM   27  C8  UNL     1      52.012  42.261  63.940  1.00  0.00     0.178 C 
HETATM   28  S2  UNL     1      51.577  40.720  64.240  1.00  0.00    -0.074 SA
ENDBRANCH  25  27
ENDBRANCH  23  25
BRANCH  23  29
HETATM   29  C9  UNL     1      54.213  45.256  63.862  1.00  0.00     0.041 C 
HETATM   30  C10 UNL     1      55.122  44.238  63.146  1.00  0.00     0.030 C 
HETATM   31  C11 UNL     1      54.718  45.165  65.314  1.00  0.00     0.030 C 
HETATM   32  C12 UNL     1      54.658  46.620  63.369  1.00  0.00     0.030 C 
ENDBRANCH  23  29
ENDBRANCH   2  23
TORSDOF 9
ENDMDL
MODEL 3
REMARK VINA RESULT: -7.180505794      0.957      1.992
REMARK  9 active torsions:
REMARK  status: ('A' for Active; 'I' for Inactive)
REMARK    1  A    between atoms: O1_2  and  C2_3 
REMARK    2  A    between atoms: C5_6  and  C6_7 
REMARK    3  A    between atoms: C6_7  and  N1_8 
REMARK    4  A    between atoms: N1_8  and  N2_10 
REMARK    5  A    between atoms: C7_11  and  S1_12 
REMARK    6  A    between atoms: S1_12  and  N3_14 
REMARK    7  A    between atoms: S1_12  and  C9_18 
REMARK    8  A    between atoms: N3_14  and  C8_16 
REMARK    9  A    between atoms: C17_29  and  O4_30 
ROOT
HETATM    1  N2  UNL     1      48.844  44.874  61.365  1.00  0.00    -0.195 N 
HETATM    2  C7  UNL     1      50.090  44.561  61.114  1.00  0.00     0.207 A 
HETATM    3  N4  UNL     1      50.605  44.239  59.950  1.00  0.00    -0.337 N 
ATOM      4  H4  UNL     1      51.594  44.008  59.850  1.00  0.00     0.168 HD
HETATM    5  C13 UNL     1      49.757  44.227  58.879  1.00  0.00     0.013 A 
HETATM    6  C14 UNL     1      50.227  43.880  57.518  1.00  0.00     0.068 C 
HETATM    7  C15 UNL     1      48.425  44.548  59.065  1.00  0.00     0.101 A 
HETATM    8  C16 UNL     1      47.953  44.877  60.327  1.00  0.00     0.270 A 
HETATM    9  O3  UNL     1      46.759  45.163  60.489  1.00  0.00    -0.266 OA
ENDROOT
BRANCH   1  10
HETATM   10  N1  UNL     1      48.368  45.203  62.624  1.00  0.00    -0.299 N 
ATOM     11  H1  UNL     1      48.190  44.462  63.302  1.00  0.00     0.186 HD
BRANCH  10  12
HETATM   12  C6  UNL     1      48.144  46.447  62.959  1.00  0.00     0.122 C 
BRANCH  12  13
HETATM   13  C5  UNL     1      47.297  46.752  64.106  1.00  0.00     0.014 A 
HETATM   14  C4  UNL     1      47.861  47.139  65.295  1.00  0.00     0.018 A 
HETATM   15  C3  UNL     1      47.054  47.425  66.361  1.00  0.00     0.038 A 
HETATM   16  C2  UNL     1      45.676  47.334  66.270  1.00  0.00     0.070 A 
HETATM   17  C19 UNL     1      45.147  46.942  65.060  1.00  0.00     0.074 A 
HETATM   18  C17 UNL     1      45.924  46.648  63.970  1.00  0.00     0.082 A 
BRANCH  16  19
HETATM   19  O1  UNL     1      44.896  47.628  67.363  1.00  0.00    -0.356 OA
HETATM   20  C1  UNL     1      45.127  46.958  68.573  1.00  0.00     0.210 C 
ENDBRANCH  16  19
BRANCH  18  21
HETATM   21  O4  UNL     1      45.346  46.256  62.768  1.00  0.00    -0.355 OA
HETATM   22  C18 UNL     1      43.953  46.251  62.618  1.00  0.00     0.210 C 
ENDBRANCH  18  21
ENDBRANCH  12  13
ENDBRANCH  10  12
ENDBRANCH   1  10
BRANCH   2  23
HETATM   23  S1  UNL     1      51.467  44.564  62.629  1.00  0.00     0.098 S 
HETATM   24  O2  UNL     1      50.818  44.609  64.262  1.00  0.00    -0.241 OA
BRANCH  23  25
HETATM   25  N3  UNL     1      51.091  42.730  62.689  1.00  0.00    -0.310 N 
ATOM     26  H3  UNL     1      50.695  42.352  61.829  1.00  0.00     0.176 HD
BRANCH  25  27
HETATM   27  C8  UNL     1      51.241  41.902  63.588  1.00  0.00     0.178 C 
HETATM   28  S2  UNL     1      51.467  40.473  64.337  1.00  0.00    -0.074 SA
ENDBRANCH  25  27
ENDBRANCH  23  25
BRANCH  23  29
HETATM   29  C9  UNL     1      53.208  44.262  62.083  1.00  0.00     0.041 C 
HETATM   30  C10 UNL     1      53.543  42.975  61.303  1.00  0.00     0.030 C 
HETATM   31  C11 UNL     1      54.182  44.174  63.273  1.00  0.00     0.030 C 
HETATM   32  C12 UNL     1      53.722  45.404  61.228  1.00  0.00     0.030 C 
ENDBRANCH  23  29
ENDBRANCH   2  23
TORSDOF 9
ENDMDL
MODEL 4
REMARK VINA RESULT: -7.159327088      2.908      4.835
REMARK  9 active torsions:
REMARK  status: ('A' for Active; 'I' for Inactive)
REMARK    1  A    between atoms: O1_2  and  C2_3 
REMARK    2  A    between atoms: C5_6  and  C6_7 
REMARK    3  A    between atoms: C6_7  and  N1_8 
REMARK    4  A    between atoms: N1_8  and  N2_10 
REMARK    5  A    between atoms: C7_11  and  S1_12 
REMARK    6  A    between atoms: S1_12  and  N3_14 
REMARK    7  A    between atoms: S1_12  and  C9_18 
REMARK    8  A    between atoms: N3_14  and  C8_16 
REMARK    9  A    between atoms: C17_29  and  O4_30 
ROOT
HETATM    1  N2  UNL     1      51.979  44.568  60.668  1.00  0.00    -0.195 N 
HETATM    2  C7  UNL     1      52.395  44.790  61.888  1.00  0.00     0.207 A 
HETATM    3  N4  UNL     1      53.598  45.163  62.258  1.00  0.00    -0.337 N 
ATOM      4  H4  UNL     1      53.832  45.313  63.240  1.00  0.00     0.168 HD
HETATM    5  C13 UNL     1      54.523  45.342  61.268  1.00  0.00     0.013 A 
HETATM    6  C14 UNL     1      55.911  45.762  61.568  1.00  0.00     0.068 C 
HETATM    7  C15 UNL     1      54.158  45.127  59.953  1.00  0.00     0.101 A 
HETATM    8  C16 UNL     1      52.866  44.733  59.639  1.00  0.00     0.270 A 
HETATM    9  O3  UNL     1      52.544  44.541  58.459  1.00  0.00    -0.266 OA
ENDROOT
BRANCH   1  10
HETATM   10  N1  UNL     1      50.689  44.174  60.349  1.00  0.00    -0.299 N 
ATOM     11  H1  UNL     1      50.308  43.325  60.768  1.00  0.00     0.186 HD
BRANCH  10  12
HETATM   12  C6  UNL     1      49.953  44.869  59.524  1.00  0.00     0.122 C 
BRANCH  12  13
HETATM   13  C5  UNL     1      48.556  45.141  59.842  1.00  0.00     0.014 A 
HETATM   14  C4  UNL     1      47.556  44.490  59.166  1.00  0.00     0.018 A 
HETATM   15  C3  UNL     1      46.251  44.754  59.478  1.00  0.00     0.038 A 
HETATM   16  C2  UNL     1      45.912  45.666  60.462  1.00  0.00     0.070 A 
HETATM   17  C19 UNL     1      46.945  46.300  61.118  1.00  0.00     0.074 A 
HETATM   18  C17 UNL     1      48.264  46.061  60.834  1.00  0.00     0.082 A 
BRANCH  16  19
HETATM   19  O1  UNL     1      44.589  45.907  60.748  1.00  0.00    -0.356 OA
HETATM   20  C1  UNL     1      43.969  47.048  60.220  1.00  0.00     0.210 C 
ENDBRANCH  16  19
BRANCH  18  21
HETATM   21  O4  UNL     1      49.272  46.725  61.522  1.00  0.00    -0.355 OA
HETATM   22  C18 UNL     1      48.978  47.462  62.676  1.00  0.00     0.210 C 
ENDBRANCH  18  21
ENDBRANCH  12  13
ENDBRANCH  10  12
ENDBRANCH   1  10
BRANCH   2  23
HETATM   23  S1  UNL     1      51.099  44.580  63.460  1.00  0.00     0.098 S 
HETATM   24  O2  UNL     1      49.675  43.594  63.160  1.00  0.00    -0.241 OA
BRANCH  23  25
HETATM   25  N3  UNL     1      51.993  42.952  63.704  1.00  0.00    -0.310 N 
ATOM     26  H3  UNL     1      52.988  43.044  63.912  1.00  0.00     0.176 HD
BRANCH  25  27
HETATM   27  C8  UNL     1      51.587  41.791  63.658  1.00  0.00     0.178 C 
HETATM   28  S2  UNL     1      51.244  40.265  64.115  1.00  0.00    -0.074 SA
ENDBRANCH  25  27
ENDBRANCH  23  25
BRANCH  23  29
HETATM   29  C9  UNL     1      51.729  45.248  65.066  1.00  0.00     0.041 C 
HETATM   30  C10 UNL     1      53.024  46.083  65.081  1.00  0.00     0.030 C 
HETATM   31  C11 UNL     1      52.062  44.128  66.069  1.00  0.00     0.030 C 
HETATM   32  C12 UNL     1      50.682  46.103  65.754  1.00  0.00     0.030 C 
ENDBRANCH  23  29
ENDBRANCH   2  23
TORSDOF 9
ENDMDL
MODEL 5
REMARK VINA RESULT: -7.128761783      2.527      4.703
REMARK  9 active torsions:
REMARK  status: ('A' for Active; 'I' for Inactive)
REMARK    1  A    between atoms: O1_2  and  C2_3 
REMARK    2  A    between atoms: C5_6  and  C6_7 
REMARK    3  A    between atoms: C6_7  and  N1_8 
REMARK    4  A    between atoms: N1_8  and  N2_10 
REMARK    5  A    between atoms: C7_11  and  S1_12 
REMARK    6  A    between atoms: S1_12  and  N3_14 
REMARK    7  A    between atoms: S1_12  and  C9_18 
REMARK    8  A    between atoms: N3_14  and  C8_16 
REMARK    9  A    between atoms: C17_29  and  O4_30 
ROOT
HETATM    1  N2  UNL     1      50.100  46.798  64.291  1.00  0.00    -0.195 N 
HETATM    2  C7  UNL     1      51.145  46.214  63.761  1.00  0.00     0.207 A 
HETATM    3  N4  UNL     1      52.389  46.630  63.801  1.00  0.00    -0.337 N 
ATOM      4  H4  UNL     1      53.142  46.105  63.356  1.00  0.00     0.168 HD
HETATM    5  C13 UNL     1      52.630  47.799  64.467  1.00  0.00     0.013 A 
HETATM    6  C14 UNL     1      53.994  48.364  64.577  1.00  0.00     0.068 C 
HETATM    7  C15 UNL     1      51.577  48.474  65.054  1.00  0.00     0.101 A 
HETATM    8  C16 UNL     1      50.287  47.972  64.969  1.00  0.00     0.270 A 
HETATM    9  O3  UNL     1      49.346  48.580  65.496  1.00  0.00    -0.266 OA
ENDROOT
BRANCH   1  10
HETATM   10  N1  UNL     1      48.810  46.299  64.208  1.00  0.00    -0.299 N 
ATOM     11  H1  UNL     1      48.538  45.513  64.799  1.00  0.00     0.186 HD
BRANCH  10  12
HETATM   12  C6  UNL     1      47.936  46.817  63.386  1.00  0.00     0.122 C 
BRANCH  12  13
HETATM   13  C5  UNL     1      46.509  46.666  63.648  1.00  0.00     0.014 A 
HETATM   14  C4  UNL     1      46.017  46.853  64.915  1.00  0.00     0.018 A 
HETATM   15  C3  UNL     1      44.677  46.710  65.143  1.00  0.00     0.038 A 
HETATM   16  C2  UNL     1      43.799  46.381  64.125  1.00  0.00     0.070 A 
HETATM   17  C19 UNL     1      44.331  46.201  62.866  1.00  0.00     0.074 A 
HETATM   18  C17 UNL     1      45.668  46.336  62.599  1.00  0.00     0.082 A 
BRANCH  16  19
HETATM   19  O1  UNL     1      42.458  46.245  64.392  1.00  0.00    -0.356 OA
HETATM   20  C1  UNL     1      41.680  45.396  63.592  1.00  0.00     0.210 C 
ENDBRANCH  16  19
BRANCH  18  21
HETATM   21  O4  UNL     1      46.161  46.145  61.313  1.00  0.00    -0.355 OA
HETATM   22  C18 UNL     1      45.294  46.154  60.213  1.00  0.00     0.210 C 
ENDBRANCH  18  21
ENDBRANCH  12  13
ENDBRANCH  10  12
ENDBRANCH   1  10
BRANCH   2  23
HETATM   23  S1  UNL     1      50.921  44.443  62.757  1.00  0.00     0.098 S 
HETATM   24  O2  UNL     1      49.278  43.832  62.624  1.00  0.00    -0.241 OA
BRANCH  23  25
HETATM   25  N3  UNL     1      50.465  45.559  61.323  1.00  0.00    -0.310 N 
ATOM     26  H3  UNL     1      50.999  46.427  61.277  1.00  0.00     0.176 HD
BRANCH  25  27
HETATM   27  C8  UNL     1      49.633  45.424  60.426  1.00  0.00     0.178 C 
HETATM   28  S2  UNL     1      48.806  44.768  59.185  1.00  0.00    -0.074 SA
ENDBRANCH  25  27
ENDBRANCH  23  25
BRANCH  23  29
HETATM   29  C9  UNL     1      52.450  43.850  61.902  1.00  0.00     0.041 C 
HETATM   30  C10 UNL     1      53.237  44.821  60.999  1.00  0.00     0.030 C 
HETATM   31  C11 UNL     1      52.160  42.685  60.936  1.00  0.00     0.030 C 
HETATM   32  C12 UNL     1      53.459  43.305  62.894  1.00  0.00     0.030 C 
ENDBRANCH  23  29
ENDBRANCH   2  23
TORSDOF 9
ENDMDL
