MODEL 1
REMARK VINA RESULT: -10.251053322      0.000      0.000
REMARK  8 active torsions:
REMARK  status: ('A' for Active; 'I' for Inactive)
REMARK    1  A    between atoms: O1_2  and  C2_3 
REMARK    2  A    between atoms: C4_5  and  N1_6 
REMARK    3  A    between atoms: C6_10  and  C7_11 
REMARK    4  A    between atoms: C7_11  and  N2_12 
REMARK    5  A    between atoms: N2_12  and  C8_14 
REMARK    6  A    between atoms: N4_17  and  O4_18 
REMARK    7  A    between atoms: N5_26  and  O5_27 
REMARK    8  A    between atoms: C16_30  and  N6_31 
ROOT
HETATM    1  C2  UNL     1      43.189  46.375  63.737  1.00  0.00     0.071 A 
HETATM    2  C3  UNL     1      43.590  46.207  62.461  1.00  0.00     0.073 A 
HETATM    3  C4  UNL     1      44.971  46.232  62.096  1.00  0.00     0.117 A 
HETATM    4  C5  UNL     1      45.863  46.444  63.098  1.00  0.00     0.015 A 
HETATM    5  C6  UNL     1      47.220  46.582  62.821  1.00  0.00    -0.024 A 
HETATM    6  C15 UNL     1      48.058  46.876  63.909  1.00  0.00     0.045 A 
HETATM    7  C16 UNL     1      47.622  47.034  65.196  1.00  0.00     0.104 A 
HETATM    8  C17 UNL     1      46.290  46.901  65.442  1.00  0.00     0.048 A 
HETATM    9  C18 UNL     1      45.411  46.614  64.418  1.00  0.00    -0.018 A 
HETATM   10  C19 UNL     1      44.067  46.581  64.765  1.00  0.00     0.049 A 
ENDROOT
BRANCH   5  11
HETATM   11  C7  UNL     1      47.777  46.446  61.484  1.00  0.00     0.177 C 
BRANCH  11  12
HETATM   12  N2  UNL     1      48.022  44.996  61.251  1.00  0.00    -0.218 N 
ATOM     13  H2  UNL     1      47.286  44.308  61.408  1.00  0.00     0.178 HD
BRANCH  12  14
HETATM   14  C8  UNL     1      49.330  44.594  60.797  1.00  0.00     0.721 A 
HETATM   15  N3  UNL     1      49.711  44.877  59.542  1.00  0.00    -0.103 N 
HETATM   16  N4  UNL     1      50.895  44.528  59.084  1.00  0.00    -0.147 N 
ATOM     17  H3  UNL     1      49.068  45.376  58.927  1.00  0.00     0.208 HD
HETATM   18  C9  UNL     1      51.753  43.858  59.912  1.00  0.00     0.111 A 
HETATM   19  C10 UNL     1      52.996  43.463  59.511  1.00  0.00     0.036 A 
HETATM   20  C14 UNL     1      51.364  43.561  61.214  1.00  0.00     0.112 A 
HETATM   21  C11 UNL     1      53.853  42.788  60.349  1.00  0.00     0.003 A 
HETATM   22  C12 UNL     1      53.473  42.492  61.640  1.00  0.00     0.002 A 
HETATM   23  C13 UNL     1      52.230  42.879  62.067  1.00  0.00     0.035 A 
HETATM   24  N5  UNL     1      50.157  43.943  61.610  1.00  0.00    -0.049 N 
BRANCH  16  25
HETATM   25  O4  UNL     1      51.296  44.816  57.793  1.00  0.00    -0.267 OA
ATOM     26  H4  UNL     1      51.672  45.657  57.557  1.00  0.00     0.247 HD
ENDBRANCH  16  25
BRANCH  24  27
HETATM   27  O5  UNL     1      49.715  43.682  62.872  1.00  0.00    -0.269 OA
ATOM     28  H5  UNL     1      49.870  42.810  63.216  1.00  0.00     0.245 HD
ENDBRANCH  24  27
ENDBRANCH  12  14
ENDBRANCH  11  12
ENDBRANCH   5  11
BRANCH   3  29
HETATM   29  N1  UNL     1      45.211  46.048  60.744  1.00  0.00    -0.115 N 
HETATM   30  O2  UNL     1      45.464  45.086  60.081  1.00  0.00    -0.532 OA
HETATM   31  O3  UNL     1      44.824  47.155  59.905  1.00  0.00    -0.532 OA
ENDBRANCH   3  29
BRANCH   7  32
HETATM   32  N6  UNL     1      48.538  47.324  66.236  1.00  0.00    -0.116 N 
HETATM   33  O6  UNL     1      49.735  46.963  66.194  1.00  0.00    -0.532 OA
HETATM   34  O7  UNL     1      48.167  48.027  67.364  1.00  0.00    -0.532 OA
ENDBRANCH   7  32
BRANCH   1  35
HETATM   35  O1  UNL     1      41.809  46.342  64.054  1.00  0.00    -0.356 OA
HETATM   36  C1  UNL     1      40.885  45.628  63.263  1.00  0.00     0.210 C 
ENDBRANCH   1  35
TORSDOF 8
ENDMDL
MODEL 2
REMARK VINA RESULT: -10.143688002      0.935      1.087
REMARK  8 active torsions:
REMARK  status: ('A' for Active; 'I' for Inactive)
REMARK    1  A    between atoms: O1_2  and  C2_3 
REMARK    2  A    between atoms: C4_5  and  N1_6 
REMARK    3  A    between atoms: C6_10  and  C7_11 
REMARK    4  A    between atoms: C7_11  and  N2_12 
REMARK    5  A    between atoms: N2_12  and  C8_14 
REMARK    6  A    between atoms: N4_17  and  O4_18 
REMARK    7  A    between atoms: N5_26  and  O5_27 
REMARK    8  A    between atoms: C16_30  and  N6_31 
ROOT
HETATM    1  C2  UNL     1      43.172  46.340  63.742  1.00  0.00     0.071 A 
HETATM    2  C3  UNL     1      43.592  46.184  62.470  1.00  0.00     0.073 A 
HETATM    3  C4  UNL     1      44.976  46.236  62.122  1.00  0.00     0.117 A 
HETATM    4  C5  UNL     1      45.852  46.460  63.136  1.00  0.00     0.015 A 
HETATM    5  C6  UNL     1      47.210  46.625  62.875  1.00  0.00    -0.024 A 
HETATM    6  C15 UNL     1      48.029  46.930  63.974  1.00  0.00     0.045 A 
HETATM    7  C16 UNL     1      47.575  47.074  65.257  1.00  0.00     0.104 A 
HETATM    8  C17 UNL     1      46.243  46.916  65.486  1.00  0.00     0.048 A 
HETATM    9  C18 UNL     1      45.382  46.617  64.450  1.00  0.00    -0.018 A 
HETATM   10  C19 UNL     1      44.034  46.558  64.781  1.00  0.00     0.049 A 
ENDROOT
BRANCH   5  11
HETATM   11  C7  UNL     1      47.786  46.505  61.545  1.00  0.00     0.177 C 
BRANCH  11  12
HETATM   12  N2  UNL     1      49.256  46.701  61.678  1.00  0.00    -0.218 N 
ATOM     13  H2  UNL     1      49.636  47.547  62.101  1.00  0.00     0.178 HD
BRANCH  12  14
HETATM   14  C8  UNL     1      50.125  45.658  61.192  1.00  0.00     0.721 A 
HETATM   15  N3  UNL     1      49.816  45.014  60.058  1.00  0.00    -0.103 N 
HETATM   16  N4  UNL     1      50.579  44.054  59.577  1.00  0.00    -0.147 N 
ATOM     17  H3  UNL     1      48.968  45.273  59.554  1.00  0.00     0.208 HD
HETATM   18  C9  UNL     1      51.714  43.709  60.258  1.00  0.00     0.111 A 
HETATM   19  C10 UNL     1      52.555  42.727  59.825  1.00  0.00     0.036 A 
HETATM   20  C14 UNL     1      52.040  44.374  61.436  1.00  0.00     0.112 A 
HETATM   21  C11 UNL     1      53.694  42.384  60.516  1.00  0.00     0.003 A 
HETATM   22  C12 UNL     1      54.023  43.039  61.683  1.00  0.00     0.002 A 
HETATM   23  C13 UNL     1      53.194  44.031  62.138  1.00  0.00     0.035 A 
HETATM   24  N5  UNL     1      51.227  45.330  61.862  1.00  0.00    -0.049 N 
BRANCH  16  25
HETATM   25  O4  UNL     1      50.268  43.385  58.408  1.00  0.00    -0.267 OA
ATOM     26  H4  UNL     1      49.426  43.483  57.980  1.00  0.00     0.247 HD
ENDBRANCH  16  25
BRANCH  24  27
HETATM   27  O5  UNL     1      51.489  46.018  63.008  1.00  0.00    -0.269 OA
ATOM     28  H5  UNL     1      51.632  45.510  63.798  1.00  0.00     0.245 HD
ENDBRANCH  24  27
ENDBRANCH  12  14
ENDBRANCH  11  12
ENDBRANCH   5  11
BRANCH   3  29
HETATM   29  N1  UNL     1      45.236  46.063  60.772  1.00  0.00    -0.115 N 
HETATM   30  O2  UNL     1      45.516  45.108  60.108  1.00  0.00    -0.532 OA
HETATM   31  O3  UNL     1      44.838  47.166  59.933  1.00  0.00    -0.532 OA
ENDBRANCH   3  29
BRANCH   7  32
HETATM   32  N6  UNL     1      48.473  47.377  66.309  1.00  0.00    -0.116 N 
HETATM   33  O6  UNL     1      48.107  47.951  67.358  1.00  0.00    -0.532 OA
HETATM   34  O7  UNL     1      49.814  47.055  66.242  1.00  0.00    -0.532 OA
ENDBRANCH   7  32
BRANCH   1  35
HETATM   35  O1  UNL     1      41.790  46.280  64.042  1.00  0.00    -0.356 OA
HETATM   36  C1  UNL     1      40.897  45.515  63.264  1.00  0.00     0.210 C 
ENDBRANCH   1  35
TORSDOF 8
ENDMDL
MODEL 3
REMARK VINA RESULT: -10.092914037      1.067      1.213
REMARK  8 active torsions:
REMARK  status: ('A' for Active; 'I' for Inactive)
REMARK    1  A    between atoms: O1_2  and  C2_3 
REMARK    2  A    between atoms: C4_5  and  N1_6 
REMARK    3  A    between atoms: C6_10  and  C7_11 
REMARK    4  A    between atoms: C7_11  and  N2_12 
REMARK    5  A    between atoms: N2_12  and  C8_14 
REMARK    6  A    between atoms: N4_17  and  O4_18 
REMARK    7  A    between atoms: N5_26  and  O5_27 
REMARK    8  A    between atoms: C16_30  and  N6_31 
ROOT
HETATM    1  C2  UNL     1      43.153  46.325  63.760  1.00  0.00     0.071 A 
HETATM    2  C3  UNL     1      43.610  46.160  62.502  1.00  0.00     0.073 A 
HETATM    3  C4  UNL     1      45.003  46.225  62.192  1.00  0.00     0.117 A 
HETATM    4  C5  UNL     1      45.847  46.470  63.227  1.00  0.00     0.015 A 
HETATM    5  C6  UNL     1      47.210  46.647  63.002  1.00  0.00    -0.024 A 
HETATM    6  C15 UNL     1      47.995  46.973  64.120  1.00  0.00     0.045 A 
HETATM    7  C16 UNL     1      47.503  47.126  65.388  1.00  0.00     0.104 A 
HETATM    8  C17 UNL     1      46.167  46.954  65.582  1.00  0.00     0.048 A 
HETATM    9  C18 UNL     1      45.339  46.635  64.526  1.00  0.00    -0.018 A 
HETATM   10  C19 UNL     1      43.983  46.563  64.820  1.00  0.00     0.049 A 
ENDROOT
BRANCH   5  11
HETATM   11  C7  UNL     1      47.824  46.520  61.689  1.00  0.00     0.177 C 
BRANCH  11  12
HETATM   12  N2  UNL     1      48.540  45.215  61.659  1.00  0.00    -0.218 N 
ATOM     13  H2  UNL     1      48.113  44.373  62.045  1.00  0.00     0.178 HD
BRANCH  12  14
HETATM   14  C8  UNL     1      49.854  45.176  61.068  1.00  0.00     0.721 A 
HETATM   15  N3  UNL     1      49.979  45.101  59.734  1.00  0.00    -0.103 N 
HETATM   16  N4  UNL     1      51.158  45.061  59.151  1.00  0.00    -0.147 N 
ATOM     17  H3  UNL     1      49.138  45.074  59.158  1.00  0.00     0.208 HD
HETATM   18  C9  UNL     1      52.282  45.096  59.929  1.00  0.00     0.111 A 
HETATM   19  C10 UNL     1      53.538  45.060  59.400  1.00  0.00     0.036 A 
HETATM   20  C14 UNL     1      52.160  45.174  61.313  1.00  0.00     0.112 A 
HETATM   21  C11 UNL     1      54.665  45.094  60.189  1.00  0.00     0.003 A 
HETATM   22  C12 UNL     1      54.550  45.171  61.560  1.00  0.00     0.002 A 
HETATM   23  C13 UNL     1      53.298  45.210  62.116  1.00  0.00     0.035 A 
HETATM   24  N5  UNL     1      50.941  45.211  61.834  1.00  0.00    -0.049 N 
BRANCH  16  25
HETATM   25  O4  UNL     1      51.295  44.985  57.777  1.00  0.00    -0.267 OA
ATOM     26  H4  UNL     1      51.923  44.403  57.365  1.00  0.00     0.247 HD
ENDBRANCH  16  25
BRANCH  24  27
HETATM   27  O5  UNL     1      50.754  45.286  63.181  1.00  0.00    -0.269 OA
ATOM     28  H5  UNL     1      51.454  44.964  63.737  1.00  0.00     0.245 HD
ENDBRANCH  24  27
ENDBRANCH  12  14
ENDBRANCH  11  12
ENDBRANCH   5  11
BRANCH   3  29
HETATM   29  N1  UNL     1      45.302  46.040  60.851  1.00  0.00    -0.115 N 
HETATM   30  O2  UNL     1      45.657  45.092  60.215  1.00  0.00    -0.532 OA
HETATM   31  O3  UNL     1      44.851  47.096  59.980  1.00  0.00    -0.532 OA
ENDBRANCH   3  29
BRANCH   7  32
HETATM   32  N6  UNL     1      48.369  47.450  66.461  1.00  0.00    -0.116 N 
HETATM   33  O6  UNL     1      47.980  48.083  67.467  1.00  0.00    -0.532 OA
HETATM   34  O7  UNL     1      49.699  47.084  66.464  1.00  0.00    -0.532 OA
ENDBRANCH   7  32
BRANCH   1  35
HETATM   35  O1  UNL     1      41.764  46.252  64.022  1.00  0.00    -0.356 OA
HETATM   36  C1  UNL     1      40.893  45.509  63.198  1.00  0.00     0.210 C 
ENDBRANCH   1  35
TORSDOF 8
ENDMDL
MODEL 4
REMARK VINA RESULT: -10.023736541      1.159      1.283
REMARK  8 active torsions:
REMARK  status: ('A' for Active; 'I' for Inactive)
REMARK    1  A    between atoms: O1_2  and  C2_3 
REMARK    2  A    between atoms: C4_5  and  N1_6 
REMARK    3  A    between atoms: C6_10  and  C7_11 
REMARK    4  A    between atoms: C7_11  and  N2_12 
REMARK    5  A    between atoms: N2_12  and  C8_14 
REMARK    6  A    between atoms: N4_17  and  O4_18 
REMARK    7  A    between atoms: N5_26  and  O5_27 
REMARK    8  A    between atoms: C16_30  and  N6_31 
ROOT
HETATM    1  C2  UNL     1      43.187  46.229  62.807  1.00  0.00     0.071 A 
HETATM    2  C3  UNL     1      44.074  45.920  61.839  1.00  0.00     0.073 A 
HETATM    3  C4  UNL     1      45.483  45.964  62.066  1.00  0.00     0.117 A 
HETATM    4  C5  UNL     1      45.889  46.344  63.306  1.00  0.00     0.015 A 
HETATM    5  C6  UNL     1      47.243  46.511  63.587  1.00  0.00    -0.024 A 
HETATM    6  C15 UNL     1      47.566  46.980  64.871  1.00  0.00     0.045 A 
HETATM    7  C16 UNL     1      46.643  47.279  65.836  1.00  0.00     0.104 A 
HETATM    8  C17 UNL     1      45.325  47.115  65.535  1.00  0.00     0.048 A 
HETATM    9  C18 UNL     1      44.940  46.659  64.292  1.00  0.00    -0.018 A 
HETATM   10  C19 UNL     1      43.570  46.606  64.064  1.00  0.00     0.049 A 
ENDROOT
BRANCH   5  11
HETATM   11  C7  UNL     1      48.297  46.233  62.624  1.00  0.00     0.177 C 
BRANCH  11  12
HETATM   12  N2  UNL     1      48.863  44.897  62.958  1.00  0.00    -0.218 N 
ATOM     13  H2  UNL     1      48.491  44.349  63.733  1.00  0.00     0.178 HD
BRANCH  12  14
HETATM   14  C8  UNL     1      49.951  44.401  62.152  1.00  0.00     0.721 A 
HETATM   15  N3  UNL     1      49.776  44.237  60.832  1.00  0.00    -0.103 N 
HETATM   16  N4  UNL     1      50.740  43.785  60.058  1.00  0.00    -0.147 N 
ATOM     17  H3  UNL     1      48.873  44.468  60.418  1.00  0.00     0.208 HD
HETATM   18  C9  UNL     1      51.948  43.475  60.620  1.00  0.00     0.111 A 
HETATM   19  C10 UNL     1      52.995  43.002  59.885  1.00  0.00     0.036 A 
HETATM   20  C14 UNL     1      52.136  43.642  61.988  1.00  0.00     0.112 A 
HETATM   21  C11 UNL     1      54.207  42.691  60.457  1.00  0.00     0.003 A 
HETATM   22  C12 UNL     1      54.399  42.855  61.811  1.00  0.00     0.002 A 
HETATM   23  C13 UNL     1      53.362  43.329  62.571  1.00  0.00     0.035 A 
HETATM   24  N5  UNL     1      51.121  44.102  62.709  1.00  0.00    -0.049 N 
BRANCH  16  25
HETATM   25  O4  UNL     1      50.569  43.614  58.697  1.00  0.00    -0.267 OA
ATOM     26  H4  UNL     1      49.863  44.035  58.221  1.00  0.00     0.247 HD
ENDBRANCH  16  25
BRANCH  24  27
HETATM   27  O5  UNL     1      51.240  44.287  64.053  1.00  0.00    -0.269 OA
ATOM     28  H5  UNL     1      51.283  43.510  64.597  1.00  0.00     0.245 HD
ENDBRANCH  24  27
ENDBRANCH  12  14
ENDBRANCH  11  12
ENDBRANCH   5  11
BRANCH   3  29
HETATM   29  N1  UNL     1      46.253  45.622  60.967  1.00  0.00    -0.115 N 
HETATM   30  O2  UNL     1      46.756  44.598  60.606  1.00  0.00    -0.532 OA
HETATM   31  O3  UNL     1      46.240  46.586  59.895  1.00  0.00    -0.532 OA
ENDBRANCH   3  29
BRANCH   7  32
HETATM   32  N6  UNL     1      47.057  47.742  67.108  1.00  0.00    -0.116 N 
HETATM   33  O6  UNL     1      48.255  47.737  67.465  1.00  0.00    -0.532 OA
HETATM   34  O7  UNL     1      46.159  48.231  68.037  1.00  0.00    -0.532 OA
ENDBRANCH   7  32
BRANCH   1  35
HETATM   35  O1  UNL     1      41.798  46.171  62.537  1.00  0.00    -0.356 OA
HETATM   36  C1  UNL     1      40.909  45.477  63.383  1.00  0.00     0.210 C 
ENDBRANCH   1  35
TORSDOF 8
ENDMDL
MODEL 5
REMARK VINA RESULT: -9.922256773      3.548      7.665
REMARK  8 active torsions:
REMARK  status: ('A' for Active; 'I' for Inactive)
REMARK    1  A    between atoms: O1_2  and  C2_3 
REMARK    2  A    between atoms: C4_5  and  N1_6 
REMARK    3  A    between atoms: C6_10  and  C7_11 
REMARK    4  A    between atoms: C7_11  and  N2_12 
REMARK    5  A    between atoms: N2_12  and  C8_14 
REMARK    6  A    between atoms: N4_17  and  O4_18 
REMARK    7  A    between atoms: N5_26  and  O5_27 
REMARK    8  A    between atoms: C16_30  and  N6_31 
ROOT
HETATM    1  C2  UNL     1      43.504  46.276  63.196  1.00  0.00     0.071 A 
HETATM    2  C3  UNL     1      43.652  46.555  64.507  1.00  0.00     0.073 A 
HETATM    3  C4  UNL     1      44.934  46.808  65.083  1.00  0.00     0.117 A 
HETATM    4  C5  UNL     1      46.002  46.744  64.247  1.00  0.00     0.015 A 
HETATM    5  C6  UNL     1      47.298  46.878  64.740  1.00  0.00    -0.024 A 
HETATM    6  C15 UNL     1      48.343  46.721  63.815  1.00  0.00     0.045 A 
HETATM    7  C16 UNL     1      48.161  46.444  62.487  1.00  0.00     0.104 A 
HETATM    8  C17 UNL     1      46.886  46.310  62.030  1.00  0.00     0.048 A 
HETATM    9  C18 UNL     1      45.814  46.451  62.886  1.00  0.00    -0.018 A 
HETATM   10  C19 UNL     1      44.562  46.214  62.332  1.00  0.00     0.049 A 
ENDROOT
BRANCH   5  11
HETATM   11  C7  UNL     1      47.592  47.157  66.137  1.00  0.00     0.177 C 
BRANCH  11  12
HETATM   12  N2  UNL     1      48.774  48.063  66.168  1.00  0.00    -0.218 N 
ATOM     13  H2  UNL     1      49.663  47.780  65.759  1.00  0.00     0.178 HD
BRANCH  12  14
HETATM   14  C8  UNL     1      48.622  49.354  66.794  1.00  0.00     0.721 A 
HETATM   15  N3  UNL     1      47.599  49.565  67.635  1.00  0.00    -0.103 N 
HETATM   16  N4  UNL     1      47.420  50.727  68.228  1.00  0.00    -0.147 N 
ATOM     17  H3  UNL     1      46.943  48.807  67.821  1.00  0.00     0.208 HD
HETATM   18  C9  UNL     1      48.302  51.741  67.975  1.00  0.00     0.111 A 
HETATM   19  C10 UNL     1      48.185  52.972  68.550  1.00  0.00     0.036 A 
HETATM   20  C14 UNL     1      49.365  51.528  67.103  1.00  0.00     0.112 A 
HETATM   21  C11 UNL     1      49.075  53.988  68.289  1.00  0.00     0.003 A 
HETATM   22  C12 UNL     1      50.130  53.783  67.427  1.00  0.00     0.002 A 
HETATM   23  C13 UNL     1      50.270  52.554  66.837  1.00  0.00     0.035 A 
HETATM   24  N5  UNL     1      49.486  50.333  66.540  1.00  0.00    -0.049 N 
BRANCH  16  25
HETATM   25  O4  UNL     1      46.369  50.953  69.097  1.00  0.00    -0.267 OA
ATOM     26  H4  UNL     1      45.557  50.462  69.046  1.00  0.00     0.247 HD
ENDBRANCH  16  25
BRANCH  24  27
HETATM   27  O5  UNL     1      50.503  50.061  65.677  1.00  0.00    -0.269 OA
ATOM     28  H5  UNL     1      51.349  49.851  66.054  1.00  0.00     0.245 HD
ENDBRANCH  24  27
ENDBRANCH  12  14
ENDBRANCH  11  12
ENDBRANCH   5  11
BRANCH   3  29
HETATM   29  N1  UNL     1      44.910  47.073  66.443  1.00  0.00    -0.115 N 
HETATM   30  O2  UNL     1      44.803  48.081  67.078  1.00  0.00    -0.532 OA
HETATM   31  O3  UNL     1      44.700  45.919  67.281  1.00  0.00    -0.532 OA
ENDBRANCH   3  29
BRANCH   7  32
HETATM   32  N6  UNL     1      49.274  46.307  61.622  1.00  0.00    -0.116 N 
HETATM   33  O6  UNL     1      50.380  45.877  62.017  1.00  0.00    -0.532 OA
HETATM   34  O7  UNL     1      49.206  46.640  60.285  1.00  0.00    -0.532 OA
ENDBRANCH   7  32
BRANCH   1  35
HETATM   35  O1  UNL     1      42.214  46.032  62.667  1.00  0.00    -0.356 OA
HETATM   36  C1  UNL     1      41.319  45.134  63.283  1.00  0.00     0.210 C 
ENDBRANCH   1  35
TORSDOF 8
ENDMDL
