MODEL 1
REMARK VINA RESULT: -7.965040497      0.000      0.000
REMARK  7 active torsions:
REMARK  status: ('A' for Active; 'I' for Inactive)
REMARK    1  A    between atoms: O1_2  and  C2_3 
REMARK    2  A    between atoms: C4_5  and  O2_6 
REMARK    3  A    between atoms: C6_8  and  O3_9 
REMARK    4  A    between atoms: C9_12  and  C10_13 
REMARK    5  A    between atoms: C11_14  and  S1_17 
REMARK    6  A    between atoms: S1_17  and  C13_20 
REMARK    7  A    between atoms: N2_29  and  O8_30 
ROOT
HETATM    1  C10 UNL     1      50.399  43.967  61.557  1.00  0.00     0.049 C 
HETATM    2  C11 UNL     1      50.865  43.902  60.354  1.00  0.00     0.144 C 
HETATM    3  C12 UNL     1      49.861  44.037  59.274  1.00  0.00     0.112 C 
HETATM    4  N1  UNL     1      49.074  44.163  58.440  1.00  0.00    -0.191 NA
ENDROOT
BRANCH   2   5
HETATM    5  S1  UNL     1      52.464  43.544  59.793  1.00  0.00     0.216 S 
HETATM    6  O4  UNL     1      52.646  42.106  59.376  1.00  0.00    -0.216 OA
HETATM    7  O5  UNL     1      52.673  44.344  58.489  1.00  0.00    -0.216 OA
BRANCH   5   8
HETATM    8  C13 UNL     1      53.741  44.000  60.855  1.00  0.00     0.067 A 
HETATM    9  C14 UNL     1      54.338  43.155  61.766  1.00  0.00     0.026 A 
HETATM   10  C15 UNL     1      55.391  43.605  62.565  1.00  0.00     0.037 A 
HETATM   11  C16 UNL     1      55.885  44.887  62.498  1.00  0.00     0.102 A 
HETATM   12  C17 UNL     1      55.279  45.742  61.576  1.00  0.00     0.111 A 
HETATM   13  N2  UNL     1      56.850  45.581  63.116  1.00  0.00    -0.164 N 
HETATM   14  C18 UNL     1      54.259  45.284  60.810  1.00  0.00     0.063 A 
HETATM   15  O6  UNL     1      55.907  46.894  61.688  1.00  0.00    -0.257 OA
HETATM   16  C19 UNL     1      56.829  46.838  62.576  1.00  0.00     0.397 A 
HETATM   17  O7  UNL     1      57.628  47.765  62.940  1.00  0.00    -0.235 OA
BRANCH  13  18
HETATM   18  O8  UNL     1      57.683  45.121  64.097  1.00  0.00    -0.278 OA
ATOM     19  H8  UNL     1      58.519  44.687  63.973  1.00  0.00     0.245 HD
ENDBRANCH  13  18
ENDBRANCH   5   8
ENDBRANCH   2   5
BRANCH   1  20
HETATM   20  C9  UNL     1      50.977  43.885  62.866  1.00  0.00     0.002 A 
HETATM   21  C2  UNL     1      51.355  44.955  63.609  1.00  0.00     0.081 A 
HETATM   22  C3  UNL     1      51.929  44.746  64.829  1.00  0.00     0.077 A 
HETATM   23  C4  UNL     1      52.148  43.422  65.358  1.00  0.00     0.104 A 
HETATM   24  C6  UNL     1      51.741  42.342  64.555  1.00  0.00     0.102 A 
HETATM   25  C8  UNL     1      51.173  42.573  63.346  1.00  0.00     0.054 A 
BRANCH  21  26
HETATM   26  O1  UNL     1      51.190  46.274  63.205  1.00  0.00    -0.355 OA
HETATM   27  C1  UNL     1      50.238  47.159  63.690  1.00  0.00     0.210 C 
ENDBRANCH  21  26
BRANCH  23  28
HETATM   28  O2  UNL     1      52.679  43.237  66.488  1.00  0.00    -0.353 OA
HETATM   29  C5  UNL     1      52.940  43.125  67.780  1.00  0.00     0.210 C 
ENDBRANCH  23  28
BRANCH  24  30
HETATM   30  O3  UNL     1      51.951  41.070  65.065  1.00  0.00    -0.353 OA
HETATM   31  C7  UNL     1      51.408  39.955  64.440  1.00  0.00     0.210 C 
ENDBRANCH  24  30
ENDBRANCH   1  20
TORSDOF 7
ENDMDL
MODEL 2
REMARK VINA RESULT: -7.878685987      2.798      6.024
REMARK  7 active torsions:
REMARK  status: ('A' for Active; 'I' for Inactive)
REMARK    1  A    between atoms: O1_2  and  C2_3 
REMARK    2  A    between atoms: C4_5  and  O2_6 
REMARK    3  A    between atoms: C6_8  and  O3_9 
REMARK    4  A    between atoms: C9_12  and  C10_13 
REMARK    5  A    between atoms: C11_14  and  S1_17 
REMARK    6  A    between atoms: S1_17  and  C13_20 
REMARK    7  A    between atoms: N2_29  and  O8_30 
ROOT
HETATM    1  C10 UNL     1      53.292  42.510  61.369  1.00  0.00     0.049 C 
HETATM    2  C11 UNL     1      53.037  42.927  60.173  1.00  0.00     0.144 C 
HETATM    3  C12 UNL     1      53.451  42.020  59.079  1.00  0.00     0.112 C 
HETATM    4  N1  UNL     1      53.761  41.297  58.235  1.00  0.00    -0.191 NA
ENDROOT
BRANCH   2   5
HETATM    5  S1  UNL     1      52.407  44.447  59.631  1.00  0.00     0.216 S 
HETATM    6  O4  UNL     1      53.372  45.594  59.808  1.00  0.00    -0.216 OA
HETATM    7  O5  UNL     1      52.226  44.339  58.101  1.00  0.00    -0.216 OA
BRANCH   5   8
HETATM    8  C13 UNL     1      50.871  44.885  60.275  1.00  0.00     0.067 A 
HETATM    9  C14 UNL     1      50.678  45.449  61.518  1.00  0.00     0.026 A 
HETATM   10  C15 UNL     1      49.395  45.801  61.944  1.00  0.00     0.037 A 
HETATM   11  C16 UNL     1      48.273  45.611  61.173  1.00  0.00     0.102 A 
HETATM   12  C17 UNL     1      48.470  45.039  59.914  1.00  0.00     0.111 A 
HETATM   13  N2  UNL     1      46.960  45.840  61.309  1.00  0.00    -0.164 N 
HETATM   14  C18 UNL     1      49.724  44.705  59.521  1.00  0.00     0.063 A 
HETATM   15  O6  UNL     1      47.275  44.956  59.367  1.00  0.00    -0.257 OA
HETATM   16  C19 UNL     1      46.370  45.413  60.150  1.00  0.00     0.397 A 
HETATM   17  O7  UNL     1      45.113  45.485  59.942  1.00  0.00    -0.235 OA
BRANCH  13  18
HETATM   18  O8  UNL     1      46.338  46.385  62.397  1.00  0.00    -0.278 OA
ATOM     19  H8  UNL     1      45.813  47.177  62.410  1.00  0.00     0.245 HD
ENDBRANCH  13  18
ENDBRANCH   5   8
ENDBRANCH   2   5
BRANCH   1  20
HETATM   20  C9  UNL     1      53.082  43.036  62.685  1.00  0.00     0.002 A 
HETATM   21  C2  UNL     1      52.171  42.558  63.570  1.00  0.00     0.081 A 
HETATM   22  C3  UNL     1      52.040  43.171  64.782  1.00  0.00     0.077 A 
HETATM   23  C4  UNL     1      52.839  44.311  65.157  1.00  0.00     0.104 A 
HETATM   24  C6  UNL     1      53.771  44.773  64.211  1.00  0.00     0.102 A 
HETATM   25  C8  UNL     1      53.884  44.150  63.012  1.00  0.00     0.054 A 
BRANCH  21  26
HETATM   26  O1  UNL     1      51.350  41.466  63.320  1.00  0.00    -0.355 OA
HETATM   27  C1  UNL     1      51.326  40.286  64.048  1.00  0.00     0.210 C 
ENDBRANCH  21  26
BRANCH  23  28
HETATM   28  O2  UNL     1      52.713  44.871  66.281  1.00  0.00    -0.353 OA
HETATM   29  C5  UNL     1      52.695  45.174  67.568  1.00  0.00     0.210 C 
ENDBRANCH  23  28
BRANCH  24  30
HETATM   30  O3  UNL     1      54.539  45.868  64.573  1.00  0.00    -0.353 OA
HETATM   31  C7  UNL     1      55.280  46.562  63.625  1.00  0.00     0.210 C 
ENDBRANCH  24  30
ENDBRANCH   1  20
TORSDOF 7
ENDMDL
MODEL 3
REMARK VINA RESULT: -7.804084762      1.008      2.551
REMARK  7 active torsions:
REMARK  status: ('A' for Active; 'I' for Inactive)
REMARK    1  A    between atoms: O1_2  and  C2_3 
REMARK    2  A    between atoms: C4_5  and  O2_6 
REMARK    3  A    between atoms: C6_8  and  O3_9 
REMARK    4  A    between atoms: C9_12  and  C10_13 
REMARK    5  A    between atoms: C11_14  and  S1_17 
REMARK    6  A    between atoms: S1_17  and  C13_20 
REMARK    7  A    between atoms: N2_29  and  O8_30 
ROOT
HETATM    1  C10 UNL     1      50.477  44.132  61.557  1.00  0.00     0.049 C 
HETATM    2  C11 UNL     1      50.903  43.958  60.350  1.00  0.00     0.144 C 
HETATM    3  C12 UNL     1      49.857  43.944  59.301  1.00  0.00     0.112 C 
HETATM    4  N1  UNL     1      49.037  43.954  58.490  1.00  0.00    -0.191 NA
ENDROOT
BRANCH   2   5
HETATM    5  S1  UNL     1      52.494  43.600  59.767  1.00  0.00     0.216 S 
HETATM    6  O4  UNL     1      52.668  42.164  59.339  1.00  0.00    -0.216 OA
HETATM    7  O5  UNL     1      52.688  44.408  58.466  1.00  0.00    -0.216 OA
BRANCH   5   8
HETATM    8  C13 UNL     1      53.784  44.047  60.817  1.00  0.00     0.067 A 
HETATM    9  C14 UNL     1      54.401  43.191  61.703  1.00  0.00     0.026 A 
HETATM   10  C15 UNL     1      55.464  43.635  62.493  1.00  0.00     0.037 A 
HETATM   11  C16 UNL     1      55.949  44.920  62.440  1.00  0.00     0.102 A 
HETATM   12  C17 UNL     1      55.323  45.786  61.542  1.00  0.00     0.111 A 
HETATM   13  N2  UNL     1      56.919  45.610  63.054  1.00  0.00    -0.164 N 
HETATM   14  C18 UNL     1      54.293  45.335  60.784  1.00  0.00     0.063 A 
HETATM   15  O6  UNL     1      55.946  46.940  61.663  1.00  0.00    -0.257 OA
HETATM   16  C19 UNL     1      56.882  46.876  62.535  1.00  0.00     0.397 A 
HETATM   17  O7  UNL     1      57.681  47.802  62.902  1.00  0.00    -0.235 OA
BRANCH  13  18
HETATM   18  O8  UNL     1      57.770  45.139  64.014  1.00  0.00    -0.278 OA
ATOM     19  H8  UNL     1      57.577  45.029  64.938  1.00  0.00     0.245 HD
ENDBRANCH  13  18
ENDBRANCH   5   8
ENDBRANCH   2   5
BRANCH   1  20
HETATM   20  C9  UNL     1      51.103  44.208  62.844  1.00  0.00     0.002 A 
HETATM   21  C2  UNL     1      51.308  43.148  63.665  1.00  0.00     0.081 A 
HETATM   22  C3  UNL     1      51.882  43.355  64.885  1.00  0.00     0.077 A 
HETATM   23  C4  UNL     1      52.280  44.667  65.333  1.00  0.00     0.104 A 
HETATM   24  C6  UNL     1      52.050  45.737  64.451  1.00  0.00     0.102 A 
HETATM   25  C8  UNL     1      51.477  45.508  63.244  1.00  0.00     0.054 A 
BRANCH  21  26
HETATM   26  O1  UNL     1      50.970  41.841  63.338  1.00  0.00    -0.355 OA
HETATM   27  C1  UNL     1      51.670  40.703  63.711  1.00  0.00     0.210 C 
ENDBRANCH  21  26
BRANCH  23  28
HETATM   28  O2  UNL     1      52.811  44.850  66.463  1.00  0.00    -0.353 OA
HETATM   29  C5  UNL     1      53.556  44.794  67.555  1.00  0.00     0.210 C 
ENDBRANCH  23  28
BRANCH  24  30
HETATM   30  O3  UNL     1      52.434  46.997  64.884  1.00  0.00    -0.353 OA
HETATM   31  C7  UNL     1      53.595  47.589  64.405  1.00  0.00     0.210 C 
ENDBRANCH  24  30
ENDBRANCH   1  20
TORSDOF 7
ENDMDL
MODEL 4
REMARK VINA RESULT: -7.774160220      2.238      6.117
REMARK  7 active torsions:
REMARK  status: ('A' for Active; 'I' for Inactive)
REMARK    1  A    between atoms: O1_2  and  C2_3 
REMARK    2  A    between atoms: C4_5  and  O2_6 
REMARK    3  A    between atoms: C6_8  and  O3_9 
REMARK    4  A    between atoms: C9_12  and  C10_13 
REMARK    5  A    between atoms: C11_14  and  S1_17 
REMARK    6  A    between atoms: S1_17  and  C13_20 
REMARK    7  A    between atoms: N2_29  and  O8_30 
ROOT
HETATM    1  C10 UNL     1      53.483  44.818  63.777  1.00  0.00     0.049 C 
HETATM    2  C11 UNL     1      54.485  44.660  62.976  1.00  0.00     0.144 C 
HETATM    3  C12 UNL     1      55.809  44.544  63.627  1.00  0.00     0.112 C 
HETATM    4  N1  UNL     1      56.835  44.435  64.145  1.00  0.00    -0.191 NA
ENDROOT
BRANCH   2   5
HETATM    5  S1  UNL     1      54.547  44.697  61.246  1.00  0.00     0.216 S 
HETATM    6  O4  UNL     1      55.206  45.938  60.696  1.00  0.00    -0.216 OA
HETATM    7  O5  UNL     1      55.480  43.548  60.804  1.00  0.00    -0.216 OA
BRANCH   5   8
HETATM    8  C13 UNL     1      53.045  44.442  60.444  1.00  0.00     0.067 A 
HETATM    9  C14 UNL     1      52.669  43.257  59.849  1.00  0.00     0.026 A 
HETATM   10  C15 UNL     1      51.414  43.133  59.249  1.00  0.00     0.037 A 
HETATM   11  C16 UNL     1      50.498  44.157  59.212  1.00  0.00     0.102 A 
HETATM   12  C17 UNL     1      50.880  45.357  59.815  1.00  0.00     0.111 A 
HETATM   13  N2  UNL     1      49.262  44.327  58.725  1.00  0.00    -0.164 N 
HETATM   14  C18 UNL     1      52.103  45.456  60.392  1.00  0.00     0.063 A 
HETATM   15  O6  UNL     1      49.861  46.177  59.660  1.00  0.00    -0.257 OA
HETATM   16  C19 UNL     1      48.900  45.612  59.029  1.00  0.00     0.397 A 
HETATM   17  O7  UNL     1      47.769  46.110  58.708  1.00  0.00    -0.235 OA
BRANCH  13  18
HETATM   18  O8  UNL     1      48.517  43.400  58.052  1.00  0.00    -0.278 OA
ATOM     19  H8  UNL     1      48.151  43.493  57.181  1.00  0.00     0.245 HD
ENDBRANCH  13  18
ENDBRANCH   5   8
ENDBRANCH   2   5
BRANCH   1  20
HETATM   20  C9  UNL     1      52.070  44.974  63.603  1.00  0.00     0.002 A 
HETATM   21  C2  UNL     1      51.205  43.955  63.367  1.00  0.00     0.081 A 
HETATM   22  C3  UNL     1      49.883  44.238  63.180  1.00  0.00     0.077 A 
HETATM   23  C4  UNL     1      49.371  45.585  63.227  1.00  0.00     0.104 A 
HETATM   24  C6  UNL     1      50.302  46.610  63.475  1.00  0.00     0.102 A 
HETATM   25  C8  UNL     1      51.610  46.307  63.656  1.00  0.00     0.054 A 
BRANCH  21  26
HETATM   26  O1  UNL     1      51.583  42.620  63.304  1.00  0.00    -0.355 OA
HETATM   27  C1  UNL     1      51.754  41.773  64.388  1.00  0.00     0.210 C 
ENDBRANCH  21  26
BRANCH  23  28
HETATM   28  O2  UNL     1      48.147  45.838  63.055  1.00  0.00    -0.353 OA
HETATM   29  C5  UNL     1      46.968  46.209  62.586  1.00  0.00     0.210 C 
ENDBRANCH  23  28
BRANCH  24  30
HETATM   30  O3  UNL     1      49.808  47.904  63.521  1.00  0.00    -0.353 OA
HETATM   31  C7  UNL     1      50.429  48.875  64.296  1.00  0.00     0.210 C 
ENDBRANCH  24  30
ENDBRANCH   1  20
TORSDOF 7
ENDMDL
MODEL 5
REMARK VINA RESULT: -7.751444833      2.065      2.553
REMARK  7 active torsions:
REMARK  status: ('A' for Active; 'I' for Inactive)
REMARK    1  A    between atoms: O1_2  and  C2_3 
REMARK    2  A    between atoms: C4_5  and  O2_6 
REMARK    3  A    between atoms: C6_8  and  O3_9 
REMARK    4  A    between atoms: C9_12  and  C10_13 
REMARK    5  A    between atoms: C11_14  and  S1_17 
REMARK    6  A    between atoms: S1_17  and  C13_20 
REMARK    7  A    between atoms: N2_29  and  O8_30 
ROOT
HETATM    1  C10 UNL     1      48.404  44.826  61.678  1.00  0.00     0.049 C 
HETATM    2  C11 UNL     1      48.333  44.793  60.388  1.00  0.00     0.144 C 
HETATM    3  C12 UNL     1      46.964  44.777  59.825  1.00  0.00     0.112 C 
HETATM    4  N1  UNL     1      45.894  44.785  59.396  1.00  0.00    -0.191 NA
ENDROOT
BRANCH   2   5
HETATM    5  S1  UNL     1      49.587  44.627  59.206  1.00  0.00     0.216 S 
HETATM    6  O4  UNL     1      49.241  43.666  58.095  1.00  0.00    -0.216 OA
HETATM    7  O5  UNL     1      49.720  45.992  58.495  1.00  0.00    -0.216 OA
BRANCH   5   8
HETATM    8  C13 UNL     1      51.147  44.247  59.828  1.00  0.00     0.067 A 
HETATM    9  C14 UNL     1      51.591  42.970  60.095  1.00  0.00     0.026 A 
HETATM   10  C15 UNL     1      52.887  42.755  60.569  1.00  0.00     0.037 A 
HETATM   11  C16 UNL     1      53.779  43.777  60.795  1.00  0.00     0.102 A 
HETATM   12  C17 UNL     1      53.328  45.070  60.525  1.00  0.00     0.111 A 
HETATM   13  N2  UNL     1      55.041  43.874  61.232  1.00  0.00    -0.164 N 
HETATM   14  C18 UNL     1      52.066  45.256  60.065  1.00  0.00     0.063 A 
HETATM   15  O6  UNL     1      54.336  45.868  60.810  1.00  0.00    -0.257 OA
HETATM   16  C19 UNL     1      55.351  45.208  61.226  1.00  0.00     0.397 A 
HETATM   17  O7  UNL     1      56.490  45.659  61.588  1.00  0.00    -0.235 OA
BRANCH  13  18
HETATM   18  O8  UNL     1      55.853  42.843  61.614  1.00  0.00    -0.278 OA
ATOM     19  H8  UNL     1      55.583  42.039  62.043  1.00  0.00     0.245 HD
ENDBRANCH  13  18
ENDBRANCH   5   8
ENDBRANCH   2   5
BRANCH   1  20
HETATM   20  C9  UNL     1      49.477  44.847  62.627  1.00  0.00     0.002 A 
HETATM   21  C2  UNL     1      50.031  45.975  63.138  1.00  0.00     0.081 A 
HETATM   22  C3  UNL     1      51.076  45.864  64.009  1.00  0.00     0.077 A 
HETATM   23  C4  UNL     1      51.612  44.585  64.408  1.00  0.00     0.104 A 
HETATM   24  C6  UNL     1      51.006  43.443  63.855  1.00  0.00     0.102 A 
HETATM   25  C8  UNL     1      49.971  43.577  62.991  1.00  0.00     0.054 A 
BRANCH  21  26
HETATM   26  O1  UNL     1      49.597  47.257  62.830  1.00  0.00    -0.355 OA
HETATM   27  C1  UNL     1      49.854  48.402  63.571  1.00  0.00     0.210 C 
ENDBRANCH  21  26
BRANCH  23  28
HETATM   28  O2  UNL     1      52.577  44.491  65.214  1.00  0.00    -0.353 OA
HETATM   29  C5  UNL     1      53.491  44.689  66.150  1.00  0.00     0.210 C 
ENDBRANCH  23  28
BRANCH  24  30
HETATM   30  O3  UNL     1      51.522  42.215  64.240  1.00  0.00    -0.353 OA
HETATM   31  C7  UNL     1      51.293  41.078  63.476  1.00  0.00     0.210 C 
ENDBRANCH  24  30
ENDBRANCH   1  20
TORSDOF 7
ENDMDL
