MODEL 1
REMARK VINA RESULT: -7.696703092      0.000      0.000
REMARK  4 active torsions:
REMARK  status: ('A' for Active; 'I' for Inactive)
REMARK    1  A    between atoms: C4_5  and  C5_6 
REMARK    2  A    between atoms: C7_10  and  N2_11 
REMARK    3  A    between atoms: N4_17  and  C9_19 
REMARK    4  A    between atoms: C9_19  and  C10_20 
ROOT
HETATM    1  C5  UNL     1      55.845 -19.280  89.323  1.00  0.00     0.114 A 
HETATM    2  C6  UNL     1      56.252 -20.425  88.680  1.00  0.00     0.112 A 
HETATM    3  N1  UNL     1      55.639 -21.575  88.372  1.00  0.00    -0.187 N 
ATOM      4  H1  UNL     1      54.663 -21.710  88.635  1.00  0.00     0.184 HD
HETATM    5  C7  UNL     1      56.299 -22.571  87.711  1.00  0.00     0.678 A 
HETATM    6  N3  UNL     1      57.585 -22.443  87.342  1.00  0.00    -0.175 N 
ATOM      7  H3  UNL     1      58.071 -23.191  86.849  1.00  0.00     0.186 HD
HETATM    8  C8  UNL     1      58.202 -21.299  87.645  1.00  0.00     0.147 A 
HETATM    9  N4  UNL     1      59.431 -21.108  87.324  1.00  0.00    -0.374 N 
ATOM     10  H4  UNL     1      59.821 -20.206  87.596  1.00  0.00     0.161 HD
HETATM   11  C13 UNL     1      57.587 -20.259  88.312  1.00  0.00     0.122 A 
HETATM   12  N5  UNL     1      57.945 -19.041  88.735  1.00  0.00    -0.293 N 
ATOM     13  H5  UNL     1      58.870 -18.629  88.613  1.00  0.00     0.187 HD
HETATM   14  N6  UNL     1      56.919 -18.446  89.338  1.00  0.00    -0.291 N 
HETATM   15  C14 UNL     1      56.903 -17.121  89.932  1.00  0.00     0.178 C 
ENDROOT
BRANCH   1  16
HETATM   16  C4  UNL     1      54.540 -18.933  89.910  1.00  0.00     0.106 A 
HETATM   17  O1  UNL     1      54.337 -18.807  91.211  1.00  0.00    -0.320 OA
HETATM   18  C3  UNL     1      53.113 -18.496  91.509  1.00  0.00     0.149 A 
HETATM   19  C2  UNL     1      52.389 -18.390  90.346  1.00  0.00    -0.037 A 
HETATM   20  C1  UNL     1      50.970 -18.061  90.151  1.00  0.00     0.050 C 
HETATM   21  C15 UNL     1      53.328 -18.675  89.344  1.00  0.00     0.048 A 
ENDBRANCH   1  16
BRANCH   5  22
HETATM   22  N2  UNL     1      55.664 -23.650  87.441  1.00  0.00    -0.234 N 
ATOM     23  H22 UNL     1      54.708 -23.601  87.088  1.00  0.00     0.174 HD
ATOM     24  H21 UNL     1      56.136 -24.541  87.590  1.00  0.00     0.174 HD
ENDBRANCH   5  22
BRANCH   9  25
HETATM   25  C9  UNL     1      60.317 -21.976  86.645  1.00  0.00     0.125 C 
BRANCH  25  26
HETATM   26  C10 UNL     1      61.128 -21.253  85.562  1.00  0.00    -0.005 C 
HETATM   27  C11 UNL     1      62.509 -21.873  85.530  1.00  0.00     0.011 C 
HETATM   28  C12 UNL     1      60.521 -21.438  84.192  1.00  0.00     0.011 C 
ENDBRANCH  25  26
ENDBRANCH   9  25
TORSDOF 4
ENDMDL
MODEL 2
REMARK VINA RESULT: -7.319484587      4.455      6.227
REMARK  4 active torsions:
REMARK  status: ('A' for Active; 'I' for Inactive)
REMARK    1  A    between atoms: C4_5  and  C5_6 
REMARK    2  A    between atoms: C7_10  and  N2_11 
REMARK    3  A    between atoms: N4_17  and  C9_19 
REMARK    4  A    between atoms: C9_19  and  C10_20 
ROOT
HETATM    1  C5  UNL     1      50.807 -19.356  86.653  1.00  0.00     0.114 A 
HETATM    2  C6  UNL     1      52.140 -19.500  86.351  1.00  0.00     0.112 A 
HETATM    3  N1  UNL     1      52.812 -19.656  85.202  1.00  0.00    -0.187 N 
ATOM      4  H1  UNL     1      52.299 -19.684  84.321  1.00  0.00     0.184 HD
HETATM    5  C7  UNL     1      54.172 -19.777  85.192  1.00  0.00     0.678 A 
HETATM    6  N3  UNL     1      54.893 -19.746  86.325  1.00  0.00    -0.175 N 
ATOM      7  H3  UNL     1      55.908 -19.837  86.308  1.00  0.00     0.186 HD
HETATM    8  C8  UNL     1      54.231 -19.590  87.472  1.00  0.00     0.147 A 
HETATM    9  N4  UNL     1      54.855 -19.552  88.594  1.00  0.00    -0.374 N 
ATOM     10  H4  UNL     1      54.269 -19.431  89.420  1.00  0.00     0.161 HD
HETATM   11  C13 UNL     1      52.858 -19.463  87.546  1.00  0.00     0.122 A 
HETATM   12  N5  UNL     1      51.957 -19.302  88.521  1.00  0.00    -0.293 N 
ATOM     13  H5  UNL     1      52.176 -19.239  89.515  1.00  0.00     0.187 HD
HETATM   14  N6  UNL     1      50.732 -19.236  88.005  1.00  0.00    -0.291 N 
HETATM   15  C14 UNL     1      49.486 -19.065  88.733  1.00  0.00     0.178 C 
ENDROOT
BRANCH   1  16
HETATM   16  C4  UNL     1      49.630 -19.327  85.769  1.00  0.00     0.106 A 
HETATM   17  O1  UNL     1      49.231 -18.245  85.122  1.00  0.00    -0.320 OA
HETATM   18  C3  UNL     1      48.172 -18.443  84.399  1.00  0.00     0.149 A 
HETATM   19  C2  UNL     1      47.785 -19.754  84.533  1.00  0.00    -0.037 A 
HETATM   20  C1  UNL     1      46.655 -20.467  83.921  1.00  0.00     0.050 C 
HETATM   21  C15 UNL     1      48.735 -20.292  85.414  1.00  0.00     0.048 A 
ENDBRANCH   1  16
BRANCH   5  22
HETATM   22  N2  UNL     1      54.762 -19.924  84.064  1.00  0.00    -0.234 N 
ATOM     23  H22 UNL     1      54.564 -20.743  83.490  1.00  0.00     0.174 HD
ATOM     24  H21 UNL     1      55.424 -19.207  83.767  1.00  0.00     0.174 HD
ENDBRANCH   5  22
BRANCH   9  25
HETATM   25  C9  UNL     1      56.244 -19.654  88.841  1.00  0.00     0.125 C 
BRANCH  25  26
HETATM   26  C10 UNL     1      56.610 -20.937  89.598  1.00  0.00    -0.005 C 
HETATM   27  C11 UNL     1      55.428 -21.315  90.464  1.00  0.00     0.011 C 
HETATM   28  C12 UNL     1      56.862 -22.089  88.654  1.00  0.00     0.011 C 
ENDBRANCH  25  26
ENDBRANCH   9  25
TORSDOF 4
ENDMDL
MODEL 3
REMARK VINA RESULT: -7.312685813      1.554      2.933
REMARK  4 active torsions:
REMARK  status: ('A' for Active; 'I' for Inactive)
REMARK    1  A    between atoms: C4_5  and  C5_6 
REMARK    2  A    between atoms: C7_10  and  N2_11 
REMARK    3  A    between atoms: N4_17  and  C9_19 
REMARK    4  A    between atoms: C9_19  and  C10_20 
ROOT
HETATM    1  C5  UNL     1      55.031 -20.829  88.199  1.00  0.00     0.114 A 
HETATM    2  C6  UNL     1      56.378 -20.586  88.329  1.00  0.00     0.112 A 
HETATM    3  N1  UNL     1      57.101 -19.839  89.175  1.00  0.00    -0.187 N 
ATOM      4  H1  UNL     1      56.628 -19.308  89.905  1.00  0.00     0.184 HD
HETATM    5  C7  UNL     1      58.461 -19.779  89.074  1.00  0.00     0.678 A 
HETATM    6  N3  UNL     1      59.131 -20.460  88.130  1.00  0.00    -0.175 N 
ATOM      7  H3  UNL     1      60.147 -20.409  88.061  1.00  0.00     0.186 HD
HETATM    8  C8  UNL     1      58.417 -21.206  87.285  1.00  0.00     0.147 A 
HETATM    9  N4  UNL     1      58.991 -21.884  86.356  1.00  0.00    -0.374 N 
ATOM     10  H4  UNL     1      58.368 -22.424  85.757  1.00  0.00     0.161 HD
HETATM   11  C13 UNL     1      57.042 -21.306  87.337  1.00  0.00     0.122 A 
HETATM   12  N5  UNL     1      56.096 -21.953  86.645  1.00  0.00    -0.293 N 
ATOM     13  H5  UNL     1      56.271 -22.566  85.849  1.00  0.00     0.187 HD
HETATM   14  N6  UNL     1      54.895 -21.679  87.147  1.00  0.00    -0.291 N 
HETATM   15  C14 UNL     1      53.616 -22.184  86.678  1.00  0.00     0.178 C 
ENDROOT
BRANCH   1  16
HETATM   16  C4  UNL     1      53.893 -20.321  88.985  1.00  0.00     0.106 A 
HETATM   17  O1  UNL     1      53.401 -20.945  90.041  1.00  0.00    -0.320 OA
HETATM   18  C3  UNL     1      52.401 -20.322  90.583  1.00  0.00     0.149 A 
HETATM   19  C2  UNL     1      52.159 -19.173  89.871  1.00  0.00    -0.037 A 
HETATM   20  C1  UNL     1      51.140 -18.134  90.081  1.00  0.00     0.050 C 
HETATM   21  C15 UNL     1      53.128 -19.201  88.857  1.00  0.00     0.048 A 
ENDBRANCH   1  16
BRANCH   5  22
HETATM   22  N2  UNL     1      59.102 -19.049  89.909  1.00  0.00    -0.234 N 
ATOM     23  H22 UNL     1      58.675 -18.196  90.270  1.00  0.00     0.174 HD
ATOM     24  H21 UNL     1      60.036 -19.345  90.195  1.00  0.00     0.174 HD
ENDBRANCH   5  22
BRANCH   9  25
HETATM   25  C9  UNL     1      60.368 -21.984  86.052  1.00  0.00     0.125 C 
BRANCH  25  26
HETATM   26  C10 UNL     1      60.621 -22.229  84.560  1.00  0.00    -0.005 C 
HETATM   27  C11 UNL     1      59.568 -23.199  84.068  1.00  0.00     0.011 C 
HETATM   28  C12 UNL     1      60.476 -20.962  83.752  1.00  0.00     0.011 C 
ENDBRANCH  25  26
ENDBRANCH   9  25
TORSDOF 4
ENDMDL
MODEL 4
REMARK VINA RESULT: -7.307948080      1.423      1.692
REMARK  4 active torsions:
REMARK  status: ('A' for Active; 'I' for Inactive)
REMARK    1  A    between atoms: C4_5  and  C5_6 
REMARK    2  A    between atoms: C7_10  and  N2_11 
REMARK    3  A    between atoms: N4_17  and  C9_19 
REMARK    4  A    between atoms: C9_19  and  C10_20 
ROOT
HETATM    1  C5  UNL     1      55.587 -20.456  88.432  1.00  0.00     0.114 A 
HETATM    2  C6  UNL     1      56.068 -21.407  87.563  1.00  0.00     0.112 A 
HETATM    3  N1  UNL     1      55.503 -22.442  86.927  1.00  0.00    -0.187 N 
ATOM      4  H1  UNL     1      54.511 -22.634  87.064  1.00  0.00     0.184 HD
HETATM    5  C7  UNL     1      56.235 -23.245  86.100  1.00  0.00     0.678 A 
HETATM    6  N3  UNL     1      57.544 -23.033  85.887  1.00  0.00    -0.175 N 
ATOM      7  H3  UNL     1      58.084 -23.638  85.268  1.00  0.00     0.186 HD
HETATM    8  C8  UNL     1      58.113 -22.004  86.516  1.00  0.00     0.147 A 
HETATM    9  N4  UNL     1      59.361 -21.743  86.360  1.00  0.00    -0.374 N 
ATOM     10  H4  UNL     1      59.711 -20.938  86.880  1.00  0.00     0.161 HD
HETATM   11  C13 UNL     1      57.426 -21.159  87.364  1.00  0.00     0.122 A 
HETATM   12  N5  UNL     1      57.725 -20.086  88.105  1.00  0.00    -0.293 N 
ATOM     13  H5  UNL     1      58.649 -19.660  88.170  1.00  0.00     0.187 HD
HETATM   14  N6  UNL     1      56.641 -19.656  88.746  1.00  0.00    -0.291 N 
HETATM   15  C14 UNL     1      56.551 -18.520  89.647  1.00  0.00     0.178 C 
ENDROOT
BRANCH   1  16
HETATM   16  C4  UNL     1      54.231 -20.261  88.972  1.00  0.00     0.106 A 
HETATM   17  O1  UNL     1      53.812 -20.804  90.103  1.00  0.00    -0.320 OA
HETATM   18  C3  UNL     1      52.584 -20.502  90.391  1.00  0.00     0.149 A 
HETATM   19  C2  UNL     1      52.087 -19.686  89.404  1.00  0.00    -0.037 A 
HETATM   20  C1  UNL     1      50.756 -19.077  89.270  1.00  0.00     0.050 C 
HETATM   21  C15 UNL     1      53.163 -19.551  88.513  1.00  0.00     0.048 A 
ENDBRANCH   1  16
BRANCH   5  22
HETATM   22  N2  UNL     1      55.643 -24.220  85.518  1.00  0.00    -0.234 N 
ATOM     23  H22 UNL     1      54.862 -24.688  85.978  1.00  0.00     0.174 HD
ATOM     24  H21 UNL     1      55.975 -24.508  84.597  1.00  0.00     0.174 HD
ENDBRANCH   5  22
BRANCH   9  25
HETATM   25  C9  UNL     1      60.317 -22.418  85.566  1.00  0.00     0.125 C 
BRANCH  25  26
HETATM   26  C10 UNL     1      61.195 -21.452  84.761  1.00  0.00    -0.005 C 
HETATM   27  C11 UNL     1      60.346 -20.877  83.647  1.00  0.00     0.011 C 
HETATM   28  C12 UNL     1      61.672 -20.295  85.605  1.00  0.00     0.011 C 
ENDBRANCH  25  26
ENDBRANCH   9  25
TORSDOF 4
ENDMDL
MODEL 5
REMARK VINA RESULT: -7.291286709      5.079      7.372
REMARK  4 active torsions:
REMARK  status: ('A' for Active; 'I' for Inactive)
REMARK    1  A    between atoms: C4_5  and  C5_6 
REMARK    2  A    between atoms: C7_10  and  N2_11 
REMARK    3  A    between atoms: N4_17  and  C9_19 
REMARK    4  A    between atoms: C9_19  and  C10_20 
ROOT
HETATM    1  C5  UNL     1      51.144 -20.367  85.388  1.00  0.00     0.114 A 
HETATM    2  C6  UNL     1      51.574 -19.530  86.390  1.00  0.00     0.112 A 
HETATM    3  N1  UNL     1      51.063 -18.425  86.951  1.00  0.00    -0.187 N 
ATOM      4  H1  UNL     1      50.169 -18.063  86.620  1.00  0.00     0.184 HD
HETATM    5  C7  UNL     1      51.720 -17.777  87.957  1.00  0.00     0.678 A 
HETATM    6  N3  UNL     1      52.900 -18.214  88.427  1.00  0.00    -0.175 N 
ATOM      7  H3  UNL     1      53.384 -17.723  89.178  1.00  0.00     0.186 HD
HETATM    8  C8  UNL     1      53.415 -19.313  87.874  1.00  0.00     0.147 A 
HETATM    9  N4  UNL     1      54.540 -19.787  88.274  1.00  0.00    -0.374 N 
ATOM     10  H4  UNL     1      54.857 -20.630  87.795  1.00  0.00     0.161 HD
HETATM   11  C13 UNL     1      52.798 -20.011  86.855  1.00  0.00     0.122 A 
HETATM   12  N5  UNL     1      53.071 -21.105  86.135  1.00  0.00    -0.293 N 
ATOM     13  H5  UNL     1      53.905 -21.682  86.241  1.00  0.00     0.187 HD
HETATM   14  N6  UNL     1      52.095 -21.329  85.258  1.00  0.00    -0.291 N 
HETATM   15  C14 UNL     1      52.018 -22.416  84.296  1.00  0.00     0.178 C 
ENDROOT
BRANCH   1  16
HETATM   16  C4  UNL     1      49.923 -20.315  84.566  1.00  0.00     0.106 A 
HETATM   17  O1  UNL     1      49.929 -20.056  83.269  1.00  0.00    -0.320 OA
HETATM   18  C3  UNL     1      48.743 -20.061  82.742  1.00  0.00     0.149 A 
HETATM   19  C2  UNL     1      47.825 -20.343  83.724  1.00  0.00    -0.037 A 
HETATM   20  C1  UNL     1      46.363 -20.462  83.636  1.00  0.00     0.050 C 
HETATM   21  C15 UNL     1      48.609 -20.500  84.876  1.00  0.00     0.048 A 
ENDBRANCH   1  16
BRANCH   5  22
HETATM   22  N2  UNL     1      51.184 -16.725  88.456  1.00  0.00    -0.234 N 
ATOM     23  H22 UNL     1      50.184 -16.711  88.654  1.00  0.00     0.174 HD
ATOM     24  H21 UNL     1      51.781 -15.920  88.643  1.00  0.00     0.174 HD
ENDBRANCH   5  22
BRANCH   9  25
HETATM   25  C9  UNL     1      55.399 -19.302  89.287  1.00  0.00     0.125 C 
BRANCH  25  26
HETATM   26  C10 UNL     1      55.264 -20.091  90.595  1.00  0.00    -0.005 C 
HETATM   27  C11 UNL     1      54.118 -19.489  91.380  1.00  0.00     0.011 C 
HETATM   28  C12 UNL     1      54.922 -21.540  90.341  1.00  0.00     0.011 C 
ENDBRANCH  25  26
ENDBRANCH   9  25
TORSDOF 4
ENDMDL
