MODEL 1
REMARK VINA RESULT: -7.031158510      0.000      0.000
REMARK  5 active torsions:
REMARK  status: ('A' for Active; 'I' for Inactive)
REMARK    1  A    between atoms: C3_5  and  C4_6 
REMARK    2  A    between atoms: C7_15  and  N5_16 
REMARK    3  A    between atoms: N5_16  and  C8_18 
REMARK    4  A    between atoms: C8_18  and  C9_19 
REMARK    5  A    between atoms: C9_19  and  O1_20 
ROOT
HETATM    1  C4  UNL     1      56.793 -21.748  86.751  1.00  0.00     0.069 A 
HETATM    2  N2  UNL     1      56.601 -22.425  85.584  1.00  0.00    -0.339 N 
ATOM      3  H2  UNL     1      55.679 -22.636  85.201  1.00  0.00     0.167 HD
HETATM    4  C5  UNL     1      57.736 -22.778  84.999  1.00  0.00     0.121 A 
HETATM    5  N3  UNL     1      58.021 -23.463  83.861  1.00  0.00    -0.338 N 
ATOM      6  H3  UNL     1      57.264 -23.801  83.266  1.00  0.00     0.168 HD
HETATM    7  C6  UNL     1      59.295 -23.696  83.519  1.00  0.00     0.183 A 
HETATM    8  N4  UNL     1      60.283 -23.250  84.304  1.00  0.00    -0.338 N 
ATOM      9  H4  UNL     1      61.247 -23.437  84.029  1.00  0.00     0.168 HD
HETATM   10  C7  UNL     1      60.058 -22.559  85.455  1.00  0.00     0.116 A 
HETATM   11  C10 UNL     1      58.738 -22.321  85.800  1.00  0.00     0.060 A 
HETATM   12  C11 UNL     1      58.130 -21.675  86.886  1.00  0.00    -0.015 A 
HETATM   13  C12 UNL     1      58.958 -20.911  87.827  1.00  0.00     0.052 C 
ENDROOT
BRANCH   1  14
HETATM   14  C3  UNL     1      55.672 -21.134  87.523  1.00  0.00     0.073 A 
HETATM   15  N1  UNL     1      54.853 -20.338  86.843  1.00  0.00    -0.352 N 
HETATM   16  C2  UNL     1      53.785 -19.844  87.333  1.00  0.00     0.047 A 
ATOM     17  H1  UNL     1      55.091 -20.110  85.878  1.00  0.00     0.166 HD
HETATM   18  C1  UNL     1      52.761 -18.921  86.687  1.00  0.00     0.076 C 
HETATM   19  S1  UNL     1      53.789 -20.474  88.909  1.00  0.00    -0.080 SA
HETATM   20  C13 UNL     1      55.283 -21.393  88.788  1.00  0.00     0.009 A 
HETATM   21  C14 UNL     1      55.708 -22.270  89.898  1.00  0.00     0.059 C 
ENDBRANCH   1  14
BRANCH  10  22
HETATM   22  N5  UNL     1      61.033 -22.179  86.188  1.00  0.00    -0.373 N 
ATOM     23  H5  UNL     1      60.895 -22.190  87.199  1.00  0.00     0.161 HD
BRANCH  22  24
HETATM   24  C8  UNL     1      62.295 -21.741  85.702  1.00  0.00     0.147 C 
BRANCH  24  25
HETATM   25  C9  UNL     1      62.519 -20.318  86.201  1.00  0.00     0.183 C 
BRANCH  25  26
HETATM   26  O1  UNL     1      61.580 -19.496  85.538  1.00  0.00    -0.399 OA
ATOM     27  H1  UNL     1      61.685 -18.618  85.887  1.00  0.00     0.209 HD
ENDBRANCH  25  26
ENDBRANCH  24  25
ENDBRANCH  22  24
ENDBRANCH  10  22
TORSDOF 5
ENDMDL
MODEL 2
REMARK VINA RESULT: -6.967360592      3.299      6.933
REMARK  5 active torsions:
REMARK  status: ('A' for Active; 'I' for Inactive)
REMARK    1  A    between atoms: C3_5  and  C4_6 
REMARK    2  A    between atoms: C7_15  and  N5_16 
REMARK    3  A    between atoms: N5_16  and  C8_18 
REMARK    4  A    between atoms: C8_18  and  C9_19 
REMARK    5  A    between atoms: C9_19  and  O1_20 
ROOT
HETATM    1  C4  UNL     1      56.559 -21.246  86.713  1.00  0.00     0.069 A 
HETATM    2  N2  UNL     1      57.202 -20.484  87.642  1.00  0.00    -0.339 N 
ATOM      3  H2  UNL     1      58.215 -20.483  87.766  1.00  0.00     0.167 HD
HETATM    4  C5  UNL     1      56.375 -19.745  88.367  1.00  0.00     0.121 A 
HETATM    5  N3  UNL     1      56.563 -18.872  89.390  1.00  0.00    -0.338 N 
ATOM      6  H3  UNL     1      57.506 -18.675  89.725  1.00  0.00     0.168 HD
HETATM    7  C6  UNL     1      55.511 -18.269  89.959  1.00  0.00     0.183 A 
HETATM    8  N4  UNL     1      54.277 -18.532  89.514  1.00  0.00    -0.338 N 
ATOM      9  H4  UNL     1      53.487 -18.064  89.960  1.00  0.00     0.168 HD
HETATM   10  C7  UNL     1      54.028 -19.397  88.493  1.00  0.00     0.116 A 
HETATM   11  C10 UNL     1      55.121 -20.014  87.909  1.00  0.00     0.060 A 
HETATM   12  C11 UNL     1      55.257 -20.949  86.871  1.00  0.00    -0.015 A 
HETATM   13  C12 UNL     1      54.088 -21.291  86.052  1.00  0.00     0.052 C 
ENDROOT
BRANCH   1  14
HETATM   14  C3  UNL     1      57.285 -22.061  85.694  1.00  0.00     0.073 A 
HETATM   15  N1  UNL     1      58.310 -21.471  85.086  1.00  0.00    -0.352 N 
HETATM   16  C2  UNL     1      59.098 -22.077  84.288  1.00  0.00     0.047 A 
ATOM     17  H1  UNL     1      58.474 -20.481  85.267  1.00  0.00     0.166 HD
HETATM   18  C1  UNL     1      60.298 -21.541  83.520  1.00  0.00     0.076 C 
HETATM   19  S1  UNL     1      58.467 -23.653  84.291  1.00  0.00    -0.080 SA
HETATM   20  C13 UNL     1      57.140 -23.371  85.408  1.00  0.00     0.009 A 
HETATM   21  C14 UNL     1      56.306 -24.499  85.872  1.00  0.00     0.059 C 
ENDBRANCH   1  14
BRANCH  10  22
HETATM   22  N5  UNL     1      52.829 -19.638  88.121  1.00  0.00    -0.373 N 
ATOM     23  H5  UNL     1      52.555 -20.615  88.019  1.00  0.00     0.161 HD
BRANCH  22  24
HETATM   24  C8  UNL     1      51.848 -18.649  87.840  1.00  0.00     0.147 C 
BRANCH  24  25
HETATM   25  C9  UNL     1      51.731 -18.526  86.324  1.00  0.00     0.183 C 
BRANCH  25  26
HETATM   26  O1  UNL     1      52.537 -17.433  85.935  1.00  0.00    -0.399 OA
ATOM     27  H1  UNL     1      52.777 -17.575  85.027  1.00  0.00     0.209 HD
ENDBRANCH  25  26
ENDBRANCH  24  25
ENDBRANCH  22  24
ENDBRANCH  10  22
TORSDOF 5
ENDMDL
MODEL 3
REMARK VINA RESULT: -6.923355713      2.668      4.396
REMARK  5 active torsions:
REMARK  status: ('A' for Active; 'I' for Inactive)
REMARK    1  A    between atoms: C3_5  and  C4_6 
REMARK    2  A    between atoms: C7_15  and  N5_16 
REMARK    3  A    between atoms: N5_16  and  C8_18 
REMARK    4  A    between atoms: C8_18  and  C9_19 
REMARK    5  A    between atoms: C9_19  and  O1_20 
ROOT
HETATM    1  C4  UNL     1      54.953 -19.329  88.698  1.00  0.00     0.069 A 
HETATM    2  N2  UNL     1      56.033 -18.842  89.373  1.00  0.00    -0.339 N 
ATOM      3  H2  UNL     1      55.980 -18.074  90.042  1.00  0.00     0.167 HD
HETATM    4  C5  UNL     1      57.159 -19.472  89.069  1.00  0.00     0.121 A 
HETATM    5  N3  UNL     1      58.447 -19.320  89.471  1.00  0.00    -0.338 N 
ATOM      6  H3  UNL     1      58.685 -18.604  90.158  1.00  0.00     0.168 HD
HETATM    7  C6  UNL     1      59.405 -20.108  88.967  1.00  0.00     0.183 A 
HETATM    8  N4  UNL     1      59.086 -21.044  88.065  1.00  0.00    -0.338 N 
ATOM      9  H4  UNL     1      59.828 -21.636  87.691  1.00  0.00     0.168 HD
HETATM   10  C7  UNL     1      57.813 -21.243  87.625  1.00  0.00     0.116 A 
HETATM   11  C10 UNL     1      56.828 -20.425  88.153  1.00  0.00     0.060 A 
HETATM   12  C11 UNL     1      55.445 -20.325  87.940  1.00  0.00    -0.015 A 
HETATM   13  C12 UNL     1      54.762 -21.350  87.142  1.00  0.00     0.052 C 
ENDROOT
BRANCH   1  14
HETATM   14  C3  UNL     1      53.559 -18.869  88.969  1.00  0.00     0.073 A 
HETATM   15  N1  UNL     1      52.732 -18.840  87.928  1.00  0.00    -0.352 N 
HETATM   16  C2  UNL     1      51.486 -18.592  88.024  1.00  0.00     0.047 A 
ATOM     17  H1  UNL     1      53.116 -19.028  87.001  1.00  0.00     0.166 HD
HETATM   18  C1  UNL     1      50.426 -18.518  86.934  1.00  0.00     0.076 C 
HETATM   19  S1  UNL     1      51.298 -18.354  89.695  1.00  0.00    -0.080 SA
HETATM   20  C13 UNL     1      52.973 -18.618  90.158  1.00  0.00     0.009 A 
HETATM   21  C14 UNL     1      53.354 -18.649  91.585  1.00  0.00     0.059 C 
ENDBRANCH   1  14
BRANCH  10  22
HETATM   22  N5  UNL     1      57.560 -22.131  86.741  1.00  0.00    -0.373 N 
ATOM     23  H5  UNL     1      56.849 -22.828  86.964  1.00  0.00     0.161 HD
BRANCH  22  24
HETATM   24  C8  UNL     1      58.195 -22.222  85.473  1.00  0.00     0.147 C 
BRANCH  24  25
HETATM   25  C9  UNL     1      57.106 -22.386  84.418  1.00  0.00     0.183 C 
BRANCH  25  26
HETATM   26  O1  UNL     1      57.169 -21.251  83.579  1.00  0.00    -0.399 OA
ATOM     27  H1  UNL     1      57.725 -21.480  82.843  1.00  0.00     0.209 HD
ENDBRANCH  25  26
ENDBRANCH  24  25
ENDBRANCH  22  24
ENDBRANCH  10  22
TORSDOF 5
ENDMDL
MODEL 4
REMARK VINA RESULT: -6.902223221      0.942      1.838
REMARK  5 active torsions:
REMARK  status: ('A' for Active; 'I' for Inactive)
REMARK    1  A    between atoms: C3_5  and  C4_6 
REMARK    2  A    between atoms: C7_15  and  N5_16 
REMARK    3  A    between atoms: N5_16  and  C8_18 
REMARK    4  A    between atoms: C8_18  and  C9_19 
REMARK    5  A    between atoms: C9_19  and  O1_20 
ROOT
HETATM    1  C4  UNL     1      56.900 -21.645  86.606  1.00  0.00     0.069 A 
HETATM    2  N2  UNL     1      56.684 -22.336  85.451  1.00  0.00    -0.339 N 
ATOM      3  H2  UNL     1      55.757 -22.511  85.064  1.00  0.00     0.167 HD
HETATM    4  C5  UNL     1      57.805 -22.756  84.883  1.00  0.00     0.121 A 
HETATM    5  N3  UNL     1      58.066 -23.478  83.763  1.00  0.00    -0.338 N 
ATOM      6  H3  UNL     1      57.299 -23.791  83.168  1.00  0.00     0.168 HD
HETATM    7  C6  UNL     1      59.330 -23.779  83.437  1.00  0.00     0.183 A 
HETATM    8  N4  UNL     1      60.332 -23.365  84.222  1.00  0.00    -0.338 N 
ATOM      9  H4  UNL     1      61.288 -23.604  83.959  1.00  0.00     0.168 HD
HETATM   10  C7  UNL     1      60.132 -22.639  85.356  1.00  0.00     0.116 A 
HETATM   11  C10 UNL     1      58.822 -22.331  85.684  1.00  0.00     0.060 A 
HETATM   12  C11 UNL     1      58.237 -21.633  86.751  1.00  0.00    -0.015 A 
HETATM   13  C12 UNL     1      59.095 -20.890  87.683  1.00  0.00     0.052 C 
ENDROOT
BRANCH   1  14
HETATM   14  C3  UNL     1      55.804 -20.961  87.354  1.00  0.00     0.073 A 
HETATM   15  N1  UNL     1      55.902 -20.964  88.680  1.00  0.00    -0.352 N 
HETATM   16  C2  UNL     1      55.114 -20.318  89.445  1.00  0.00     0.047 A 
ATOM     17  H1  UNL     1      56.648 -21.512  89.109  1.00  0.00     0.166 HD
HETATM   18  C1  UNL     1      55.096 -20.229  90.965  1.00  0.00     0.076 C 
HETATM   19  S1  UNL     1      54.068 -19.573  88.335  1.00  0.00    -0.080 SA
HETATM   20  C13 UNL     1      54.797 -20.208  86.867  1.00  0.00     0.009 A 
HETATM   21  C14 UNL     1      54.323 -19.752  85.543  1.00  0.00     0.059 C 
ENDBRANCH   1  14
BRANCH  10  22
HETATM   22  N5  UNL     1      61.119 -22.291  86.089  1.00  0.00    -0.373 N 
ATOM     23  H5  UNL     1      61.026 -22.420  87.097  1.00  0.00     0.161 HD
BRANCH  22  24
HETATM   24  C8  UNL     1      62.335 -21.736  85.608  1.00  0.00     0.147 C 
BRANCH  24  25
HETATM   25  C9  UNL     1      62.485 -20.344  86.211  1.00  0.00     0.183 C 
BRANCH  25  26
HETATM   26  O1  UNL     1      61.616 -19.489  85.498  1.00  0.00    -0.399 OA
ATOM     27  H1  UNL     1      62.121 -18.722  85.253  1.00  0.00     0.209 HD
ENDBRANCH  25  26
ENDBRANCH  24  25
ENDBRANCH  22  24
ENDBRANCH  10  22
TORSDOF 5
ENDMDL
MODEL 5
REMARK VINA RESULT: -6.815297321      1.736      1.988
REMARK  5 active torsions:
REMARK  status: ('A' for Active; 'I' for Inactive)
REMARK    1  A    between atoms: C3_5  and  C4_6 
REMARK    2  A    between atoms: C7_15  and  N5_16 
REMARK    3  A    between atoms: N5_16  and  C8_18 
REMARK    4  A    between atoms: C8_18  and  C9_19 
REMARK    5  A    between atoms: C9_19  and  O1_20 
ROOT
HETATM    1  C4  UNL     1      56.663 -20.825  87.673  1.00  0.00     0.069 A 
HETATM    2  N2  UNL     1      56.189 -21.333  86.501  1.00  0.00    -0.339 N 
ATOM      3  H2  UNL     1      55.206 -21.303  86.230  1.00  0.00     0.167 HD
HETATM    4  C5  UNL     1      57.138 -21.871  85.749  1.00  0.00     0.121 A 
HETATM    5  N3  UNL     1      57.128 -22.494  84.543  1.00  0.00    -0.338 N 
ATOM      6  H3  UNL     1      56.251 -22.602  84.032  1.00  0.00     0.168 HD
HETATM    7  C6  UNL     1      58.267 -22.967  84.021  1.00  0.00     0.183 A 
HETATM    8  N4  UNL     1      59.414 -22.822  84.696  1.00  0.00    -0.338 N 
ATOM      9  H4  UNL     1      60.272 -23.189  84.284  1.00  0.00     0.168 HD
HETATM   10  C7  UNL     1      59.486 -22.207  85.908  1.00  0.00     0.116 A 
HETATM   11  C10 UNL     1      58.303 -21.719  86.439  1.00  0.00     0.060 A 
HETATM   12  C11 UNL     1      57.987 -21.058  87.635  1.00  0.00    -0.015 A 
HETATM   13  C12 UNL     1      59.070 -20.584  88.505  1.00  0.00     0.052 C 
ENDROOT
BRANCH   1  14
HETATM   14  C3  UNL     1      55.807 -20.055  88.624  1.00  0.00     0.073 A 
HETATM   15  N1  UNL     1      54.673 -20.637  89.004  1.00  0.00    -0.352 N 
HETATM   16  C2  UNL     1      53.904 -20.161  89.902  1.00  0.00     0.047 A 
ATOM     17  H1  UNL     1      54.405 -21.512  88.554  1.00  0.00     0.166 HD
HETATM   18  C1  UNL     1      52.586 -20.703  90.434  1.00  0.00     0.076 C 
HETATM   19  S1  UNL     1      54.724 -18.747  90.360  1.00  0.00    -0.080 SA
HETATM   20  C13 UNL     1      56.093 -18.907  89.271  1.00  0.00     0.009 A 
HETATM   21  C14 UNL     1      57.223 -17.958  89.351  1.00  0.00     0.059 C 
ENDBRANCH   1  14
BRANCH  10  22
HETATM   22  N5  UNL     1      60.600 -22.118  86.529  1.00  0.00    -0.373 N 
ATOM     23  H5  UNL     1      60.591 -22.275  87.537  1.00  0.00     0.161 HD
BRANCH  22  24
HETATM   24  C8  UNL     1      61.849 -21.816  85.921  1.00  0.00     0.147 C 
BRANCH  24  25
HETATM   25  C9  UNL     1      61.922 -20.305  85.731  1.00  0.00     0.183 C 
BRANCH  25  26
HETATM   26  O1  UNL     1      62.162 -19.740  87.003  1.00  0.00    -0.399 OA
ATOM     27  H1  UNL     1      61.314 -19.590  87.405  1.00  0.00     0.209 HD
ENDBRANCH  25  26
ENDBRANCH  24  25
ENDBRANCH  22  24
ENDBRANCH  10  22
TORSDOF 5
ENDMDL
