MODEL 1
REMARK VINA RESULT: -7.051520000      0.000      0.000
REMARK  4 active torsions:
REMARK  status: ('A' for Active; 'I' for Inactive)
REMARK    1  A    between atoms: C4_7  and  N2_8 
REMARK    2  A    between atoms: N4_14  and  C6_16 
REMARK    3  A    between atoms: C6_16  and  C8_18 
REMARK    4  A    between atoms: C8_18  and  N5_19 
ROOT
HETATM    1  C1  UNL     1      49.329 -19.008  88.898  1.00  0.00     0.057 C 
HETATM    2  C2  UNL     1      50.481 -19.232  87.945  1.00  0.00    -0.012 A 
HETATM    3  S1  UNL     1      50.420 -19.573  86.280  1.00  0.00    -0.075 SA
HETATM    4  C3  UNL     1      52.093 -19.680  85.964  1.00  0.00     0.105 A 
HETATM    5  N1  UNL     1      52.838 -19.930  84.836  1.00  0.00    -0.185 N 
ATOM      6  H1  UNL     1      52.367 -20.100  83.948  1.00  0.00     0.185 HD
HETATM    7  C4  UNL     1      54.184 -19.953  84.891  1.00  0.00     0.678 A 
HETATM    8  N3  UNL     1      54.763 -19.722  86.080  1.00  0.00    -0.176 N 
ATOM      9  H3  UNL     1      55.782 -19.736  86.131  1.00  0.00     0.186 HD
HETATM   10  C5  UNL     1      54.076 -19.475  87.200  1.00  0.00     0.131 A 
HETATM   11  N4  UNL     1      54.715 -19.266  88.294  1.00  0.00    -0.369 N 
ATOM     12  H4  UNL     1      54.159 -19.080  89.128  1.00  0.00     0.161 HD
HETATM   13  C12 UNL     1      52.665 -19.444  87.177  1.00  0.00     0.050 A 
HETATM   14  C13 UNL     1      51.820 -19.208  88.220  1.00  0.00    -0.032 A 
HETATM   15  C14 UNL     1      52.284 -18.924  89.648  1.00  0.00     0.050 C 
ENDROOT
BRANCH  11  16
HETATM   16  C6  UNL     1      56.129 -19.272  88.447  1.00  0.00     0.097 C 
HETATM   17  C7  UNL     1      56.595 -18.307  89.498  1.00  0.00     0.034 C 
BRANCH  16  18
HETATM   18  C8  UNL     1      56.667 -20.643  88.831  1.00  0.00     0.153 C 
BRANCH  18  19
HETATM   19  N5  UNL     1      57.738 -21.066  87.988  1.00  0.00    -0.350 N 
HETATM   20  C9  UNL     1      57.605 -21.649  86.778  1.00  0.00     0.108 A 
HETATM   21  C10 UNL     1      58.847 -21.925  86.248  1.00  0.00     0.106 A 
HETATM   22  N6  UNL     1      59.738 -21.498  87.161  1.00  0.00    -0.361 N 
HETATM   23  C11 UNL     1      59.060 -20.979  88.214  1.00  0.00     0.182 A 
ATOM     24  H6  UNL     1      60.753 -21.555  87.075  1.00  0.00     0.166 HD
ENDBRANCH  18  19
ENDBRANCH  16  18
ENDBRANCH  11  16
BRANCH   7  25
HETATM   25  N2  UNL     1      54.845 -20.191  83.815  1.00  0.00    -0.234 N 
ATOM     26  H22 UNL     1      54.446 -20.657  83.001  1.00  0.00     0.174 HD
ATOM     27  H21 UNL     1      55.823 -19.904  83.764  1.00  0.00     0.174 HD
ENDBRANCH   7  25
TORSDOF 4
ENDMDL
MODEL 2
REMARK VINA RESULT: -6.987701350      2.173      3.081
REMARK  4 active torsions:
REMARK  status: ('A' for Active; 'I' for Inactive)
REMARK    1  A    between atoms: C4_7  and  N2_8 
REMARK    2  A    between atoms: N4_14  and  C6_16 
REMARK    3  A    between atoms: C6_16  and  C8_18 
REMARK    4  A    between atoms: C8_18  and  N5_19 
ROOT
HETATM    1  C1  UNL     1      52.952 -18.638  91.879  1.00  0.00     0.057 C 
HETATM    2  C2  UNL     1      53.264 -18.836  90.413  1.00  0.00    -0.012 A 
HETATM    3  S1  UNL     1      52.375 -18.301  89.065  1.00  0.00    -0.075 SA
HETATM    4  C3  UNL     1      53.370 -18.915  87.824  1.00  0.00     0.105 A 
HETATM    5  N1  UNL     1      53.311 -18.886  86.450  1.00  0.00    -0.185 N 
ATOM      6  H1  UNL     1      52.535 -18.414  85.989  1.00  0.00     0.185 HD
HETATM    7  C4  UNL     1      54.268 -19.476  85.707  1.00  0.00     0.678 A 
HETATM    8  N3  UNL     1      55.274 -20.085  86.356  1.00  0.00    -0.176 N 
ATOM      9  H3  UNL     1      56.003 -20.533  85.803  1.00  0.00     0.186 HD
HETATM   10  C5  UNL     1      55.368 -20.136  87.689  1.00  0.00     0.131 A 
HETATM   11  N4  UNL     1      56.365 -20.743  88.223  1.00  0.00    -0.369 N 
ATOM     12  H4  UNL     1      56.405 -20.761  89.242  1.00  0.00     0.161 HD
HETATM   13  C12 UNL     1      54.383 -19.529  88.496  1.00  0.00     0.050 A 
HETATM   14  C13 UNL     1      54.329 -19.489  89.857  1.00  0.00    -0.032 A 
HETATM   15  C14 UNL     1      55.377 -20.122  90.772  1.00  0.00     0.050 C 
ENDROOT
BRANCH  11  16
HETATM   16  C6  UNL     1      57.419 -21.392  87.522  1.00  0.00     0.097 C 
HETATM   17  C7  UNL     1      58.726 -21.318  88.256  1.00  0.00     0.034 C 
BRANCH  16  18
HETATM   18  C8  UNL     1      57.131 -22.866  87.274  1.00  0.00     0.153 C 
BRANCH  18  19
HETATM   19  N5  UNL     1      56.952 -23.164  85.890  1.00  0.00    -0.350 N 
HETATM   20  C9  UNL     1      56.212 -24.174  85.389  1.00  0.00     0.108 A 
HETATM   21  C10 UNL     1      56.266 -24.163  84.012  1.00  0.00     0.106 A 
HETATM   22  N6  UNL     1      57.056 -23.124  83.686  1.00  0.00    -0.361 N 
HETATM   23  C11 UNL     1      57.470 -22.522  84.828  1.00  0.00     0.182 A 
ATOM     24  H6  UNL     1      57.301 -22.837  82.738  1.00  0.00     0.166 HD
ENDBRANCH  18  19
ENDBRANCH  16  18
ENDBRANCH  11  16
BRANCH   7  25
HETATM   25  N2  UNL     1      54.178 -19.428  84.426  1.00  0.00    -0.234 N 
ATOM     26  H22 UNL     1      53.298 -19.525  83.921  1.00  0.00     0.174 HD
ATOM     27  H21 UNL     1      55.026 -19.287  83.877  1.00  0.00     0.174 HD
ENDBRANCH   7  25
TORSDOF 4
ENDMDL
MODEL 3
REMARK VINA RESULT: -6.877269327      1.827      2.266
REMARK  4 active torsions:
REMARK  status: ('A' for Active; 'I' for Inactive)
REMARK    1  A    between atoms: C4_7  and  N2_8 
REMARK    2  A    between atoms: N4_14  and  C6_16 
REMARK    3  A    between atoms: C6_16  and  C8_18 
REMARK    4  A    between atoms: C8_18  and  N5_19 
ROOT
HETATM    1  C1  UNL     1      51.174 -17.923  90.406  1.00  0.00     0.057 C 
HETATM    2  C2  UNL     1      51.940 -18.372  89.182  1.00  0.00    -0.012 A 
HETATM    3  S1  UNL     1      51.428 -18.372  87.560  1.00  0.00    -0.075 SA
HETATM    4  C3  UNL     1      52.833 -19.011  86.833  1.00  0.00     0.105 A 
HETATM    5  N1  UNL     1      53.187 -19.308  85.539  1.00  0.00    -0.185 N 
ATOM      6  H1  UNL     1      52.524 -19.140  84.783  1.00  0.00     0.185 HD
HETATM    7  C4  UNL     1      54.402 -19.819  85.257  1.00  0.00     0.678 A 
HETATM    8  N3  UNL     1      55.245 -20.022  86.282  1.00  0.00    -0.176 N 
ATOM      9  H3  UNL     1      56.167 -20.407  86.079  1.00  0.00     0.186 HD
HETATM   10  C5  UNL     1      54.940 -19.747  87.555  1.00  0.00     0.131 A 
HETATM   11  N4  UNL     1      55.810 -19.976  88.471  1.00  0.00    -0.369 N 
ATOM     12  H4  UNL     1      55.543 -19.753  89.429  1.00  0.00     0.161 HD
HETATM   13  C12 UNL     1      53.677 -19.211  87.883  1.00  0.00     0.050 A 
HETATM   14  C13 UNL     1      53.209 -18.877  89.119  1.00  0.00    -0.032 A 
HETATM   15  C14 UNL     1      54.016 -19.032  90.408  1.00  0.00     0.050 C 
ENDROOT
BRANCH  11  16
HETATM   16  C6  UNL     1      57.111 -20.512  88.269  1.00  0.00     0.097 C 
HETATM   17  C7  UNL     1      58.173 -19.717  88.971  1.00  0.00     0.034 C 
BRANCH  16  18
HETATM   18  C8  UNL     1      57.232 -21.947  88.762  1.00  0.00     0.153 C 
BRANCH  18  19
HETATM   19  N5  UNL     1      56.599 -22.880  87.887  1.00  0.00    -0.350 N 
HETATM   20  C9  UNL     1      55.667 -23.789  88.244  1.00  0.00     0.108 A 
HETATM   21  C10 UNL     1      55.278 -24.524  87.144  1.00  0.00     0.106 A 
HETATM   22  N6  UNL     1      55.993 -24.043  86.112  1.00  0.00    -0.361 N 
HETATM   23  C11 UNL     1      56.793 -23.047  86.568  1.00  0.00     0.182 A 
ATOM     24  H6  UNL     1      55.941 -24.372  85.147  1.00  0.00     0.166 HD
ENDBRANCH  18  19
ENDBRANCH  16  18
ENDBRANCH  11  16
BRANCH   7  25
HETATM   25  N2  UNL     1      54.696 -20.084  84.035  1.00  0.00    -0.234 N 
ATOM     26  H22 UNL     1      54.857 -21.029  83.688  1.00  0.00     0.174 HD
ATOM     27  H21 UNL     1      54.776 -19.316  83.369  1.00  0.00     0.174 HD
ENDBRANCH   7  25
TORSDOF 4
ENDMDL
MODEL 4
REMARK VINA RESULT: -6.720872518      1.426      1.821
REMARK  4 active torsions:
REMARK  status: ('A' for Active; 'I' for Inactive)
REMARK    1  A    between atoms: C4_7  and  N2_8 
REMARK    2  A    between atoms: N4_14  and  C6_16 
REMARK    3  A    between atoms: C6_16  and  C8_18 
REMARK    4  A    between atoms: C8_18  and  N5_19 
ROOT
HETATM    1  C1  UNL     1      47.868 -19.076  87.871  1.00  0.00     0.057 C 
HETATM    2  C2  UNL     1      49.291 -19.210  87.379  1.00  0.00    -0.012 A 
HETATM    3  S1  UNL     1      49.834 -19.540  85.801  1.00  0.00    -0.075 SA
HETATM    4  C3  UNL     1      51.515 -19.527  86.085  1.00  0.00     0.105 A 
HETATM    5  N1  UNL     1      52.620 -19.714  85.288  1.00  0.00    -0.185 N 
ATOM      6  H1  UNL     1      52.498 -19.908  84.295  1.00  0.00     0.185 HD
HETATM    7  C4  UNL     1      53.862 -19.643  85.806  1.00  0.00     0.678 A 
HETATM    8  N3  UNL     1      53.977 -19.383  87.118  1.00  0.00    -0.176 N 
ATOM      9  H3  UNL     1      54.913 -19.327  87.519  1.00  0.00     0.186 HD
HETATM   10  C5  UNL     1      52.929 -19.195  87.927  1.00  0.00     0.131 A 
HETATM   11  N4  UNL     1      53.134 -18.953  89.171  1.00  0.00    -0.369 N 
ATOM     12  H4  UNL     1      52.312 -18.814  89.758  1.00  0.00     0.161 HD
HETATM   13  C12 UNL     1      51.615 -19.262  87.417  1.00  0.00     0.050 A 
HETATM   14  C13 UNL     1      50.447 -19.096  88.099  1.00  0.00    -0.032 A 
HETATM   15  C14 UNL     1      50.367 -18.793  89.596  1.00  0.00     0.050 C 
ENDROOT
BRANCH  11  16
HETATM   16  C6  UNL     1      54.404 -18.861  89.804  1.00  0.00     0.097 C 
HETATM   17  C7  UNL     1      54.338 -18.143  91.121  1.00  0.00     0.034 C 
BRANCH  16  18
HETATM   18  C8  UNL     1      55.021 -20.227  90.072  1.00  0.00     0.153 C 
BRANCH  18  19
HETATM   19  N5  UNL     1      56.300 -20.380  89.459  1.00  0.00    -0.350 N 
HETATM   20  C9  UNL     1      56.850 -21.547  89.063  1.00  0.00     0.108 A 
HETATM   21  C10 UNL     1      58.094 -21.320  88.513  1.00  0.00     0.106 A 
HETATM   22  N6  UNL     1      58.288 -19.992  88.583  1.00  0.00    -0.361 N 
HETATM   23  C11 UNL     1      57.198 -19.426  89.158  1.00  0.00     0.182 A 
ATOM     24  H6  UNL     1      59.116 -19.493  88.258  1.00  0.00     0.166 HD
ENDBRANCH  18  19
ENDBRANCH  16  18
ENDBRANCH  11  16
BRANCH   7  25
HETATM   25  N2  UNL     1      54.870 -19.825  85.029  1.00  0.00    -0.234 N 
ATOM     26  H22 UNL     1      55.568 -20.553  85.174  1.00  0.00     0.174 HD
ATOM     27  H21 UNL     1      54.986 -19.211  84.222  1.00  0.00     0.174 HD
ENDBRANCH   7  25
TORSDOF 4
ENDMDL
MODEL 5
REMARK VINA RESULT: -6.702722488      2.866      6.306
REMARK  4 active torsions:
REMARK  status: ('A' for Active; 'I' for Inactive)
REMARK    1  A    between atoms: C4_7  and  N2_8 
REMARK    2  A    between atoms: N4_14  and  C6_16 
REMARK    3  A    between atoms: C6_16  and  C8_18 
REMARK    4  A    between atoms: C8_18  and  N5_19 
ROOT
HETATM    1  C1  UNL     1      61.226 -21.914  85.867  1.00  0.00     0.057 C 
HETATM    2  C2  UNL     1      59.720 -21.941  85.748  1.00  0.00    -0.012 A 
HETATM    3  S1  UNL     1      58.778 -22.309  84.380  1.00  0.00    -0.075 SA
HETATM    4  C3  UNL     1      57.226 -22.116  85.060  1.00  0.00     0.105 A 
HETATM    5  N1  UNL     1      55.947 -22.244  84.573  1.00  0.00    -0.185 N 
ATOM      6  H1  UNL     1      55.802 -22.510  83.600  1.00  0.00     0.185 HD
HETATM    7  C4  UNL     1      54.882 -22.021  85.368  1.00  0.00     0.678 A 
HETATM    8  N3  UNL     1      55.117 -21.675  86.644  1.00  0.00    -0.176 N 
ATOM      9  H3  UNL     1      54.318 -21.505  87.253  1.00  0.00     0.186 HD
HETATM   10  C5  UNL     1      56.345 -21.540  87.157  1.00  0.00     0.131 A 
HETATM   11  N4  UNL     1      56.475 -21.203  88.389  1.00  0.00    -0.369 N 
ATOM     12  H4  UNL     1      57.425 -21.111  88.746  1.00  0.00     0.161 HD
HETATM   13  C12 UNL     1      57.482 -21.766  86.351  1.00  0.00     0.050 A 
HETATM   14  C13 UNL     1      58.792 -21.673  86.715  1.00  0.00    -0.032 A 
HETATM   15  C14 UNL     1      59.264 -21.293  88.118  1.00  0.00     0.050 C 
ENDROOT
BRANCH  11  16
HETATM   16  C6  UNL     1      55.413 -20.948  89.299  1.00  0.00     0.097 C 
HETATM   17  C7  UNL     1      55.371 -21.942  90.423  1.00  0.00     0.034 C 
BRANCH  16  18
HETATM   18  C8  UNL     1      55.508 -19.566  89.931  1.00  0.00     0.153 C 
BRANCH  18  19
HETATM   19  N5  UNL     1      54.227 -18.995  90.193  1.00  0.00    -0.350 N 
HETATM   20  C9  UNL     1      53.231 -18.846  89.295  1.00  0.00     0.108 A 
HETATM   21  C10 UNL     1      52.139 -18.257  89.894  1.00  0.00     0.106 A 
HETATM   22  N6  UNL     1      52.491 -18.050  91.175  1.00  0.00    -0.361 N 
HETATM   23  C11 UNL     1      53.759 -18.499  91.351  1.00  0.00     0.182 A 
ATOM     24  H6  UNL     1      51.903 -17.628  91.894  1.00  0.00     0.166 HD
ENDBRANCH  18  19
ENDBRANCH  16  18
ENDBRANCH  11  16
BRANCH   7  25
HETATM   25  N2  UNL     1      53.702 -22.150  84.875  1.00  0.00    -0.234 N 
ATOM     26  H22 UNL     1      53.507 -22.145  83.874  1.00  0.00     0.174 HD
ATOM     27  H21 UNL     1      52.912 -22.262  85.511  1.00  0.00     0.174 HD
ENDBRANCH   7  25
TORSDOF 4
ENDMDL
