MODEL 1
REMARK VINA RESULT: -7.350142365      0.000      0.000
REMARK  12 active torsions:
REMARK  status: ('A' for Active; 'I' for Inactive)
REMARK    1  A    between atoms: C6_6  and  O1_7 
REMARK    2  A    between atoms: C9_12  and  C10_13 
REMARK    3  A    between atoms: C10_13  and  O3_14 
REMARK    4  A    between atoms: C10_13  and  C11_16 
REMARK    5  A    between atoms: C11_16  and  C12_17 
REMARK    6  A    between atoms: C12_17  and  C13_18 
REMARK    7  A    between atoms: C13_18  and  O4_19 
REMARK    8  A    between atoms: C13_18  and  C14_21 
REMARK    9  A    between atoms: C20_27  and  C21_28 
REMARK   10  A    between atoms: C21_28  and  O5_29 
REMARK   11  A    between atoms: O5_29  and  C22_30 
REMARK   12  A    between atoms: C22_30  and  C23_32 
ROOT
HETATM    1  C13 UNL     1      25.799   4.611   0.841  1.00  0.00     0.123 C 
ENDROOT
BRANCH   1   2
HETATM    2  C12 UNL     1      26.577   4.026   1.954  1.00  0.00     0.034 C 
BRANCH   2   3
HETATM    3  C11 UNL     1      27.453   4.870   2.779  1.00  0.00     0.037 C 
BRANCH   3   4
HETATM    4  C10 UNL     1      28.031   6.126   2.229  1.00  0.00     0.148 C 
BRANCH   4   5
HETATM    5  C9  UNL     1      29.424   6.308   2.721  1.00  0.00     0.165 C 
HETATM    6  O2  UNL     1      29.910   5.015   3.065  1.00  0.00    -0.339 OA
HETATM    7  C5  UNL     1      30.890   4.365   2.327  1.00  0.00     0.109 A 
HETATM    8  C4  UNL     1      31.879   5.164   1.794  1.00  0.00    -0.021 A 
HETATM    9  C6  UNL     1      30.857   2.983   2.149  1.00  0.00     0.106 A 
HETATM   10  C3  UNL     1      32.875   4.568   1.054  1.00  0.00     0.017 A 
HETATM   11  C34 UNL     1      31.813   6.624   2.049  1.00  0.00     0.053 C 
HETATM   12  C2  UNL     1      32.850   3.200   0.874  1.00  0.00    -0.053 A 
HETATM   13  C1  UNL     1      33.915   2.534   0.078  1.00  0.00     0.049 C 
HETATM   14  C7  UNL     1      31.864   2.398   1.404  1.00  0.00    -0.020 A 
HETATM   15  C8  UNL     1      31.872   0.911   1.184  1.00  0.00     0.052 C 
HETATM   16  C31 UNL     1      30.355   7.077   1.867  1.00  0.00    -0.015 C 
HETATM   17  C32 UNL     1      30.101   7.065   0.397  1.00  0.00     0.018 C 
HETATM   18  C33 UNL     1      30.365   8.553   2.296  1.00  0.00     0.018 C 
BRANCH   9  19
HETATM   19  O1  UNL     1      29.835   2.226   2.710  1.00  0.00    -0.357 OA
ATOM     20  H1  UNL     1      29.870   1.277   2.681  1.00  0.00     0.217 HD
ENDBRANCH   9  19
ENDBRANCH   4   5
BRANCH   4  21
HETATM   21  O3  UNL     1      27.179   7.182   2.327  1.00  0.00    -0.393 OA
ATOM     22  H3  UNL     1      26.247   7.007   2.270  1.00  0.00     0.210 HD
ENDBRANCH   4  21
ENDBRANCH   3   4
ENDBRANCH   2   3
ENDBRANCH   1   2
BRANCH   1  23
HETATM   23  O4  UNL     1      24.549   5.006   1.212  1.00  0.00    -0.395 OA
ATOM     24  H4  UNL     1      23.899   4.875   0.531  1.00  0.00     0.210 HD
ENDBRANCH   1  23
BRANCH   1  25
HETATM   25  C14 UNL     1      25.603   3.507  -0.225  1.00  0.00     0.023 C 
HETATM   26  C15 UNL     1      25.678   2.133   0.356  1.00  0.00     0.009 C 
HETATM   27  C16 UNL     1      26.427   1.255  -0.641  1.00  0.00     0.015 C 
HETATM   28  C17 UNL     1      26.567   2.127  -1.846  1.00  0.00    -0.013 C 
HETATM   29  C18 UNL     1      25.327   2.088  -2.671  1.00  0.00     0.021 C 
HETATM   30  C19 UNL     1      27.728   1.761  -2.730  1.00  0.00    -0.072 C 
HETATM   31  C29 UNL     1      26.783   3.484  -1.191  1.00  0.00    -0.027 C 
HETATM   32  C20 UNL     1      27.538   1.117  -3.868  1.00  0.00     0.003 C 
HETATM   33  C26 UNL     1      29.076   2.125  -2.286  1.00  0.00     0.034 C 
HETATM   34  C27 UNL     1      29.178   2.698  -0.928  1.00  0.00     0.005 C 
HETATM   35  C28 UNL     1      28.022   3.429  -0.376  1.00  0.00     0.011 C 
HETATM   36  C30 UNL     1      26.745   4.603  -2.177  1.00  0.00     0.016 C 
BRANCH  32  37
HETATM   37  C21 UNL     1      28.502   0.671  -4.871  1.00  0.00     0.206 C 
BRANCH  37  38
HETATM   38  O5  UNL     1      28.685   1.594  -5.884  1.00  0.00    -0.317 OA
BRANCH  38  39
HETATM   39  C22 UNL     1      29.560   2.652  -5.773  1.00  0.00     0.262 C 
HETATM   40  O6  UNL     1      30.770   2.396  -5.543  1.00  0.00    -0.265 OA
BRANCH  39  41
HETATM   41  C23 UNL     1      29.025   4.027  -5.930  1.00  0.00     0.077 C 
HETATM   42  C24 UNL     1      27.535   3.907  -6.152  1.00  0.00     0.020 C 
HETATM   43  C25 UNL     1      29.351   4.898  -4.735  1.00  0.00     0.020 C 
ENDBRANCH  39  41
ENDBRANCH  38  39
ENDBRANCH  37  38
ENDBRANCH  32  37
ENDBRANCH   1  25
TORSDOF 12
ENDMDL
MODEL 2
REMARK VINA RESULT: -7.112014802      2.518      6.238
REMARK  12 active torsions:
REMARK  status: ('A' for Active; 'I' for Inactive)
REMARK    1  A    between atoms: C6_6  and  O1_7 
REMARK    2  A    between atoms: C9_12  and  C10_13 
REMARK    3  A    between atoms: C10_13  and  O3_14 
REMARK    4  A    between atoms: C10_13  and  C11_16 
REMARK    5  A    between atoms: C11_16  and  C12_17 
REMARK    6  A    between atoms: C12_17  and  C13_18 
REMARK    7  A    between atoms: C13_18  and  O4_19 
REMARK    8  A    between atoms: C13_18  and  C14_21 
REMARK    9  A    between atoms: C20_27  and  C21_28 
REMARK   10  A    between atoms: C21_28  and  O5_29 
REMARK   11  A    between atoms: O5_29  and  C22_30 
REMARK   12  A    between atoms: C22_30  and  C23_32 
ROOT
HETATM    1  C13 UNL     1      33.002   3.202  -4.651  1.00  0.00     0.123 C 
ENDROOT
BRANCH   1   2
HETATM    2  C12 UNL     1      33.560   4.234  -3.751  1.00  0.00     0.034 C 
BRANCH   2   3
HETATM    3  C11 UNL     1      34.602   3.890  -2.773  1.00  0.00     0.037 C 
BRANCH   3   4
HETATM    4  C10 UNL     1      34.800   2.480  -2.342  1.00  0.00     0.148 C 
BRANCH   4   5
HETATM    5  C9  UNL     1      34.703   2.377  -0.861  1.00  0.00     0.165 C 
HETATM    6  O2  UNL     1      34.004   3.534  -0.415  1.00  0.00    -0.339 OA
HETATM    7  C5  UNL     1      32.714   3.478   0.093  1.00  0.00     0.109 A 
HETATM    8  C4  UNL     1      32.406   2.365   0.848  1.00  0.00    -0.021 A 
HETATM    9  C6  UNL     1      31.797   4.498  -0.156  1.00  0.00     0.106 A 
HETATM   10  C3  UNL     1      31.140   2.261   1.376  1.00  0.00     0.017 A 
HETATM   11  C34 UNL     1      33.462   1.342   1.048  1.00  0.00     0.053 C 
HETATM   12  C2  UNL     1      30.227   3.267   1.133  1.00  0.00    -0.053 A 
HETATM   13  C1  UNL     1      28.852   3.176   1.693  1.00  0.00     0.049 C 
HETATM   14  C7  UNL     1      30.528   4.380   0.381  1.00  0.00    -0.020 A 
HETATM   15  C8  UNL     1      29.505   5.454   0.140  1.00  0.00     0.052 C 
HETATM   16  C31 UNL     1      34.174   1.118  -0.296  1.00  0.00    -0.015 C 
HETATM   17  C32 UNL     1      33.222   0.338  -1.140  1.00  0.00     0.018 C 
HETATM   18  C33 UNL     1      35.332   0.167   0.047  1.00  0.00     0.018 C 
BRANCH   9  19
HETATM   19  O1  UNL     1      32.161   5.598  -0.924  1.00  0.00    -0.357 OA
ATOM     20  H1  UNL     1      32.787   6.230  -0.589  1.00  0.00     0.217 HD
ENDBRANCH   9  19
ENDBRANCH   4   5
BRANCH   4  21
HETATM   21  O3  UNL     1      35.863   1.890  -2.952  1.00  0.00    -0.393 OA
ATOM     22  H3  UNL     1      36.513   2.454  -3.356  1.00  0.00     0.210 HD
ENDBRANCH   4  21
ENDBRANCH   3   4
ENDBRANCH   2   3
ENDBRANCH   1   2
BRANCH   1  23
HETATM   23  O4  UNL     1      33.620   3.161  -5.865  1.00  0.00    -0.395 OA
ATOM     24  H4  UNL     1      33.227   2.535  -6.462  1.00  0.00     0.210 HD
ENDBRANCH   1  23
BRANCH   1  25
HETATM   25  C14 UNL     1      31.526   3.572  -4.932  1.00  0.00     0.023 C 
HETATM   26  C15 UNL     1      31.054   4.710  -4.088  1.00  0.00     0.009 C 
HETATM   27  C16 UNL     1      29.619   4.403  -3.669  1.00  0.00     0.015 C 
HETATM   28  C17 UNL     1      29.267   3.191  -4.469  1.00  0.00    -0.013 C 
HETATM   29  C18 UNL     1      28.835   3.574  -5.843  1.00  0.00     0.021 C 
HETATM   30  C19 UNL     1      28.182   2.351  -3.855  1.00  0.00    -0.072 C 
HETATM   31  C29 UNL     1      30.600   2.454  -4.467  1.00  0.00    -0.027 C 
HETATM   32  C20 UNL     1      26.950   2.377  -4.333  1.00  0.00     0.003 C 
HETATM   33  C26 UNL     1      28.524   1.515  -2.702  1.00  0.00     0.034 C 
HETATM   34  C27 UNL     1      29.887   1.687  -2.159  1.00  0.00     0.005 C 
HETATM   35  C28 UNL     1      30.964   2.130  -3.065  1.00  0.00     0.011 C 
HETATM   36  C30 UNL     1      30.601   1.281  -5.389  1.00  0.00     0.016 C 
BRANCH  32  37
HETATM   37  C21 UNL     1      25.756   1.653  -3.903  1.00  0.00     0.206 C 
BRANCH  37  38
HETATM   38  O5  UNL     1      24.986   2.375  -3.010  1.00  0.00    -0.317 OA
BRANCH  38  39
HETATM   39  C22 UNL     1      25.235   2.381  -1.655  1.00  0.00     0.262 C 
HETATM   40  O6  UNL     1      25.363   1.273  -1.074  1.00  0.00    -0.265 OA
BRANCH  39  41
HETATM   41  C23 UNL     1      25.338   3.691  -0.964  1.00  0.00     0.077 C 
HETATM   42  C24 UNL     1      25.271   3.422   0.521  1.00  0.00     0.020 C 
HETATM   43  C25 UNL     1      26.600   4.432  -1.350  1.00  0.00     0.020 C 
ENDBRANCH  39  41
ENDBRANCH  38  39
ENDBRANCH  37  38
ENDBRANCH  32  37
ENDBRANCH   1  25
TORSDOF 12
ENDMDL
MODEL 3
REMARK VINA RESULT: -7.074362062      2.161      7.720
REMARK  12 active torsions:
REMARK  status: ('A' for Active; 'I' for Inactive)
REMARK    1  A    between atoms: C6_6  and  O1_7 
REMARK    2  A    between atoms: C9_12  and  C10_13 
REMARK    3  A    between atoms: C10_13  and  O3_14 
REMARK    4  A    between atoms: C10_13  and  C11_16 
REMARK    5  A    between atoms: C11_16  and  C12_17 
REMARK    6  A    between atoms: C12_17  and  C13_18 
REMARK    7  A    between atoms: C13_18  and  O4_19 
REMARK    8  A    between atoms: C13_18  and  C14_21 
REMARK    9  A    between atoms: C20_27  and  C21_28 
REMARK   10  A    between atoms: C21_28  and  O5_29 
REMARK   11  A    between atoms: O5_29  and  C22_30 
REMARK   12  A    between atoms: C22_30  and  C23_32 
ROOT
HETATM    1  C13 UNL     1      31.666   4.155  -3.717  1.00  0.00     0.123 C 
ENDROOT
BRANCH   1   2
HETATM    2  C12 UNL     1      31.730   2.771  -3.201  1.00  0.00     0.034 C 
BRANCH   2   3
HETATM    3  C11 UNL     1      30.728   1.775  -3.605  1.00  0.00     0.037 C 
BRANCH   3   4
HETATM    4  C10 UNL     1      29.531   2.181  -4.390  1.00  0.00     0.148 C 
BRANCH   4   5
HETATM    5  C9  UNL     1      28.294   1.652  -3.752  1.00  0.00     0.165 C 
HETATM    6  O2  UNL     1      28.615   1.393  -2.390  1.00  0.00    -0.339 OA
HETATM    7  C5  UNL     1      28.112   2.156  -1.346  1.00  0.00     0.109 A 
HETATM    8  C4  UNL     1      26.819   2.613  -1.495  1.00  0.00    -0.021 A 
HETATM    9  C6  UNL     1      28.885   2.434  -0.220  1.00  0.00     0.106 A 
HETATM   10  C3  UNL     1      26.273   3.375  -0.487  1.00  0.00     0.017 A 
HETATM   11  C34 UNL     1      26.090   2.256  -2.737  1.00  0.00     0.053 C 
HETATM   12  C2  UNL     1      27.033   3.653   0.631  1.00  0.00    -0.053 A 
HETATM   13  C1  UNL     1      26.464   4.474   1.732  1.00  0.00     0.049 C 
HETATM   14  C7  UNL     1      28.324   3.200   0.785  1.00  0.00    -0.020 A 
HETATM   15  C8  UNL     1      29.118   3.525   2.019  1.00  0.00     0.052 C 
HETATM   16  C31 UNL     1      27.050   2.431  -3.924  1.00  0.00    -0.015 C 
HETATM   17  C32 UNL     1      27.189   3.903  -4.127  1.00  0.00     0.018 C 
HETATM   18  C33 UNL     1      26.257   1.898  -5.129  1.00  0.00     0.018 C 
BRANCH   9  19
HETATM   19  O1  UNL     1      30.184   1.947  -0.122  1.00  0.00    -0.357 OA
ATOM     20  H1  UNL     1      30.504   1.597   0.701  1.00  0.00     0.217 HD
ENDBRANCH   9  19
ENDBRANCH   4   5
BRANCH   4  21
HETATM   21  O3  UNL     1      29.690   1.985  -5.727  1.00  0.00    -0.393 OA
ATOM     22  H3  UNL     1      29.707   2.751  -6.289  1.00  0.00     0.210 HD
ENDBRANCH   4  21
ENDBRANCH   3   4
ENDBRANCH   2   3
ENDBRANCH   1   2
BRANCH   1  23
HETATM   23  O4  UNL     1      32.569   4.399  -4.707  1.00  0.00    -0.395 OA
ATOM     24  H4  UNL     1      33.420   4.666  -4.378  1.00  0.00     0.210 HD
ENDBRANCH   1  23
BRANCH   1  25
HETATM   25  C14 UNL     1      32.035   5.106  -2.553  1.00  0.00     0.023 C 
HETATM   26  C15 UNL     1      31.998   4.424  -1.225  1.00  0.00     0.009 C 
HETATM   27  C16 UNL     1      31.407   5.409  -0.222  1.00  0.00     0.015 C 
HETATM   28  C17 UNL     1      31.323   6.689  -0.988  1.00  0.00    -0.013 C 
HETATM   29  C18 UNL     1      32.635   7.395  -0.980  1.00  0.00     0.021 C 
HETATM   30  C19 UNL     1      30.278   7.639  -0.472  1.00  0.00    -0.072 C 
HETATM   31  C29 UNL     1      30.956   6.168  -2.371  1.00  0.00    -0.027 C 
HETATM   32  C20 UNL     1      30.617   8.700   0.239  1.00  0.00     0.003 C 
HETATM   33  C26 UNL     1      28.872   7.347  -0.767  1.00  0.00     0.034 C 
HETATM   34  C27 UNL     1      28.605   6.055  -1.430  1.00  0.00     0.005 C 
HETATM   35  C28 UNL     1      29.652   5.464  -2.285  1.00  0.00     0.011 C 
HETATM   36  C30 UNL     1      31.010   7.234  -3.412  1.00  0.00     0.016 C 
BRANCH  32  37
HETATM   37  C21 UNL     1      29.783   9.745   0.830  1.00  0.00     0.206 C 
BRANCH  37  38
HETATM   38  O5  UNL     1      29.085   9.306   1.941  1.00  0.00    -0.317 OA
BRANCH  38  39
HETATM   39  C22 UNL     1      29.682   9.136   3.171  1.00  0.00     0.262 C 
HETATM   40  O6  UNL     1      30.126  10.156   3.757  1.00  0.00    -0.265 OA
BRANCH  39  41
HETATM   41  C23 UNL     1      29.763   7.763   3.729  1.00  0.00     0.077 C 
HETATM   42  C24 UNL     1      28.631   6.964   3.125  1.00  0.00     0.020 C 
HETATM   43  C25 UNL     1      31.111   7.127   3.463  1.00  0.00     0.020 C 
ENDBRANCH  39  41
ENDBRANCH  38  39
ENDBRANCH  37  38
ENDBRANCH  32  37
ENDBRANCH   1  25
TORSDOF 12
ENDMDL
MODEL 4
REMARK VINA RESULT: -7.039102089      2.622      8.335
REMARK  12 active torsions:
REMARK  status: ('A' for Active; 'I' for Inactive)
REMARK    1  A    between atoms: C6_6  and  O1_7 
REMARK    2  A    between atoms: C9_12  and  C10_13 
REMARK    3  A    between atoms: C10_13  and  O3_14 
REMARK    4  A    between atoms: C10_13  and  C11_16 
REMARK    5  A    between atoms: C11_16  and  C12_17 
REMARK    6  A    between atoms: C12_17  and  C13_18 
REMARK    7  A    between atoms: C13_18  and  O4_19 
REMARK    8  A    between atoms: C13_18  and  C14_21 
REMARK    9  A    between atoms: C20_27  and  C21_28 
REMARK   10  A    between atoms: C21_28  and  O5_29 
REMARK   11  A    between atoms: O5_29  and  C22_30 
REMARK   12  A    between atoms: C22_30  and  C23_32 
ROOT
HETATM    1  C13 UNL     1      31.462   0.842  -3.156  1.00  0.00     0.123 C 
ENDROOT
BRANCH   1   2
HETATM    2  C12 UNL     1      30.331  -0.083  -2.930  1.00  0.00     0.034 C 
BRANCH   2   3
HETATM    3  C11 UNL     1      28.974   0.272  -3.371  1.00  0.00     0.037 C 
BRANCH   3   4
HETATM    4  C10 UNL     1      28.720   0.684  -4.778  1.00  0.00     0.148 C 
BRANCH   4   5
HETATM    5  C9  UNL     1      27.895   1.923  -4.809  1.00  0.00     0.165 C 
HETATM    6  O2  UNL     1      27.027   1.865  -3.682  1.00  0.00    -0.339 OA
HETATM    7  C5  UNL     1      27.171   2.703  -2.585  1.00  0.00     0.109 A 
HETATM    8  C4  UNL     1      27.585   3.990  -2.853  1.00  0.00    -0.021 A 
HETATM    9  C6  UNL     1      26.907   2.249  -1.294  1.00  0.00     0.106 A 
HETATM   10  C3  UNL     1      27.743   4.861  -1.800  1.00  0.00     0.017 A 
HETATM   11  C34 UNL     1      27.837   4.364  -4.267  1.00  0.00     0.053 C 
HETATM   12  C2  UNL     1      27.483   4.419  -0.518  1.00  0.00    -0.053 A 
HETATM   13  C1  UNL     1      27.647   5.342   0.636  1.00  0.00     0.049 C 
HETATM   14  C7  UNL     1      27.070   3.134  -0.245  1.00  0.00    -0.020 A 
HETATM   15  C8  UNL     1      26.797   2.691   1.166  1.00  0.00     0.052 C 
HETATM   16  C31 UNL     1      28.604   3.214  -4.938  1.00  0.00    -0.015 C 
HETATM   17  C32 UNL     1      29.997   3.283  -4.406  1.00  0.00     0.018 C 
HETATM   18  C33 UNL     1      28.681   3.626  -6.416  1.00  0.00     0.018 C 
BRANCH   9  19
HETATM   19  O1  UNL     1      26.492   0.939  -1.081  1.00  0.00    -0.357 OA
ATOM     20  H1  UNL     1      26.779   0.464  -0.310  1.00  0.00     0.217 HD
ENDBRANCH   9  19
ENDBRANCH   4   5
BRANCH   4  21
HETATM   21  O3  UNL     1      28.337  -0.355  -5.567  1.00  0.00    -0.393 OA
ATOM     22  H3  UNL     1      28.448  -1.235  -5.228  1.00  0.00     0.210 HD
ENDBRANCH   4  21
ENDBRANCH   3   4
ENDBRANCH   2   3
ENDBRANCH   1   2
BRANCH   1  23
HETATM   23  O4  UNL     1      32.202   0.522  -4.254  1.00  0.00    -0.395 OA
ATOM     24  H4  UNL     1      33.036   0.122  -4.038  1.00  0.00     0.210 HD
ENDBRANCH   1  23
BRANCH   1  25
HETATM   25  C14 UNL     1      32.416   0.720  -1.944  1.00  0.00     0.023 C 
HETATM   26  C15 UNL     1      32.023  -0.384  -1.017  1.00  0.00     0.009 C 
HETATM   27  C16 UNL     1      32.253   0.112   0.407  1.00  0.00     0.015 C 
HETATM   28  C17 UNL     1      32.966   1.412   0.220  1.00  0.00    -0.013 C 
HETATM   29  C18 UNL     1      34.424   1.189   0.011  1.00  0.00     0.021 C 
HETATM   30  C19 UNL     1      32.799   2.368   1.369  1.00  0.00    -0.072 C 
HETATM   31  C29 UNL     1      32.276   1.935  -1.033  1.00  0.00    -0.027 C 
HETATM   32  C20 UNL     1      33.776   2.561   2.238  1.00  0.00     0.003 C 
HETATM   33  C26 UNL     1      31.519   3.066   1.507  1.00  0.00     0.034 C 
HETATM   34  C27 UNL     1      30.452   2.653   0.573  1.00  0.00     0.005 C 
HETATM   35  C28 UNL     1      30.831   2.109  -0.745  1.00  0.00     0.011 C 
HETATM   36  C30 UNL     1      32.943   3.151  -1.583  1.00  0.00     0.016 C 
BRANCH  32  37
HETATM   37  C21 UNL     1      33.836   3.431   3.410  1.00  0.00     0.206 C 
BRANCH  37  38
HETATM   38  O5  UNL     1      34.085   2.735   4.579  1.00  0.00    -0.317 OA
BRANCH  38  39
HETATM   39  C22 UNL     1      33.077   2.327   5.426  1.00  0.00     0.262 C 
HETATM   40  O6  UNL     1      31.981   1.980   4.915  1.00  0.00    -0.265 OA
BRANCH  39  41
HETATM   41  C23 UNL     1      33.345   2.319   6.886  1.00  0.00     0.077 C 
HETATM   42  C24 UNL     1      33.851   3.693   7.257  1.00  0.00     0.020 C 
HETATM   43  C25 UNL     1      32.115   1.934   7.681  1.00  0.00     0.020 C 
ENDBRANCH  39  41
ENDBRANCH  38  39
ENDBRANCH  37  38
ENDBRANCH  32  37
ENDBRANCH   1  25
TORSDOF 12
ENDMDL
MODEL 5
REMARK VINA RESULT: -7.004530448      2.283      7.563
REMARK  12 active torsions:
REMARK  status: ('A' for Active; 'I' for Inactive)
REMARK    1  A    between atoms: C6_6  and  O1_7 
REMARK    2  A    between atoms: C9_12  and  C10_13 
REMARK    3  A    between atoms: C10_13  and  O3_14 
REMARK    4  A    between atoms: C10_13  and  C11_16 
REMARK    5  A    between atoms: C11_16  and  C12_17 
REMARK    6  A    between atoms: C12_17  and  C13_18 
REMARK    7  A    between atoms: C13_18  and  O4_19 
REMARK    8  A    between atoms: C13_18  and  C14_21 
REMARK    9  A    between atoms: C20_27  and  C21_28 
REMARK   10  A    between atoms: C21_28  and  O5_29 
REMARK   11  A    between atoms: O5_29  and  C22_30 
REMARK   12  A    between atoms: C22_30  and  C23_32 
ROOT
HETATM    1  C13 UNL     1      32.790   4.152  -2.534  1.00  0.00     0.123 C 
ENDROOT
BRANCH   1   2
HETATM    2  C12 UNL     1      33.091   3.143  -3.571  1.00  0.00     0.034 C 
BRANCH   2   3
HETATM    3  C11 UNL     1      33.232   3.537  -4.981  1.00  0.00     0.037 C 
BRANCH   3   4
HETATM    4  C10 UNL     1      32.835   4.899  -5.429  1.00  0.00     0.148 C 
BRANCH   4   5
HETATM    5  C9  UNL     1      31.896   4.807  -6.580  1.00  0.00     0.165 C 
HETATM    6  O2  UNL     1      31.389   3.477  -6.590  1.00  0.00    -0.339 OA
HETATM    7  C5  UNL     1      30.074   3.176  -6.262  1.00  0.00     0.109 A 
HETATM    8  C4  UNL     1      29.124   4.095  -6.657  1.00  0.00    -0.021 A 
HETATM    9  C6  UNL     1      29.754   2.007  -5.574  1.00  0.00     0.106 A 
HETATM   10  C3  UNL     1      27.805   3.843  -6.356  1.00  0.00     0.017 A 
HETATM   11  C34 UNL     1      29.581   5.304  -7.385  1.00  0.00     0.053 C 
HETATM   12  C2  UNL     1      27.480   2.687  -5.675  1.00  0.00    -0.053 A 
HETATM   13  C1  UNL     1      26.061   2.395  -5.339  1.00  0.00     0.049 C 
HETATM   14  C7  UNL     1      28.425   1.767  -5.279  1.00  0.00    -0.020 A 
HETATM   15  C8  UNL     1      28.030   0.520  -4.538  1.00  0.00     0.052 C 
HETATM   16  C31 UNL     1      30.841   5.838  -6.686  1.00  0.00    -0.015 C 
HETATM   17  C32 UNL     1      30.373   6.468  -5.417  1.00  0.00     0.018 C 
HETATM   18  C33 UNL     1      31.316   6.984  -7.593  1.00  0.00     0.018 C 
BRANCH   9  19
HETATM   19  O1  UNL     1      30.753   1.115  -5.201  1.00  0.00    -0.357 OA
ATOM     20  H1  UNL     1      31.646   1.244  -5.499  1.00  0.00     0.217 HD
ENDBRANCH   9  19
ENDBRANCH   4   5
BRANCH   4  21
HETATM   21  O3  UNL     1      33.894   5.744  -5.538  1.00  0.00    -0.393 OA
ATOM     22  H3  UNL     1      33.900   6.357  -6.264  1.00  0.00     0.210 HD
ENDBRANCH   4  21
ENDBRANCH   3   4
ENDBRANCH   2   3
ENDBRANCH   1   2
BRANCH   1  23
HETATM   23  O4  UNL     1      33.899   4.582  -1.869  1.00  0.00    -0.395 OA
ATOM     24  H4  UNL     1      33.702   4.950  -1.016  1.00  0.00     0.210 HD
ENDBRANCH   1  23
BRANCH   1  25
HETATM   25  C14 UNL     1      31.886   3.479  -1.473  1.00  0.00     0.023 C 
HETATM   26  C15 UNL     1      31.127   2.317  -2.026  1.00  0.00     0.009 C 
HETATM   27  C16 UNL     1      29.729   2.353  -1.416  1.00  0.00     0.015 C 
HETATM   28  C17 UNL     1      29.822   3.424  -0.378  1.00  0.00    -0.013 C 
HETATM   29  C18 UNL     1      30.410   2.888   0.882  1.00  0.00     0.021 C 
HETATM   30  C19 UNL     1      28.503   4.063  -0.043  1.00  0.00    -0.072 C 
HETATM   31  C29 UNL     1      30.749   4.412  -1.073  1.00  0.00    -0.027 C 
HETATM   32  C20 UNL     1      27.870   3.764   1.078  1.00  0.00     0.003 C 
HETATM   33  C26 UNL     1      27.931   5.012  -1.001  1.00  0.00     0.034 C 
HETATM   34  C27 UNL     1      28.648   5.146  -2.286  1.00  0.00     0.005 C 
HETATM   35  C28 UNL     1      30.098   4.879  -2.323  1.00  0.00     0.011 C 
HETATM   36  C30 UNL     1      31.193   5.510  -0.166  1.00  0.00     0.016 C 
BRANCH  32  37
HETATM   37  C21 UNL     1      26.598   4.258   1.603  1.00  0.00     0.206 C 
BRANCH  37  38
HETATM   38  O5  UNL     1      25.548   3.391   1.359  1.00  0.00    -0.317 OA
BRANCH  38  39
HETATM   39  C22 UNL     1      25.041   3.179   0.096  1.00  0.00     0.262 C 
HETATM   40  O6  UNL     1      24.541   4.160  -0.512  1.00  0.00    -0.265 OA
BRANCH  39  41
HETATM   41  C23 UNL     1      25.117   1.809  -0.471  1.00  0.00     0.077 C 
HETATM   42  C24 UNL     1      25.993   1.879  -1.700  1.00  0.00     0.020 C 
HETATM   43  C25 UNL     1      25.638   0.810   0.540  1.00  0.00     0.020 C 
ENDBRANCH  39  41
ENDBRANCH  38  39
ENDBRANCH  37  38
ENDBRANCH  32  37
ENDBRANCH   1  25
TORSDOF 12
ENDMDL
