MODEL 1
REMARK VINA RESULT: -7.023985191      0.000      0.000
REMARK  12 active torsions:
REMARK  status: ('A' for Active; 'I' for Inactive)
REMARK    1  A    between atoms: C9_9  and  O1_11 
REMARK    2  A    between atoms: C11_13  and  C12_14 
REMARK    3  A    between atoms: C14_16  and  O2_17 
REMARK    4  A    between atoms: C16_20  and  C17_21 
REMARK    5  A    between atoms: C17_21  and  C19_23 
REMARK    6  A    between atoms: C19_23  and  C20_24 
REMARK    7  A    between atoms: C20_24  and  C21_25 
REMARK    8  A    between atoms: C26_33  and  O4_34 
REMARK    9  A    between atoms: O4_34  and  C27_35 
REMARK   10  A    between atoms: C27_35  and  C28_37 
REMARK   11  A    between atoms: C28_37  and  C29_38 
REMARK   12  A    between atoms: C29_38  and  C30_39 
ROOT
HETATM    1  C1  UNL     1      30.709   5.851  -6.536  1.00  0.00     0.014 C 
HETATM    2  C2  UNL     1      30.972   5.298  -5.374  1.00  0.00    -0.089 C 
HETATM    3  C3  UNL     1      31.738   4.010  -5.365  1.00  0.00     0.033 C 
HETATM    4  C4  UNL     1      32.989   4.101  -4.497  1.00  0.00     0.005 C 
HETATM    5  C5  UNL     1      33.475   2.694  -4.236  1.00  0.00     0.005 C 
HETATM    6  C6  UNL     1      33.925   2.508  -2.782  1.00  0.00    -0.016 C 
HETATM    7  C7  UNL     1      35.459   2.453  -2.822  1.00  0.00     0.010 C 
HETATM    8  C8  UNL     1      33.340   1.232  -2.297  1.00  0.00     0.042 C 
HETATM    9  C9  UNL     1      33.231   1.064  -0.824  1.00  0.00     0.060 C 
HETATM   10  C10 UNL     1      34.600   1.084  -0.166  1.00  0.00     0.046 C 
HETATM   11  C11 UNL     1      32.369   2.054  -0.122  1.00  0.00     0.048 C 
HETATM   12  C14 UNL     1      31.110   2.300  -0.881  1.00  0.00     0.125 C 
HETATM   13  C15 UNL     1      30.094   3.148  -0.173  1.00  0.00     0.041 C 
HETATM   14  C16 UNL     1      30.509   4.549   0.088  1.00  0.00     0.018 C 
HETATM   15  C25 UNL     1      30.505   5.515  -1.018  1.00  0.00     0.041 C 
HETATM   16  C26 UNL     1      29.318   5.528  -1.941  1.00  0.00     0.133 C 
HETATM   17  C31 UNL     1      29.657   4.979  -3.312  1.00  0.00     0.037 C 
HETATM   18  C32 UNL     1      30.545   5.896  -4.071  1.00  0.00     0.036 C 
ENDROOT
BRANCH  14  19
HETATM   19  C17 UNL     1      29.820   5.083   1.284  1.00  0.00    -0.085 C 
HETATM   20  C18 UNL     1      29.888   6.345   1.650  1.00  0.00     0.014 C 
BRANCH  19  21
HETATM   21  C19 UNL     1      29.009   4.158   2.115  1.00  0.00     0.040 C 
BRANCH  21  22
HETATM   22  C20 UNL     1      27.645   4.744   2.460  1.00  0.00     0.071 C 
BRANCH  22  23
HETATM   23  C21 UNL     1      26.590   4.095   1.624  1.00  0.00     0.078 A 
HETATM   24  C22 UNL     1      26.628   2.805   1.150  1.00  0.00     0.061 A 
HETATM   25  C23 UNL     1      25.467   2.587   0.421  1.00  0.00     0.031 A 
HETATM   26  C24 UNL     1      25.103   1.336  -0.264  1.00  0.00     0.070 C 
HETATM   27  N1  UNL     1      24.794   3.767   0.501  1.00  0.00    -0.266 N 
HETATM   28  O3  UNL     1      25.483   4.615   1.208  1.00  0.00    -0.242 OA
ATOM     29  H1  UNL     1      23.889   3.958   0.072  1.00  0.00     0.194 HD
ENDBRANCH  22  23
ENDBRANCH  21  22
ENDBRANCH  19  21
ENDBRANCH  14  19
BRANCH  12  30
HETATM   30  O2  UNL     1      30.446   1.095  -1.222  1.00  0.00    -0.395 OA
ATOM     31  H2  UNL     1      30.843   0.337  -0.809  1.00  0.00     0.210 HD
ENDBRANCH  12  30
BRANCH  16  32
HETATM   32  O4  UNL     1      28.117   5.116  -1.440  1.00  0.00    -0.316 OA
BRANCH  32  33
HETATM   33  C27 UNL     1      27.195   4.373  -2.125  1.00  0.00     0.259 C 
HETATM   34  O5  UNL     1      26.092   4.936  -2.287  1.00  0.00    -0.265 OA
BRANCH  33  35
HETATM   35  C28 UNL     1      27.378   3.020  -2.667  1.00  0.00     0.121 C 
BRANCH  35  36
HETATM   36  C29 UNL     1      26.906   2.870  -4.076  1.00  0.00     0.123 C 
BRANCH  36  37
HETATM   37  C30 UNL     1      26.121   1.587  -4.155  1.00  0.00     0.172 C 
HETATM   38  O6  UNL     1      26.683   0.485  -4.426  1.00  0.00    -0.648 OA
HETATM   39  O7  UNL     1      24.755   1.547  -3.939  1.00  0.00    -0.648 OA
ENDBRANCH  36  37
ENDBRANCH  35  36
ENDBRANCH  33  35
ENDBRANCH  32  33
ENDBRANCH  16  32
BRANCH  11  40
HETATM   40  C12 UNL     1      32.213   1.710   1.313  1.00  0.00     0.006 C 
HETATM   41  C13 UNL     1      32.735   2.678   2.303  1.00  0.00     0.006 C 
ENDBRANCH  11  40
BRANCH   9  42
HETATM   42  O1  UNL     1      32.737  -0.245  -0.608  1.00  0.00    -0.390 OA
ATOM     43  H1  UNL     1      31.931  -0.312  -1.106  1.00  0.00     0.210 HD
ENDBRANCH   9  42
TORSDOF 12
ENDMDL
MODEL 2
REMARK VINA RESULT: -6.984528560      2.940      4.708
REMARK  12 active torsions:
REMARK  status: ('A' for Active; 'I' for Inactive)
REMARK    1  A    between atoms: C9_9  and  O1_11 
REMARK    2  A    between atoms: C11_13  and  C12_14 
REMARK    3  A    between atoms: C14_16  and  O2_17 
REMARK    4  A    between atoms: C16_20  and  C17_21 
REMARK    5  A    between atoms: C17_21  and  C19_23 
REMARK    6  A    between atoms: C19_23  and  C20_24 
REMARK    7  A    between atoms: C20_24  and  C21_25 
REMARK    8  A    between atoms: C26_33  and  O4_34 
REMARK    9  A    between atoms: O4_34  and  C27_35 
REMARK   10  A    between atoms: C27_35  and  C28_37 
REMARK   11  A    between atoms: C28_37  and  C29_38 
REMARK   12  A    between atoms: C29_38  and  C30_39 
ROOT
HETATM    1  C1  UNL     1      28.837   0.646  -4.606  1.00  0.00     0.014 C 
HETATM    2  C2  UNL     1      29.298   1.220  -3.518  1.00  0.00    -0.089 C 
HETATM    3  C3  UNL     1      30.085   0.381  -2.558  1.00  0.00     0.033 C 
HETATM    4  C4  UNL     1      31.457   0.983  -2.274  1.00  0.00     0.005 C 
HETATM    5  C5  UNL     1      32.012   0.307  -1.041  1.00  0.00     0.005 C 
HETATM    6  C6  UNL     1      32.696   1.309  -0.102  1.00  0.00    -0.016 C 
HETATM    7  C7  UNL     1      34.204   1.065  -0.256  1.00  0.00     0.010 C 
HETATM    8  C8  UNL     1      32.226   1.015   1.276  1.00  0.00     0.042 C 
HETATM    9  C9  UNL     1      32.361   2.108   2.275  1.00  0.00     0.060 C 
HETATM   10  C10 UNL     1      33.818   2.487   2.483  1.00  0.00     0.046 C 
HETATM   11  C11 UNL     1      31.601   3.353   1.978  1.00  0.00     0.048 C 
HETATM   12  C14 UNL     1      30.230   3.037   1.484  1.00  0.00     0.125 C 
HETATM   13  C15 UNL     1      29.322   4.222   1.324  1.00  0.00     0.041 C 
HETATM   14  C16 UNL     1      29.740   5.205   0.294  1.00  0.00     0.018 C 
HETATM   15  C25 UNL     1      29.535   4.888  -1.125  1.00  0.00     0.041 C 
HETATM   16  C26 UNL     1      28.215   4.297  -1.533  1.00  0.00     0.133 C 
HETATM   17  C31 UNL     1      28.341   2.837  -1.919  1.00  0.00     0.037 C 
HETATM   18  C32 UNL     1      29.072   2.665  -3.201  1.00  0.00     0.036 C 
ENDROOT
BRANCH  14  19
HETATM   19  C17 UNL     1      29.241   6.557   0.632  1.00  0.00    -0.085 C 
HETATM   20  C18 UNL     1      29.234   7.557  -0.226  1.00  0.00     0.014 C 
BRANCH  19  21
HETATM   21  C19 UNL     1      28.720   6.807   1.998  1.00  0.00     0.040 C 
BRANCH  21  22
HETATM   22  C20 UNL     1      28.714   8.291   2.347  1.00  0.00     0.071 C 
BRANCH  22  23
HETATM   23  C21 UNL     1      29.986   8.651   3.044  1.00  0.00     0.078 A 
HETATM   24  C22 UNL     1      30.189   8.624   4.403  1.00  0.00     0.061 A 
HETATM   25  C23 UNL     1      31.496   9.025   4.646  1.00  0.00     0.031 A 
HETATM   26  C24 UNL     1      32.129   9.140   5.969  1.00  0.00     0.070 C 
HETATM   27  N1  UNL     1      32.006   9.270   3.408  1.00  0.00    -0.266 N 
HETATM   28  O3  UNL     1      31.095   9.041   2.507  1.00  0.00    -0.242 OA
ATOM     29  H1  UNL     1      32.956   9.586   3.216  1.00  0.00     0.194 HD
ENDBRANCH  22  23
ENDBRANCH  21  22
ENDBRANCH  19  21
ENDBRANCH  14  19
BRANCH  12  30
HETATM   30  O2  UNL     1      29.549   2.133   2.337  1.00  0.00    -0.395 OA
ATOM     31  H2  UNL     1      29.303   1.333   1.889  1.00  0.00     0.210 HD
ENDBRANCH  12  30
BRANCH  16  32
HETATM   32  O4  UNL     1      27.120   4.596  -0.775  1.00  0.00    -0.316 OA
BRANCH  32  33
HETATM   33  C27 UNL     1      25.834   4.243  -1.079  1.00  0.00     0.259 C 
HETATM   34  O5  UNL     1      25.420   4.685  -2.171  1.00  0.00    -0.265 OA
BRANCH  33  35
HETATM   35  C28 UNL     1      24.929   3.421  -0.265  1.00  0.00     0.121 C 
BRANCH  35  36
HETATM   36  C29 UNL     1      25.621   2.660   0.818  1.00  0.00     0.123 C 
BRANCH  36  37
HETATM   37  C30 UNL     1      25.723   1.226   0.368  1.00  0.00     0.172 C 
HETATM   38  O6  UNL     1      25.679   0.269   1.197  1.00  0.00    -0.648 OA
HETATM   39  O7  UNL     1      25.869   0.882  -0.965  1.00  0.00    -0.648 OA
ENDBRANCH  36  37
ENDBRANCH  35  36
ENDBRANCH  33  35
ENDBRANCH  32  33
ENDBRANCH  16  32
BRANCH  11  40
HETATM   40  C12 UNL     1      31.687   4.317   3.103  1.00  0.00     0.006 C 
HETATM   41  C13 UNL     1      32.265   5.648   2.812  1.00  0.00     0.006 C 
ENDBRANCH  11  40
BRANCH   9  42
HETATM   42  O1  UNL     1      31.939   1.569   3.514  1.00  0.00    -0.390 OA
ATOM     43  H1  UNL     1      31.982   2.281   4.143  1.00  0.00     0.210 HD
ENDBRANCH   9  42
TORSDOF 12
ENDMDL
MODEL 3
REMARK VINA RESULT: -6.955776011      2.348      4.201
REMARK  12 active torsions:
REMARK  status: ('A' for Active; 'I' for Inactive)
REMARK    1  A    between atoms: C9_9  and  O1_11 
REMARK    2  A    between atoms: C11_13  and  C12_14 
REMARK    3  A    between atoms: C14_16  and  O2_17 
REMARK    4  A    between atoms: C16_20  and  C17_21 
REMARK    5  A    between atoms: C17_21  and  C19_23 
REMARK    6  A    between atoms: C19_23  and  C20_24 
REMARK    7  A    between atoms: C20_24  and  C21_25 
REMARK    8  A    between atoms: C26_33  and  O4_34 
REMARK    9  A    between atoms: O4_34  and  C27_35 
REMARK   10  A    between atoms: C27_35  and  C28_37 
REMARK   11  A    between atoms: C28_37  and  C29_38 
REMARK   12  A    between atoms: C29_38  and  C30_39 
ROOT
HETATM    1  C1  UNL     1      26.930   3.521  -6.882  1.00  0.00     0.014 C 
HETATM    2  C2  UNL     1      27.838   3.483  -5.934  1.00  0.00    -0.089 C 
HETATM    3  C3  UNL     1      29.243   3.128  -6.317  1.00  0.00     0.033 C 
HETATM    4  C4  UNL     1      30.238   4.193  -5.868  1.00  0.00     0.005 C 
HETATM    5  C5  UNL     1      31.623   3.593  -5.944  1.00  0.00     0.005 C 
HETATM    6  C6  UNL     1      32.477   3.982  -4.731  1.00  0.00    -0.016 C 
HETATM    7  C7  UNL     1      33.486   5.020  -5.244  1.00  0.00     0.010 C 
HETATM    8  C8  UNL     1      33.152   2.748  -4.251  1.00  0.00     0.042 C 
HETATM    9  C9  UNL     1      33.642   2.757  -2.847  1.00  0.00     0.060 C 
HETATM   10  C10 UNL     1      34.700   3.828  -2.642  1.00  0.00     0.046 C 
HETATM   11  C11 UNL     1      32.599   2.935  -1.799  1.00  0.00     0.048 C 
HETATM   12  C14 UNL     1      31.392   2.113  -2.101  1.00  0.00     0.125 C 
HETATM   13  C15 UNL     1      30.354   2.085  -1.018  1.00  0.00     0.041 C 
HETATM   14  C16 UNL     1      29.705   3.387  -0.727  1.00  0.00     0.018 C 
HETATM   15  C25 UNL     1      28.688   3.904  -1.651  1.00  0.00     0.041 C 
HETATM   16  C26 UNL     1      27.643   2.949  -2.158  1.00  0.00     0.133 C 
HETATM   17  C31 UNL     1      27.839   2.617  -3.623  1.00  0.00     0.037 C 
HETATM   18  C32 UNL     1      27.531   3.777  -4.499  1.00  0.00     0.036 C 
ENDROOT
BRANCH  14  19
HETATM   19  C17 UNL     1      29.245   3.437   0.679  1.00  0.00    -0.085 C 
HETATM   20  C18 UNL     1      29.503   2.489   1.555  1.00  0.00     0.014 C 
BRANCH  19  21
HETATM   21  C19 UNL     1      28.456   4.610   1.132  1.00  0.00     0.040 C 
BRANCH  21  22
HETATM   22  C20 UNL     1      28.461   4.752   2.650  1.00  0.00     0.071 C 
BRANCH  22  23
HETATM   23  C21 UNL     1      29.396   5.847   3.051  1.00  0.00     0.078 A 
HETATM   24  C22 UNL     1      29.024   7.086   3.516  1.00  0.00     0.061 A 
HETATM   25  C23 UNL     1      30.182   7.807   3.776  1.00  0.00     0.031 A 
HETATM   26  C24 UNL     1      30.240   9.185   4.288  1.00  0.00     0.070 C 
HETATM   27  N1  UNL     1      31.189   6.951   3.450  1.00  0.00    -0.266 N 
HETATM   28  O3  UNL     1      30.688   5.825   3.033  1.00  0.00    -0.242 OA
ATOM     29  H1  UNL     1      32.184   7.161   3.522  1.00  0.00     0.194 HD
ENDBRANCH  22  23
ENDBRANCH  21  22
ENDBRANCH  19  21
ENDBRANCH  14  19
BRANCH  12  30
HETATM   30  O2  UNL     1      31.719   0.760  -2.368  1.00  0.00    -0.395 OA
ATOM     31  H2  UNL     1      30.948   0.233  -2.542  1.00  0.00     0.210 HD
ENDBRANCH  12  30
BRANCH  16  32
HETATM   32  O4  UNL     1      27.316   1.885  -1.369  1.00  0.00    -0.316 OA
BRANCH  32  33
HETATM   33  C27 UNL     1      26.084   1.667  -0.817  1.00  0.00     0.259 C 
HETATM   34  O5  UNL     1      25.951   0.553  -0.268  1.00  0.00    -0.265 OA
BRANCH  33  35
HETATM   35  C28 UNL     1      24.943   2.592  -0.812  1.00  0.00     0.121 C 
BRANCH  35  36
HETATM   36  C29 UNL     1      25.283   3.960  -0.314  1.00  0.00     0.123 C 
BRANCH  36  37
HETATM   37  C30 UNL     1      24.905   4.017   1.143  1.00  0.00     0.172 C 
HETATM   38  O6  UNL     1      25.275   3.120   1.957  1.00  0.00    -0.648 OA
HETATM   39  O7  UNL     1      24.137   5.044   1.663  1.00  0.00    -0.648 OA
ENDBRANCH  36  37
ENDBRANCH  35  36
ENDBRANCH  33  35
ENDBRANCH  32  33
ENDBRANCH  16  32
BRANCH  11  40
HETATM   40  C12 UNL     1      33.173   2.783  -0.439  1.00  0.00     0.006 C 
HETATM   41  C13 UNL     1      33.032   3.929   0.488  1.00  0.00     0.006 C 
ENDBRANCH  11  40
BRANCH   9  42
HETATM   42  O1  UNL     1      34.316   1.528  -2.653  1.00  0.00    -0.390 OA
ATOM     43  H1  UNL     1      34.537   1.488  -1.730  1.00  0.00     0.210 HD
ENDBRANCH   9  42
TORSDOF 12
ENDMDL
MODEL 4
REMARK VINA RESULT: -6.771794383      2.465      6.584
REMARK  12 active torsions:
REMARK  status: ('A' for Active; 'I' for Inactive)
REMARK    1  A    between atoms: C9_9  and  O1_11 
REMARK    2  A    between atoms: C11_13  and  C12_14 
REMARK    3  A    between atoms: C14_16  and  O2_17 
REMARK    4  A    between atoms: C16_20  and  C17_21 
REMARK    5  A    between atoms: C17_21  and  C19_23 
REMARK    6  A    between atoms: C19_23  and  C20_24 
REMARK    7  A    between atoms: C20_24  and  C21_25 
REMARK    8  A    between atoms: C26_33  and  O4_34 
REMARK    9  A    between atoms: O4_34  and  C27_35 
REMARK   10  A    between atoms: C27_35  and  C28_37 
REMARK   11  A    between atoms: C28_37  and  C29_38 
REMARK   12  A    between atoms: C29_38  and  C30_39 
ROOT
HETATM    1  C1  UNL     1      25.325   2.075   0.374  1.00  0.00     0.014 C 
HETATM    2  C2  UNL     1      26.250   2.987   0.180  1.00  0.00    -0.089 C 
HETATM    3  C3  UNL     1      26.224   4.212   1.044  1.00  0.00     0.033 C 
HETATM    4  C4  UNL     1      27.553   4.428   1.759  1.00  0.00     0.005 C 
HETATM    5  C5  UNL     1      27.572   5.846   2.282  1.00  0.00     0.005 C 
HETATM    6  C6  UNL     1      28.937   6.512   2.072  1.00  0.00    -0.016 C 
HETATM    7  C7  UNL     1      29.595   6.565   3.458  1.00  0.00     0.010 C 
HETATM    8  C8  UNL     1      28.686   7.871   1.527  1.00  0.00     0.042 C 
HETATM    9  C9  UNL     1      29.815   8.522   0.810  1.00  0.00     0.060 C 
HETATM   10  C10 UNL     1      31.003   8.736   1.733  1.00  0.00     0.046 C 
HETATM   11  C11 UNL     1      30.301   7.815  -0.407  1.00  0.00     0.048 C 
HETATM   12  C14 UNL     1      29.159   7.317  -1.227  1.00  0.00     0.125 C 
HETATM   13  C15 UNL     1      29.537   6.746  -2.563  1.00  0.00     0.041 C 
HETATM   14  C16 UNL     1      30.367   5.517  -2.515  1.00  0.00     0.018 C 
HETATM   15  C25 UNL     1      29.733   4.236  -2.175  1.00  0.00     0.041 C 
HETATM   16  C26 UNL     1      28.419   3.903  -2.825  1.00  0.00     0.133 C 
HETATM   17  C31 UNL     1      27.267   3.966  -1.843  1.00  0.00     0.037 C 
HETATM   18  C32 UNL     1      27.319   2.856  -0.858  1.00  0.00     0.036 C 
ENDROOT
BRANCH  14  19
HETATM   19  C17 UNL     1      31.208   5.407  -3.728  1.00  0.00    -0.085 C 
HETATM   20  C18 UNL     1      31.074   6.201  -4.770  1.00  0.00     0.014 C 
BRANCH  19  21
HETATM   21  C19 UNL     1      32.255   4.357  -3.781  1.00  0.00     0.040 C 
BRANCH  21  22
HETATM   22  C20 UNL     1      31.853   3.192  -4.679  1.00  0.00     0.071 C 
BRANCH  22  23
HETATM   23  C21 UNL     1      31.521   2.000  -3.842  1.00  0.00     0.078 A 
HETATM   24  C22 UNL     1      32.201   1.600  -2.716  1.00  0.00     0.061 A 
HETATM   25  C23 UNL     1      31.582   0.455  -2.231  1.00  0.00     0.031 A 
HETATM   26  C24 UNL     1      31.990  -0.305  -1.039  1.00  0.00     0.070 C 
HETATM   27  N1  UNL     1      30.559   0.234  -3.101  1.00  0.00    -0.266 N 
HETATM   28  O3  UNL     1      30.561   1.154  -4.021  1.00  0.00    -0.242 OA
ATOM     29  H1  UNL     1      29.893  -0.536  -3.041  1.00  0.00     0.194 HD
ENDBRANCH  22  23
ENDBRANCH  21  22
ENDBRANCH  19  21
ENDBRANCH  14  19
BRANCH  12  30
HETATM   30  O2  UNL     1      28.206   8.332  -1.490  1.00  0.00    -0.395 OA
ATOM     31  H2  UNL     1      28.608   9.124  -1.828  1.00  0.00     0.210 HD
ENDBRANCH  12  30
BRANCH  16  32
HETATM   32  O4  UNL     1      28.158   4.447  -4.049  1.00  0.00    -0.316 OA
BRANCH  32  33
HETATM   33  C27 UNL     1      28.200   3.768  -5.235  1.00  0.00     0.259 C 
HETATM   34  O5  UNL     1      28.764   4.381  -6.166  1.00  0.00    -0.265 OA
BRANCH  33  35
HETATM   35  C28 UNL     1      27.659   2.428  -5.504  1.00  0.00     0.121 C 
BRANCH  35  36
HETATM   36  C29 UNL     1      26.170   2.395  -5.621  1.00  0.00     0.123 C 
BRANCH  36  37
HETATM   37  C30 UNL     1      25.642   1.615  -4.445  1.00  0.00     0.172 C 
HETATM   38  O6  UNL     1      26.398   0.870  -3.754  1.00  0.00    -0.648 OA
HETATM   39  O7  UNL     1      24.313   1.671  -4.063  1.00  0.00    -0.648 OA
ENDBRANCH  36  37
ENDBRANCH  35  36
ENDBRANCH  33  35
ENDBRANCH  32  33
ENDBRANCH  16  32
BRANCH  11  40
HETATM   40  C12 UNL     1      31.322   8.618  -1.124  1.00  0.00     0.006 C 
HETATM   41  C13 UNL     1      32.674   8.030  -1.260  1.00  0.00     0.006 C 
ENDBRANCH  11  40
BRANCH   9  42
HETATM   42  O1  UNL     1      29.373   9.822   0.469  1.00  0.00    -0.390 OA
ATOM     43  H1  UNL     1      30.151  10.317   0.239  1.00  0.00     0.210 HD
ENDBRANCH   9  42
TORSDOF 12
ENDMDL
MODEL 5
REMARK VINA RESULT: -6.743810906      2.058      3.308
REMARK  12 active torsions:
REMARK  status: ('A' for Active; 'I' for Inactive)
REMARK    1  A    between atoms: C9_9  and  O1_11 
REMARK    2  A    between atoms: C11_13  and  C12_14 
REMARK    3  A    between atoms: C14_16  and  O2_17 
REMARK    4  A    between atoms: C16_20  and  C17_21 
REMARK    5  A    between atoms: C17_21  and  C19_23 
REMARK    6  A    between atoms: C19_23  and  C20_24 
REMARK    7  A    between atoms: C20_24  and  C21_25 
REMARK    8  A    between atoms: C26_33  and  O4_34 
REMARK    9  A    between atoms: O4_34  and  C27_35 
REMARK   10  A    between atoms: C27_35  and  C28_37 
REMARK   11  A    between atoms: C28_37  and  C29_38 
REMARK   12  A    between atoms: C29_38  and  C30_39 
ROOT
HETATM    1  C1  UNL     1      30.556   4.953  -6.836  1.00  0.00     0.014 C 
HETATM    2  C2  UNL     1      30.837   4.539  -5.622  1.00  0.00    -0.089 C 
HETATM    3  C3  UNL     1      31.915   3.510  -5.460  1.00  0.00     0.033 C 
HETATM    4  C4  UNL     1      33.000   3.974  -4.493  1.00  0.00     0.005 C 
HETATM    5  C5  UNL     1      33.816   2.764  -4.099  1.00  0.00     0.005 C 
HETATM    6  C6  UNL     1      34.148   2.765  -2.602  1.00  0.00    -0.016 C 
HETATM    7  C7  UNL     1      35.636   3.130  -2.503  1.00  0.00     0.010 C 
HETATM    8  C8  UNL     1      33.879   1.397  -2.089  1.00  0.00     0.042 C 
HETATM    9  C9  UNL     1      33.669   1.263  -0.623  1.00  0.00     0.060 C 
HETATM   10  C10 UNL     1      34.907   1.683   0.151  1.00  0.00     0.046 C 
HETATM   11  C11 UNL     1      32.506   2.007  -0.065  1.00  0.00     0.048 C 
HETATM   12  C14 UNL     1      31.312   1.869  -0.948  1.00  0.00     0.125 C 
HETATM   13  C15 UNL     1      30.038   2.434  -0.388  1.00  0.00     0.041 C 
HETATM   14  C16 UNL     1      30.033   3.904  -0.185  1.00  0.00     0.018 C 
HETATM   15  C25 UNL     1      29.884   4.788  -1.348  1.00  0.00     0.041 C 
HETATM   16  C26 UNL     1      28.838   4.441  -2.370  1.00  0.00     0.133 C 
HETATM   17  C31 UNL     1      29.451   3.952  -3.667  1.00  0.00     0.037 C 
HETATM   18  C32 UNL     1      30.134   5.047  -4.403  1.00  0.00     0.036 C 
ENDROOT
BRANCH  14  19
HETATM   19  C17 UNL     1      29.107   4.276   0.909  1.00  0.00    -0.085 C 
HETATM   20  C18 UNL     1      28.819   3.473   1.912  1.00  0.00     0.014 C 
BRANCH  19  21
HETATM   21  C19 UNL     1      28.470   5.615   0.883  1.00  0.00     0.040 C 
BRANCH  21  22
HETATM   22  C20 UNL     1      27.924   6.017   2.249  1.00  0.00     0.071 C 
BRANCH  22  23
HETATM   23  C21 UNL     1      28.624   7.247   2.730  1.00  0.00     0.078 A 
HETATM   24  C22 UNL     1      29.541   7.296   3.752  1.00  0.00     0.061 A 
HETATM   25  C23 UNL     1      29.955   8.615   3.888  1.00  0.00     0.031 A 
HETATM   26  C24 UNL     1      30.933   9.113   4.868  1.00  0.00     0.070 C 
HETATM   27  N1  UNL     1      29.256   9.285   2.931  1.00  0.00    -0.266 N 
HETATM   28  O3  UNL     1      28.495   8.452   2.283  1.00  0.00    -0.242 OA
ATOM     29  H1  UNL     1      29.319  10.287   2.751  1.00  0.00     0.194 HD
ENDBRANCH  22  23
ENDBRANCH  21  22
ENDBRANCH  19  21
ENDBRANCH  14  19
BRANCH  12  30
HETATM   30  O2  UNL     1      31.034   0.516  -1.266  1.00  0.00    -0.395 OA
ATOM     31  H2  UNL     1      30.108   0.365  -1.411  1.00  0.00     0.210 HD
ENDBRANCH  12  30
BRANCH  16  32
HETATM   32  O4  UNL     1      27.747   3.737  -1.952  1.00  0.00    -0.316 OA
BRANCH  32  33
HETATM   33  C27 UNL     1      26.463   4.210  -1.943  1.00  0.00     0.259 C 
HETATM   34  O5  UNL     1      26.294   5.264  -2.590  1.00  0.00    -0.265 OA
BRANCH  33  35
HETATM   35  C28 UNL     1      25.307   3.610  -1.264  1.00  0.00     0.121 C 
BRANCH  35  36
HETATM   36  C29 UNL     1      25.615   3.101   0.107  1.00  0.00     0.123 C 
BRANCH  36  37
HETATM   37  C30 UNL     1      25.696   1.600   0.024  1.00  0.00     0.172 C 
HETATM   38  O6  UNL     1      25.343   0.864   0.993  1.00  0.00    -0.648 OA
HETATM   39  O7  UNL     1      26.158   0.950  -1.107  1.00  0.00    -0.648 OA
ENDBRANCH  36  37
ENDBRANCH  35  36
ENDBRANCH  33  35
ENDBRANCH  32  33
ENDBRANCH  16  32
BRANCH  11  40
HETATM   40  C12 UNL     1      32.301   1.689   1.370  1.00  0.00     0.006 C 
HETATM   41  C13 UNL     1      32.484   2.791   2.341  1.00  0.00     0.006 C 
ENDBRANCH  11  40
BRANCH   9  42
HETATM   42  O1  UNL     1      33.524  -0.121  -0.366  1.00  0.00    -0.390 OA
ATOM     43  H1  UNL     1      32.598  -0.270  -0.216  1.00  0.00     0.210 HD
ENDBRANCH   9  42
TORSDOF 12
ENDMDL
