MODEL 1
REMARK VINA RESULT: -7.425001139      0.000      0.000
REMARK  11 active torsions:
REMARK  status: ('A' for Active; 'I' for Inactive)
REMARK    1  A    between atoms: C2_2  and  O1_3 
REMARK    2  A    between atoms: O1_3  and  N1_4 
REMARK    3  A    between atoms: C4_7  and  C5_8 
REMARK    4  A    between atoms: C5_8  and  C6_10 
REMARK    5  A    between atoms: C6_10  and  C7_11 
REMARK    6  A    between atoms: C7_11  and  C8_12 
REMARK    7  A    between atoms: C8_12  and  O3_13 
REMARK    8  A    between atoms: C8_12  and  C9_15 
REMARK    9  A    between atoms: C13_19  and  O4_20 
REMARK   10  A    between atoms: C14_22  and  O5_23 
REMARK   11  A    between atoms: C25_34  and  N2_35 
ROOT
HETATM    1  N1  UNL     1      27.491   2.734  -0.374  1.00  0.00    -0.273 N 
ATOM      2  H1  UNL     1      27.065   2.636  -1.296  1.00  0.00     0.193 HD
HETATM    3  C3  UNL     1      28.245   3.700  -0.399  1.00  0.00     0.030 C 
HETATM    4  C4  UNL     1      28.399   4.491  -1.646  1.00  0.00     0.103 C 
HETATM    5  C17 UNL     1      29.776   4.280  -2.252  1.00  0.00     0.018 C 
HETATM    6  C18 UNL     1      30.639   3.699  -1.148  1.00  0.00     0.007 C 
HETATM    7  C19 UNL     1      30.434   4.463   0.173  1.00  0.00     0.004 C 
HETATM    8  C20 UNL     1      31.587   4.284   1.062  1.00  0.00    -0.001 C 
HETATM    9  C21 UNL     1      32.225   5.581   1.541  1.00  0.00     0.033 C 
HETATM   10  C22 UNL     1      33.260   5.305   2.562  1.00  0.00    -0.023 C 
HETATM   11  C23 UNL     1      33.520   4.125   3.109  1.00  0.00    -0.073 C 
HETATM   12  C24 UNL     1      34.588   3.986   4.123  1.00  0.00     0.067 C 
HETATM   13  C25 UNL     1      34.109   3.263   5.363  1.00  0.00     0.187 C 
HETATM   14  C26 UNL     1      32.741   2.675   5.193  1.00  0.00     0.034 C 
HETATM   15  C27 UNL     1      32.696   1.965   3.866  1.00  0.00     0.016 C 
HETATM   16  C28 UNL     1      32.727   2.914   2.701  1.00  0.00    -0.017 C 
HETATM   17  C29 UNL     1      33.501   2.245   1.573  1.00  0.00     0.020 C 
HETATM   18  C30 UNL     1      31.406   3.437   2.281  1.00  0.00     0.003 C 
HETATM   19  C31 UNL     1      30.301   2.478   2.085  1.00  0.00     0.007 C 
HETATM   20  C32 UNL     1      29.051   3.372   1.963  1.00  0.00     0.016 C 
HETATM   21  C33 UNL     1      29.062   4.188   0.737  1.00  0.00     0.001 C 
HETATM   22  C34 UNL     1      28.414   5.536   1.123  1.00  0.00     0.022 C 
ENDROOT
BRANCH   4  23
HETATM   23  C5  UNL     1      27.328   4.326  -2.641  1.00  0.00     0.136 C 
HETATM   24  O2  UNL     1      26.181   4.749  -2.375  1.00  0.00    -0.297 OA
BRANCH  23  25
HETATM   25  C6  UNL     1      27.469   3.691  -3.976  1.00  0.00     0.082 C 
BRANCH  25  26
HETATM   26  C7  UNL     1      27.109   2.208  -3.813  1.00  0.00     0.044 C 
BRANCH  26  27
HETATM   27  C8  UNL     1      27.939   1.309  -4.676  1.00  0.00     0.151 C 
BRANCH  27  28
HETATM   28  O3  UNL     1      27.351   0.059  -4.826  1.00  0.00    -0.391 OA
ATOM     29  H3  UNL     1      27.211  -0.153  -5.741  1.00  0.00     0.210 HD
ENDBRANCH  27  28
BRANCH  27  30
HETATM   30  C9  UNL     1      29.355   1.265  -4.259  1.00  0.00    -0.026 A 
HETATM   31  C10 UNL     1      29.771   0.620  -3.123  1.00  0.00     0.019 A 
HETATM   32  C11 UNL     1      31.096   0.584  -2.750  1.00  0.00    -0.025 A 
HETATM   33  C12 UNL     1      31.493  -0.131  -1.510  1.00  0.00     0.051 C 
HETATM   34  C13 UNL     1      32.012   1.210  -3.537  1.00  0.00     0.104 A 
HETATM   35  C14 UNL     1      31.632   1.864  -4.678  1.00  0.00     0.102 A 
HETATM   36  C16 UNL     1      30.322   1.900  -5.047  1.00  0.00     0.049 A 
BRANCH  34  37
HETATM   37  O4  UNL     1      33.358   1.178  -3.164  1.00  0.00    -0.357 OA
ATOM     38  H4  UNL     1      33.945   0.581  -3.614  1.00  0.00     0.217 HD
ENDBRANCH  34  37
BRANCH  35  39
HETATM   39  O5  UNL     1      32.640   2.478  -5.422  1.00  0.00    -0.353 OA
HETATM   40  C15 UNL     1      32.825   3.870  -5.460  1.00  0.00     0.210 C 
ENDBRANCH  35  39
ENDBRANCH  27  30
ENDBRANCH  26  27
ENDBRANCH  25  26
ENDBRANCH  23  25
ENDBRANCH   4  23
BRANCH   1  41
HETATM   41  O1  UNL     1      27.031   1.787   0.392  1.00  0.00    -0.281 OA
BRANCH  41  42
HETATM   42  C2  UNL     1      25.773   1.210   0.509  1.00  0.00     0.196 C 
HETATM   43  C1  UNL     1      24.819   2.027  -0.373  1.00  0.00     0.036 C 
ENDBRANCH  41  42
ENDBRANCH   1  41
BRANCH  13  44
HETATM   44  N2  UNL     1      34.105   4.129   6.525  1.00  0.00    -0.075 N 
ATOM     45  H23 UNL     1      33.316   4.775   6.504  1.00  0.00     0.274 HD
ATOM     46  H22 UNL     1      33.868   3.613   7.372  1.00  0.00     0.274 HD
ATOM     47  H21 UNL     1      34.989   4.627   6.629  1.00  0.00     0.274 HD
ENDBRANCH  13  44
TORSDOF 11
ENDMDL
MODEL 2
REMARK VINA RESULT: -7.279338992      2.220      3.546
REMARK  11 active torsions:
REMARK  status: ('A' for Active; 'I' for Inactive)
REMARK    1  A    between atoms: C2_2  and  O1_3 
REMARK    2  A    between atoms: O1_3  and  N1_4 
REMARK    3  A    between atoms: C4_7  and  C5_8 
REMARK    4  A    between atoms: C5_8  and  C6_10 
REMARK    5  A    between atoms: C6_10  and  C7_11 
REMARK    6  A    between atoms: C7_11  and  C8_12 
REMARK    7  A    between atoms: C8_12  and  O3_13 
REMARK    8  A    between atoms: C8_12  and  C9_15 
REMARK    9  A    between atoms: C13_19  and  O4_20 
REMARK   10  A    between atoms: C14_22  and  O5_23 
REMARK   11  A    between atoms: C25_34  and  N2_35 
ROOT
HETATM    1  N1  UNL     1      28.179   5.647   0.505  1.00  0.00    -0.273 N 
ATOM      2  H1  UNL     1      27.175   5.573   0.672  1.00  0.00     0.193 HD
HETATM    3  C3  UNL     1      28.590   4.555   0.131  1.00  0.00     0.030 C 
HETATM    4  C4  UNL     1      27.649   3.414  -0.002  1.00  0.00     0.103 C 
HETATM    5  C17 UNL     1      27.912   2.369   1.070  1.00  0.00     0.018 C 
HETATM    6  C18 UNL     1      29.303   2.653   1.603  1.00  0.00     0.007 C 
HETATM    7  C19 UNL     1      30.294   2.913   0.453  1.00  0.00     0.004 C 
HETATM    8  C20 UNL     1      31.672   2.665   0.888  1.00  0.00    -0.001 C 
HETATM    9  C21 UNL     1      32.440   1.672   0.025  1.00  0.00     0.033 C 
HETATM   10  C22 UNL     1      33.861   1.620   0.432  1.00  0.00    -0.023 C 
HETATM   11  C23 UNL     1      34.448   2.413   1.319  1.00  0.00    -0.073 C 
HETATM   12  C24 UNL     1      35.884   2.253   1.636  1.00  0.00     0.067 C 
HETATM   13  C25 UNL     1      36.638   3.563   1.553  1.00  0.00     0.187 C 
HETATM   14  C26 UNL     1      35.728   4.740   1.378  1.00  0.00     0.034 C 
HETATM   15  C27 UNL     1      34.594   4.608   2.359  1.00  0.00     0.016 C 
HETATM   16  C28 UNL     1      33.654   3.488   2.010  1.00  0.00    -0.017 C 
HETATM   17  C29 UNL     1      33.142   2.884   3.311  1.00  0.00     0.020 C 
HETATM   18  C30 UNL     1      32.574   3.845   1.061  1.00  0.00     0.003 C 
HETATM   19  C31 UNL     1      31.785   5.065   1.323  1.00  0.00     0.007 C 
HETATM   20  C32 UNL     1      30.995   5.285   0.017  1.00  0.00     0.016 C 
HETATM   21  C33 UNL     1      29.993   4.232  -0.216  1.00  0.00     0.001 C 
HETATM   22  C34 UNL     1      29.966   4.008  -1.744  1.00  0.00     0.022 C 
ENDROOT
BRANCH   4  23
HETATM   23  C5  UNL     1      26.224   3.769  -0.086  1.00  0.00     0.136 C 
HETATM   24  O2  UNL     1      25.642   4.192   0.939  1.00  0.00    -0.297 OA
BRANCH  23  25
HETATM   25  C6  UNL     1      25.373   3.678  -1.299  1.00  0.00     0.082 C 
BRANCH  25  26
HETATM   26  C7  UNL     1      25.529   2.257  -1.858  1.00  0.00     0.044 C 
BRANCH  26  27
HETATM   27  C8  UNL     1      25.696   2.233  -3.345  1.00  0.00     0.151 C 
BRANCH  27  28
HETATM   28  O3  UNL     1      24.744   1.423  -3.952  1.00  0.00    -0.391 OA
ATOM     29  H3  UNL     1      25.145   0.795  -4.542  1.00  0.00     0.210 HD
ENDBRANCH  27  28
BRANCH  27  30
HETATM   30  C9  UNL     1      27.084   1.948  -3.760  1.00  0.00    -0.026 A 
HETATM   31  C10 UNL     1      27.948   1.209  -2.992  1.00  0.00     0.019 A 
HETATM   32  C11 UNL     1      29.239   0.948  -3.396  1.00  0.00    -0.025 A 
HETATM   33  C12 UNL     1      30.132   0.141  -2.527  1.00  0.00     0.051 C 
HETATM   34  C13 UNL     1      29.661   1.444  -4.591  1.00  0.00     0.104 A 
HETATM   35  C14 UNL     1      28.826   2.186  -5.381  1.00  0.00     0.102 A 
HETATM   36  C16 UNL     1      27.550   2.444  -4.983  1.00  0.00     0.049 A 
BRANCH  34  37
HETATM   37  O4  UNL     1      30.970   1.183  -5.005  1.00  0.00    -0.357 OA
ATOM     38  H4  UNL     1      31.647   1.077  -4.347  1.00  0.00     0.217 HD
ENDBRANCH  34  37
BRANCH  35  39
HETATM   39  O5  UNL     1      29.345   2.652  -6.589  1.00  0.00    -0.353 OA
HETATM   40  C15 UNL     1      29.114   3.951  -7.073  1.00  0.00     0.210 C 
ENDBRANCH  35  39
ENDBRANCH  27  30
ENDBRANCH  26  27
ENDBRANCH  25  26
ENDBRANCH  23  25
ENDBRANCH   4  23
BRANCH   1  41
HETATM   41  O1  UNL     1      28.548   6.868   0.767  1.00  0.00    -0.281 OA
BRANCH  41  42
HETATM   42  C2  UNL     1      28.763   7.541   1.963  1.00  0.00     0.196 C 
HETATM   43  C1  UNL     1      28.642   6.506   3.090  1.00  0.00     0.036 C 
ENDBRANCH  41  42
ENDBRANCH   1  41
BRANCH  13  44
HETATM   44  N2  UNL     1      37.609   3.558   0.477  1.00  0.00    -0.075 N 
ATOM     45  H23 UNL     1      38.106   2.669   0.429  1.00  0.00     0.274 HD
ATOM     46  H22 UNL     1      37.153   3.536  -0.435  1.00  0.00     0.274 HD
ATOM     47  H21 UNL     1      38.258   4.342   0.548  1.00  0.00     0.274 HD
ENDBRANCH  13  44
TORSDOF 11
ENDMDL
MODEL 3
REMARK VINA RESULT: -7.149585617      0.528      1.625
REMARK  11 active torsions:
REMARK  status: ('A' for Active; 'I' for Inactive)
REMARK    1  A    between atoms: C2_2  and  O1_3 
REMARK    2  A    between atoms: O1_3  and  N1_4 
REMARK    3  A    between atoms: C4_7  and  C5_8 
REMARK    4  A    between atoms: C5_8  and  C6_10 
REMARK    5  A    between atoms: C6_10  and  C7_11 
REMARK    6  A    between atoms: C7_11  and  C8_12 
REMARK    7  A    between atoms: C8_12  and  O3_13 
REMARK    8  A    between atoms: C8_12  and  C9_15 
REMARK    9  A    between atoms: C13_19  and  O4_20 
REMARK   10  A    between atoms: C14_22  and  O5_23 
REMARK   11  A    between atoms: C25_34  and  N2_35 
ROOT
HETATM    1  N1  UNL     1      27.558   2.787  -0.338  1.00  0.00    -0.273 N 
ATOM      2  H1  UNL     1      27.136   2.698  -1.262  1.00  0.00     0.193 HD
HETATM    3  C3  UNL     1      28.288   3.772  -0.341  1.00  0.00     0.030 C 
HETATM    4  C4  UNL     1      28.424   4.592  -1.571  1.00  0.00     0.103 C 
HETATM    5  C17 UNL     1      29.807   4.427  -2.179  1.00  0.00     0.018 C 
HETATM    6  C18 UNL     1      30.682   3.845  -1.086  1.00  0.00     0.007 C 
HETATM    7  C19 UNL     1      30.457   4.576   0.250  1.00  0.00     0.004 C 
HETATM    8  C20 UNL     1      31.613   4.407   1.137  1.00  0.00    -0.001 C 
HETATM    9  C21 UNL     1      32.219   5.709   1.645  1.00  0.00     0.033 C 
HETATM   10  C22 UNL     1      33.258   5.438   2.661  1.00  0.00    -0.023 C 
HETATM   11  C23 UNL     1      33.547   4.253   3.183  1.00  0.00    -0.073 C 
HETATM   12  C24 UNL     1      34.617   4.120   4.197  1.00  0.00     0.067 C 
HETATM   13  C25 UNL     1      34.155   3.358   5.420  1.00  0.00     0.187 C 
HETATM   14  C26 UNL     1      32.802   2.741   5.236  1.00  0.00     0.034 C 
HETATM   15  C27 UNL     1      32.776   2.058   3.894  1.00  0.00     0.016 C 
HETATM   16  C28 UNL     1      32.784   3.032   2.749  1.00  0.00    -0.017 C 
HETATM   17  C29 UNL     1      33.576   2.405   1.609  1.00  0.00     0.020 C 
HETATM   18  C30 UNL     1      31.452   3.531   2.338  1.00  0.00     0.003 C 
HETATM   19  C31 UNL     1      30.371   2.549   2.120  1.00  0.00     0.007 C 
HETATM   20  C32 UNL     1      29.099   3.414   2.015  1.00  0.00     0.016 C 
HETATM   21  C33 UNL     1      29.092   4.255   0.806  1.00  0.00     0.001 C 
HETATM   22  C34 UNL     1      28.410   5.578   1.219  1.00  0.00     0.022 C 
ENDROOT
BRANCH   4  23
HETATM   23  C5  UNL     1      27.359   4.421  -2.572  1.00  0.00     0.136 C 
HETATM   24  O2  UNL     1      26.200   4.806  -2.297  1.00  0.00    -0.297 OA
BRANCH  23  25
HETATM   25  C6  UNL     1      27.518   3.822  -3.921  1.00  0.00     0.082 C 
BRANCH  25  26
HETATM   26  C7  UNL     1      27.059   2.361  -3.826  1.00  0.00     0.044 C 
BRANCH  26  27
HETATM   27  C8  UNL     1      27.861   1.442  -4.693  1.00  0.00     0.151 C 
BRANCH  27  28
HETATM   28  O3  UNL     1      27.248   0.202  -4.829  1.00  0.00    -0.391 OA
ATOM     29  H3  UNL     1      26.586   0.214  -5.510  1.00  0.00     0.210 HD
ENDBRANCH  27  28
BRANCH  27  30
HETATM   30  C9  UNL     1      29.281   1.372  -4.293  1.00  0.00    -0.026 A 
HETATM   31  C10 UNL     1      30.270   2.056  -4.953  1.00  0.00     0.019 A 
HETATM   32  C11 UNL     1      31.589   1.984  -4.564  1.00  0.00    -0.025 A 
HETATM   33  C12 UNL     1      32.620   2.746  -5.313  1.00  0.00     0.051 C 
HETATM   34  C13 UNL     1      31.911   1.209  -3.493  1.00  0.00     0.104 A 
HETATM   35  C14 UNL     1      30.950   0.513  -2.811  1.00  0.00     0.102 A 
HETATM   36  C16 UNL     1      29.646   0.583  -3.195  1.00  0.00     0.049 A 
BRANCH  34  37
HETATM   37  O4  UNL     1      33.248   1.132  -3.093  1.00  0.00    -0.357 OA
ATOM     38  H4  UNL     1      33.554   0.341  -2.665  1.00  0.00     0.217 HD
ENDBRANCH  34  37
BRANCH  35  39
HETATM   39  O5  UNL     1      31.373  -0.256  -1.726  1.00  0.00    -0.353 OA
HETATM   40  C15 UNL     1      31.794   0.304  -0.508  1.00  0.00     0.210 C 
ENDBRANCH  35  39
ENDBRANCH  27  30
ENDBRANCH  26  27
ENDBRANCH  25  26
ENDBRANCH  23  25
ENDBRANCH   4  23
BRANCH   1  41
HETATM   41  O1  UNL     1      27.121   1.813   0.408  1.00  0.00    -0.281 OA
BRANCH  41  42
HETATM   42  C2  UNL     1      25.861   1.250   0.562  1.00  0.00     0.196 C 
HETATM   43  C1  UNL     1      24.873   2.140  -0.204  1.00  0.00     0.036 C 
ENDBRANCH  41  42
ENDBRANCH   1  41
BRANCH  13  44
HETATM   44  N2  UNL     1      34.128   4.200   6.600  1.00  0.00    -0.075 N 
ATOM     45  H23 UNL     1      33.537   3.799   7.329  1.00  0.00     0.274 HD
ATOM     46  H22 UNL     1      35.022   4.181   7.090  1.00  0.00     0.274 HD
ATOM     47  H21 UNL     1      33.846   5.155   6.378  1.00  0.00     0.274 HD
ENDBRANCH  13  44
TORSDOF 11
ENDMDL
MODEL 4
REMARK VINA RESULT: -7.107560879      2.781      4.448
REMARK  11 active torsions:
REMARK  status: ('A' for Active; 'I' for Inactive)
REMARK    1  A    between atoms: C2_2  and  O1_3 
REMARK    2  A    between atoms: O1_3  and  N1_4 
REMARK    3  A    between atoms: C4_7  and  C5_8 
REMARK    4  A    between atoms: C5_8  and  C6_10 
REMARK    5  A    between atoms: C6_10  and  C7_11 
REMARK    6  A    between atoms: C7_11  and  C8_12 
REMARK    7  A    between atoms: C8_12  and  O3_13 
REMARK    8  A    between atoms: C8_12  and  C9_15 
REMARK    9  A    between atoms: C13_19  and  O4_20 
REMARK   10  A    between atoms: C14_22  and  O5_23 
REMARK   11  A    between atoms: C25_34  and  N2_35 
ROOT
HETATM    1  N1  UNL     1      28.031   5.984   0.993  1.00  0.00    -0.273 N 
ATOM      2  H1  UNL     1      27.167   5.729   1.472  1.00  0.00     0.193 HD
HETATM    3  C3  UNL     1      28.429   5.007   0.369  1.00  0.00     0.030 C 
HETATM    4  C4  UNL     1      27.663   3.736   0.412  1.00  0.00     0.103 C 
HETATM    5  C17 UNL     1      28.419   2.675   1.194  1.00  0.00     0.018 C 
HETATM    6  C18 UNL     1      29.858   3.151   1.268  1.00  0.00     0.007 C 
HETATM    7  C19 UNL     1      30.343   3.659  -0.102  1.00  0.00     0.004 C 
HETATM    8  C20 UNL     1      31.807   3.617  -0.184  1.00  0.00    -0.001 C 
HETATM    9  C21 UNL     1      32.354   2.834  -1.371  1.00  0.00     0.033 C 
HETATM   10  C22 UNL     1      33.821   2.994  -1.467  1.00  0.00    -0.023 C 
HETATM   11  C23 UNL     1      34.566   3.808  -0.732  1.00  0.00    -0.073 C 
HETATM   12  C24 UNL     1      36.031   3.871  -0.931  1.00  0.00     0.067 C 
HETATM   13  C25 UNL     1      36.526   5.292  -1.092  1.00  0.00     0.187 C 
HETATM   14  C26 UNL     1      35.463   6.308  -0.805  1.00  0.00     0.034 C 
HETATM   15  C27 UNL     1      34.768   5.913   0.471  1.00  0.00     0.016 C 
HETATM   16  C28 UNL     1      33.925   4.679   0.314  1.00  0.00    -0.017 C 
HETATM   17  C29 UNL     1      33.983   3.903   1.623  1.00  0.00     0.020 C 
HETATM   18  C30 UNL     1      32.546   4.917  -0.170  1.00  0.00     0.003 C 
HETATM   19  C31 UNL     1      31.741   5.963   0.491  1.00  0.00     0.007 C 
HETATM   20  C32 UNL     1      30.525   6.141  -0.441  1.00  0.00     0.016 C 
HETATM   21  C33 UNL     1      29.655   4.953  -0.461  1.00  0.00     0.001 C 
HETATM   22  C34 UNL     1      29.130   4.840  -1.910  1.00  0.00     0.022 C 
ENDROOT
BRANCH   4  23
HETATM   23  C5  UNL     1      26.263   3.850   0.850  1.00  0.00     0.136 C 
HETATM   24  O2  UNL     1      26.022   4.215   2.023  1.00  0.00    -0.297 OA
BRANCH  23  25
HETATM   25  C6  UNL     1      25.065   3.570   0.020  1.00  0.00     0.082 C 
BRANCH  25  26
HETATM   26  C7  UNL     1      25.512   3.593  -1.447  1.00  0.00     0.044 C 
BRANCH  26  27
HETATM   27  C8  UNL     1      25.583   2.227  -2.055  1.00  0.00     0.151 C 
BRANCH  27  28
HETATM   28  O3  UNL     1      25.443   1.233  -1.094  1.00  0.00    -0.391 OA
ATOM     29  H3  UNL     1      25.559   0.367  -1.469  1.00  0.00     0.210 HD
ENDBRANCH  27  28
BRANCH  27  30
HETATM   30  C9  UNL     1      26.755   2.054  -2.937  1.00  0.00    -0.026 A 
HETATM   31  C10 UNL     1      27.896   1.411  -2.532  1.00  0.00     0.019 A 
HETATM   32  C11 UNL     1      28.979   1.255  -3.369  1.00  0.00    -0.025 A 
HETATM   33  C12 UNL     1      30.191   0.549  -2.880  1.00  0.00     0.051 C 
HETATM   34  C13 UNL     1      28.905   1.756  -4.632  1.00  0.00     0.104 A 
HETATM   35  C14 UNL     1      27.781   2.404  -5.068  1.00  0.00     0.102 A 
HETATM   36  C16 UNL     1      26.711   2.560  -4.242  1.00  0.00     0.049 A 
BRANCH  34  37
HETATM   37  O4  UNL     1      30.001   1.601  -5.485  1.00  0.00    -0.357 OA
ATOM     38  H4  UNL     1      29.850   1.558  -6.422  1.00  0.00     0.217 HD
ENDBRANCH  34  37
BRANCH  35  39
HETATM   39  O5  UNL     1      27.796   2.886  -6.378  1.00  0.00    -0.353 OA
HETATM   40  C15 UNL     1      26.707   3.554  -6.961  1.00  0.00     0.210 C 
ENDBRANCH  35  39
ENDBRANCH  27  30
ENDBRANCH  26  27
ENDBRANCH  25  26
ENDBRANCH  23  25
ENDBRANCH   4  23
BRANCH   1  41
HETATM   41  O1  UNL     1      28.301   7.228   1.270  1.00  0.00    -0.281 OA
BRANCH  41  42
HETATM   42  C2  UNL     1      28.809   7.839   2.409  1.00  0.00     0.196 C 
HETATM   43  C1  UNL     1      29.062   6.732   3.441  1.00  0.00     0.036 C 
ENDBRANCH  41  42
ENDBRANCH   1  41
BRANCH  13  44
HETATM   44  N2  UNL     1      37.055   5.530  -2.420  1.00  0.00    -0.075 N 
ATOM     45  H23 UNL     1      37.832   6.191  -2.397  1.00  0.00     0.274 HD
ATOM     46  H22 UNL     1      37.551   4.713  -2.775  1.00  0.00     0.274 HD
ATOM     47  H21 UNL     1      36.329   5.834  -3.068  1.00  0.00     0.274 HD
ENDBRANCH  13  44
TORSDOF 11
ENDMDL
MODEL 5
REMARK VINA RESULT: -7.093546371      1.865      5.020
REMARK  11 active torsions:
REMARK  status: ('A' for Active; 'I' for Inactive)
REMARK    1  A    between atoms: C2_2  and  O1_3 
REMARK    2  A    between atoms: O1_3  and  N1_4 
REMARK    3  A    between atoms: C4_7  and  C5_8 
REMARK    4  A    between atoms: C5_8  and  C6_10 
REMARK    5  A    between atoms: C6_10  and  C7_11 
REMARK    6  A    between atoms: C7_11  and  C8_12 
REMARK    7  A    between atoms: C8_12  and  O3_13 
REMARK    8  A    between atoms: C8_12  and  C9_15 
REMARK    9  A    between atoms: C13_19  and  O4_20 
REMARK   10  A    between atoms: C14_22  and  O5_23 
REMARK   11  A    between atoms: C25_34  and  N2_35 
ROOT
HETATM    1  N1  UNL     1      30.727   3.767  -3.966  1.00  0.00    -0.273 N 
ATOM      2  H1  UNL     1      30.082   3.421  -4.677  1.00  0.00     0.193 HD
HETATM    3  C3  UNL     1      31.057   2.826  -3.254  1.00  0.00     0.030 C 
HETATM    4  C4  UNL     1      30.516   1.469  -3.519  1.00  0.00     0.103 C 
HETATM    5  C17 UNL     1      29.546   1.051  -2.427  1.00  0.00     0.018 C 
HETATM    6  C18 UNL     1      29.815   1.970  -1.250  1.00  0.00     0.007 C 
HETATM    7  C19 UNL     1      31.327   2.109  -0.992  1.00  0.00     0.004 C 
HETATM    8  C20 UNL     1      31.583   2.527   0.390  1.00  0.00    -0.001 C 
HETATM    9  C21 UNL     1      32.524   1.613   1.165  1.00  0.00     0.033 C 
HETATM   10  C22 UNL     1      32.858   2.205   2.479  1.00  0.00    -0.023 C 
HETATM   11  C23 UNL     1      32.520   3.418   2.896  1.00  0.00    -0.073 C 
HETATM   12  C24 UNL     1      32.920   3.888   4.241  1.00  0.00     0.067 C 
HETATM   13  C25 UNL     1      33.584   5.247   4.198  1.00  0.00     0.187 C 
HETATM   14  C26 UNL     1      33.495   5.889   2.847  1.00  0.00     0.034 C 
HETATM   15  C27 UNL     1      32.080   5.748   2.352  1.00  0.00     0.016 C 
HETATM   16  C28 UNL     1      31.728   4.330   2.000  1.00  0.00    -0.017 C 
HETATM   17  C29 UNL     1      30.260   4.113   2.344  1.00  0.00     0.020 C 
HETATM   18  C30 UNL     1      32.077   3.919   0.620  1.00  0.00     0.003 C 
HETATM   19  C31 UNL     1      31.679   4.800  -0.496  1.00  0.00     0.007 C 
HETATM   20  C32 UNL     1      32.452   4.238  -1.707  1.00  0.00     0.016 C 
HETATM   21  C33 UNL     1      31.982   2.899  -2.099  1.00  0.00     0.001 C 
HETATM   22  C34 UNL     1      33.239   2.132  -2.567  1.00  0.00     0.022 C 
ENDROOT
BRANCH   4  23
HETATM   23  C5  UNL     1      29.956   1.257  -4.863  1.00  0.00     0.136 C 
HETATM   24  O2  UNL     1      30.614   1.631  -5.861  1.00  0.00    -0.297 OA
BRANCH  23  25
HETATM   25  C6  UNL     1      28.650   0.623  -5.173  1.00  0.00     0.082 C 
BRANCH  25  26
HETATM   26  C7  UNL     1      27.677   1.749  -5.548  1.00  0.00     0.044 C 
BRANCH  26  27
HETATM   27  C8  UNL     1      26.403   1.701  -4.762  1.00  0.00     0.151 C 
BRANCH  27  28
HETATM   28  O3  UNL     1      25.303   2.006  -5.555  1.00  0.00    -0.391 OA
ATOM     29  H3  UNL     1      24.747   1.247  -5.686  1.00  0.00     0.210 HD
ENDBRANCH  27  28
BRANCH  27  30
HETATM   30  C9  UNL     1      26.477   2.476  -3.508  1.00  0.00    -0.026 A 
HETATM   31  C10 UNL     1      27.177   3.651  -3.404  1.00  0.00     0.019 A 
HETATM   32  C11 UNL     1      27.232   4.364  -2.227  1.00  0.00    -0.025 A 
HETATM   33  C12 UNL     1      28.004   5.631  -2.170  1.00  0.00     0.051 C 
HETATM   34  C13 UNL     1      26.570   3.881  -1.141  1.00  0.00     0.104 A 
HETATM   35  C14 UNL     1      25.862   2.712  -1.209  1.00  0.00     0.102 A 
HETATM   36  C16 UNL     1      25.808   2.006  -2.371  1.00  0.00     0.049 A 
BRANCH  34  37
HETATM   37  O4  UNL     1      26.623   4.600   0.056  1.00  0.00    -0.357 OA
ATOM     38  H4  UNL     1      26.174   5.436   0.110  1.00  0.00     0.217 HD
ENDBRANCH  34  37
BRANCH  35  39
HETATM   39  O5  UNL     1      25.216   2.294  -0.045  1.00  0.00    -0.353 OA
HETATM   40  C15 UNL     1      25.303   0.982   0.452  1.00  0.00     0.210 C 
ENDBRANCH  35  39
ENDBRANCH  27  30
ENDBRANCH  26  27
ENDBRANCH  25  26
ENDBRANCH  23  25
ENDBRANCH   4  23
BRANCH   1  41
HETATM   41  O1  UNL     1      30.893   5.045  -4.151  1.00  0.00    -0.281 OA
BRANCH  41  42
HETATM   42  C2  UNL     1      30.427   5.914  -5.130  1.00  0.00     0.196 C 
HETATM   43  C1  UNL     1      29.679   5.065  -6.167  1.00  0.00     0.036 C 
ENDBRANCH  41  42
ENDBRANCH   1  41
BRANCH  13  44
HETATM   44  N2  UNL     1      34.977   5.179   4.592  1.00  0.00    -0.075 N 
ATOM     45  H23 UNL     1      35.390   4.281   4.340  1.00  0.00     0.274 HD
ATOM     46  H22 UNL     1      35.556   5.789   4.017  1.00  0.00     0.274 HD
ATOM     47  H21 UNL     1      35.100   5.377   5.585  1.00  0.00     0.274 HD
ENDBRANCH  13  44
TORSDOF 11
ENDMDL
