MODEL 1
REMARK VINA RESULT: -7.074630412      0.000      0.000
REMARK  11 active torsions:
REMARK  status: ('A' for Active; 'I' for Inactive)
REMARK    1  A    between atoms: O1_2  and  C2_3 
REMARK    2  A    between atoms: C15_17  and  C16_18 
REMARK    3  A    between atoms: C17_19  and  C19_21 
REMARK    4  A    between atoms: C21_25  and  O5_26 
REMARK    5  A    between atoms: O5_26  and  C22_27 
REMARK    6  A    between atoms: C22_27  and  C23_29 
REMARK    7  A    between atoms: C23_29  and  C24_30 
REMARK    8  A    between atoms: C24_30  and  C25_31 
REMARK    9  A    between atoms: C25_31  and  C26_32 
REMARK   10  A    between atoms: C26_32  and  C27_33 
REMARK   11  A    between atoms: C31_39  and  O9_40 
ROOT
HETATM    1  C2  UNL     1      34.134   4.104   4.906  1.00  0.00     0.153 C 
HETATM    2  C3  UNL     1      33.716   5.559   4.781  1.00  0.00     0.068 C 
HETATM    3  C4  UNL     1      34.475   6.301   3.748  1.00  0.00    -0.085 C 
HETATM    4  C5  UNL     1      35.949   6.340   3.975  1.00  0.00     0.043 C 
HETATM    5  C6  UNL     1      33.975   6.907   2.691  1.00  0.00    -0.020 C 
HETATM    6  C7  UNL     1      32.559   6.988   2.284  1.00  0.00     0.055 C 
HETATM    7  C8  UNL     1      31.693   7.705   3.202  1.00  0.00    -0.013 C 
HETATM    8  C9  UNL     1      30.388   7.653   3.339  1.00  0.00    -0.020 C 
HETATM    9  C10 UNL     1      29.772   8.552   4.415  1.00  0.00     0.052 C 
HETATM   10  C11 UNL     1      29.503   6.814   2.551  1.00  0.00     0.155 C 
HETATM   11  O2  UNL     1      28.568   7.416   1.900  1.00  0.00    -0.293 OA
HETATM   12  C12 UNL     1      29.555   5.345   2.416  1.00  0.00     0.087 C 
HETATM   13  C13 UNL     1      29.517   4.908   0.977  1.00  0.00     0.042 C 
HETATM   14  C14 UNL     1      29.504   3.428   0.823  1.00  0.00    -0.077 C 
HETATM   15  C15 UNL     1      29.048   2.932  -0.311  1.00  0.00     0.004 C 
HETATM   16  C20 UNL     1      29.985   2.484   1.852  1.00  0.00     0.066 C 
HETATM   17  C21 UNL     1      31.399   1.976   1.606  1.00  0.00     0.136 C 
HETATM   18  C28 UNL     1      31.999   1.631   2.946  1.00  0.00     0.039 C 
HETATM   19  C29 UNL     1      33.277   2.366   3.268  1.00  0.00     0.015 C 
HETATM   20  C30 UNL     1      33.904   3.058   2.106  1.00  0.00     0.012 C 
HETATM   21  C31 UNL     1      33.005   3.260   4.437  1.00  0.00     0.151 C 
ENDROOT
BRANCH  17  22
HETATM   22  O5  UNL     1      31.349   0.741   0.880  1.00  0.00    -0.316 OA
BRANCH  22  23
HETATM   23  C22 UNL     1      32.181   0.483  -0.185  1.00  0.00     0.259 C 
HETATM   24  O6  UNL     1      33.015  -0.442  -0.041  1.00  0.00    -0.265 OA
BRANCH  23  25
HETATM   25  C23 UNL     1      32.069   1.282  -1.435  1.00  0.00     0.111 C 
BRANCH  25  26
HETATM   26  C24 UNL     1      31.508   0.415  -2.533  1.00  0.00     0.010 C 
BRANCH  26  27
HETATM   27  C25 UNL     1      30.524   1.134  -3.403  1.00  0.00     0.011 C 
BRANCH  27  28
HETATM   28  C26 UNL     1      29.167   0.454  -3.208  1.00  0.00     0.113 C 
BRANCH  28  29
HETATM   29  C27 UNL     1      28.372   0.677  -4.435  1.00  0.00     0.172 C 
HETATM   30  O7  UNL     1      28.920   1.079  -5.490  1.00  0.00    -0.648 OA
HETATM   31  O8  UNL     1      26.985   0.446  -4.461  1.00  0.00    -0.648 OA
ENDBRANCH  28  29
ENDBRANCH  27  28
ENDBRANCH  26  27
ENDBRANCH  25  26
ENDBRANCH  23  25
ENDBRANCH  22  23
ENDBRANCH  17  22
BRANCH  15  32
HETATM   32  C16 UNL     1      28.551   3.710  -1.434  1.00  0.00     0.014 C 
HETATM   33  C17 UNL     1      27.373   3.495  -1.982  1.00  0.00     0.015 C 
HETATM   34  C18 UNL     1      26.485   2.438  -1.474  1.00  0.00     0.055 C 
BRANCH  33  35
HETATM   35  C19 UNL     1      26.943   4.310  -3.104  1.00  0.00     0.204 C 
HETATM   36  O3  UNL     1      27.002   3.909  -4.292  1.00  0.00    -0.644 OA
HETATM   37  O4  UNL     1      26.439   5.591  -2.889  1.00  0.00    -0.644 OA
ENDBRANCH  33  35
ENDBRANCH  15  32
BRANCH  21  38
HETATM   38  O9  UNL     1      32.562   2.465   5.503  1.00  0.00    -0.393 OA
ATOM     39  H9  UNL     1      31.994   1.784   5.162  1.00  0.00     0.210 HD
ENDBRANCH  21  38
BRANCH   1  40
HETATM   40  O1  UNL     1      34.393   3.786   6.256  1.00  0.00    -0.388 OA
HETATM   41  C1  UNL     1      35.731   3.925   6.585  1.00  0.00     0.202 C 
ENDBRANCH   1  40
TORSDOF 11
ENDMDL
MODEL 2
REMARK VINA RESULT: -7.040088433      3.022      6.044
REMARK  11 active torsions:
REMARK  status: ('A' for Active; 'I' for Inactive)
REMARK    1  A    between atoms: O1_2  and  C2_3 
REMARK    2  A    between atoms: C15_17  and  C16_18 
REMARK    3  A    between atoms: C17_19  and  C19_21 
REMARK    4  A    between atoms: C21_25  and  O5_26 
REMARK    5  A    between atoms: O5_26  and  C22_27 
REMARK    6  A    between atoms: C22_27  and  C23_29 
REMARK    7  A    between atoms: C23_29  and  C24_30 
REMARK    8  A    between atoms: C24_30  and  C25_31 
REMARK    9  A    between atoms: C25_31  and  C26_32 
REMARK   10  A    between atoms: C26_32  and  C27_33 
REMARK   11  A    between atoms: C31_39  and  O9_40 
ROOT
HETATM    1  C2  UNL     1      30.938   3.091   1.861  1.00  0.00     0.153 C 
HETATM    2  C3  UNL     1      29.423   3.153   1.956  1.00  0.00     0.068 C 
HETATM    3  C4  UNL     1      28.887   4.531   1.872  1.00  0.00    -0.085 C 
HETATM    4  C5  UNL     1      29.380   5.452   2.937  1.00  0.00     0.043 C 
HETATM    5  C6  UNL     1      28.041   4.990   0.972  1.00  0.00    -0.020 C 
HETATM    6  C7  UNL     1      27.437   4.254  -0.155  1.00  0.00     0.055 C 
HETATM    7  C8  UNL     1      26.564   3.157   0.221  1.00  0.00    -0.013 C 
HETATM    8  C9  UNL     1      26.177   2.114  -0.477  1.00  0.00    -0.020 C 
HETATM    9  C10 UNL     1      25.236   1.129   0.221  1.00  0.00     0.052 C 
HETATM   10  C11 UNL     1      26.576   1.836  -1.846  1.00  0.00     0.155 C 
HETATM   11  O2  UNL     1      25.627   1.710  -2.707  1.00  0.00    -0.293 OA
HETATM   12  C12 UNL     1      27.951   1.679  -2.357  1.00  0.00     0.087 C 
HETATM   13  C13 UNL     1      28.200   2.523  -3.578  1.00  0.00     0.042 C 
HETATM   14  C14 UNL     1      29.562   2.330  -4.146  1.00  0.00    -0.077 C 
HETATM   15  C15 UNL     1      29.752   2.658  -5.410  1.00  0.00     0.004 C 
HETATM   16  C20 UNL     1      30.713   1.810  -3.381  1.00  0.00     0.066 C 
HETATM   17  C21 UNL     1      31.648   2.897  -2.867  1.00  0.00     0.136 C 
HETATM   18  C28 UNL     1      32.312   2.373  -1.619  1.00  0.00     0.039 C 
HETATM   19  C29 UNL     1      32.099   3.223  -0.391  1.00  0.00     0.015 C 
HETATM   20  C30 UNL     1      31.550   4.582  -0.666  1.00  0.00     0.012 C 
HETATM   21  C31 UNL     1      31.290   2.424   0.581  1.00  0.00     0.151 C 
ENDROOT
BRANCH  17  22
HETATM   22  O5  UNL     1      32.710   3.103  -3.808  1.00  0.00    -0.316 OA
BRANCH  22  23
HETATM   23  C22 UNL     1      32.842   4.275  -4.517  1.00  0.00     0.259 C 
HETATM   24  O6  UNL     1      33.346   4.190  -5.663  1.00  0.00    -0.265 OA
BRANCH  23  25
HETATM   25  C23 UNL     1      32.398   5.565  -3.924  1.00  0.00     0.111 C 
BRANCH  25  26
HETATM   26  C24 UNL     1      31.159   6.042  -4.638  1.00  0.00     0.010 C 
BRANCH  26  27
HETATM   27  C25 UNL     1      29.943   6.043  -3.765  1.00  0.00     0.011 C 
BRANCH  27  28
HETATM   28  C26 UNL     1      30.061   7.246  -2.827  1.00  0.00     0.113 C 
BRANCH  28  29
HETATM   29  C27 UNL     1      28.792   7.359  -2.077  1.00  0.00     0.172 C 
HETATM   30  O7  UNL     1      27.738   6.840  -2.518  1.00  0.00    -0.648 OA
HETATM   31  O8  UNL     1      28.724   8.045  -0.851  1.00  0.00    -0.648 OA
ENDBRANCH  28  29
ENDBRANCH  27  28
ENDBRANCH  26  27
ENDBRANCH  25  26
ENDBRANCH  23  25
ENDBRANCH  22  23
ENDBRANCH  17  22
BRANCH  15  32
HETATM   32  C16 UNL     1      28.741   3.196  -6.305  1.00  0.00     0.014 C 
HETATM   33  C17 UNL     1      29.037   3.971  -7.327  1.00  0.00     0.015 C 
HETATM   34  C18 UNL     1      30.431   4.338  -7.619  1.00  0.00     0.055 C 
BRANCH  33  35
HETATM   35  C19 UNL     1      27.973   4.475  -8.178  1.00  0.00     0.204 C 
HETATM   36  O3  UNL     1      26.819   3.983  -8.179  1.00  0.00    -0.644 OA
HETATM   37  O4  UNL     1      28.210   5.546  -9.037  1.00  0.00    -0.644 OA
ENDBRANCH  33  35
ENDBRANCH  15  32
BRANCH  21  38
HETATM   38  O9  UNL     1      31.988   1.241   0.864  1.00  0.00    -0.393 OA
ATOM     39  H9  UNL     1      31.625   0.538   0.338  1.00  0.00     0.210 HD
ENDBRANCH  21  38
BRANCH   1  40
HETATM   40  O1  UNL     1      31.462   2.319   2.920  1.00  0.00    -0.388 OA
HETATM   41  C1  UNL     1      32.421   3.002   3.650  1.00  0.00     0.202 C 
ENDBRANCH   1  40
TORSDOF 11
ENDMDL
MODEL 3
REMARK VINA RESULT: -7.013150348      2.193      5.787
REMARK  11 active torsions:
REMARK  status: ('A' for Active; 'I' for Inactive)
REMARK    1  A    between atoms: O1_2  and  C2_3 
REMARK    2  A    between atoms: C15_17  and  C16_18 
REMARK    3  A    between atoms: C17_19  and  C19_21 
REMARK    4  A    between atoms: C21_25  and  O5_26 
REMARK    5  A    between atoms: O5_26  and  C22_27 
REMARK    6  A    between atoms: C22_27  and  C23_29 
REMARK    7  A    between atoms: C23_29  and  C24_30 
REMARK    8  A    between atoms: C24_30  and  C25_31 
REMARK    9  A    between atoms: C25_31  and  C26_32 
REMARK   10  A    between atoms: C26_32  and  C27_33 
REMARK   11  A    between atoms: C31_39  and  O9_40 
ROOT
HETATM    1  C2  UNL     1      33.965   4.682   3.294  1.00  0.00     0.153 C 
HETATM    2  C3  UNL     1      33.990   3.169   3.154  1.00  0.00     0.068 C 
HETATM    3  C4  UNL     1      33.090   2.477   4.104  1.00  0.00    -0.085 C 
HETATM    4  C5  UNL     1      33.391   2.738   5.542  1.00  0.00     0.043 C 
HETATM    5  C6  UNL     1      32.086   1.680   3.796  1.00  0.00    -0.020 C 
HETATM    6  C7  UNL     1      31.623   1.294   2.450  1.00  0.00     0.055 C 
HETATM    7  C8  UNL     1      32.575   0.529   1.665  1.00  0.00    -0.013 C 
HETATM    8  C9  UNL     1      32.641   0.351   0.366  1.00  0.00    -0.020 C 
HETATM    9  C10 UNL     1      33.783  -0.528  -0.152  1.00  0.00     0.052 C 
HETATM   10  C11 UNL     1      31.718   0.922  -0.599  1.00  0.00     0.155 C 
HETATM   11  O2  UNL     1      31.097   0.091  -1.363  1.00  0.00    -0.293 OA
HETATM   12  C12 UNL     1      31.416   2.352  -0.803  1.00  0.00     0.087 C 
HETATM   13  C13 UNL     1      29.936   2.620  -0.819  1.00  0.00     0.042 C 
HETATM   14  C14 UNL     1      29.610   4.047  -1.087  1.00  0.00    -0.077 C 
HETATM   15  C15 UNL     1      28.404   4.326  -1.545  1.00  0.00     0.004 C 
HETATM   16  C20 UNL     1      30.544   5.168  -0.857  1.00  0.00     0.066 C 
HETATM   17  C21 UNL     1      30.309   5.902   0.457  1.00  0.00     0.136 C 
HETATM   18  C28 UNL     1      31.628   6.491   0.890  1.00  0.00     0.039 C 
HETATM   19  C29 UNL     1      32.096   6.046   2.254  1.00  0.00     0.015 C 
HETATM   20  C30 UNL     1      31.055   5.364   3.075  1.00  0.00     0.012 C 
HETATM   21  C31 UNL     1      33.346   5.246   2.067  1.00  0.00     0.151 C 
ENDROOT
BRANCH  17  22
HETATM   22  O5  UNL     1      29.444   7.021   0.236  1.00  0.00    -0.316 OA
BRANCH  22  23
HETATM   23  C22 UNL     1      28.809   7.673   1.269  1.00  0.00     0.259 C 
HETATM   24  O6  UNL     1      28.983   8.912   1.348  1.00  0.00    -0.265 OA
BRANCH  23  25
HETATM   25  C23 UNL     1      27.965   6.912   2.229  1.00  0.00     0.111 C 
BRANCH  25  26
HETATM   26  C24 UNL     1      27.345   5.734   1.522  1.00  0.00     0.010 C 
BRANCH  26  27
HETATM   27  C25 UNL     1      26.974   4.622   2.452  1.00  0.00     0.011 C 
BRANCH  27  28
HETATM   28  C26 UNL     1      26.184   3.595   1.637  1.00  0.00     0.113 C 
BRANCH  28  29
HETATM   29  C27 UNL     1      24.904   4.223   1.241  1.00  0.00     0.172 C 
HETATM   30  O7  UNL     1      24.481   4.127   0.064  1.00  0.00    -0.648 OA
HETATM   31  O8  UNL     1      24.124   4.941   2.165  1.00  0.00    -0.648 OA
ENDBRANCH  28  29
ENDBRANCH  27  28
ENDBRANCH  26  27
ENDBRANCH  25  26
ENDBRANCH  23  25
ENDBRANCH  22  23
ENDBRANCH  17  22
BRANCH  15  32
HETATM   32  C16 UNL     1      27.357   3.356  -1.815  1.00  0.00     0.014 C 
HETATM   33  C17 UNL     1      26.999   3.016  -3.035  1.00  0.00     0.015 C 
HETATM   34  C18 UNL     1      27.655   3.614  -4.209  1.00  0.00     0.055 C 
BRANCH  33  35
HETATM   35  C19 UNL     1      25.941   2.040  -3.229  1.00  0.00     0.204 C 
HETATM   36  O3  UNL     1      26.093   1.009  -3.927  1.00  0.00    -0.644 OA
HETATM   37  O4  UNL     1      24.697   2.226  -2.629  1.00  0.00    -0.644 OA
ENDBRANCH  33  35
ENDBRANCH  15  32
BRANCH  21  38
HETATM   38  O9  UNL     1      34.290   6.052   1.414  1.00  0.00    -0.393 OA
ATOM     39  H9  UNL     1      34.059   6.964   1.550  1.00  0.00     0.210 HD
ENDBRANCH  21  38
BRANCH   1  40
HETATM   40  O1  UNL     1      35.280   5.183   3.397  1.00  0.00    -0.388 OA
HETATM   41  C1  UNL     1      35.563   5.672   4.662  1.00  0.00     0.202 C 
ENDBRANCH   1  40
TORSDOF 11
ENDMDL
MODEL 4
REMARK VINA RESULT: -6.869756002      1.322      1.574
REMARK  11 active torsions:
REMARK  status: ('A' for Active; 'I' for Inactive)
REMARK    1  A    between atoms: O1_2  and  C2_3 
REMARK    2  A    between atoms: C15_17  and  C16_18 
REMARK    3  A    between atoms: C17_19  and  C19_21 
REMARK    4  A    between atoms: C21_25  and  O5_26 
REMARK    5  A    between atoms: O5_26  and  C22_27 
REMARK    6  A    between atoms: C22_27  and  C23_29 
REMARK    7  A    between atoms: C23_29  and  C24_30 
REMARK    8  A    between atoms: C24_30  and  C25_31 
REMARK    9  A    between atoms: C25_31  and  C26_32 
REMARK   10  A    between atoms: C26_32  and  C27_33 
REMARK   11  A    between atoms: C31_39  and  O9_40 
ROOT
HETATM    1  C2  UNL     1      34.762   4.900   3.242  1.00  0.00     0.153 C 
HETATM    2  C3  UNL     1      34.053   6.244   3.238  1.00  0.00     0.068 C 
HETATM    3  C4  UNL     1      34.231   6.996   1.975  1.00  0.00    -0.085 C 
HETATM    4  C5  UNL     1      35.650   7.306   1.634  1.00  0.00     0.043 C 
HETATM    5  C6  UNL     1      33.276   7.400   1.162  1.00  0.00    -0.020 C 
HETATM    6  C7  UNL     1      31.822   7.200   1.310  1.00  0.00     0.055 C 
HETATM    7  C8  UNL     1      31.223   7.848   2.462  1.00  0.00    -0.013 C 
HETATM    8  C9  UNL     1      30.092   7.591   3.077  1.00  0.00    -0.020 C 
HETATM    9  C10 UNL     1      29.743   8.476   4.277  1.00  0.00     0.052 C 
HETATM   10  C11 UNL     1      29.163   6.540   2.702  1.00  0.00     0.155 C 
HETATM   11  O2  UNL     1      27.959   6.907   2.428  1.00  0.00    -0.293 OA
HETATM   12  C12 UNL     1      29.446   5.095   2.602  1.00  0.00     0.087 C 
HETATM   13  C13 UNL     1      28.978   4.516   1.295  1.00  0.00     0.042 C 
HETATM   14  C14 UNL     1      29.198   3.047   1.202  1.00  0.00    -0.077 C 
HETATM   15  C15 UNL     1      28.468   2.371   0.335  1.00  0.00     0.004 C 
HETATM   16  C20 UNL     1      30.190   2.305   2.006  1.00  0.00     0.066 C 
HETATM   17  C21 UNL     1      31.490   2.021   1.266  1.00  0.00     0.136 C 
HETATM   18  C28 UNL     1      32.587   1.919   2.296  1.00  0.00     0.039 C 
HETATM   19  C29 UNL     1      33.727   2.887   2.096  1.00  0.00     0.015 C 
HETATM   20  C30 UNL     1      33.746   3.556   0.764  1.00  0.00     0.012 C 
HETATM   21  C31 UNL     1      33.727   3.835   3.254  1.00  0.00     0.151 C 
ENDROOT
BRANCH  17  22
HETATM   22  O5  UNL     1      31.422   0.730   0.650  1.00  0.00    -0.316 OA
BRANCH  22  23
HETATM   23  C22 UNL     1      32.105   0.433  -0.508  1.00  0.00     0.259 C 
HETATM   24  O6  UNL     1      33.330   0.189  -0.396  1.00  0.00    -0.265 OA
BRANCH  23  25
HETATM   25  C23 UNL     1      31.393   0.411  -1.814  1.00  0.00     0.111 C 
BRANCH  25  26
HETATM   26  C24 UNL     1      31.050   1.821  -2.218  1.00  0.00     0.010 C 
BRANCH  26  27
HETATM   27  C25 UNL     1      30.126   1.885  -3.395  1.00  0.00     0.011 C 
BRANCH  27  28
HETATM   28  C26 UNL     1      29.019   0.857  -3.157  1.00  0.00     0.113 C 
BRANCH  28  29
HETATM   29  C27 UNL     1      28.288   0.679  -4.430  1.00  0.00     0.172 C 
HETATM   30  O7  UNL     1      28.896   0.706  -5.528  1.00  0.00    -0.648 OA
HETATM   31  O8  UNL     1      26.897   0.472  -4.454  1.00  0.00    -0.648 OA
ENDBRANCH  28  29
ENDBRANCH  27  28
ENDBRANCH  26  27
ENDBRANCH  25  26
ENDBRANCH  23  25
ENDBRANCH  22  23
ENDBRANCH  17  22
BRANCH  15  32
HETATM   32  C16 UNL     1      27.460   2.937  -0.545  1.00  0.00     0.014 C 
HETATM   33  C17 UNL     1      26.252   2.428  -0.662  1.00  0.00     0.015 C 
HETATM   34  C18 UNL     1      25.855   1.238   0.108  1.00  0.00     0.055 C 
BRANCH  33  35
HETATM   35  C19 UNL     1      25.295   3.045  -1.564  1.00  0.00     0.204 C 
HETATM   36  O3  UNL     1      25.016   4.267  -1.518  1.00  0.00    -0.644 OA
HETATM   37  O4  UNL     1      24.647   2.279  -2.530  1.00  0.00    -0.644 OA
ENDBRANCH  33  35
ENDBRANCH  15  32
BRANCH  21  38
HETATM   38  O9  UNL     1      33.860   3.087   4.432  1.00  0.00    -0.393 OA
ATOM     39  H9  UNL     1      33.360   3.509   5.121  1.00  0.00     0.210 HD
ENDBRANCH  21  38
BRANCH   1  40
HETATM   40  O1  UNL     1      35.546   4.766   4.408  1.00  0.00    -0.388 OA
HETATM   41  C1  UNL     1      36.891   4.590   4.124  1.00  0.00     0.202 C 
ENDBRANCH   1  40
TORSDOF 11
ENDMDL
MODEL 5
REMARK VINA RESULT: -6.777016995      2.661      8.015
REMARK  11 active torsions:
REMARK  status: ('A' for Active; 'I' for Inactive)
REMARK    1  A    between atoms: O1_2  and  C2_3 
REMARK    2  A    between atoms: C15_17  and  C16_18 
REMARK    3  A    between atoms: C17_19  and  C19_21 
REMARK    4  A    between atoms: C21_25  and  O5_26 
REMARK    5  A    between atoms: O5_26  and  C22_27 
REMARK    6  A    between atoms: C22_27  and  C23_29 
REMARK    7  A    between atoms: C23_29  and  C24_30 
REMARK    8  A    between atoms: C24_30  and  C25_31 
REMARK    9  A    between atoms: C25_31  and  C26_32 
REMARK   10  A    between atoms: C26_32  and  C27_33 
REMARK   11  A    between atoms: C31_39  and  O9_40 
ROOT
HETATM    1  C2  UNL     1      30.962   2.651  -3.201  1.00  0.00     0.153 C 
HETATM    2  C3  UNL     1      32.472   2.578  -3.349  1.00  0.00     0.068 C 
HETATM    3  C4  UNL     1      33.122   3.908  -3.393  1.00  0.00    -0.085 C 
HETATM    4  C5  UNL     1      32.666   4.782  -4.513  1.00  0.00     0.043 C 
HETATM    5  C6  UNL     1      34.036   4.364  -2.559  1.00  0.00    -0.020 C 
HETATM    6  C7  UNL     1      34.619   3.669  -1.396  1.00  0.00     0.055 C 
HETATM    7  C8  UNL     1      35.386   2.477  -1.708  1.00  0.00    -0.013 C 
HETATM    8  C9  UNL     1      35.712   1.463  -0.941  1.00  0.00    -0.020 C 
HETATM    9  C10 UNL     1      36.543   0.350  -1.585  1.00  0.00     0.052 C 
HETATM   10  C11 UNL     1      35.343   1.327   0.458  1.00  0.00     0.155 C 
HETATM   11  O2  UNL     1      36.311   1.190   1.297  1.00  0.00    -0.293 OA
HETATM   12  C12 UNL     1      33.980   1.327   1.023  1.00  0.00     0.087 C 
HETATM   13  C13 UNL     1      33.848   2.282   2.178  1.00  0.00     0.042 C 
HETATM   14  C14 UNL     1      32.497   2.249   2.802  1.00  0.00    -0.077 C 
HETATM   15  C15 UNL     1      32.382   2.690   4.040  1.00  0.00     0.004 C 
HETATM   16  C20 UNL     1      31.279   1.770   2.118  1.00  0.00     0.066 C 
HETATM   17  C21 UNL     1      30.417   2.888   1.547  1.00  0.00     0.136 C 
HETATM   18  C28 UNL     1      29.666   2.326   0.366  1.00  0.00     0.039 C 
HETATM   19  C29 UNL     1      29.901   3.057  -0.933  1.00  0.00     0.015 C 
HETATM   20  C30 UNL     1      30.569   4.382  -0.786  1.00  0.00     0.012 C 
HETATM   21  C31 UNL     1      30.605   2.119  -1.861  1.00  0.00     0.151 C 
ENDROOT
BRANCH  17  22
HETATM   22  O5  UNL     1      29.412   3.256   2.500  1.00  0.00    -0.316 OA
BRANCH  22  23
HETATM   23  C22 UNL     1      28.764   4.470   2.449  1.00  0.00     0.259 C 
HETATM   24  O6  UNL     1      29.481   5.497   2.497  1.00  0.00    -0.265 OA
BRANCH  23  25
HETATM   25  C23 UNL     1      27.281   4.523   2.342  1.00  0.00     0.111 C 
BRANCH  25  26
HETATM   26  C24 UNL     1      26.874   4.251   0.917  1.00  0.00     0.010 C 
BRANCH  26  27
HETATM   27  C25 UNL     1      25.751   3.268   0.806  1.00  0.00     0.011 C 
BRANCH  27  28
HETATM   28  C26 UNL     1      25.590   2.931  -0.678  1.00  0.00     0.113 C 
BRANCH  28  29
HETATM   29  C27 UNL     1      26.097   1.557  -0.886  1.00  0.00     0.172 C 
HETATM   30  O7  UNL     1      26.901   1.304  -1.815  1.00  0.00    -0.648 OA
HETATM   31  O8  UNL     1      25.697   0.496  -0.054  1.00  0.00    -0.648 OA
ENDBRANCH  28  29
ENDBRANCH  27  28
ENDBRANCH  26  27
ENDBRANCH  25  26
ENDBRANCH  23  25
ENDBRANCH  22  23
ENDBRANCH  17  22
BRANCH  15  32
HETATM   32  C16 UNL     1      33.466   3.209   4.857  1.00  0.00     0.014 C 
HETATM   33  C17 UNL     1      33.673   2.817   6.097  1.00  0.00     0.015 C 
HETATM   34  C18 UNL     1      32.801   1.815   6.728  1.00  0.00     0.055 C 
BRANCH  33  35
HETATM   35  C19 UNL     1      34.776   3.382   6.855  1.00  0.00     0.204 C 
HETATM   36  O3  UNL     1      35.483   2.695   7.631  1.00  0.00    -0.644 OA
HETATM   37  O4  UNL     1      35.088   4.735   6.737  1.00  0.00    -0.644 OA
ENDBRANCH  33  35
ENDBRANCH  15  32
BRANCH  21  38
HETATM   38  O9  UNL     1      29.803   0.980  -2.026  1.00  0.00    -0.393 OA
ATOM     39  H9  UNL     1      30.107   0.500  -2.787  1.00  0.00     0.210 HD
ENDBRANCH  21  38
BRANCH   1  40
HETATM   40  O1  UNL     1      30.338   1.846  -4.177  1.00  0.00    -0.388 OA
HETATM   41  C1  UNL     1      29.726   2.595  -5.169  1.00  0.00     0.202 C 
ENDBRANCH   1  40
TORSDOF 11
ENDMDL
