MODEL 1
REMARK VINA RESULT: -7.622699027      0.000      0.000
REMARK  8 active torsions:
REMARK  status: ('A' for Active; 'I' for Inactive)
REMARK    1  A    between atoms: N1_1  and  C1_4 
REMARK    2  A    between atoms: C2_7  and  N3_8 
REMARK    3  A    between atoms: N3_8  and  N4_10 
REMARK    4  A    between atoms: N4_10  and  C3_11 
REMARK    5  A    between atoms: C3_11  and  N5_12 
REMARK    6  A    between atoms: C3_11  and  C4_16 
REMARK    7  A    between atoms: C4_16  and  N6_17 
REMARK    8  A    between atoms: C6_23  and  O1_24 
ROOT
HETATM    1  N4  UNL     1      -0.069   1.256   0.665  1.00  0.00    -0.105 NA
ENDROOT
BRANCH   1   2
HETATM    2  N3  UNL     1      -0.397   2.610   0.532  1.00  0.00    -0.287 N 
ATOM      3  H3  UNL     1      -0.361   3.036  -0.394  1.00  0.00     0.184 HD
BRANCH   2   4
HETATM    4  C2  UNL     1      -0.780   3.412   1.642  1.00  0.00     0.137 A 
HETATM    5  N2  UNL     1      -0.694   2.983   2.913  1.00  0.00    -0.176 N 
HETATM    6  C1  UNL     1      -1.056   3.742   3.961  1.00  0.00     0.680 A 
ATOM      7  H2  UNL     1      -0.339   2.043   3.089  1.00  0.00     0.186 HD
HETATM    8  N9  UNL     1      -1.527   4.982   3.760  1.00  0.00    -0.156 N 
HETATM    9  C8  UNL     1      -1.647   5.495   2.514  1.00  0.00     0.263 A 
ATOM     10  H9  UNL     1      -1.799   5.549   4.564  1.00  0.00     0.187 HD
HETATM   11  C7  UNL     1      -1.265   4.687   1.452  1.00  0.00     0.124 A 
HETATM   12  O2  UNL     1      -2.091   6.665   2.311  1.00  0.00    -0.268 OA
BRANCH   6  13
HETATM   13  N1  UNL     1      -0.967   3.316   5.172  1.00  0.00    -0.234 N 
ATOM     14  H12 UNL     1      -1.277   2.365   5.371  1.00  0.00     0.174 HD
ATOM     15  H11 UNL     1      -0.599   3.900   5.924  1.00  0.00     0.174 HD
ENDBRANCH   6  13
ENDBRANCH   2   4
ENDBRANCH   1   2
BRANCH   1  16
HETATM   16  C3  UNL     1       0.681   0.861  -0.491  1.00  0.00     0.315 C 
BRANCH  16  17
HETATM   17  N5  UNL     1       0.086  -0.271  -1.127  1.00  0.00    -0.058 N 
ATOM     18  H53 UNL     1       0.762  -1.023  -1.264  1.00  0.00     0.276 HD
ATOM     19  H52 UNL     1      -0.561  -0.755  -0.504  1.00  0.00     0.276 HD
ATOM     20  H51 UNL     1      -0.364  -0.006  -2.003  1.00  0.00     0.276 HD
ENDBRANCH  16  17
BRANCH  16  21
HETATM   21  C4  UNL     1       2.152   0.681  -0.211  1.00  0.00     0.204 C 
BRANCH  21  22
HETATM   22  N6  UNL     1       3.002   1.479  -1.026  1.00  0.00    -0.252 N 
HETATM   23  N7  UNL     1       3.808   1.039  -1.974  1.00  0.00    -0.239 N 
HETATM   24  N8  UNL     1       4.462   2.038  -2.544  1.00  0.00    -0.293 N 
ATOM     25  H7  UNL     1       3.912   0.058  -2.233  1.00  0.00     0.208 HD
HETATM   26  C5  UNL     1       4.050   3.161  -1.927  1.00  0.00     0.166 A 
ATOM     27  H8  UNL     1       5.142   1.971  -3.301  1.00  0.00     0.187 HD
HETATM   28  C6  UNL     1       3.124   2.814  -0.962  1.00  0.00     0.175 A 
BRANCH  28  29
HETATM   29  O1  UNL     1       2.498   3.738  -0.139  1.00  0.00    -0.344 OA
ATOM     30  H1  UNL     1       2.328   4.663  -0.268  1.00  0.00     0.219 HD
ENDBRANCH  28  29
ENDBRANCH  21  22
ENDBRANCH  16  21
ENDBRANCH   1  16
TORSDOF 8
ENDMDL
MODEL 2
REMARK VINA RESULT: -7.520127344      2.863      7.746
REMARK  8 active torsions:
REMARK  status: ('A' for Active; 'I' for Inactive)
REMARK    1  A    between atoms: N1_1  and  C1_4 
REMARK    2  A    between atoms: C2_7  and  N3_8 
REMARK    3  A    between atoms: N3_8  and  N4_10 
REMARK    4  A    between atoms: N4_10  and  C3_11 
REMARK    5  A    between atoms: C3_11  and  N5_12 
REMARK    6  A    between atoms: C3_11  and  C4_16 
REMARK    7  A    between atoms: C4_16  and  N6_17 
REMARK    8  A    between atoms: C6_23  and  O1_24 
ROOT
HETATM    1  N4  UNL     1      -1.870   3.222   3.349  1.00  0.00    -0.105 NA
ENDROOT
BRANCH   1   2
HETATM    2  N3  UNL     1      -1.528   3.437   2.009  1.00  0.00    -0.287 N 
ATOM      3  H3  UNL     1      -1.634   4.374   1.619  1.00  0.00     0.184 HD
BRANCH   2   4
HETATM    4  C2  UNL     1      -1.037   2.398   1.172  1.00  0.00     0.137 A 
HETATM    5  N2  UNL     1       0.128   2.488   0.508  1.00  0.00    -0.176 N 
HETATM    6  C1  UNL     1       0.590   1.505  -0.283  1.00  0.00     0.680 A 
ATOM      7  H2  UNL     1       0.684   3.337   0.609  1.00  0.00     0.186 HD
HETATM    8  N9  UNL     1      -0.119   0.376  -0.435  1.00  0.00    -0.156 N 
HETATM    9  C8  UNL     1      -1.303   0.200   0.197  1.00  0.00     0.263 A 
ATOM     10  H9  UNL     1       0.241  -0.363  -1.038  1.00  0.00     0.187 HD
HETATM   11  C7  UNL     1      -1.754   1.233   1.006  1.00  0.00     0.124 A 
HETATM   12  O2  UNL     1      -1.983  -0.861   0.061  1.00  0.00    -0.268 OA
BRANCH   6  13
HETATM   13  N1  UNL     1       1.708   1.607  -0.912  1.00  0.00    -0.234 N 
ATOM     14  H12 UNL     1       2.143   2.527  -0.972  1.00  0.00     0.174 HD
ATOM     15  H11 UNL     1       2.160   0.800  -1.343  1.00  0.00     0.174 HD
ENDBRANCH   6  13
ENDBRANCH   2   4
ENDBRANCH   1   2
BRANCH   1  16
HETATM   16  C3  UNL     1      -1.153   4.168   4.152  1.00  0.00     0.315 C 
BRANCH  16  17
HETATM   17  N5  UNL     1      -0.530   3.527   5.267  1.00  0.00    -0.058 N 
ATOM     18  H53 UNL     1      -0.306   2.553   5.063  1.00  0.00     0.276 HD
ATOM     19  H52 UNL     1       0.416   3.876   5.421  1.00  0.00     0.276 HD
ATOM     20  H51 UNL     1      -1.103   3.613   6.106  1.00  0.00     0.276 HD
ENDBRANCH  16  17
BRANCH  16  21
HETATM   21  C4  UNL     1      -1.983   5.365   4.542  1.00  0.00     0.204 C 
BRANCH  21  22
HETATM   22  N6  UNL     1      -2.590   5.261   5.824  1.00  0.00    -0.252 N 
HETATM   23  N7  UNL     1      -2.279   5.969   6.893  1.00  0.00    -0.239 N 
HETATM   24  N8  UNL     1      -3.032   5.628   7.926  1.00  0.00    -0.293 N 
ATOM     25  H7  UNL     1      -1.553   6.686   6.919  1.00  0.00     0.208 HD
HETATM   26  C5  UNL     1      -3.857   4.658   7.489  1.00  0.00     0.166 A 
ATOM     27  H8  UNL     1      -2.995   6.022   8.866  1.00  0.00     0.187 HD
HETATM   28  C6  UNL     1      -3.582   4.420   6.156  1.00  0.00     0.175 A 
BRANCH  28  29
HETATM   29  O1  UNL     1      -4.256   3.476   5.397  1.00  0.00    -0.344 OA
ATOM     30  H1  UNL     1      -4.284   2.529   5.470  1.00  0.00     0.219 HD
ENDBRANCH  28  29
ENDBRANCH  21  22
ENDBRANCH  16  21
ENDBRANCH   1  16
TORSDOF 8
ENDMDL
MODEL 3
REMARK VINA RESULT: -7.364157076      2.309      7.122
REMARK  8 active torsions:
REMARK  status: ('A' for Active; 'I' for Inactive)
REMARK    1  A    between atoms: N1_1  and  C1_4 
REMARK    2  A    between atoms: C2_7  and  N3_8 
REMARK    3  A    between atoms: N3_8  and  N4_10 
REMARK    4  A    between atoms: N4_10  and  C3_11 
REMARK    5  A    between atoms: C3_11  and  N5_12 
REMARK    6  A    between atoms: C3_11  and  C4_16 
REMARK    7  A    between atoms: C4_16  and  N6_17 
REMARK    8  A    between atoms: C6_23  and  O1_24 
ROOT
HETATM    1  N4  UNL     1      -1.769   3.321   1.355  1.00  0.00    -0.105 NA
ENDROOT
BRANCH   1   2
HETATM    2  N3  UNL     1      -1.110   2.100   1.538  1.00  0.00    -0.287 N 
ATOM      3  H3  UNL     1      -1.252   1.591   2.411  1.00  0.00     0.184 HD
BRANCH   2   4
HETATM    4  C2  UNL     1      -0.251   1.544   0.551  1.00  0.00     0.137 A 
HETATM    5  N2  UNL     1       0.896   2.132   0.172  1.00  0.00    -0.176 N 
HETATM    6  C1  UNL     1       1.707   1.606  -0.762  1.00  0.00     0.680 A 
ATOM      7  H2  UNL     1       1.162   3.014   0.609  1.00  0.00     0.186 HD
HETATM    8  N9  UNL     1       1.383   0.447  -1.356  1.00  0.00    -0.156 N 
HETATM    9  C8  UNL     1       0.247  -0.214  -1.035  1.00  0.00     0.263 A 
ATOM     10  H9  UNL     1       2.006   0.057  -2.064  1.00  0.00     0.187 HD
HETATM   11  C7  UNL     1      -0.571   0.355  -0.068  1.00  0.00     0.124 A 
HETATM   12  O2  UNL     1      -0.071  -1.309  -1.589  1.00  0.00    -0.268 OA
BRANCH   6  13
HETATM   13  N1  UNL     1       2.803   2.181  -1.114  1.00  0.00    -0.234 N 
ATOM     14  H12 UNL     1       3.605   2.109  -0.489  1.00  0.00     0.174 HD
ATOM     15  H11 UNL     1       2.883   2.699  -1.990  1.00  0.00     0.174 HD
ENDBRANCH   6  13
ENDBRANCH   2   4
ENDBRANCH   1   2
BRANCH   1  16
HETATM   16  C3  UNL     1      -1.235   4.263   2.294  1.00  0.00     0.315 C 
BRANCH  16  17
HETATM   17  N5  UNL     1      -0.021   4.839   1.810  1.00  0.00    -0.058 N 
ATOM     18  H53 UNL     1       0.062   4.745   0.798  1.00  0.00     0.276 HD
ATOM     19  H52 UNL     1      -0.037   5.857   1.872  1.00  0.00     0.276 HD
ATOM     20  H51 UNL     1       0.788   4.447   2.291  1.00  0.00     0.276 HD
ENDBRANCH  16  17
BRANCH  16  21
HETATM   21  C4  UNL     1      -1.114   3.705   3.690  1.00  0.00     0.204 C 
BRANCH  21  22
HETATM   22  N6  UNL     1      -1.944   4.348   4.649  1.00  0.00    -0.252 N 
HETATM   23  N7  UNL     1      -3.145   3.953   5.029  1.00  0.00    -0.239 N 
HETATM   24  N8  UNL     1      -3.650   4.772   5.937  1.00  0.00    -0.293 N 
ATOM     25  H7  UNL     1      -3.621   3.126   4.669  1.00  0.00     0.208 HD
HETATM   26  C5  UNL     1      -2.726   5.729   6.141  1.00  0.00     0.166 A 
ATOM     27  H8  UNL     1      -4.560   4.694   6.393  1.00  0.00     0.187 HD
HETATM   28  C6  UNL     1      -1.641   5.466   5.327  1.00  0.00     0.175 A 
BRANCH  28  29
HETATM   29  O1  UNL     1      -0.506   6.263   5.290  1.00  0.00    -0.344 OA
ATOM     30  H1  UNL     1      -0.001   6.651   5.994  1.00  0.00     0.219 HD
ENDBRANCH  28  29
ENDBRANCH  21  22
ENDBRANCH  16  21
ENDBRANCH   1  16
TORSDOF 8
ENDMDL
MODEL 4
REMARK VINA RESULT: -7.362277717      1.474      1.512
REMARK  8 active torsions:
REMARK  status: ('A' for Active; 'I' for Inactive)
REMARK    1  A    between atoms: N1_1  and  C1_4 
REMARK    2  A    between atoms: C2_7  and  N3_8 
REMARK    3  A    between atoms: N3_8  and  N4_10 
REMARK    4  A    between atoms: N4_10  and  C3_11 
REMARK    5  A    between atoms: C3_11  and  N5_12 
REMARK    6  A    between atoms: C3_11  and  C4_16 
REMARK    7  A    between atoms: C4_16  and  N6_17 
REMARK    8  A    between atoms: C6_23  and  O1_24 
ROOT
HETATM    1  N4  UNL     1       0.592   2.410  -0.056  1.00  0.00    -0.105 NA
ENDROOT
BRANCH   1   2
HETATM    2  N3  UNL     1      -0.657   2.453   0.574  1.00  0.00    -0.287 N 
ATOM      3  H3  UNL     1      -1.401   1.845   0.234  1.00  0.00     0.184 HD
BRANCH   2   4
HETATM    4  C2  UNL     1      -0.924   3.314   1.673  1.00  0.00     0.137 A 
HETATM    5  N2  UNL     1      -0.771   2.930   2.952  1.00  0.00    -0.176 N 
HETATM    6  C1  UNL     1      -1.025   3.745   3.990  1.00  0.00     0.680 A 
ATOM      7  H2  UNL     1      -0.448   1.982   3.143  1.00  0.00     0.186 HD
HETATM    8  N9  UNL     1      -1.451   4.998   3.771  1.00  0.00    -0.156 N 
HETATM    9  C8  UNL     1      -1.633   5.469   2.515  1.00  0.00     0.263 A 
ATOM     10  H9  UNL     1      -1.641   5.608   4.566  1.00  0.00     0.187 HD
HETATM   11  C7  UNL     1      -1.363   4.604   1.464  1.00  0.00     0.124 A 
HETATM   12  O2  UNL     1      -2.035   6.650   2.295  1.00  0.00    -0.268 OA
BRANCH   6  13
HETATM   13  N1  UNL     1      -0.872   3.362   5.209  1.00  0.00    -0.234 N 
ATOM     14  H12 UNL     1      -1.668   3.445   5.842  1.00  0.00     0.174 HD
ATOM     15  H11 UNL     1       0.012   2.983   5.549  1.00  0.00     0.174 HD
ENDBRANCH   6  13
ENDBRANCH   2   4
ENDBRANCH   1   2
BRANCH   1  16
HETATM   16  C3  UNL     1       0.808   1.075  -0.531  1.00  0.00     0.315 C 
BRANCH  16  17
HETATM   17  N5  UNL     1      -0.205   0.189  -0.052  1.00  0.00    -0.058 N 
ATOM     18  H53 UNL     1      -0.019  -0.776  -0.324  1.00  0.00     0.276 HD
ATOM     19  H52 UNL     1      -0.160   0.078   0.960  1.00  0.00     0.276 HD
ATOM     20  H51 UNL     1      -1.131   0.493  -0.356  1.00  0.00     0.276 HD
ENDBRANCH  16  17
BRANCH  16  21
HETATM   21  C4  UNL     1       2.207   0.573  -0.272  1.00  0.00     0.204 C 
BRANCH  21  22
HETATM   22  N6  UNL     1       3.207   1.196  -1.069  1.00  0.00    -0.252 N 
HETATM   23  N7  UNL     1       3.182   2.436  -1.519  1.00  0.00    -0.239 N 
HETATM   24  N8  UNL     1       4.265   2.706  -2.230  1.00  0.00    -0.293 N 
ATOM     25  H7  UNL     1       2.427   3.100  -1.342  1.00  0.00     0.208 HD
HETATM   26  C5  UNL     1       5.008   1.584  -2.230  1.00  0.00     0.166 A 
ATOM     27  H8  UNL     1       4.491   3.589  -2.688  1.00  0.00     0.187 HD
HETATM   28  C6  UNL     1       4.342   0.621  -1.495  1.00  0.00     0.175 A 
BRANCH  28  29
HETATM   29  O1  UNL     1       4.835  -0.659  -1.294  1.00  0.00    -0.344 OA
ATOM     30  H1  UNL     1       4.450  -1.407  -0.853  1.00  0.00     0.219 HD
ENDBRANCH  28  29
ENDBRANCH  21  22
ENDBRANCH  16  21
ENDBRANCH   1  16
TORSDOF 8
ENDMDL
MODEL 5
REMARK VINA RESULT: -7.361187782      1.457      1.636
REMARK  8 active torsions:
REMARK  status: ('A' for Active; 'I' for Inactive)
REMARK    1  A    between atoms: N1_1  and  C1_4 
REMARK    2  A    between atoms: C2_7  and  N3_8 
REMARK    3  A    between atoms: N3_8  and  N4_10 
REMARK    4  A    between atoms: N4_10  and  C3_11 
REMARK    5  A    between atoms: C3_11  and  N5_12 
REMARK    6  A    between atoms: C3_11  and  C4_16 
REMARK    7  A    between atoms: C4_16  and  N6_17 
REMARK    8  A    between atoms: C6_23  and  O1_24 
ROOT
HETATM    1  N4  UNL     1       0.251   1.629   0.502  1.00  0.00    -0.105 NA
ENDROOT
BRANCH   1   2
HETATM    2  N3  UNL     1      -0.748   2.608   0.540  1.00  0.00    -0.287 N 
ATOM      3  H3  UNL     1      -1.333   2.747  -0.285  1.00  0.00     0.184 HD
BRANCH   2   4
HETATM    4  C2  UNL     1      -0.977   3.417   1.686  1.00  0.00     0.137 A 
HETATM    5  N2  UNL     1      -0.778   2.974   2.940  1.00  0.00    -0.176 N 
HETATM    6  C1  UNL     1      -0.996   3.739   4.022  1.00  0.00     0.680 A 
ATOM      7  H2  UNL     1      -0.450   2.018   3.074  1.00  0.00     0.186 HD
HETATM    8  N9  UNL     1      -1.428   5.001   3.877  1.00  0.00    -0.156 N 
HETATM    9  C8  UNL     1      -1.654   5.529   2.652  1.00  0.00     0.263 A 
ATOM     10  H9  UNL     1      -1.590   5.573   4.706  1.00  0.00     0.187 HD
HETATM   11  C7  UNL     1      -1.421   4.714   1.553  1.00  0.00     0.124 A 
HETATM   12  O2  UNL     1      -2.063   6.720   2.500  1.00  0.00    -0.268 OA
BRANCH   6  13
HETATM   13  N1  UNL     1      -0.801   3.300   5.216  1.00  0.00    -0.234 N 
ATOM     14  H12 UNL     1      -0.865   2.295   5.374  1.00  0.00     0.174 HD
ATOM     15  H11 UNL     1      -0.587   3.926   5.993  1.00  0.00     0.174 HD
ENDBRANCH   6  13
ENDBRANCH   2   4
ENDBRANCH   1   2
BRANCH   1  16
HETATM   16  C3  UNL     1       0.814   1.613  -0.817  1.00  0.00     0.315 C 
BRANCH  16  17
HETATM   17  N5  UNL     1       0.823   0.290  -1.356  1.00  0.00    -0.058 N 
ATOM     18  H53 UNL     1       1.675  -0.212  -1.104  1.00  0.00     0.276 HD
ATOM     19  H52 UNL     1       0.144  -0.311  -0.888  1.00  0.00     0.276 HD
ATOM     20  H51 UNL     1       0.679   0.304  -2.365  1.00  0.00     0.276 HD
ENDBRANCH  16  17
BRANCH  16  21
HETATM   21  C4  UNL     1       2.156   2.297  -0.897  1.00  0.00     0.204 C 
BRANCH  21  22
HETATM   22  N6  UNL     1       3.266   1.421  -0.741  1.00  0.00    -0.252 N 
HETATM   23  N7  UNL     1       3.471   0.596   0.268  1.00  0.00    -0.239 N 
HETATM   24  N8  UNL     1       4.598  -0.079   0.109  1.00  0.00    -0.293 N 
ATOM     25  H7  UNL     1       2.844   0.493   1.066  1.00  0.00     0.208 HD
HETATM   26  C5  UNL     1       5.129   0.339  -1.055  1.00  0.00     0.166 A 
ATOM     27  H8  UNL     1       4.987  -0.778   0.743  1.00  0.00     0.187 HD
HETATM   28  C6  UNL     1       4.289   1.291  -1.600  1.00  0.00     0.175 A 
BRANCH  28  29
HETATM   29  O1  UNL     1       4.542   1.930  -2.804  1.00  0.00    -0.344 OA
ATOM     30  H1  UNL     1       4.661   1.576  -3.678  1.00  0.00     0.219 HD
ENDBRANCH  28  29
ENDBRANCH  21  22
ENDBRANCH  16  21
ENDBRANCH   1  16
TORSDOF 8
ENDMDL
