MODEL 1
REMARK VINA RESULT: -8.388817388      0.000      0.000
REMARK  6 active torsions:
REMARK  status: ('A' for Active; 'I' for Inactive)
REMARK       I    between atoms: C1_4  and  N2_5 
REMARK       I    between atoms: C1_4  and  N9_23 
REMARK    1  A    between atoms: N2_5  and  N3_7 
REMARK    2  A    between atoms: C2_9  and  C3_10 
REMARK    3  A    between atoms: C3_10  and  C4_12 
REMARK    4  A    between atoms: C5_15  and  N5_16 
REMARK    5  A    between atoms: N5_16  and  N6_17 
REMARK    6  A    between atoms: N9_23  and  N10_25 
ROOT
HETATM    1  N3  UNL     1      -0.866   3.369   4.161  1.00  0.00    -0.294 N 
ATOM      2  H3  UNL     1      -0.292   2.580   3.864  1.00  0.00     0.186 HD
HETATM    3  C2  UNL     1      -1.482   4.086   3.266  1.00  0.00     0.166 C 
ENDROOT
BRANCH   3   4
HETATM    4  C3  UNL     1      -1.365   3.781   1.842  1.00  0.00     0.233 C 
HETATM    5  O1  UNL     1      -1.448   4.733   1.029  1.00  0.00    -0.283 OA
BRANCH   4   6
HETATM    6  C4  UNL     1      -1.158   2.411   1.369  1.00  0.00     0.168 C 
HETATM    7  N4  UNL     1      -0.104   1.903   0.828  1.00  0.00    -0.338 N 
HETATM    8  C5  UNL     1      -0.293   0.508   0.497  1.00  0.00     0.312 C 
ATOM      9  H4  UNL     1       0.757   2.421   0.655  1.00  0.00     0.164 HD
HETATM   10  N7  UNL     1      -1.733   0.313   0.573  1.00  0.00    -0.095 NA
HETATM   11  N8  UNL     1      -2.114   1.358   1.425  1.00  0.00    -0.283 N 
ATOM     12  H8  UNL     1      -2.955   1.364   2.001  1.00  0.00     0.184 HD
BRANCH   8  13
HETATM   13  N5  UNL     1       0.160   0.170  -0.825  1.00  0.00    -0.103 NA
BRANCH  13  14
HETATM   14  N6  UNL     1       0.954   1.197  -1.302  1.00  0.00    -0.345 N 
ATOM     15  H62 UNL     1       0.703   2.185  -1.279  1.00  0.00     0.172 HD
ATOM     16  H61 UNL     1       1.818   0.801  -1.675  1.00  0.00     0.172 HD
ENDBRANCH  13  14
ENDBRANCH   8  13
ENDBRANCH   4   6
ENDBRANCH   3   4
BRANCH   1  17
HETATM   17  N2  UNL     1      -0.980   3.662   5.519  1.00  0.00    -0.131 N 
HETATM   18  C1  UNL     1      -1.459   4.914   5.996  1.00  0.00     0.709 C 
HETATM   19  N1  UNL     1      -1.030   6.025   5.523  1.00  0.00    -0.232 N 
HETATM   20  N9  UNL     1      -2.441   4.939   7.026  1.00  0.00    -0.071 N 
ATOM     21  H12 UNL     1      -0.326   6.007   4.785  1.00  0.00     0.174 HD
ATOM     22  H11 UNL     1      -1.373   6.922   5.866  1.00  0.00     0.174 HD
ATOM     23  H9  UNL     1      -2.423   5.681   7.725  1.00  0.00     0.212 HD
ATOM     24  H2  UNL     1      -0.709   2.951   6.197  1.00  0.00     0.205 HD
BRANCH  20  25
HETATM   25  N10 UNL     1      -3.423   3.958   7.085  1.00  0.00    -0.024 N 
HETATM   26  O2  UNL     1      -3.945   3.689   8.177  1.00  0.00    -0.516 OA
HETATM   27  O3  UNL     1      -3.803   3.306   5.956  1.00  0.00    -0.516 OA
ENDBRANCH  20  25
ENDBRANCH   1  17
TORSDOF 6
ENDMDL
MODEL 2
REMARK VINA RESULT: -8.322263852      1.381      1.923
REMARK  6 active torsions:
REMARK  status: ('A' for Active; 'I' for Inactive)
REMARK       I    between atoms: C1_4  and  N2_5 
REMARK       I    between atoms: C1_4  and  N9_23 
REMARK    1  A    between atoms: N2_5  and  N3_7 
REMARK    2  A    between atoms: C2_9  and  C3_10 
REMARK    3  A    between atoms: C3_10  and  C4_12 
REMARK    4  A    between atoms: C5_15  and  N5_16 
REMARK    5  A    between atoms: N5_16  and  N6_17 
REMARK    6  A    between atoms: N9_23  and  N10_25 
ROOT
HETATM    1  N3  UNL     1      -1.497   5.194   5.304  1.00  0.00    -0.294 N 
ATOM      2  H3  UNL     1      -1.171   6.138   5.097  1.00  0.00     0.186 HD
HETATM    3  C2  UNL     1      -1.629   4.335   4.334  1.00  0.00     0.166 C 
ENDROOT
BRANCH   3   4
HETATM    4  C3  UNL     1      -1.317   4.700   2.954  1.00  0.00     0.233 C 
HETATM    5  O1  UNL     1      -1.331   5.918   2.652  1.00  0.00    -0.283 OA
BRANCH   4   6
HETATM    6  C4  UNL     1      -0.998   3.685   1.950  1.00  0.00     0.168 C 
HETATM    7  N4  UNL     1      -1.230   2.418   1.991  1.00  0.00    -0.338 N 
HETATM    8  C5  UNL     1      -0.762   1.749   0.798  1.00  0.00     0.312 C 
ATOM      9  H4  UNL     1      -1.687   1.945   2.770  1.00  0.00     0.164 HD
HETATM   10  N7  UNL     1       0.120   2.719   0.166  1.00  0.00    -0.095 NA
HETATM   11  N8  UNL     1      -0.354   3.922   0.703  1.00  0.00    -0.283 N 
ATOM     12  H8  UNL     1      -0.253   4.837   0.264  1.00  0.00     0.184 HD
BRANCH   8  13
HETATM   13  N5  UNL     1      -0.023   0.546   1.071  1.00  0.00    -0.103 NA
BRANCH  13  14
HETATM   14  N6  UNL     1       1.065   0.487   0.219  1.00  0.00    -0.345 N 
ATOM     15  H62 UNL     1       1.073   0.007  -0.681  1.00  0.00     0.172 HD
ATOM     16  H61 UNL     1       1.842   0.996   0.640  1.00  0.00     0.172 HD
ENDBRANCH  13  14
ENDBRANCH   8  13
ENDBRANCH   4   6
ENDBRANCH   3   4
BRANCH   1  17
HETATM   17  N2  UNL     1      -1.794   4.843   6.620  1.00  0.00    -0.131 N 
HETATM   18  C1  UNL     1      -2.856   5.442   7.353  1.00  0.00     0.709 C 
HETATM   19  N1  UNL     1      -3.028   6.712   7.375  1.00  0.00    -0.232 N 
HETATM   20  N9  UNL     1      -3.755   4.614   8.081  1.00  0.00    -0.071 N 
ATOM     21  H12 UNL     1      -2.384   7.305   6.852  1.00  0.00     0.174 HD
ATOM     22  H11 UNL     1      -3.789   7.141   7.901  1.00  0.00     0.174 HD
ATOM     23  H9  UNL     1      -4.140   4.941   8.968  1.00  0.00     0.212 HD
ATOM     24  H2  UNL     1      -1.227   4.128   7.075  1.00  0.00     0.205 HD
BRANCH  20  25
HETATM   25  N10 UNL     1      -4.111   3.362   7.594  1.00  0.00    -0.024 N 
HETATM   26  O2  UNL     1      -4.492   2.490   8.388  1.00  0.00    -0.516 OA
HETATM   27  O3  UNL     1      -4.040   3.105   6.263  1.00  0.00    -0.516 OA
ENDBRANCH  20  25
ENDBRANCH   1  17
TORSDOF 6
ENDMDL
MODEL 3
REMARK VINA RESULT: -8.269755009      3.464      7.809
REMARK  6 active torsions:
REMARK  status: ('A' for Active; 'I' for Inactive)
REMARK       I    between atoms: C1_4  and  N2_5 
REMARK       I    between atoms: C1_4  and  N9_23 
REMARK    1  A    between atoms: N2_5  and  N3_7 
REMARK    2  A    between atoms: C2_9  and  C3_10 
REMARK    3  A    between atoms: C3_10  and  C4_12 
REMARK    4  A    between atoms: C5_15  and  N5_16 
REMARK    5  A    between atoms: N5_16  and  N6_17 
REMARK    6  A    between atoms: N9_23  and  N10_25 
ROOT
HETATM    1  N3  UNL     1       0.484   1.100   0.021  1.00  0.00    -0.294 N 
ATOM      2  H3  UNL     1       0.467   0.420   0.780  1.00  0.00     0.186 HD
HETATM    3  C2  UNL     1      -0.337   2.111   0.048  1.00  0.00     0.166 C 
ENDROOT
BRANCH   3   4
HETATM    4  C3  UNL     1      -1.282   2.288   1.148  1.00  0.00     0.233 C 
HETATM    5  O1  UNL     1      -2.218   1.460   1.255  1.00  0.00    -0.283 OA
BRANCH   4   6
HETATM    6  C4  UNL     1      -1.148   3.391   2.099  1.00  0.00     0.168 C 
HETATM    7  N4  UNL     1      -1.789   3.579   3.202  1.00  0.00    -0.338 N 
HETATM    8  C5  UNL     1      -1.369   4.793   3.864  1.00  0.00     0.312 C 
ATOM      9  H4  UNL     1      -2.504   2.948   3.562  1.00  0.00     0.164 HD
HETATM   10  N7  UNL     1      -0.637   5.525   2.842  1.00  0.00    -0.095 NA
HETATM   11  N8  UNL     1      -0.255   4.492   1.976  1.00  0.00    -0.283 N 
ATOM     12  H8  UNL     1       0.548   4.525   1.347  1.00  0.00     0.184 HD
BRANCH   8  13
HETATM   13  N5  UNL     1      -2.466   5.599   4.327  1.00  0.00    -0.103 NA
BRANCH  13  14
HETATM   14  N6  UNL     1      -3.361   4.789   5.003  1.00  0.00    -0.345 N 
ATOM     15  H62 UNL     1      -4.112   4.257   4.562  1.00  0.00     0.172 HD
ATOM     16  H61 UNL     1      -3.145   4.818   5.999  1.00  0.00     0.172 HD
ENDBRANCH  13  14
ENDBRANCH   8  13
ENDBRANCH   4   6
ENDBRANCH   3   4
BRANCH   1  17
HETATM   17  N2  UNL     1       1.384   0.934  -1.030  1.00  0.00    -0.131 N 
HETATM   18  C1  UNL     1       2.692   0.405  -0.844  1.00  0.00     0.709 C 
HETATM   19  N1  UNL     1       3.459   0.818   0.096  1.00  0.00    -0.232 N 
HETATM   20  N9  UNL     1       3.165  -0.610  -1.722  1.00  0.00    -0.071 N 
ATOM     21  H12 UNL     1       3.120   1.545   0.725  1.00  0.00     0.174 HD
ATOM     22  H11 UNL     1       4.396   0.438   0.228  1.00  0.00     0.174 HD
ATOM     23  H9  UNL     1       4.151  -0.636  -1.982  1.00  0.00     0.212 HD
ATOM     24  H2  UNL     1       1.094   1.203  -1.970  1.00  0.00     0.205 HD
BRANCH  20  25
HETATM   25  N10 UNL     1       2.292  -1.566  -2.228  1.00  0.00    -0.024 N 
HETATM   26  O2  UNL     1       2.737  -2.671  -2.569  1.00  0.00    -0.516 OA
HETATM   27  O3  UNL     1       0.969  -1.286  -2.343  1.00  0.00    -0.516 OA
ENDBRANCH  20  25
ENDBRANCH   1  17
TORSDOF 6
ENDMDL
MODEL 4
REMARK VINA RESULT: -8.241425530      1.606      2.551
REMARK  6 active torsions:
REMARK  status: ('A' for Active; 'I' for Inactive)
REMARK       I    between atoms: C1_4  and  N2_5 
REMARK       I    between atoms: C1_4  and  N9_23 
REMARK    1  A    between atoms: N2_5  and  N3_7 
REMARK    2  A    between atoms: C2_9  and  C3_10 
REMARK    3  A    between atoms: C3_10  and  C4_12 
REMARK    4  A    between atoms: C5_15  and  N5_16 
REMARK    5  A    between atoms: N5_16  and  N6_17 
REMARK    6  A    between atoms: N9_23  and  N10_25 
ROOT
HETATM    1  N3  UNL     1      -1.411   5.394   5.434  1.00  0.00    -0.294 N 
ATOM      2  H3  UNL     1      -0.578   5.965   5.296  1.00  0.00     0.186 HD
HETATM    3  C2  UNL     1      -2.132   5.055   4.404  1.00  0.00     0.166 C 
ENDROOT
BRANCH   3   4
HETATM    4  C3  UNL     1      -1.767   5.477   3.054  1.00  0.00     0.233 C 
HETATM    5  O1  UNL     1      -1.977   6.673   2.736  1.00  0.00    -0.283 OA
BRANCH   4   6
HETATM    6  C4  UNL     1      -1.173   4.544   2.096  1.00  0.00     0.168 C 
HETATM    7  N4  UNL     1      -1.609   3.387   1.732  1.00  0.00    -0.338 N 
HETATM    8  C5  UNL     1      -0.737   2.768   0.760  1.00  0.00     0.312 C 
ATOM      9  H4  UNL     1      -2.465   2.960   2.086  1.00  0.00     0.164 HD
HETATM   10  N7  UNL     1       0.494   3.540   0.839  1.00  0.00    -0.095 NA
HETATM   11  N8  UNL     1       0.032   4.752   1.368  1.00  0.00    -0.283 N 
ATOM     12  H8  UNL     1       0.493   5.654   1.250  1.00  0.00     0.184 HD
BRANCH   8  13
HETATM   13  N5  UNL     1      -0.449   1.389   1.048  1.00  0.00    -0.103 NA
BRANCH  13  14
HETATM   14  N6  UNL     1      -1.637   0.683   1.086  1.00  0.00    -0.345 N 
ATOM     15  H62 UNL     1      -2.173   0.401   0.265  1.00  0.00     0.172 HD
ATOM     16  H61 UNL     1      -1.880   0.498   2.059  1.00  0.00     0.172 HD
ENDBRANCH  13  14
ENDBRANCH   8  13
ENDBRANCH   4   6
ENDBRANCH   3   4
BRANCH   1  17
HETATM   17  N2  UNL     1      -1.762   4.990   6.720  1.00  0.00    -0.131 N 
HETATM   18  C1  UNL     1      -2.898   5.507   7.405  1.00  0.00     0.709 C 
HETATM   19  N1  UNL     1      -3.143   6.764   7.450  1.00  0.00    -0.232 N 
HETATM   20  N9  UNL     1      -3.787   4.609   8.059  1.00  0.00    -0.071 N 
ATOM     21  H12 UNL     1      -2.506   7.408   6.981  1.00  0.00     0.174 HD
ATOM     22  H11 UNL     1      -3.956   7.134   7.940  1.00  0.00     0.174 HD
ATOM     23  H9  UNL     1      -4.240   4.889   8.929  1.00  0.00     0.212 HD
ATOM     24  H2  UNL     1      -1.182   4.295   7.190  1.00  0.00     0.205 HD
BRANCH  20  25
HETATM   25  N10 UNL     1      -4.042   3.354   7.520  1.00  0.00    -0.024 N 
HETATM   26  O2  UNL     1      -3.908   3.180   6.301  1.00  0.00    -0.516 OA
HETATM   27  O3  UNL     1      -4.431   2.333   8.328  1.00  0.00    -0.516 OA
ENDBRANCH  20  25
ENDBRANCH   1  17
TORSDOF 6
ENDMDL
MODEL 5
REMARK VINA RESULT: -8.021684810      3.363      7.473
REMARK  6 active torsions:
REMARK  status: ('A' for Active; 'I' for Inactive)
REMARK       I    between atoms: C1_4  and  N2_5 
REMARK       I    between atoms: C1_4  and  N9_23 
REMARK    1  A    between atoms: N2_5  and  N3_7 
REMARK    2  A    between atoms: C2_9  and  C3_10 
REMARK    3  A    between atoms: C3_10  and  C4_12 
REMARK    4  A    between atoms: C5_15  and  N5_16 
REMARK    5  A    between atoms: N5_16  and  N6_17 
REMARK    6  A    between atoms: N9_23  and  N10_25 
ROOT
HETATM    1  N3  UNL     1       0.391   1.596   0.191  1.00  0.00    -0.294 N 
ATOM      2  H3  UNL     1       0.405   0.899   0.935  1.00  0.00     0.186 HD
HETATM    3  C2  UNL     1      -0.476   2.566   0.238  1.00  0.00     0.166 C 
ENDROOT
BRANCH   3   4
HETATM    4  C3  UNL     1      -1.430   2.674   1.339  1.00  0.00     0.233 C 
HETATM    5  O1  UNL     1      -2.189   1.698   1.554  1.00  0.00    -0.283 OA
BRANCH   4   6
HETATM    6  C4  UNL     1      -1.505   3.876   2.170  1.00  0.00     0.168 C 
HETATM    7  N4  UNL     1      -1.722   3.960   3.438  1.00  0.00    -0.338 N 
HETATM    8  C5  UNL     1      -1.720   5.332   3.891  1.00  0.00     0.312 C 
ATOM      9  H4  UNL     1      -1.876   3.156   4.046  1.00  0.00     0.164 HD
HETATM   10  N7  UNL     1      -1.834   6.114   2.669  1.00  0.00    -0.095 NA
HETATM   11  N8  UNL     1      -1.345   5.214   1.713  1.00  0.00    -0.283 N 
ATOM     12  H8  UNL     1      -0.934   5.480   0.818  1.00  0.00     0.184 HD
BRANCH   8  13
HETATM   13  N5  UNL     1      -2.823   5.648   4.758  1.00  0.00    -0.103 NA
BRANCH  13  14
HETATM   14  N6  UNL     1      -3.440   4.471   5.142  1.00  0.00    -0.345 N 
ATOM     15  H62 UNL     1      -3.239   3.963   6.004  1.00  0.00     0.172 HD
ATOM     16  H61 UNL     1      -4.118   4.205   4.428  1.00  0.00     0.172 HD
ENDBRANCH  13  14
ENDBRANCH   8  13
ENDBRANCH   4   6
ENDBRANCH   3   4
BRANCH   1  17
HETATM   17  N2  UNL     1       1.301   1.497  -0.861  1.00  0.00    -0.131 N 
HETATM   18  C1  UNL     1       2.559   2.162  -0.854  1.00  0.00     0.709 C 
HETATM   19  N1  UNL     1       2.667   3.397  -0.531  1.00  0.00    -0.232 N 
HETATM   20  N9  UNL     1       3.731   1.440  -1.213  1.00  0.00    -0.071 N 
ATOM     21  H12 UNL     1       1.826   3.914  -0.272  1.00  0.00     0.174 HD
ATOM     22  H11 UNL     1       3.568   3.873  -0.526  1.00  0.00     0.174 HD
ATOM     23  H9  UNL     1       4.482   1.913  -1.717  1.00  0.00     0.212 HD
ATOM     24  H2  UNL     1       1.055   0.924  -1.668  1.00  0.00     0.205 HD
BRANCH  20  25
HETATM   25  N10 UNL     1       3.860   0.097  -0.883  1.00  0.00    -0.024 N 
HETATM   26  O2  UNL     1       3.352  -0.759  -1.622  1.00  0.00    -0.516 OA
HETATM   27  O3  UNL     1       4.538  -0.267   0.236  1.00  0.00    -0.516 OA
ENDBRANCH  20  25
ENDBRANCH   1  17
TORSDOF 6
ENDMDL
