MODEL 1
REMARK VINA RESULT: -6.915249270      0.000      0.000
REMARK  9 active torsions:
REMARK  status: ('A' for Active; 'I' for Inactive)
REMARK    1  A    between atoms: O1_2  and  C2_3 
REMARK    2  A    between atoms: C2_3  and  C3_5 
REMARK    3  A    between atoms: C3_5  and  N1_6 
REMARK    4  A    between atoms: C3_5  and  C4_10 
REMARK    5  A    between atoms: C5_13  and  C6_14 
REMARK       I    between atoms: C6_14  and  N3_16 
REMARK    6  A    between atoms: N3_16  and  N4_18 
REMARK    7  A    between atoms: C7_21  and  N5_22 
REMARK    8  A    between atoms: N5_22  and  N6_24 
REMARK    9  A    between atoms: C8_29  and  N8_30 
ROOT
HETATM    1  C4  UNL     1      -0.163   2.437   0.553  1.00  0.00     0.094 A 
HETATM    2  N2  UNL     1       0.974   2.897  -0.053  1.00  0.00    -0.347 N 
ATOM      3  H2  UNL     1       1.164   3.899  -0.020  1.00  0.00     0.166 HD
HETATM    4  C5  UNL     1       1.857   2.102  -0.689  1.00  0.00     0.148 A 
HETATM    5  C7  UNL     1       1.634   0.749  -0.751  1.00  0.00     0.154 A 
HETATM    6  N7  UNL     1       0.535   0.283  -0.168  1.00  0.00    -0.324 N 
ATOM      7  H7  UNL     1       0.354  -0.720  -0.205  1.00  0.00     0.169 HD
HETATM    8  C8  UNL     1      -0.369   1.086   0.482  1.00  0.00     0.126 A 
ENDROOT
BRANCH   1   9
HETATM    9  C3  UNL     1      -1.086   3.398   1.230  1.00  0.00     0.335 C 
BRANCH   9  10
HETATM   10  C2  UNL     1      -0.550   4.724   1.498  1.00  0.00     0.295 C 
HETATM   11  O2  UNL     1       0.683   4.865   1.678  1.00  0.00    -0.262 OA
BRANCH  10  12
HETATM   12  O1  UNL     1      -1.352   5.835   1.570  1.00  0.00    -0.325 OA
HETATM   13  C1  UNL     1      -2.141   6.164   2.708  1.00  0.00     0.213 C 
ENDBRANCH  10  12
ENDBRANCH   9  10
BRANCH   9  14
HETATM   14  N1  UNL     1      -1.356   2.724   2.544  1.00  0.00    -0.060 N 
ATOM     15  H13 UNL     1      -0.613   2.879   3.225  1.00  0.00     0.275 HD
ATOM     16  H12 UNL     1      -2.114   3.166   3.064  1.00  0.00     0.275 HD
ATOM     17  H11 UNL     1      -1.526   1.734   2.367  1.00  0.00     0.275 HD
ENDBRANCH   9  14
ENDBRANCH   1   9
BRANCH   8  18
HETATM   18  N8  UNL     1      -1.397   0.545   1.025  1.00  0.00    -0.384 N 
ATOM     19  H82 UNL     1      -2.322   0.913   0.802  1.00  0.00     0.157 HD
ATOM     20  H81 UNL     1      -1.300  -0.245   1.664  1.00  0.00     0.157 HD
ENDBRANCH   8  18
BRANCH   4  21
HETATM   21  C6  UNL     1       3.061   2.643  -1.314  1.00  0.00     0.290 C 
HETATM   22  O3  UNL     1       3.190   3.915  -1.308  1.00  0.00    -0.264 OA
HETATM   23  N3  UNL     1       4.054   1.854  -1.901  1.00  0.00    -0.271 N 
ATOM     24  H3  UNL     1       3.953   0.839  -1.904  1.00  0.00     0.189 HD
BRANCH  23  25
HETATM   25  N4  UNL     1       5.175   2.428  -2.480  1.00  0.00    -0.342 N 
ATOM     26  H42 UNL     1       5.146   2.655  -3.475  1.00  0.00     0.176 HD
ATOM     27  H41 UNL     1       6.011   2.623  -1.930  1.00  0.00     0.176 HD
ENDBRANCH  23  25
ENDBRANCH   4  21
BRANCH   5  28
HETATM   28  N5  UNL     1       2.500  -0.175  -1.414  1.00  0.00    -0.290 N 
ATOM     29  H5  UNL     1       3.498  -0.133  -1.209  1.00  0.00     0.188 HD
BRANCH  28  30
HETATM   30  N6  UNL     1       2.054  -1.129  -2.322  1.00  0.00    -0.344 N 
ATOM     31  H62 UNL     1       1.232  -0.895  -2.878  1.00  0.00     0.176 HD
ATOM     32  H61 UNL     1       2.505  -2.035  -2.454  1.00  0.00     0.176 HD
ENDBRANCH  28  30
ENDBRANCH   5  28
TORSDOF 9
ENDMDL
MODEL 2
REMARK VINA RESULT: -6.734242256      2.476      5.690
REMARK  9 active torsions:
REMARK  status: ('A' for Active; 'I' for Inactive)
REMARK    1  A    between atoms: O1_2  and  C2_3 
REMARK    2  A    between atoms: C2_3  and  C3_5 
REMARK    3  A    between atoms: C3_5  and  N1_6 
REMARK    4  A    between atoms: C3_5  and  C4_10 
REMARK    5  A    between atoms: C5_13  and  C6_14 
REMARK       I    between atoms: C6_14  and  N3_16 
REMARK    6  A    between atoms: N3_16  and  N4_18 
REMARK    7  A    between atoms: C7_21  and  N5_22 
REMARK    8  A    between atoms: N5_22  and  N6_24 
REMARK    9  A    between atoms: C8_29  and  N8_30 
ROOT
HETATM    1  C4  UNL     1       1.743   0.906  -0.896  1.00  0.00     0.094 A 
HETATM    2  N2  UNL     1       0.901   1.527  -0.014  1.00  0.00    -0.347 N 
ATOM      3  H2  UNL     1       1.214   2.397   0.418  1.00  0.00     0.166 HD
HETATM    4  C5  UNL     1      -0.318   1.056   0.315  1.00  0.00     0.148 A 
HETATM    5  C7  UNL     1      -0.773  -0.111  -0.248  1.00  0.00     0.154 A 
HETATM    6  N7  UNL     1       0.031  -0.728  -1.107  1.00  0.00    -0.324 N 
ATOM      7  H7  UNL     1      -0.291  -1.596  -1.534  1.00  0.00     0.169 HD
HETATM    8  C8  UNL     1       1.274  -0.255  -1.448  1.00  0.00     0.126 A 
ENDROOT
BRANCH   1   9
HETATM    9  C3  UNL     1       3.080   1.504  -1.194  1.00  0.00     0.335 C 
BRANCH   9  10
HETATM   10  C2  UNL     1       4.216   0.917  -0.500  1.00  0.00     0.295 C 
HETATM   11  O2  UNL     1       4.087   0.549   0.692  1.00  0.00    -0.262 OA
BRANCH  10  12
HETATM   12  O1  UNL     1       5.437   0.756  -1.104  1.00  0.00    -0.325 OA
HETATM   13  C1  UNL     1       5.654   0.927  -2.501  1.00  0.00     0.213 C 
ENDBRANCH  10  12
ENDBRANCH   9  10
BRANCH   9  14
HETATM   14  N1  UNL     1       2.920   2.920  -0.723  1.00  0.00    -0.060 N 
ATOM     15  H13 UNL     1       2.019   3.084  -0.273  1.00  0.00     0.275 HD
ATOM     16  H12 UNL     1       3.515   3.138   0.076  1.00  0.00     0.275 HD
ATOM     17  H11 UNL     1       3.082   3.542  -1.515  1.00  0.00     0.275 HD
ENDBRANCH   9  14
ENDBRANCH   1   9
BRANCH   8  18
HETATM   18  N8  UNL     1       1.974  -0.914  -2.296  1.00  0.00    -0.384 N 
ATOM     19  H82 UNL     1       2.990  -0.914  -2.199  1.00  0.00     0.157 HD
ATOM     20  H81 UNL     1       1.531  -1.437  -3.050  1.00  0.00     0.157 HD
ENDBRANCH   8  18
BRANCH   4  21
HETATM   21  C6  UNL     1      -1.182   1.762   1.257  1.00  0.00     0.290 C 
HETATM   22  O3  UNL     1      -2.432   1.502   1.198  1.00  0.00    -0.264 OA
HETATM   23  N3  UNL     1      -0.715   2.684   2.198  1.00  0.00    -0.271 N 
ATOM     24  H3  UNL     1       0.283   2.890   2.248  1.00  0.00     0.189 HD
BRANCH  23  25
HETATM   25  N4  UNL     1      -1.586   3.324   3.066  1.00  0.00    -0.342 N 
ATOM     26  H42 UNL     1      -2.589   3.185   2.938  1.00  0.00     0.176 HD
ATOM     27  H41 UNL     1      -1.239   3.920   3.817  1.00  0.00     0.176 HD
ENDBRANCH  23  25
ENDBRANCH   4  21
BRANCH   5  28
HETATM   28  N5  UNL     1      -2.040  -0.701   0.046  1.00  0.00    -0.290 N 
ATOM     29  H5  UNL     1      -2.610  -0.279   0.779  1.00  0.00     0.188 HD
BRANCH  28  30
HETATM   30  N6  UNL     1      -2.538  -1.819  -0.613  1.00  0.00    -0.344 N 
ATOM     31  H62 UNL     1      -1.876  -2.374  -1.154  1.00  0.00     0.176 HD
ATOM     32  H61 UNL     1      -3.518  -2.102  -0.579  1.00  0.00     0.176 HD
ENDBRANCH  28  30
ENDBRANCH   5  28
TORSDOF 9
ENDMDL
MODEL 3
REMARK VINA RESULT: -6.721089556      3.647      7.266
REMARK  9 active torsions:
REMARK  status: ('A' for Active; 'I' for Inactive)
REMARK    1  A    between atoms: O1_2  and  C2_3 
REMARK    2  A    between atoms: C2_3  and  C3_5 
REMARK    3  A    between atoms: C3_5  and  N1_6 
REMARK    4  A    between atoms: C3_5  and  C4_10 
REMARK    5  A    between atoms: C5_13  and  C6_14 
REMARK       I    between atoms: C6_14  and  N3_16 
REMARK    6  A    between atoms: N3_16  and  N4_18 
REMARK    7  A    between atoms: C7_21  and  N5_22 
REMARK    8  A    between atoms: N5_22  and  N6_24 
REMARK    9  A    between atoms: C8_29  and  N8_30 
ROOT
HETATM    1  C4  UNL     1       4.251  -0.324  -2.083  1.00  0.00     0.094 A 
HETATM    2  N2  UNL     1       2.973  -0.474  -1.619  1.00  0.00    -0.347 N 
ATOM      3  H2  UNL     1       2.549  -1.400  -1.670  1.00  0.00     0.166 HD
HETATM    4  C5  UNL     1       2.243   0.533  -1.096  1.00  0.00     0.148 A 
HETATM    5  C7  UNL     1       2.783   1.792  -1.010  1.00  0.00     0.154 A 
HETATM    6  N7  UNL     1       4.024   1.957  -1.456  1.00  0.00    -0.324 N 
ATOM      7  H7  UNL     1       4.440   2.886  -1.400  1.00  0.00     0.169 HD
HETATM    8  C8  UNL     1       4.774   0.938  -1.989  1.00  0.00     0.126 A 
ENDROOT
BRANCH   1   9
HETATM    9  C3  UNL     1       4.979  -1.500  -2.651  1.00  0.00     0.335 C 
BRANCH   9  10
HETATM   10  C2  UNL     1       4.352  -2.157  -3.787  1.00  0.00     0.295 C 
HETATM   11  O2  UNL     1       3.497  -3.052  -3.586  1.00  0.00    -0.262 OA
BRANCH  10  12
HETATM   12  O1  UNL     1       4.669  -1.836  -5.083  1.00  0.00    -0.325 OA
HETATM   13  C1  UNL     1       5.733  -0.960  -5.439  1.00  0.00     0.213 C 
ENDBRANCH  10  12
ENDBRANCH   9  10
BRANCH   9  14
HETATM   14  N1  UNL     1       4.997  -2.462  -1.499  1.00  0.00    -0.060 N 
ATOM     15  H13 UNL     1       4.346  -2.200  -0.759  1.00  0.00     0.275 HD
ATOM     16  H12 UNL     1       4.582  -3.363  -1.735  1.00  0.00     0.275 HD
ATOM     17  H11 UNL     1       5.957  -2.546  -1.166  1.00  0.00     0.275 HD
ENDBRANCH   9  14
ENDBRANCH   1   9
BRANCH   8  18
HETATM   18  N8  UNL     1       5.967   1.190  -2.383  1.00  0.00    -0.384 N 
ATOM     19  H82 UNL     1       6.705   0.514  -2.181  1.00  0.00     0.157 HD
ATOM     20  H81 UNL     1       6.181   2.044  -2.897  1.00  0.00     0.157 HD
ENDBRANCH   8  18
BRANCH   4  21
HETATM   21  C6  UNL     1       0.885   0.317  -0.607  1.00  0.00     0.290 C 
HETATM   22  O3  UNL     1       0.118  -0.402  -1.336  1.00  0.00    -0.264 OA
HETATM   23  N3  UNL     1       0.397   0.846   0.591  1.00  0.00    -0.271 N 
ATOM     24  H3  UNL     1       1.009   1.417   1.174  1.00  0.00     0.189 HD
BRANCH  23  25
HETATM   25  N4  UNL     1      -0.905   0.606   1.001  1.00  0.00    -0.342 N 
ATOM     26  H42 UNL     1      -1.634   0.535   0.290  1.00  0.00     0.176 HD
ATOM     27  H41 UNL     1      -1.135   0.503   1.989  1.00  0.00     0.176 HD
ENDBRANCH  23  25
ENDBRANCH   4  21
BRANCH   5  28
HETATM   28  N5  UNL     1       2.088   2.926  -0.488  1.00  0.00    -0.290 N 
ATOM     29  H5  UNL     1       1.081   2.852  -0.349  1.00  0.00     0.188 HD
BRANCH  28  30
HETATM   30  N6  UNL     1       2.712   4.124  -0.160  1.00  0.00    -0.344 N 
ATOM     31  H62 UNL     1       3.217   4.606  -0.904  1.00  0.00     0.176 HD
ATOM     32  H61 UNL     1       2.687   4.535   0.773  1.00  0.00     0.176 HD
ENDBRANCH  28  30
ENDBRANCH   5  28
TORSDOF 9
ENDMDL
MODEL 4
REMARK VINA RESULT: -6.487300127      3.871      6.037
REMARK  9 active torsions:
REMARK  status: ('A' for Active; 'I' for Inactive)
REMARK    1  A    between atoms: O1_2  and  C2_3 
REMARK    2  A    between atoms: C2_3  and  C3_5 
REMARK    3  A    between atoms: C3_5  and  N1_6 
REMARK    4  A    between atoms: C3_5  and  C4_10 
REMARK    5  A    between atoms: C5_13  and  C6_14 
REMARK       I    between atoms: C6_14  and  N3_16 
REMARK    6  A    between atoms: N3_16  and  N4_18 
REMARK    7  A    between atoms: C7_21  and  N5_22 
REMARK    8  A    between atoms: N5_22  and  N6_24 
REMARK    9  A    between atoms: C8_29  and  N8_30 
ROOT
HETATM    1  C4  UNL     1      -1.778   4.082   4.973  1.00  0.00     0.094 A 
HETATM    2  N2  UNL     1      -1.821   3.109   4.012  1.00  0.00    -0.347 N 
ATOM      3  H2  UNL     1      -2.273   2.224   4.244  1.00  0.00     0.166 HD
HETATM    4  C5  UNL     1      -1.300   3.253   2.777  1.00  0.00     0.148 A 
HETATM    5  C7  UNL     1      -0.685   4.430   2.430  1.00  0.00     0.154 A 
HETATM    6  N7  UNL     1      -0.634   5.387   3.350  1.00  0.00    -0.324 N 
ATOM      7  H7  UNL     1      -0.181   6.268   3.108  1.00  0.00     0.169 HD
HETATM    8  C8  UNL     1      -1.163   5.250   4.609  1.00  0.00     0.126 A 
ENDROOT
BRANCH   1   9
HETATM    9  C3  UNL     1      -2.380   3.828   6.317  1.00  0.00     0.335 C 
BRANCH   9  10
HETATM   10  C2  UNL     1      -3.787   3.460   6.333  1.00  0.00     0.295 C 
HETATM   11  O2  UNL     1      -4.402   3.328   5.247  1.00  0.00    -0.262 OA
BRANCH  10  12
HETATM   12  O1  UNL     1      -4.476   3.256   7.501  1.00  0.00    -0.325 OA
HETATM   13  C1  UNL     1      -4.525   2.004   8.178  1.00  0.00     0.213 C 
ENDBRANCH  10  12
ENDBRANCH   9  10
BRANCH   9  14
HETATM   14  N1  UNL     1      -2.232   5.157   7.000  1.00  0.00    -0.060 N 
ATOM     15  H13 UNL     1      -3.130   5.595   7.205  1.00  0.00     0.275 HD
ATOM     16  H12 UNL     1      -1.899   5.070   7.959  1.00  0.00     0.275 HD
ATOM     17  H11 UNL     1      -1.630   5.747   6.426  1.00  0.00     0.275 HD
ENDBRANCH   9  14
ENDBRANCH   1   9
BRANCH   8  18
HETATM   18  N8  UNL     1      -1.076   6.234   5.426  1.00  0.00    -0.384 N 
ATOM     19  H82 UNL     1      -1.454   6.125   6.368  1.00  0.00     0.157 HD
ATOM     20  H81 UNL     1      -0.631   7.109   5.150  1.00  0.00     0.157 HD
ENDBRANCH   8  18
BRANCH   4  21
HETATM   21  C6  UNL     1      -1.378   2.184   1.786  1.00  0.00     0.290 C 
HETATM   22  O3  UNL     1      -2.543   1.886   1.352  1.00  0.00    -0.264 OA
HETATM   23  N3  UNL     1      -0.266   1.490   1.300  1.00  0.00    -0.271 N 
ATOM     24  H3  UNL     1       0.664   1.729   1.644  1.00  0.00     0.189 HD
BRANCH  23  25
HETATM   25  N4  UNL     1      -0.406   0.483   0.359  1.00  0.00    -0.342 N 
ATOM     26  H42 UNL     1      -0.507  -0.478   0.686  1.00  0.00     0.176 HD
ATOM     27  H41 UNL     1      -0.409   0.692  -0.639  1.00  0.00     0.176 HD
ENDBRANCH  23  25
ENDBRANCH   4  21
BRANCH   5  28
HETATM   28  N5  UNL     1      -0.089   4.675   1.155  1.00  0.00    -0.290 N 
ATOM     29  H5  UNL     1      -0.702   4.761   0.345  1.00  0.00     0.188 HD
BRANCH  28  30
HETATM   30  N6  UNL     1       1.281   4.803   0.959  1.00  0.00    -0.344 N 
ATOM     31  H62 UNL     1       1.888   4.175   1.485  1.00  0.00     0.176 HD
ATOM     32  H61 UNL     1       1.698   5.485   0.325  1.00  0.00     0.176 HD
ENDBRANCH  28  30
ENDBRANCH   5  28
TORSDOF 9
ENDMDL
MODEL 5
REMARK VINA RESULT: -6.266356943      3.544      5.673
REMARK  9 active torsions:
REMARK  status: ('A' for Active; 'I' for Inactive)
REMARK    1  A    between atoms: O1_2  and  C2_3 
REMARK    2  A    between atoms: C2_3  and  C3_5 
REMARK    3  A    between atoms: C3_5  and  N1_6 
REMARK    4  A    between atoms: C3_5  and  C4_10 
REMARK    5  A    between atoms: C5_13  and  C6_14 
REMARK       I    between atoms: C6_14  and  N3_16 
REMARK    6  A    between atoms: N3_16  and  N4_18 
REMARK    7  A    between atoms: C7_21  and  N5_22 
REMARK    8  A    between atoms: N5_22  and  N6_24 
REMARK    9  A    between atoms: C8_29  and  N8_30 
ROOT
HETATM    1  C4  UNL     1      -1.903   4.209   4.547  1.00  0.00     0.094 A 
HETATM    2  N2  UNL     1      -1.921   3.170   3.657  1.00  0.00    -0.347 N 
ATOM      3  H2  UNL     1      -2.459   2.338   3.900  1.00  0.00     0.166 HD
HETATM    4  C5  UNL     1      -1.268   3.184   2.477  1.00  0.00     0.148 A 
HETATM    5  C7  UNL     1      -0.535   4.287   2.117  1.00  0.00     0.154 A 
HETATM    6  N7  UNL     1      -0.507   5.307   2.968  1.00  0.00    -0.324 N 
ATOM      7  H7  UNL     1       0.033   6.134   2.716  1.00  0.00     0.169 HD
HETATM    8  C8  UNL     1      -1.169   5.301   4.171  1.00  0.00     0.126 A 
ENDROOT
BRANCH   1   9
HETATM    9  C3  UNL     1      -2.655   4.099   5.834  1.00  0.00     0.335 C 
BRANCH   9  10
HETATM   10  C2  UNL     1      -3.813   4.967   5.978  1.00  0.00     0.295 C 
HETATM   11  O2  UNL     1      -4.260   5.570   4.974  1.00  0.00    -0.262 OA
BRANCH  10  12
HETATM   12  O1  UNL     1      -4.436   5.159   7.185  1.00  0.00    -0.325 OA
HETATM   13  C1  UNL     1      -4.253   6.320   7.990  1.00  0.00     0.213 C 
ENDBRANCH  10  12
ENDBRANCH   9  10
BRANCH   9  14
HETATM   14  N1  UNL     1      -1.628   4.508   6.850  1.00  0.00    -0.060 N 
ATOM     15  H13 UNL     1      -1.980   5.207   7.504  1.00  0.00     0.275 HD
ATOM     16  H12 UNL     1      -1.432   3.772   7.527  1.00  0.00     0.275 HD
ATOM     17  H11 UNL     1      -0.793   4.819   6.354  1.00  0.00     0.275 HD
ENDBRANCH   9  14
ENDBRANCH   1   9
BRANCH   8  18
HETATM   18  N8  UNL     1      -1.092   6.337   4.923  1.00  0.00    -0.384 N 
ATOM     19  H82 UNL     1      -0.175   6.746   5.103  1.00  0.00     0.157 HD
ATOM     20  H81 UNL     1      -1.929   6.754   5.330  1.00  0.00     0.157 HD
ENDBRANCH   8  18
BRANCH   4  21
HETATM   21  C6  UNL     1      -1.325   2.050   1.559  1.00  0.00     0.290 C 
HETATM   22  O3  UNL     1      -2.488   1.655   1.205  1.00  0.00    -0.264 OA
HETATM   23  N3  UNL     1      -0.196   1.395   1.061  1.00  0.00    -0.271 N 
ATOM     24  H3  UNL     1       0.733   1.711   1.341  1.00  0.00     0.189 HD
BRANCH  23  25
HETATM   25  N4  UNL     1      -0.316   0.322   0.192  1.00  0.00    -0.342 N 
ATOM     26  H42 UNL     1      -0.215  -0.622   0.568  1.00  0.00     0.176 HD
ATOM     27  H41 UNL     1      -0.500   0.466  -0.800  1.00  0.00     0.176 HD
ENDBRANCH  23  25
ENDBRANCH   4  21
BRANCH   5  28
HETATM   28  N5  UNL     1       0.203   4.394   0.898  1.00  0.00    -0.290 N 
ATOM     29  H5  UNL     1      -0.269   4.157   0.026  1.00  0.00     0.188 HD
BRANCH  28  30
HETATM   30  N6  UNL     1       1.530   4.803   0.838  1.00  0.00    -0.344 N 
ATOM     31  H62 UNL     1       2.235   4.081   0.691  1.00  0.00     0.176 HD
ATOM     32  H61 UNL     1       1.824   5.776   0.932  1.00  0.00     0.176 HD
ENDBRANCH  28  30
ENDBRANCH   5  28
TORSDOF 9
ENDMDL
