MODEL 1
REMARK VINA RESULT: -5.887054393      0.000      0.000
REMARK  4 active torsions:
REMARK  status: ('A' for Active; 'I' for Inactive)
REMARK    1  A    between atoms: N1_1  and  C1_4 
REMARK    2  A    between atoms: C3_10  and  C4_11 
REMARK    3  A    between atoms: C4_11  and  N4_12 
REMARK       I    between atoms: N4_12  and  C5_15 
REMARK       I    between atoms: C5_15  and  N5_16 
REMARK       I    between atoms: C5_15  and  N6_20 
REMARK    4  A    between atoms: C6_26  and  N8_27 
ROOT
HETATM    1  C1  UNL     1       6.233   2.839  -3.136  1.00  0.00     0.681 A 
HETATM    2  N2  UNL     1       6.749   1.687  -3.584  1.00  0.00    -0.141 N 
ATOM      3  H2  UNL     1       7.620   1.676  -4.115  1.00  0.00     0.189 HD
HETATM    4  C2  UNL     1       6.092   0.545  -3.317  1.00  0.00     0.348 A 
HETATM    5  O1  UNL     1       6.571  -0.554  -3.737  1.00  0.00    -0.245 OA
HETATM    6  N3  UNL     1       4.937   0.540  -2.612  1.00  0.00    -0.232 N 
HETATM    7  C3  UNL     1       4.137  -0.459  -2.240  1.00  0.00     0.121 A 
HETATM    8  N7  UNL     1       3.104   0.087  -1.547  1.00  0.00    -0.322 N 
ATOM      9  H7  UNL     1       2.330  -0.437  -1.136  1.00  0.00     0.169 HD
HETATM   10  C6  UNL     1       3.253   1.417  -1.484  1.00  0.00     0.221 A 
HETATM   11  C7  UNL     1       4.407   1.706  -2.154  1.00  0.00     0.183 A 
HETATM   12  N9  UNL     1       5.098   2.829  -2.445  1.00  0.00    -0.172 N 
ATOM     13  H9  UNL     1       4.728   3.721  -2.115  1.00  0.00     0.186 HD
ENDROOT
BRANCH   7  14
HETATM   14  C4  UNL     1       4.329  -1.905  -2.523  1.00  0.00     0.313 C 
BRANCH  14  15
HETATM   15  N4  UNL     1       4.394  -2.596  -1.277  1.00  0.00    -0.015 N 
HETATM   16  C5  UNL     1       5.577  -2.303  -0.540  1.00  0.00     0.576 C 
HETATM   17  N5  UNL     1       5.529  -3.055   0.701  1.00  0.00    -0.026 N 
HETATM   18  N6  UNL     1       6.735  -2.635  -1.328  1.00  0.00    -0.026 N 
ATOM     19  H53 UNL     1       4.678  -2.882   1.235  1.00  0.00     0.278 HD
ATOM     20  H52 UNL     1       5.395  -4.055   0.550  1.00  0.00     0.278 HD
ATOM     21  H51 UNL     1       6.376  -2.846   1.229  1.00  0.00     0.278 HD
ATOM     22  H63 UNL     1       6.714  -3.601  -1.652  1.00  0.00     0.278 HD
ATOM     23  H62 UNL     1       6.725  -2.173  -2.238  1.00  0.00     0.278 HD
ATOM     24  H61 UNL     1       7.582  -2.426  -0.800  1.00  0.00     0.278 HD
ATOM     25  H42 UNL     1       3.561  -2.414  -0.716  1.00  0.00     0.282 HD
ATOM     26  H41 UNL     1       4.288  -3.601  -1.413  1.00  0.00     0.282 HD
ENDBRANCH  14  15
ENDBRANCH   7  14
BRANCH  10  27
HETATM   27  N8  UNL     1       2.415   2.377  -0.860  1.00  0.00    -0.094 N 
HETATM   28  O2  UNL     1       1.199   2.155  -0.608  1.00  0.00    -0.530 OA
HETATM   29  O3  UNL     1       2.879   3.617  -0.491  1.00  0.00    -0.530 OA
ENDBRANCH  10  27
BRANCH   1  30
HETATM   30  N1  UNL     1       6.864   3.929  -3.395  1.00  0.00    -0.234 N 
ATOM     31  H12 UNL     1       7.877   4.002  -3.302  1.00  0.00     0.174 HD
ATOM     32  H11 UNL     1       6.325   4.738  -3.704  1.00  0.00     0.174 HD
ENDBRANCH   1  30
TORSDOF 4
ENDMDL
MODEL 2
REMARK VINA RESULT: -5.495278301      1.793      4.510
REMARK  4 active torsions:
REMARK  status: ('A' for Active; 'I' for Inactive)
REMARK    1  A    between atoms: N1_1  and  C1_4 
REMARK    2  A    between atoms: C3_10  and  C4_11 
REMARK    3  A    between atoms: C4_11  and  N4_12 
REMARK       I    between atoms: N4_12  and  C5_15 
REMARK       I    between atoms: C5_15  and  N5_16 
REMARK       I    between atoms: C5_15  and  N6_20 
REMARK    4  A    between atoms: C6_26  and  N8_27 
ROOT
HETATM    1  C1  UNL     1       6.216   2.258  -4.415  1.00  0.00     0.681 A 
HETATM    2  N2  UNL     1       5.409   3.055  -3.702  1.00  0.00    -0.141 N 
ATOM      3  H2  UNL     1       5.273   4.031  -3.967  1.00  0.00     0.189 HD
HETATM    4  C2  UNL     1       4.783   2.540  -2.630  1.00  0.00     0.348 A 
HETATM    5  O1  UNL     1       4.016   3.286  -1.946  1.00  0.00    -0.245 OA
HETATM    6  N3  UNL     1       4.951   1.247  -2.266  1.00  0.00    -0.232 N 
HETATM    7  C3  UNL     1       4.436   0.543  -1.259  1.00  0.00     0.121 A 
HETATM    8  N7  UNL     1       4.935  -0.717  -1.349  1.00  0.00    -0.322 N 
ATOM      9  H7  UNL     1       4.718  -1.482  -0.710  1.00  0.00     0.169 HD
HETATM   10  C6  UNL     1       5.756  -0.805  -2.405  1.00  0.00     0.221 A 
HETATM   11  C7  UNL     1       5.768   0.431  -2.985  1.00  0.00     0.183 A 
HETATM   12  N9  UNL     1       6.378   0.989  -4.053  1.00  0.00    -0.172 N 
ATOM     13  H9  UNL     1       6.997   0.404  -4.613  1.00  0.00     0.186 HD
ENDROOT
BRANCH   7  14
HETATM   14  C4  UNL     1       3.491   1.033  -0.222  1.00  0.00     0.313 C 
BRANCH  14  15
HETATM   15  N4  UNL     1       2.329   0.206  -0.255  1.00  0.00    -0.015 N 
HETATM   16  C5  UNL     1       1.241   0.802  -0.956  1.00  0.00     0.576 C 
HETATM   17  N5  UNL     1       0.126  -0.127  -0.925  1.00  0.00    -0.026 N 
HETATM   18  N6  UNL     1       0.908   2.065  -0.351  1.00  0.00    -0.026 N 
ATOM     19  H53 UNL     1       0.371  -1.049  -1.286  1.00  0.00     0.278 HD
ATOM     20  H52 UNL     1      -0.123  -0.413   0.022  1.00  0.00     0.278 HD
ATOM     21  H51 UNL     1      -0.653   0.299  -1.427  1.00  0.00     0.278 HD
ATOM     22  H63 UNL     1       0.718   1.974   0.647  1.00  0.00     0.278 HD
ATOM     23  H62 UNL     1       1.715   2.687  -0.292  1.00  0.00     0.278 HD
ATOM     24  H61 UNL     1       0.129   2.491  -0.853  1.00  0.00     0.278 HD
ATOM     25  H42 UNL     1       2.548  -0.714  -0.637  1.00  0.00     0.282 HD
ATOM     26  H41 UNL     1       2.050  -0.067   0.687  1.00  0.00     0.282 HD
ENDBRANCH  14  15
ENDBRANCH   7  14
BRANCH  10  27
HETATM   27  N8  UNL     1       6.488  -1.926  -2.871  1.00  0.00    -0.094 N 
HETATM   28  O2  UNL     1       6.842  -2.870  -2.111  1.00  0.00    -0.530 OA
HETATM   29  O3  UNL     1       6.860  -2.056  -4.188  1.00  0.00    -0.530 OA
ENDBRANCH  10  27
BRANCH   1  30
HETATM   30  N1  UNL     1       6.813   2.757  -5.439  1.00  0.00    -0.234 N 
ATOM     31  H12 UNL     1       7.544   3.462  -5.348  1.00  0.00     0.174 HD
ATOM     32  H11 UNL     1       6.540   2.427  -6.364  1.00  0.00     0.174 HD
ENDBRANCH   1  30
TORSDOF 4
ENDMDL
MODEL 3
REMARK VINA RESULT: -5.422153270      2.347      4.780
REMARK  4 active torsions:
REMARK  status: ('A' for Active; 'I' for Inactive)
REMARK    1  A    between atoms: N1_1  and  C1_4 
REMARK    2  A    between atoms: C3_10  and  C4_11 
REMARK    3  A    between atoms: C4_11  and  N4_12 
REMARK       I    between atoms: N4_12  and  C5_15 
REMARK       I    between atoms: C5_15  and  N5_16 
REMARK       I    between atoms: C5_15  and  N6_20 
REMARK    4  A    between atoms: C6_26  and  N8_27 
ROOT
HETATM    1  C1  UNL     1       5.837   2.487  -2.853  1.00  0.00     0.681 A 
HETATM    2  N2  UNL     1       4.948   3.418  -2.482  1.00  0.00    -0.141 N 
ATOM      3  H2  UNL     1       5.084   4.398  -2.732  1.00  0.00     0.189 HD
HETATM    4  C2  UNL     1       3.874   3.031  -1.773  1.00  0.00     0.348 A 
HETATM    5  O1  UNL     1       3.024   3.905  -1.415  1.00  0.00    -0.245 OA
HETATM    6  N3  UNL     1       3.677   1.735  -1.435  1.00  0.00    -0.232 N 
HETATM    7  C3  UNL     1       2.699   1.144  -0.751  1.00  0.00     0.121 A 
HETATM    8  N7  UNL     1       2.988  -0.183  -0.696  1.00  0.00    -0.322 N 
ATOM      9  H7  UNL     1       2.417  -0.890  -0.234  1.00  0.00     0.169 HD
HETATM   10  C6  UNL     1       4.138  -0.422  -1.342  1.00  0.00     0.221 A 
HETATM   11  C7  UNL     1       4.575   0.784  -1.809  1.00  0.00     0.183 A 
HETATM   12  N9  UNL     1       5.639   1.215  -2.519  1.00  0.00    -0.172 N 
ATOM     13  H9  UNL     1       6.331   0.527  -2.815  1.00  0.00     0.186 HD
ENDROOT
BRANCH   7  14
HETATM   14  C4  UNL     1       1.508   1.800  -0.153  1.00  0.00     0.313 C 
BRANCH  14  15
HETATM   15  N4  UNL     1       0.602   0.780   0.263  1.00  0.00    -0.015 N 
HETATM   16  C5  UNL     1      -0.711   1.272   0.519  1.00  0.00     0.576 C 
HETATM   17  N5  UNL     1      -1.538   0.151   0.928  1.00  0.00    -0.026 N 
HETATM   18  N6  UNL     1      -0.657   2.299   1.526  1.00  0.00    -0.026 N 
ATOM     19  H53 UNL     1      -1.527  -0.614   0.254  1.00  0.00     0.278 HD
ATOM     20  H52 UNL     1      -1.146  -0.359   1.720  1.00  0.00     0.278 HD
ATOM     21  H51 UNL     1      -2.477   0.503   1.111  1.00  0.00     0.278 HD
ATOM     22  H63 UNL     1      -0.195   1.978   2.376  1.00  0.00     0.278 HD
ATOM     23  H62 UNL     1      -0.008   3.046   1.278  1.00  0.00     0.278 HD
ATOM     24  H61 UNL     1      -1.596   2.651   1.709  1.00  0.00     0.278 HD
ATOM     25  H42 UNL     1       0.579   0.016  -0.412  1.00  0.00     0.282 HD
ATOM     26  H41 UNL     1       0.966   0.278   1.072  1.00  0.00     0.282 HD
ENDBRANCH  14  15
ENDBRANCH   7  14
BRANCH  10  27
HETATM   27  N8  UNL     1       4.809  -1.657  -1.533  1.00  0.00    -0.094 N 
HETATM   28  O2  UNL     1       4.195  -2.738  -1.751  1.00  0.00    -0.530 OA
HETATM   29  O3  UNL     1       6.180  -1.754  -1.492  1.00  0.00    -0.530 OA
ENDBRANCH  10  27
BRANCH   1  30
HETATM   30  N1  UNL     1       6.864   2.862  -3.530  1.00  0.00    -0.234 N 
ATOM     31  H12 UNL     1       6.961   3.814  -3.882  1.00  0.00     0.174 HD
ATOM     32  H11 UNL     1       7.597   2.178  -3.713  1.00  0.00     0.174 HD
ENDBRANCH   1  30
TORSDOF 4
ENDMDL
MODEL 4
REMARK VINA RESULT: -5.410580226      4.943      8.075
REMARK  4 active torsions:
REMARK  status: ('A' for Active; 'I' for Inactive)
REMARK    1  A    between atoms: N1_1  and  C1_4 
REMARK    2  A    between atoms: C3_10  and  C4_11 
REMARK    3  A    between atoms: C4_11  and  N4_12 
REMARK       I    between atoms: N4_12  and  C5_15 
REMARK       I    between atoms: C5_15  and  N5_16 
REMARK       I    between atoms: C5_15  and  N6_20 
REMARK    4  A    between atoms: C6_26  and  N8_27 
ROOT
HETATM    1  C1  UNL     1      -0.123   0.347  -0.505  1.00  0.00     0.681 A 
HETATM    2  N2  UNL     1      -1.233   0.415   0.243  1.00  0.00    -0.141 N 
ATOM      3  H2  UNL     1      -1.887  -0.367   0.277  1.00  0.00     0.189 HD
HETATM    4  C2  UNL     1      -1.462   1.536   0.947  1.00  0.00     0.348 A 
HETATM    5  O1  UNL     1      -2.512   1.613   1.659  1.00  0.00    -0.245 OA
HETATM    6  N3  UNL     1      -0.603   2.581   0.915  1.00  0.00    -0.232 N 
HETATM    7  C3  UNL     1      -0.635   3.766   1.525  1.00  0.00     0.121 A 
HETATM    8  N7  UNL     1       0.479   4.446   1.147  1.00  0.00    -0.322 N 
ATOM      9  H7  UNL     1       0.725   5.387   1.455  1.00  0.00     0.169 HD
HETATM   10  C6  UNL     1       1.204   3.695   0.307  1.00  0.00     0.221 A 
HETATM   11  C7  UNL     1       0.526   2.519   0.159  1.00  0.00     0.183 A 
HETATM   12  N9  UNL     1       0.718   1.376  -0.533  1.00  0.00    -0.172 N 
ATOM     13  H9  UNL     1       1.555   1.297  -1.110  1.00  0.00     0.186 HD
ENDROOT
BRANCH   7  14
HETATM   14  C4  UNL     1      -1.687   4.263   2.449  1.00  0.00     0.313 C 
BRANCH  14  15
HETATM   15  N4  UNL     1      -1.052   4.703   3.648  1.00  0.00    -0.015 N 
HETATM   16  C5  UNL     1      -1.524   4.025   4.809  1.00  0.00     0.576 C 
HETATM   17  N5  UNL     1      -0.807   4.552   5.957  1.00  0.00    -0.026 N 
HETATM   18  N6  UNL     1      -2.946   4.206   4.932  1.00  0.00    -0.026 N 
ATOM     19  H53 UNL     1       0.205   4.495   5.851  1.00  0.00     0.278 HD
ATOM     20  H52 UNL     1      -0.879   5.567   6.035  1.00  0.00     0.278 HD
ATOM     21  H51 UNL     1      -1.145   4.067   6.788  1.00  0.00     0.278 HD
ATOM     22  H63 UNL     1      -3.210   5.191   4.928  1.00  0.00     0.278 HD
ATOM     23  H62 UNL     1      -3.444   3.917   4.089  1.00  0.00     0.278 HD
ATOM     24  H61 UNL     1      -3.284   3.721   5.763  1.00  0.00     0.278 HD
ATOM     25  H42 UNL     1      -0.037   4.629   3.571  1.00  0.00     0.282 HD
ATOM     26  H41 UNL     1      -1.138   5.714   3.755  1.00  0.00     0.282 HD
ENDBRANCH  14  15
ENDBRANCH   7  14
BRANCH  10  27
HETATM   27  N8  UNL     1       2.434   4.007  -0.328  1.00  0.00    -0.094 N 
HETATM   28  O2  UNL     1       3.131   5.008  -0.003  1.00  0.00    -0.530 OA
HETATM   29  O3  UNL     1       2.946   3.234  -1.342  1.00  0.00    -0.530 OA
ENDBRANCH  10  27
BRANCH   1  30
HETATM   30  N1  UNL     1       0.092  -0.728  -1.177  1.00  0.00    -0.234 N 
ATOM     31  H12 UNL     1      -0.059  -1.655  -0.779  1.00  0.00     0.174 HD
ATOM     32  H11 UNL     1       0.422  -0.638  -2.138  1.00  0.00     0.174 HD
ENDBRANCH   1  30
TORSDOF 4
ENDMDL
MODEL 5
REMARK VINA RESULT: -5.300805646      2.592      4.709
REMARK  4 active torsions:
REMARK  status: ('A' for Active; 'I' for Inactive)
REMARK    1  A    between atoms: N1_1  and  C1_4 
REMARK    2  A    between atoms: C3_10  and  C4_11 
REMARK    3  A    between atoms: C4_11  and  N4_12 
REMARK       I    between atoms: N4_12  and  C5_15 
REMARK       I    between atoms: C5_15  and  N5_16 
REMARK       I    between atoms: C5_15  and  N6_20 
REMARK    4  A    between atoms: C6_26  and  N8_27 
ROOT
HETATM    1  C1  UNL     1       5.617  -1.901  -3.339  1.00  0.00     0.681 A 
HETATM    2  N2  UNL     1       4.499  -2.584  -3.057  1.00  0.00    -0.141 N 
ATOM      3  H2  UNL     1       4.408  -3.566  -3.317  1.00  0.00     0.189 HD
HETATM    4  C2  UNL     1       3.501  -1.945  -2.422  1.00  0.00     0.348 A 
HETATM    5  O1  UNL     1       2.436  -2.582  -2.150  1.00  0.00    -0.245 OA
HETATM    6  N3  UNL     1       3.606  -0.643  -2.068  1.00  0.00    -0.232 N 
HETATM    7  C3  UNL     1       2.755   0.170  -1.443  1.00  0.00     0.121 A 
HETATM    8  N7  UNL     1       3.358   1.383  -1.337  1.00  0.00    -0.322 N 
ATOM      9  H7  UNL     1       2.944   2.208  -0.902  1.00  0.00     0.169 HD
HETATM   10  C6  UNL     1       4.578   1.332  -1.889  1.00  0.00     0.221 A 
HETATM   11  C7  UNL     1       4.737   0.057  -2.350  1.00  0.00     0.183 A 
HETATM   12  N9  UNL     1       5.714  -0.622  -2.989  1.00  0.00    -0.172 N 
ATOM     13  H9  UNL     1       6.576  -0.126  -3.215  1.00  0.00     0.186 HD
ENDROOT
BRANCH   7  14
HETATM   14  C4  UNL     1       1.396  -0.174  -0.950  1.00  0.00     0.313 C 
BRANCH  14  15
HETATM   15  N4  UNL     1       0.850   0.981  -0.315  1.00  0.00    -0.015 N 
HETATM   16  C5  UNL     1      -0.152   0.666   0.648  1.00  0.00     0.576 C 
HETATM   17  N5  UNL     1      -0.627   1.911   1.224  1.00  0.00    -0.026 N 
HETATM   18  N6  UNL     1      -1.212  -0.077   0.019  1.00  0.00    -0.026 N 
ATOM     19  H53 UNL     1       0.126   2.480   1.610  1.00  0.00     0.278 HD
ATOM     20  H52 UNL     1      -0.951   2.573   0.519  1.00  0.00     0.278 HD
ATOM     21  H51 UNL     1      -1.344   1.686   1.913  1.00  0.00     0.278 HD
ATOM     22  H63 UNL     1      -1.597   0.413  -0.789  1.00  0.00     0.278 HD
ATOM     23  H62 UNL     1      -0.867  -0.907  -0.462  1.00  0.00     0.278 HD
ATOM     24  H61 UNL     1      -1.930  -0.302   0.708  1.00  0.00     0.278 HD
ATOM     25  H42 UNL     1       1.587   1.551   0.100  1.00  0.00     0.282 HD
ATOM     26  H41 UNL     1       0.496   1.643  -1.006  1.00  0.00     0.282 HD
ENDBRANCH  14  15
ENDBRANCH   7  14
BRANCH  10  27
HETATM   27  N8  UNL     1       5.547   2.361  -1.999  1.00  0.00    -0.094 N 
HETATM   28  O2  UNL     1       5.264   3.520  -2.410  1.00  0.00    -0.530 OA
HETATM   29  O3  UNL     1       6.864   2.159  -1.661  1.00  0.00    -0.530 OA
ENDBRANCH  10  27
BRANCH   1  30
HETATM   30  N1  UNL     1       6.568  -2.517  -3.947  1.00  0.00    -0.234 N 
ATOM     31  H12 UNL     1       6.446  -3.452  -4.335  1.00  0.00     0.174 HD
ATOM     32  H11 UNL     1       7.467  -2.044  -4.038  1.00  0.00     0.174 HD
ENDBRANCH   1  30
TORSDOF 4
ENDMDL
