MODEL 1
REMARK VINA RESULT: -0.980280128      0.000      0.000
REMARK  1 active torsions:
REMARK  status: ('A' for Active; 'I' for Inactive)
REMARK    1  A    between atoms: C8_12  and  O1_13 
ROOT
HETATM    1  C1  UNL     1     -68.544  15.915 -13.216  1.00  0.00     0.012 C 
HETATM    2  C2  UNL     1     -68.163  16.531 -14.176  1.00  0.00    -0.106 C 
HETATM    3  C3  UNL     1     -67.699  17.282 -15.307  1.00  0.00     0.149 C 
HETATM    4  C4  UNL     1     -67.241  16.422 -16.466  1.00  0.00     0.256 C 
HETATM    5  N1  UNL     1     -66.554  17.316 -17.382  1.00  0.00    -0.042 N 
ATOM      6  H11 UNL     1     -66.201  16.801 -18.188  1.00  0.00     0.279 HD
ATOM      7  H12 UNL     1     -65.672  17.632 -16.979  1.00  0.00     0.279 HD
HETATM    8  C5  UNL     1     -67.334  18.425 -17.803  1.00  0.00     0.418 C 
HETATM    9  C6  UNL     1     -66.437  19.431 -18.484  1.00  0.00     0.074 C 
HETATM   10  N2  UNL     1     -68.084  19.086 -16.800  1.00  0.00     0.144 N 
HETATM   11  C7  UNL     1     -67.330  20.033 -16.009  1.00  0.00     0.316 C 
HETATM   12  C8  UNL     1     -68.788  18.188 -15.896  1.00  0.00     0.376 C 
ENDROOT
BRANCH  12  13
HETATM   13  O1  UNL     1     -69.434  18.909 -14.921  1.00  0.00    -0.367 OA
ATOM     14  H1  UNL     1     -70.041  18.369 -14.428  1.00  0.00     0.212 HD
ENDBRANCH  12  13
TORSDOF 1
ENDMDL
MODEL 2
REMARK VINA RESULT: 0.168990162      1.362      3.794
REMARK  1 active torsions:
REMARK  status: ('A' for Active; 'I' for Inactive)
REMARK    1  A    between atoms: C8_12  and  O1_13 
ROOT
HETATM    1  C1  UNL     1     -66.768  19.446 -19.639  1.00  0.00     0.012 C 
HETATM    2  C2  UNL     1     -67.079  18.917 -18.605  1.00  0.00    -0.106 C 
HETATM    3  C3  UNL     1     -67.474  18.292 -17.375  1.00  0.00     0.149 C 
HETATM    4  C4  UNL     1     -66.756  16.988 -17.094  1.00  0.00     0.256 C 
HETATM    5  N1  UNL     1     -67.468  16.369 -15.989  1.00  0.00    -0.042 N 
ATOM      6  H11 UNL     1     -67.048  15.471 -15.750  1.00  0.00     0.279 HD
ATOM      7  H12 UNL     1     -68.390  16.054 -16.291  1.00  0.00     0.279 HD
HETATM    8  C5  UNL     1     -67.576  17.190 -14.836  1.00  0.00     0.418 C 
HETATM    9  C6  UNL     1     -68.583  16.584 -13.889  1.00  0.00     0.074 C 
HETATM   10  N2  UNL     1     -67.916  18.547 -15.058  1.00  0.00     0.144 N 
HETATM   11  C7  UNL     1     -69.327  18.791 -15.252  1.00  0.00     0.316 C 
HETATM   12  C8  UNL     1     -67.186  19.171 -16.153  1.00  0.00     0.376 C 
ENDROOT
BRANCH  12  13
HETATM   13  O1  UNL     1     -67.622  20.461 -16.337  1.00  0.00    -0.367 OA
ATOM     14  H1  UNL     1     -68.569  20.522 -16.295  1.00  0.00     0.212 HD
ENDBRANCH  12  13
TORSDOF 1
ENDMDL
MODEL 3
REMARK VINA RESULT: 0.186943830      1.904      3.346
REMARK  1 active torsions:
REMARK  status: ('A' for Active; 'I' for Inactive)
REMARK    1  A    between atoms: C8_12  and  O1_13 
ROOT
HETATM    1  C1  UNL     1     -69.043  21.943 -14.681  1.00  0.00     0.012 C 
HETATM    2  C2  UNL     1     -68.634  20.852 -14.978  1.00  0.00    -0.106 C 
HETATM    3  C3  UNL     1     -68.125  19.558 -15.336  1.00  0.00     0.149 C 
HETATM    4  C4  UNL     1     -68.748  18.419 -14.556  1.00  0.00     0.256 C 
HETATM    5  N1  UNL     1     -67.930  17.250 -14.833  1.00  0.00    -0.042 N 
ATOM      6  H11 UNL     1     -68.282  16.438 -14.326  1.00  0.00     0.279 HD
ATOM      7  H12 UNL     1     -67.014  17.343 -14.395  1.00  0.00     0.279 HD
HETATM    8  C5  UNL     1     -67.794  16.953 -16.214  1.00  0.00     0.418 C 
HETATM    9  C6  UNL     1     -66.694  15.935 -16.395  1.00  0.00     0.074 C 
HETATM   10  N2  UNL     1     -67.547  18.051 -17.074  1.00  0.00     0.144 N 
HETATM   11  C7  UNL     1     -66.167  18.479 -17.123  1.00  0.00     0.316 C 
HETATM   12  C8  UNL     1     -68.381  19.214 -16.808  1.00  0.00     0.376 C 
ENDROOT
BRANCH  12  13
HETATM   13  O1  UNL     1     -68.033  20.248 -17.642  1.00  0.00    -0.367 OA
ATOM     14  H1  UNL     1     -67.101  20.252 -17.829  1.00  0.00     0.212 HD
ENDBRANCH  12  13
TORSDOF 1
ENDMDL
MODEL 4
REMARK VINA RESULT: 1.619950899      1.944      2.897
REMARK  1 active torsions:
REMARK  status: ('A' for Active; 'I' for Inactive)
REMARK    1  A    between atoms: C8_12  and  O1_13 
ROOT
HETATM    1  C1  UNL     1     -67.046  14.741 -15.991  1.00  0.00     0.012 C 
HETATM    2  C2  UNL     1     -67.372  15.895 -15.899  1.00  0.00    -0.106 C 
HETATM    3  C3  UNL     1     -67.774  17.270 -15.810  1.00  0.00     0.149 C 
HETATM    4  C4  UNL     1     -68.137  17.712 -14.407  1.00  0.00     0.256 C 
HETATM    5  N1  UNL     1     -68.778  19.008 -14.549  1.00  0.00    -0.042 N 
ATOM      6  H11 UNL     1     -69.066  19.366 -13.638  1.00  0.00     0.279 HD
ATOM      7  H12 UNL     1     -69.690  18.908 -14.993  1.00  0.00     0.279 HD
HETATM    8  C5  UNL     1     -67.993  19.970 -15.235  1.00  0.00     0.418 C 
HETATM    9  C6  UNL     1     -68.860  21.152 -15.594  1.00  0.00     0.074 C 
HETATM   10  N2  UNL     1     -67.324  19.523 -16.401  1.00  0.00     0.144 N 
HETATM   11  C7  UNL     1     -68.147  19.481 -17.589  1.00  0.00     0.316 C 
HETATM   12  C8  UNL     1     -66.665  18.233 -16.251  1.00  0.00     0.376 C 
ENDROOT
BRANCH  12  13
HETATM   13  O1  UNL     1     -66.100  17.849 -17.442  1.00  0.00    -0.367 OA
ATOM     14  H1  UNL     1     -66.743  17.807 -18.141  1.00  0.00     0.212 HD
ENDBRANCH  12  13
TORSDOF 1
ENDMDL
MODEL 5
REMARK VINA RESULT: 1.844531129      1.944      3.020
REMARK  1 active torsions:
REMARK  status: ('A' for Active; 'I' for Inactive)
REMARK    1  A    between atoms: C8_12  and  O1_13 
ROOT
HETATM    1  C1  UNL     1     -69.584  20.671 -14.187  1.00  0.00     0.012 C 
HETATM    2  C2  UNL     1     -69.062  20.126 -15.124  1.00  0.00    -0.106 C 
HETATM    3  C3  UNL     1     -68.447  19.456 -16.234  1.00  0.00     0.149 C 
HETATM    4  C4  UNL     1     -68.510  20.236 -17.530  1.00  0.00     0.256 C 
HETATM    5  N1  UNL     1     -68.111  19.309 -18.575  1.00  0.00    -0.042 N 
ATOM      6  H11 UNL     1     -68.144  19.763 -19.488  1.00  0.00     0.279 HD
ATOM      7  H12 UNL     1     -68.827  18.595 -18.712  1.00  0.00     0.279 HD
HETATM    8  C5  UNL     1     -66.843  18.709 -18.364  1.00  0.00     0.418 C 
HETATM    9  C6  UNL     1     -66.675  17.555 -19.323  1.00  0.00     0.074 C 
HETATM   10  N2  UNL     1     -66.572  18.253 -17.050  1.00  0.00     0.144 N 
HETATM   11  C7  UNL     1     -67.136  16.961 -16.732  1.00  0.00     0.316 C 
HETATM   12  C8  UNL     1     -66.954  19.193 -16.005  1.00  0.00     0.376 C 
ENDROOT
BRANCH  12  13
HETATM   13  O1  UNL     1     -66.715  18.646 -14.768  1.00  0.00    -0.367 OA
ATOM     14  H1  UNL     1     -66.486  19.310 -14.127  1.00  0.00     0.212 HD
ENDBRANCH  12  13
TORSDOF 1
ENDMDL
