MODEL 1
REMARK VINA RESULT: -3.263639904      0.000      0.000
REMARK  1 active torsions:
REMARK  status: ('A' for Active; 'I' for Inactive)
REMARK    1  A    between atoms: O1_1  and  C1_3 
ROOT
HETATM    1  C1  UNL     1     -67.108  18.974 -17.365  1.00  0.00     0.124 C 
HETATM    2  C2  UNL     1     -66.716  17.549 -17.175  1.00  0.00     0.032 C 
HETATM    3  C3  UNL     1     -67.443  16.770 -16.170  1.00  0.00     0.003 C 
HETATM    4  C4  UNL     1     -68.117  17.507 -15.072  1.00  0.00     0.007 C 
HETATM    5  C5  UNL     1     -68.687  18.775 -15.583  1.00  0.00     0.019 C 
HETATM    6  C6  UNL     1     -69.272  19.699 -14.595  1.00  0.00     0.237 C 
HETATM    7  N1  UNL     1     -68.663  21.009 -14.775  1.00  0.00    -0.074 N 
ATOM      8  H11 UNL     1     -68.026  21.277 -14.024  1.00  0.00     0.277 HD
ATOM      9  H12 UNL     1     -69.312  21.787 -14.659  1.00  0.00     0.277 HD
HETATM   10  C7  UNL     1     -68.028  20.953 -16.105  1.00  0.00     0.239 C 
HETATM   11  C8  UNL     1     -67.465  19.578 -16.068  1.00  0.00     0.046 C 
ENDROOT
BRANCH   1  12
HETATM   12  O1  UNL     1     -66.003  19.685 -17.886  1.00  0.00    -0.395 OA
ATOM     13  H1  UNL     1     -65.971  19.557 -18.826  1.00  0.00     0.210 HD
ENDBRANCH   1  12
TORSDOF 1
ENDMDL
MODEL 2
REMARK VINA RESULT: -2.625645538      2.389      3.718
REMARK  1 active torsions:
REMARK  status: ('A' for Active; 'I' for Inactive)
REMARK    1  A    between atoms: O1_1  and  C1_3 
ROOT
HETATM    1  C1  UNL     1     -68.339  17.771 -15.178  1.00  0.00     0.124 C 
HETATM    2  C2  UNL     1     -68.642  18.946 -14.312  1.00  0.00     0.032 C 
HETATM    3  C3  UNL     1     -68.622  20.273 -14.932  1.00  0.00     0.003 C 
HETATM    4  C4  UNL     1     -67.825  20.450 -16.171  1.00  0.00     0.007 C 
HETATM    5  C5  UNL     1     -67.919  19.238 -17.016  1.00  0.00     0.019 C 
HETATM    6  C6  UNL     1     -67.073  19.188 -18.223  1.00  0.00     0.237 C 
HETATM    7  N1  UNL     1     -66.307  17.951 -18.196  1.00  0.00    -0.074 N 
ATOM      8  H11 UNL     1     -65.312  18.083 -18.015  1.00  0.00     0.277 HD
ATOM      9  H12 UNL     1     -66.201  17.509 -19.110  1.00  0.00     0.277 HD
HETATM   10  C7  UNL     1     -66.989  17.104 -17.198  1.00  0.00     0.239 C 
HETATM   11  C8  UNL     1     -67.295  18.121 -16.158  1.00  0.00     0.046 C 
ENDROOT
BRANCH   1  12
HETATM   12  O1  UNL     1     -67.841  16.725 -14.369  1.00  0.00    -0.395 OA
ATOM     13  H1  UNL     1     -68.574  16.242 -14.005  1.00  0.00     0.210 HD
ENDBRANCH   1  12
TORSDOF 1
ENDMDL
MODEL 3
REMARK VINA RESULT: -2.566336533      1.661      2.511
REMARK  1 active torsions:
REMARK  status: ('A' for Active; 'I' for Inactive)
REMARK    1  A    between atoms: O1_1  and  C1_3 
ROOT
HETATM    1  C1  UNL     1     -66.817  17.386 -16.633  1.00  0.00     0.124 C 
HETATM    2  C2  UNL     1     -66.811  17.483 -18.120  1.00  0.00     0.032 C 
HETATM    3  C3  UNL     1     -67.207  18.759 -18.722  1.00  0.00     0.003 C 
HETATM    4  C4  UNL     1     -68.064  19.669 -17.922  1.00  0.00     0.007 C 
HETATM    5  C5  UNL     1     -67.677  19.611 -16.494  1.00  0.00     0.019 C 
HETATM    6  C6  UNL     1     -68.518  20.350 -15.536  1.00  0.00     0.237 C 
HETATM    7  N1  UNL     1     -68.923  19.434 -14.479  1.00  0.00    -0.074 N 
ATOM      8  H11 UNL     1     -69.911  19.180 -14.507  1.00  0.00     0.277 HD
ATOM      9  H12 UNL     1     -68.938  19.854 -13.549  1.00  0.00     0.277 HD
HETATM   10  C7  UNL     1     -68.006  18.285 -14.601  1.00  0.00     0.239 C 
HETATM   11  C8  UNL     1     -67.949  18.152 -16.080  1.00  0.00     0.046 C 
ENDROOT
BRANCH   1  12
HETATM   12  O1  UNL     1     -66.988  16.032 -16.265  1.00  0.00    -0.395 OA
ATOM     13  H1  UNL     1     -66.998  15.971 -15.317  1.00  0.00     0.210 HD
ENDBRANCH   1  12
TORSDOF 1
ENDMDL
MODEL 4
REMARK VINA RESULT: -2.473474236      2.307      3.462
REMARK  1 active torsions:
REMARK  status: ('A' for Active; 'I' for Inactive)
REMARK    1  A    between atoms: O1_1  and  C1_3 
ROOT
HETATM    1  C1  UNL     1     -67.822  17.075 -15.990  1.00  0.00     0.124 C 
HETATM    2  C2  UNL     1     -68.085  17.782 -14.704  1.00  0.00     0.032 C 
HETATM    3  C3  UNL     1     -68.374  19.217 -14.760  1.00  0.00     0.003 C 
HETATM    4  C4  UNL     1     -67.892  19.977 -15.940  1.00  0.00     0.007 C 
HETATM    5  C5  UNL     1     -68.005  19.150 -17.162  1.00  0.00     0.019 C 
HETATM    6  C6  UNL     1     -67.440  19.702 -18.406  1.00  0.00     0.237 C 
HETATM    7  N1  UNL     1     -66.529  18.718 -18.973  1.00  0.00    -0.074 N 
ATOM      8  H11 UNL     1     -65.545  18.977 -18.906  1.00  0.00     0.277 HD
ATOM      9  H12 UNL     1     -66.565  18.659 -19.991  1.00  0.00     0.277 HD
HETATM   10  C7  UNL     1     -66.862  17.454 -18.289  1.00  0.00     0.239 C 
HETATM   11  C8  UNL     1     -67.069  17.953 -16.904  1.00  0.00     0.046 C 
ENDROOT
BRANCH   1  12
HETATM   12  O1  UNL     1     -67.029  15.935 -15.731  1.00  0.00    -0.395 OA
ATOM     13  H1  UNL     1     -66.157  16.082 -16.080  1.00  0.00     0.210 HD
ENDBRANCH   1  12
TORSDOF 1
ENDMDL
MODEL 5
REMARK VINA RESULT: -2.188380312      2.150      3.113
REMARK  1 active torsions:
REMARK  status: ('A' for Active; 'I' for Inactive)
REMARK    1  A    between atoms: O1_1  and  C1_3 
ROOT
HETATM    1  C1  UNL     1     -67.758  19.609 -15.610  1.00  0.00     0.124 C 
HETATM    2  C2  UNL     1     -68.265  18.657 -14.581  1.00  0.00     0.032 C 
HETATM    3  C3  UNL     1     -67.943  17.238 -14.745  1.00  0.00     0.003 C 
HETATM    4  C4  UNL     1     -67.620  16.752 -16.110  1.00  0.00     0.007 C 
HETATM    5  C5  UNL     1     -66.849  17.779 -16.849  1.00  0.00     0.019 C 
HETATM    6  C6  UNL     1     -66.564  17.516 -18.271  1.00  0.00     0.237 C 
HETATM    7  N1  UNL     1     -67.012  18.663 -19.048  1.00  0.00    -0.074 N 
ATOM      8  H11 UNL     1     -67.841  18.481 -19.614  1.00  0.00     0.277 HD
ATOM      9  H12 UNL     1     -66.394  18.906 -19.822  1.00  0.00     0.277 HD
HETATM   10  C7  UNL     1     -67.188  19.745 -18.060  1.00  0.00     0.239 C 
HETATM   11  C8  UNL     1     -67.805  18.983 -16.944  1.00  0.00     0.046 C 
ENDROOT
BRANCH   1  12
HETATM   12  O1  UNL     1     -68.597  20.746 -15.634  1.00  0.00    -0.395 OA
ATOM     13  H1  UNL     1     -68.583  21.120 -16.507  1.00  0.00     0.210 HD
ENDBRANCH   1  12
TORSDOF 1
ENDMDL
