MODEL 1
REMARK VINA RESULT: -4.499851735      0.000      0.000
REMARK  2 active torsions:
REMARK  status: ('A' for Active; 'I' for Inactive)
REMARK    1  A    between atoms: O1_1  and  C1_3 
REMARK    2  A    between atoms: C5_7  and  O2_8 
ROOT
HETATM    1  C1  UNL     1     -67.339  18.704 -18.475  1.00  0.00     0.122 C 
HETATM    2  C2  UNL     1     -66.972  17.381 -17.806  1.00  0.00     0.065 C 
HETATM    3  C3  UNL     1     -66.775  17.626 -16.339  1.00  0.00     0.191 C 
HETATM    4  C4  UNL     1     -68.051  17.563 -15.543  1.00  0.00     0.067 C 
HETATM    5  C5  UNL     1     -68.322  19.004 -15.139  1.00  0.00     0.150 C 
HETATM    6  C6  UNL     1     -67.579  19.727 -16.273  1.00  0.00     0.217 C 
HETATM    7  C7  UNL     1     -68.317  19.399 -17.542  1.00  0.00     0.067 C 
HETATM    8  N1  UNL     1     -66.298  19.002 -16.195  1.00  0.00    -0.064 N 
ATOM      9  H11 UNL     1     -65.580  19.295 -16.857  1.00  0.00     0.278 HD
ATOM     10  H12 UNL     1     -65.730  19.191 -15.370  1.00  0.00     0.278 HD
ENDROOT
BRANCH   1  11
HETATM   11  O1  UNL     1     -66.249  19.537 -18.621  1.00  0.00    -0.395 OA
ATOM     12  H1  UNL     1     -66.422  20.256 -19.217  1.00  0.00     0.210 HD
ENDBRANCH   1  11
BRANCH   5  13
HETATM   13  O2  UNL     1     -69.669  19.312 -15.162  1.00  0.00    -0.393 OA
ATOM     14  H2  UNL     1     -69.844  20.192 -14.851  1.00  0.00     0.210 HD
ENDBRANCH   5  13
TORSDOF 2
ENDMDL
MODEL 2
REMARK VINA RESULT: -3.932294859      1.290      3.299
REMARK  2 active torsions:
REMARK  status: ('A' for Active; 'I' for Inactive)
REMARK    1  A    between atoms: O1_1  and  C1_3 
REMARK    2  A    between atoms: C5_7  and  O2_8 
ROOT
HETATM    1  C1  UNL     1     -68.003  17.623 -15.354  1.00  0.00     0.122 C 
HETATM    2  C2  UNL     1     -69.005  18.713 -15.728  1.00  0.00     0.065 C 
HETATM    3  C3  UNL     1     -68.306  19.735 -16.575  1.00  0.00     0.191 C 
HETATM    4  C4  UNL     1     -68.285  19.388 -18.040  1.00  0.00     0.067 C 
HETATM    5  C5  UNL     1     -66.835  19.030 -18.327  1.00  0.00     0.150 C 
HETATM    6  C6  UNL     1     -66.401  18.588 -16.921  1.00  0.00     0.217 C 
HETATM    7  C7  UNL     1     -67.187  17.345 -16.605  1.00  0.00     0.067 C 
HETATM    8  N1  UNL     1     -66.903  19.747 -16.161  1.00  0.00    -0.064 N 
ATOM      9  H11 UNL     1     -66.737  19.724 -15.156  1.00  0.00     0.278 HD
ATOM     10  H12 UNL     1     -66.404  20.624 -16.307  1.00  0.00     0.278 HD
ENDROOT
BRANCH   1  11
HETATM   11  O1  UNL     1     -67.123  18.035 -14.374  1.00  0.00    -0.395 OA
ATOM     12  H1  UNL     1     -66.230  17.767 -14.556  1.00  0.00     0.210 HD
ENDBRANCH   1  11
BRANCH   5  13
HETATM   13  O2  UNL     1     -66.720  17.986 -19.226  1.00  0.00    -0.393 OA
ATOM     14  H2  UNL     1     -66.240  17.250 -18.866  1.00  0.00     0.210 HD
ENDBRANCH   5  13
TORSDOF 2
ENDMDL
MODEL 3
REMARK VINA RESULT: -3.152175031      1.091      3.182
REMARK  2 active torsions:
REMARK  status: ('A' for Active; 'I' for Inactive)
REMARK    1  A    between atoms: O1_1  and  C1_3 
REMARK    2  A    between atoms: C5_7  and  O2_8 
ROOT
HETATM    1  C1  UNL     1     -67.971  19.674 -14.702  1.00  0.00     0.122 C 
HETATM    2  C2  UNL     1     -67.588  18.202 -14.570  1.00  0.00     0.065 C 
HETATM    3  C3  UNL     1     -67.838  17.523 -15.885  1.00  0.00     0.191 C 
HETATM    4  C4  UNL     1     -66.687  17.636 -16.847  1.00  0.00     0.067 C 
HETATM    5  C5  UNL     1     -67.180  18.589 -17.924  1.00  0.00     0.150 C 
HETATM    6  C6  UNL     1     -68.222  19.371 -17.110  1.00  0.00     0.217 C 
HETATM    7  C7  UNL     1     -67.460  20.129 -16.059  1.00  0.00     0.067 C 
HETATM    8  N1  UNL     1     -68.948  18.228 -16.526  1.00  0.00    -0.064 N 
ATOM      9  H11 UNL     1     -69.734  18.463 -15.921  1.00  0.00     0.278 HD
ATOM     10  H12 UNL     1     -69.507  17.677 -17.177  1.00  0.00     0.278 HD
ENDROOT
BRANCH   1  11
HETATM   11  O1  UNL     1     -69.338  19.862 -14.696  1.00  0.00    -0.395 OA
ATOM     12  H1  UNL     1     -69.614  20.526 -15.317  1.00  0.00     0.210 HD
ENDBRANCH   1  11
BRANCH   5  13
HETATM   13  O2  UNL     1     -66.182  19.431 -18.378  1.00  0.00    -0.393 OA
ATOM     14  H2  UNL     1     -65.325  19.187 -18.047  1.00  0.00     0.210 HD
ENDBRANCH   5  13
TORSDOF 2
ENDMDL
MODEL 4
REMARK VINA RESULT: -3.128895062      1.303      3.164
REMARK  2 active torsions:
REMARK  status: ('A' for Active; 'I' for Inactive)
REMARK    1  A    between atoms: O1_1  and  C1_3 
REMARK    2  A    between atoms: C5_7  and  O2_8 
ROOT
HETATM    1  C1  UNL     1     -68.394  18.817 -14.614  1.00  0.00     0.122 C 
HETATM    2  C2  UNL     1     -68.197  17.389 -15.120  1.00  0.00     0.065 C 
HETATM    3  C3  UNL     1     -67.819  17.443 -16.571  1.00  0.00     0.191 C 
HETATM    4  C4  UNL     1     -66.343  17.625 -16.801  1.00  0.00     0.067 C 
HETATM    5  C5  UNL     1     -66.209  19.045 -17.327  1.00  0.00     0.150 C 
HETATM    6  C6  UNL     1     -67.473  19.663 -16.710  1.00  0.00     0.217 C 
HETATM    7  C7  UNL     1     -67.271  19.643 -15.219  1.00  0.00     0.067 C 
HETATM    8  N1  UNL     1     -68.447  18.640 -17.132  1.00  0.00    -0.064 N 
ATOM      9  H11 UNL     1     -69.414  18.806 -16.854  1.00  0.00     0.278 HD
ATOM     10  H12 UNL     1     -68.653  18.607 -18.130  1.00  0.00     0.278 HD
ENDROOT
BRANCH   1  11
HETATM   11  O1  UNL     1     -69.584  19.365 -15.045  1.00  0.00    -0.395 OA
ATOM     12  H1  UNL     1     -69.633  20.299 -14.878  1.00  0.00     0.210 HD
ENDBRANCH   1  11
BRANCH   5  13
HETATM   13  O2  UNL     1     -65.074  19.677 -16.854  1.00  0.00    -0.393 OA
ATOM     14  H2  UNL     1     -64.524  20.005 -17.555  1.00  0.00     0.210 HD
ENDBRANCH   5  13
TORSDOF 2
ENDMDL
MODEL 5
REMARK VINA RESULT: -2.900965404      1.582      1.823
REMARK  2 active torsions:
REMARK  status: ('A' for Active; 'I' for Inactive)
REMARK    1  A    between atoms: O1_1  and  C1_3 
REMARK    2  A    between atoms: C5_7  and  O2_8 
ROOT
HETATM    1  C1  UNL     1     -66.633  18.971 -17.169  1.00  0.00     0.122 C 
HETATM    2  C2  UNL     1     -67.813  18.003 -17.144  1.00  0.00     0.065 C 
HETATM    3  C3  UNL     1     -68.456  18.065 -15.790  1.00  0.00     0.191 C 
HETATM    4  C4  UNL     1     -69.479  19.162 -15.661  1.00  0.00     0.067 C 
HETATM    5  C5  UNL     1     -68.829  20.185 -14.743  1.00  0.00     0.150 C 
HETATM    6  C6  UNL     1     -67.351  19.867 -15.016  1.00  0.00     0.217 C 
HETATM    7  C7  UNL     1     -67.097  20.229 -16.453  1.00  0.00     0.067 C 
HETATM    8  N1  UNL     1     -67.404  18.405 -14.832  1.00  0.00    -0.064 N 
ATOM      9  H11 UNL     1     -66.519  17.911 -14.950  1.00  0.00     0.278 HD
ATOM     10  H12 UNL     1     -67.551  18.082 -13.876  1.00  0.00     0.278 HD
ENDROOT
BRANCH   1  11
HETATM   11  O1  UNL     1     -65.542  18.485 -16.477  1.00  0.00    -0.395 OA
ATOM     12  H1  UNL     1     -64.836  19.118 -16.426  1.00  0.00     0.210 HD
ENDBRANCH   1  11
BRANCH   5  13
HETATM   13  O2  UNL     1     -69.126  21.485 -15.109  1.00  0.00    -0.393 OA
ATOM     14  H2  UNL     1     -69.212  21.584 -16.050  1.00  0.00     0.210 HD
ENDBRANCH   5  13
TORSDOF 2
ENDMDL
