MODEL 1
REMARK VINA RESULT: -3.093326748      0.000      0.000
REMARK  1 active torsions:
REMARK  status: ('A' for Active; 'I' for Inactive)
REMARK    1  A    between atoms: C6_7  and  O1_8 
ROOT
HETATM    1  C1  UNL     1     -67.110  18.433 -18.533  1.00  0.00     0.277 C 
HETATM    2  N1  UNL     1     -67.521  18.738 -17.191  1.00  0.00    -0.021 N 
HETATM    3  C2  UNL     1     -68.814  19.424 -17.205  1.00  0.00     0.244 C 
HETATM    4  C3  UNL     1     -69.449  19.285 -15.818  1.00  0.00     0.061 C 
HETATM    5  C4  UNL     1     -68.262  19.304 -14.846  1.00  0.00     0.193 C 
HETATM    6  C5  UNL     1     -67.637  17.916 -14.944  1.00  0.00     0.094 C 
HETATM    7  C6  UNL     1     -67.685  17.520 -16.412  1.00  0.00     0.326 C 
HETATM    8  N2  UNL     1     -67.329  20.258 -15.434  1.00  0.00    -0.046 N 
ATOM      9  H21 UNL     1     -66.711  20.669 -14.735  1.00  0.00     0.279 HD
ATOM     10  H22 UNL     1     -67.795  21.111 -15.740  1.00  0.00     0.279 HD
HETATM   11  C7  UNL     1     -66.591  19.630 -16.507  1.00  0.00     0.471 C 
ENDROOT
BRANCH   7  12
HETATM   12  O1  UNL     1     -66.686  16.585 -16.721  1.00  0.00    -0.369 OA
ATOM     13  H1  UNL     1     -67.039  15.704 -16.744  1.00  0.00     0.212 HD
ENDBRANCH   7  12
TORSDOF 1
ENDMDL
MODEL 2
REMARK VINA RESULT: -2.443116238      1.219      2.842
REMARK  1 active torsions:
REMARK  status: ('A' for Active; 'I' for Inactive)
REMARK    1  A    between atoms: C6_7  and  O1_8 
ROOT
HETATM    1  C1  UNL     1     -68.653  19.988 -14.763  1.00  0.00     0.277 C 
HETATM    2  N1  UNL     1     -67.974  19.370 -15.868  1.00  0.00    -0.021 N 
HETATM    3  C2  UNL     1     -66.810  20.171 -16.255  1.00  0.00     0.244 C 
HETATM    4  C3  UNL     1     -65.853  19.278 -17.048  1.00  0.00     0.061 C 
HETATM    5  C4  UNL     1     -66.768  18.318 -17.819  1.00  0.00     0.193 C 
HETATM    6  C5  UNL     1     -67.231  17.289 -16.793  1.00  0.00     0.094 C 
HETATM    7  C6  UNL     1     -67.487  18.049 -15.501  1.00  0.00     0.326 C 
HETATM    8  N2  UNL     1     -67.920  19.134 -18.186  1.00  0.00    -0.046 N 
ATOM      9  H21 UNL     1     -68.398  18.772 -19.011  1.00  0.00     0.279 HD
ATOM     10  H22 UNL     1     -67.643  20.041 -18.561  1.00  0.00     0.279 HD
HETATM   11  C7  UNL     1     -68.813  19.265 -17.057  1.00  0.00     0.471 C 
ENDROOT
BRANCH   7  12
HETATM   12  O1  UNL     1     -68.414  17.378 -14.689  1.00  0.00    -0.369 OA
ATOM     13  H1  UNL     1     -69.161  17.084 -15.196  1.00  0.00     0.212 HD
ENDBRANCH   7  12
TORSDOF 1
ENDMDL
MODEL 3
REMARK VINA RESULT: -2.092454473      1.524      2.129
REMARK  1 active torsions:
REMARK  status: ('A' for Active; 'I' for Inactive)
REMARK    1  A    between atoms: C6_7  and  O1_8 
ROOT
HETATM    1  C1  UNL     1     -67.031  18.487 -18.590  1.00  0.00     0.277 C 
HETATM    2  N1  UNL     1     -67.452  18.491 -17.217  1.00  0.00    -0.021 N 
HETATM    3  C2  UNL     1     -67.778  17.129 -16.787  1.00  0.00     0.244 C 
HETATM    4  C3  UNL     1     -67.727  17.082 -15.257  1.00  0.00     0.061 C 
HETATM    5  C4  UNL     1     -68.214  18.466 -14.811  1.00  0.00     0.193 C 
HETATM    6  C5  UNL     1     -67.033  19.404 -15.042  1.00  0.00     0.094 C 
HETATM    7  C6  UNL     1     -66.388  18.975 -16.351  1.00  0.00     0.326 C 
HETATM    8  N2  UNL     1     -69.254  18.811 -15.773  1.00  0.00    -0.046 N 
ATOM      9  H21 UNL     1     -69.924  19.479 -15.390  1.00  0.00     0.279 HD
ATOM     10  H22 UNL     1     -69.896  18.036 -15.938  1.00  0.00     0.279 HD
HETATM   11  C7  UNL     1     -68.655  19.287 -16.999  1.00  0.00     0.471 C 
ENDROOT
BRANCH   7  12
HETATM   12  O1  UNL     1     -65.695  20.037 -16.951  1.00  0.00    -0.369 OA
ATOM     13  H1  UNL     1     -65.882  20.858 -16.510  1.00  0.00     0.212 HD
ENDBRANCH   7  12
TORSDOF 1
ENDMDL
MODEL 4
REMARK VINA RESULT: -1.750626214      1.788      2.966
REMARK  1 active torsions:
REMARK  status: ('A' for Active; 'I' for Inactive)
REMARK    1  A    between atoms: C6_7  and  O1_8 
ROOT
HETATM    1  C1  UNL     1     -67.984  17.386 -14.515  1.00  0.00     0.277 C 
HETATM    2  N1  UNL     1     -67.659  18.054 -15.744  1.00  0.00    -0.021 N 
HETATM    3  C2  UNL     1     -67.060  17.107 -16.688  1.00  0.00     0.244 C 
HETATM    4  C3  UNL     1     -67.192  17.686 -18.100  1.00  0.00     0.061 C 
HETATM    5  C4  UNL     1     -67.061  19.203 -17.910  1.00  0.00     0.193 C 
HETATM    6  C5  UNL     1     -68.407  19.659 -17.358  1.00  0.00     0.094 C 
HETATM    7  C6  UNL     1     -68.856  18.591 -16.372  1.00  0.00     0.326 C 
HETATM    8  N2  UNL     1     -66.069  19.350 -16.851  1.00  0.00    -0.046 N 
ATOM      9  H21 UNL     1     -65.593  20.251 -16.895  1.00  0.00     0.279 HD
ATOM     10  H22 UNL     1     -65.259  18.748 -16.998  1.00  0.00     0.279 HD
HETATM   11  C7  UNL     1     -66.684  19.124 -15.563  1.00  0.00     0.471 C 
ENDROOT
BRANCH   7  12
HETATM   12  O1  UNL     1     -69.734  19.119 -15.413  1.00  0.00    -0.369 OA
ATOM     13  H1  UNL     1     -70.393  19.669 -15.820  1.00  0.00     0.212 HD
ENDBRANCH   7  12
TORSDOF 1
ENDMDL
MODEL 5
REMARK VINA RESULT: -1.108702775      1.725      3.022
REMARK  1 active torsions:
REMARK  status: ('A' for Active; 'I' for Inactive)
REMARK    1  A    between atoms: C6_7  and  O1_8 
ROOT
HETATM    1  C1  UNL     1     -69.623  19.246 -15.638  1.00  0.00     0.277 C 
HETATM    2  N1  UNL     1     -68.396  18.900 -16.300  1.00  0.00    -0.021 N 
HETATM    3  C2  UNL     1     -68.615  18.798 -17.745  1.00  0.00     0.244 C 
HETATM    4  C3  UNL     1     -67.262  18.934 -18.448  1.00  0.00     0.061 C 
HETATM    5  C4  UNL     1     -66.260  18.276 -17.491  1.00  0.00     0.193 C 
HETATM    6  C5  UNL     1     -66.034  19.295 -16.378  1.00  0.00     0.094 C 
HETATM    7  C6  UNL     1     -67.387  19.927 -16.087  1.00  0.00     0.326 C 
HETATM    8  N2  UNL     1     -66.990  17.148 -16.923  1.00  0.00    -0.046 N 
ATOM      9  H21 UNL     1     -66.364  16.410 -16.602  1.00  0.00     0.279 HD
ATOM     10  H22 UNL     1     -67.491  16.618 -17.636  1.00  0.00     0.279 HD
HETATM   11  C7  UNL     1     -67.871  17.608 -15.873  1.00  0.00     0.471 C 
ENDROOT
BRANCH   7  12
HETATM   12  O1  UNL     1     -67.445  20.426 -14.777  1.00  0.00    -0.369 OA
ATOM     13  H1  UNL     1     -68.055  21.152 -14.716  1.00  0.00     0.212 HD
ENDBRANCH   7  12
TORSDOF 1
ENDMDL
