MODEL 1
REMARK VINA RESULT: -3.152477633      0.000      0.000
REMARK  2 active torsions:
REMARK  status: ('A' for Active; 'I' for Inactive)
REMARK    1  A    between atoms: O1_1  and  C1_3 
REMARK    2  A    between atoms: C8_10  and  O2_11 
ROOT
HETATM    1  C1  UNL     1     -66.318  19.459 -17.104  1.00  0.00     0.151 C 
HETATM    2  C2  UNL     1     -67.499  19.840 -16.233  1.00  0.00     0.017 C 
HETATM    3  C3  UNL     1     -67.225  19.302 -14.842  1.00  0.00     0.007 C 
HETATM    4  C4  UNL     1     -67.770  17.933 -14.617  1.00  0.00     0.001 C 
HETATM    5  C5  UNL     1     -67.727  17.033 -15.802  1.00  0.00     0.007 C 
HETATM    6  C6  UNL     1     -68.008  17.740 -17.112  1.00  0.00     0.017 C 
HETATM    7  C7  UNL     1     -68.683  19.050 -16.756  1.00  0.00     0.014 C 
HETATM    8  C8  UNL     1     -66.648  18.120 -17.692  1.00  0.00     0.151 C 
ENDROOT
BRANCH   1   9
HETATM    9  O1  UNL     1     -65.120  19.458 -16.404  1.00  0.00    -0.393 OA
ATOM     10  H1  UNL     1     -64.413  19.053 -16.893  1.00  0.00     0.210 HD
ENDBRANCH   1   9
BRANCH   8  11
HETATM   11  O2  UNL     1     -66.669  18.176 -19.075  1.00  0.00    -0.393 OA
ATOM     12  H2  UNL     1     -66.746  17.307 -19.450  1.00  0.00     0.210 HD
ENDBRANCH   8  11
TORSDOF 2
ENDMDL
MODEL 2
REMARK VINA RESULT: -2.970909625      1.364      2.755
REMARK  2 active torsions:
REMARK  status: ('A' for Active; 'I' for Inactive)
REMARK    1  A    between atoms: O1_1  and  C1_3 
REMARK    2  A    between atoms: C8_10  and  O2_11 
ROOT
HETATM    1  C1  UNL     1     -67.743  18.684 -17.180  1.00  0.00     0.151 C 
HETATM    2  C2  UNL     1     -68.658  18.196 -16.075  1.00  0.00     0.017 C 
HETATM    3  C3  UNL     1     -69.764  19.222 -15.920  1.00  0.00     0.007 C 
HETATM    4  C4  UNL     1     -69.458  20.277 -14.912  1.00  0.00     0.001 C 
HETATM    5  C5  UNL     1     -68.028  20.684 -14.838  1.00  0.00     0.007 C 
HETATM    6  C6  UNL     1     -67.059  19.536 -15.031  1.00  0.00     0.017 C 
HETATM    7  C7  UNL     1     -67.849  18.264 -14.793  1.00  0.00     0.014 C 
HETATM    8  C8  UNL     1     -66.697  19.528 -16.514  1.00  0.00     0.151 C 
ENDROOT
BRANCH   1   9
HETATM    9  O1  UNL     1     -68.428  19.364 -18.176  1.00  0.00    -0.393 OA
ATOM     10  H1  UNL     1     -69.051  19.991 -17.827  1.00  0.00     0.210 HD
ENDBRANCH   1   9
BRANCH   8  11
HETATM   11  O2  UNL     1     -65.430  19.017 -16.738  1.00  0.00    -0.393 OA
ATOM     12  H2  UNL     1     -64.786  19.457 -16.198  1.00  0.00     0.210 HD
ENDBRANCH   8  11
TORSDOF 2
ENDMDL
MODEL 3
REMARK VINA RESULT: -2.751649340      1.378      2.027
REMARK  2 active torsions:
REMARK  status: ('A' for Active; 'I' for Inactive)
REMARK    1  A    between atoms: O1_1  and  C1_3 
REMARK    2  A    between atoms: C8_10  and  O2_11 
ROOT
HETATM    1  C1  UNL     1     -66.629  17.526 -16.828  1.00  0.00     0.151 C 
HETATM    2  C2  UNL     1     -66.617  18.579 -15.738  1.00  0.00     0.017 C 
HETATM    3  C3  UNL     1     -67.824  18.328 -14.855  1.00  0.00     0.007 C 
HETATM    4  C4  UNL     1     -69.037  19.084 -15.279  1.00  0.00     0.001 C 
HETATM    5  C5  UNL     1     -69.193  19.254 -16.749  1.00  0.00     0.007 C 
HETATM    6  C6  UNL     1     -67.884  19.480 -17.478  1.00  0.00     0.017 C 
HETATM    7  C7  UNL     1     -66.877  19.906 -16.427  1.00  0.00     0.014 C 
HETATM    8  C8  UNL     1     -67.423  18.107 -17.960  1.00  0.00     0.151 C 
ENDROOT
BRANCH   1   9
HETATM    9  O1  UNL     1     -67.132  16.311 -16.387  1.00  0.00    -0.393 OA
ATOM     10  H1  UNL     1     -66.493  15.611 -16.441  1.00  0.00     0.210 HD
ENDBRANCH   1   9
BRANCH   8  11
HETATM   11  O2  UNL     1     -66.658  18.189 -19.111  1.00  0.00    -0.393 OA
ATOM     12  H2  UNL     1     -66.198  17.374 -19.273  1.00  0.00     0.210 HD
ENDBRANCH   8  11
TORSDOF 2
ENDMDL
MODEL 4
REMARK VINA RESULT: -2.647564785      2.271      3.183
REMARK  2 active torsions:
REMARK  status: ('A' for Active; 'I' for Inactive)
REMARK    1  A    between atoms: O1_1  and  C1_3 
REMARK    2  A    between atoms: C8_10  and  O2_11 
ROOT
HETATM    1  C1  UNL     1     -68.589  18.690 -15.187  1.00  0.00     0.151 C 
HETATM    2  C2  UNL     1     -67.639  19.645 -15.880  1.00  0.00     0.017 C 
HETATM    3  C3  UNL     1     -68.185  19.892 -17.273  1.00  0.00     0.007 C 
HETATM    4  C4  UNL     1     -67.649  18.950 -18.296  1.00  0.00     0.001 C 
HETATM    5  C5  UNL     1     -67.403  17.564 -17.812  1.00  0.00     0.007 C 
HETATM    6  C6  UNL     1     -66.873  17.502 -16.394  1.00  0.00     0.017 C 
HETATM    7  C7  UNL     1     -66.340  18.885 -16.074  1.00  0.00     0.014 C 
HETATM    8  C8  UNL     1     -68.090  17.309 -15.493  1.00  0.00     0.151 C 
ENDROOT
BRANCH   1   9
HETATM    9  O1  UNL     1     -69.909  18.881 -15.569  1.00  0.00    -0.393 OA
ATOM     10  H1  UNL     1     -70.083  19.774 -15.843  1.00  0.00     0.210 HD
ENDBRANCH   1   9
BRANCH   8  11
HETATM   11  O2  UNL     1     -67.774  16.626 -14.330  1.00  0.00    -0.393 OA
ATOM     12  H2  UNL     1     -66.980  16.118 -14.439  1.00  0.00     0.210 HD
ENDBRANCH   8  11
TORSDOF 2
ENDMDL
MODEL 5
REMARK VINA RESULT: -2.581840052      1.260      1.714
REMARK  2 active torsions:
REMARK  status: ('A' for Active; 'I' for Inactive)
REMARK    1  A    between atoms: O1_1  and  C1_3 
REMARK    2  A    between atoms: C8_10  and  O2_11 
ROOT
HETATM    1  C1  UNL     1     -66.623  18.723 -17.097  1.00  0.00     0.151 C 
HETATM    2  C2  UNL     1     -67.881  19.565 -17.025  1.00  0.00     0.017 C 
HETATM    3  C3  UNL     1     -67.664  20.606 -15.945  1.00  0.00     0.007 C 
HETATM    4  C4  UNL     1     -68.133  20.171 -14.599  1.00  0.00     0.001 C 
HETATM    5  C5  UNL     1     -67.952  18.723 -14.305  1.00  0.00     0.007 C 
HETATM    6  C6  UNL     1     -68.192  17.826 -15.502  1.00  0.00     0.017 C 
HETATM    7  C7  UNL     1     -68.974  18.650 -16.505  1.00  0.00     0.014 C 
HETATM    8  C8  UNL     1     -66.824  17.589 -16.137  1.00  0.00     0.151 C 
ENDROOT
BRANCH   1   9
HETATM    9  O1  UNL     1     -65.476  19.456 -16.829  1.00  0.00    -0.393 OA
ATOM     10  H1  UNL     1     -64.737  18.906 -16.599  1.00  0.00     0.210 HD
ENDBRANCH   1   9
BRANCH   8  11
HETATM   11  O2  UNL     1     -66.757  16.369 -16.788  1.00  0.00    -0.393 OA
ATOM     12  H2  UNL     1     -66.169  15.775 -16.339  1.00  0.00     0.210 HD
ENDBRANCH   8  11
TORSDOF 2
ENDMDL
