MODEL 1
REMARK VINA RESULT: -7.700397001      0.000      0.000
REMARK  5 active torsions:
REMARK  status: ('A' for Active; 'I' for Inactive)
REMARK    1  A    between atoms: O1_2  and  C2_3 
REMARK    2  A    between atoms: C2_3  and  C3_5 
REMARK    3  A    between atoms: C4_6  and  N1_7 
REMARK       I    between atoms: N1_7  and  C5_9 
REMARK    4  A    between atoms: C5_9  and  C6_11 
REMARK    5  A    between atoms: C6_11  and  C7_12 
ROOT
HETATM    1  C7  UNL     1     -24.932  -6.827  13.246  1.00  0.00     0.033 C 
HETATM    2  C8  UNL     1     -24.215  -6.855  14.504  1.00  0.00     0.096 C 
HETATM    3  N2  UNL     1     -23.658  -6.878  15.518  1.00  0.00    -0.192 NA
HETATM    4  C9  UNL     1     -26.232  -6.552  13.236  1.00  0.00    -0.070 C 
HETATM    5  C10 UNL     1     -26.954  -6.527  11.940  1.00  0.00     0.044 C 
HETATM    6  C11 UNL     1     -26.938  -6.274  14.512  1.00  0.00     0.044 C 
ENDROOT
BRANCH   1   7
HETATM    7  C6  UNL     1     -24.207  -7.106  11.986  1.00  0.00     0.153 C 
BRANCH   7   8
HETATM    8  C5  UNL     1     -23.192  -6.011  11.719  1.00  0.00     0.227 C 
HETATM    9  N1  UNL     1     -22.167  -5.797  12.622  1.00  0.00    -0.320 N 
ATOM     10  H1  UNL     1     -22.158  -6.447  13.407  1.00  0.00     0.169 HD
HETATM   11  O3  UNL     1     -23.374  -5.375  10.675  1.00  0.00    -0.273 OA
BRANCH   9  12
HETATM   12  C4  UNL     1     -21.114  -4.825  12.653  1.00  0.00     0.094 A 
HETATM   13  C3  UNL     1     -20.052  -4.546  13.430  1.00  0.00     0.080 A 
HETATM   14  C13 UNL     1     -19.436  -3.329  13.284  1.00  0.00    -0.026 A 
HETATM   15  C12 UNL     1     -19.970  -2.494  12.327  1.00  0.00    -0.008 A 
HETATM   16  C14 UNL     1     -18.250  -2.690  14.003  1.00  0.00     0.041 C 
HETATM   17  S1  UNL     1     -21.247  -3.357  11.680  1.00  0.00    -0.075 SA
HETATM   18  C17 UNL     1     -19.382  -1.135  12.067  1.00  0.00     0.047 C 
HETATM   19  C16 UNL     1     -17.895  -1.128  12.171  1.00  0.00     0.005 C 
HETATM   20  C15 UNL     1     -17.303  -2.319  12.884  1.00  0.00     0.005 C 
BRANCH  13  21
HETATM   21  C2  UNL     1     -19.379  -5.643  14.224  1.00  0.00     0.296 C 
HETATM   22  O2  UNL     1     -18.656  -5.380  15.207  1.00  0.00    -0.259 OA
BRANCH  21  23
HETATM   23  O1  UNL     1     -19.499  -6.976  13.920  1.00  0.00    -0.322 OA
HETATM   24  C1  UNL     1     -18.967  -8.022  14.667  1.00  0.00     0.213 C 
ENDBRANCH  21  23
ENDBRANCH  13  21
ENDBRANCH   9  12
ENDBRANCH   7   8
ENDBRANCH   1   7
TORSDOF 5
ENDMDL
MODEL 2
REMARK VINA RESULT: -7.595121801      2.169      2.793
REMARK  5 active torsions:
REMARK  status: ('A' for Active; 'I' for Inactive)
REMARK    1  A    between atoms: O1_2  and  C2_3 
REMARK    2  A    between atoms: C2_3  and  C3_5 
REMARK    3  A    between atoms: C4_6  and  N1_7 
REMARK       I    between atoms: N1_7  and  C5_9 
REMARK    4  A    between atoms: C5_9  and  C6_11 
REMARK    5  A    between atoms: C6_11  and  C7_12 
ROOT
HETATM    1  C7  UNL     1     -24.643  -6.746  14.118  1.00  0.00     0.033 C 
HETATM    2  C8  UNL     1     -23.323  -6.771  14.714  1.00  0.00     0.096 C 
HETATM    3  N2  UNL     1     -22.277  -6.792  15.207  1.00  0.00    -0.192 NA
HETATM    4  C9  UNL     1     -25.704  -6.504  14.880  1.00  0.00    -0.070 C 
HETATM    5  C10 UNL     1     -27.049  -6.481  14.257  1.00  0.00     0.044 C 
HETATM    6  C11 UNL     1     -25.529  -6.260  16.334  1.00  0.00     0.044 C 
ENDROOT
BRANCH   1   7
HETATM    7  C6  UNL     1     -24.793  -6.992  12.666  1.00  0.00     0.153 C 
BRANCH   7   8
HETATM    8  C5  UNL     1     -24.231  -5.821  11.883  1.00  0.00     0.227 C 
HETATM    9  N1  UNL     1     -22.878  -5.776  11.600  1.00  0.00    -0.320 N 
ATOM     10  H1  UNL     1     -22.356  -6.589  11.924  1.00  0.00     0.169 HD
HETATM   11  O3  UNL     1     -25.063  -4.969  11.549  1.00  0.00    -0.273 OA
BRANCH   9  12
HETATM   12  C4  UNL     1     -22.078  -4.792  10.932  1.00  0.00     0.094 A 
HETATM   13  C3  UNL     1     -20.944  -4.112  11.177  1.00  0.00     0.080 A 
HETATM   14  C13 UNL     1     -20.652  -3.023  10.396  1.00  0.00    -0.026 A 
HETATM   15  C12 UNL     1     -21.565  -2.729   9.405  1.00  0.00    -0.008 A 
HETATM   16  C14 UNL     1     -19.491  -2.032  10.413  1.00  0.00     0.041 C 
HETATM   17  S1  UNL     1     -22.748  -3.899   9.563  1.00  0.00    -0.075 SA
HETATM   18  C17 UNL     1     -21.357  -1.564   8.479  1.00  0.00     0.047 C 
HETATM   19  C16 UNL     1     -19.925  -1.377   8.111  1.00  0.00     0.005 C 
HETATM   20  C15 UNL     1     -18.941  -2.089   9.006  1.00  0.00     0.005 C 
BRANCH  13  21
HETATM   21  C2  UNL     1     -19.884  -4.697  12.082  1.00  0.00     0.296 C 
HETATM   22  O2  UNL     1     -19.153  -5.636  11.702  1.00  0.00    -0.259 OA
BRANCH  21  23
HETATM   23  O1  UNL     1     -19.664  -4.261  13.364  1.00  0.00    -0.322 OA
HETATM   24  C1  UNL     1     -18.518  -3.604  13.804  1.00  0.00     0.213 C 
ENDBRANCH  21  23
ENDBRANCH  13  21
ENDBRANCH   9  12
ENDBRANCH   7   8
ENDBRANCH   1   7
TORSDOF 5
ENDMDL
MODEL 3
REMARK VINA RESULT: -7.570022630      3.063      6.717
REMARK  5 active torsions:
REMARK  status: ('A' for Active; 'I' for Inactive)
REMARK    1  A    between atoms: O1_2  and  C2_3 
REMARK    2  A    between atoms: C2_3  and  C3_5 
REMARK    3  A    between atoms: C4_6  and  N1_7 
REMARK       I    between atoms: N1_7  and  C5_9 
REMARK    4  A    between atoms: C5_9  and  C6_11 
REMARK    5  A    between atoms: C6_11  and  C7_12 
ROOT
HETATM    1  C7  UNL     1     -20.374  -2.614   8.401  1.00  0.00     0.033 C 
HETATM    2  C8  UNL     1     -19.618  -2.078   9.513  1.00  0.00     0.096 C 
HETATM    3  N2  UNL     1     -19.016  -1.633  10.395  1.00  0.00    -0.192 NA
HETATM    4  C9  UNL     1     -20.593  -1.859   7.329  1.00  0.00    -0.070 C 
HETATM    5  C10 UNL     1     -21.369  -2.421   6.197  1.00  0.00     0.044 C 
HETATM    6  C11 UNL     1     -20.061  -0.474   7.282  1.00  0.00     0.044 C 
ENDROOT
BRANCH   1   7
HETATM    7  C6  UNL     1     -20.894  -3.998   8.471  1.00  0.00     0.153 C 
BRANCH   7   8
HETATM    8  C5  UNL     1     -21.991  -4.087   9.514  1.00  0.00     0.227 C 
HETATM    9  N1  UNL     1     -21.985  -5.129  10.424  1.00  0.00    -0.320 N 
ATOM     10  H1  UNL     1     -21.186  -5.756  10.335  1.00  0.00     0.169 HD
HETATM   11  O3  UNL     1     -22.834  -3.184   9.462  1.00  0.00    -0.273 OA
BRANCH   9  12
HETATM   12  C4  UNL     1     -22.898  -5.484  11.468  1.00  0.00     0.094 A 
HETATM   13  C3  UNL     1     -22.839  -6.103  12.661  1.00  0.00     0.080 A 
HETATM   14  C13 UNL     1     -24.012  -6.512  13.245  1.00  0.00    -0.026 A 
HETATM   15  C12 UNL     1     -25.164  -6.235  12.542  1.00  0.00    -0.008 A 
HETATM   16  C14 UNL     1     -24.302  -7.249  14.551  1.00  0.00     0.041 C 
HETATM   17  S1  UNL     1     -24.638  -5.457  11.160  1.00  0.00    -0.075 SA
HETATM   18  C17 UNL     1     -26.513  -6.626  13.078  1.00  0.00     0.047 C 
HETATM   19  C16 UNL     1     -26.607  -6.469  14.557  1.00  0.00     0.005 C 
HETATM   20  C15 UNL     1     -25.282  -6.347  15.268  1.00  0.00     0.005 C 
BRANCH  13  21
HETATM   21  C2  UNL     1     -21.561  -6.085  13.467  1.00  0.00     0.296 C 
HETATM   22  O2  UNL     1     -21.544  -6.440  14.664  1.00  0.00    -0.259 OA
BRANCH  21  23
HETATM   23  O1  UNL     1     -20.355  -5.671  12.959  1.00  0.00    -0.322 OA
HETATM   24  C1  UNL     1     -19.747  -4.448  13.227  1.00  0.00     0.213 C 
ENDBRANCH  21  23
ENDBRANCH  13  21
ENDBRANCH   9  12
ENDBRANCH   7   8
ENDBRANCH   1   7
TORSDOF 5
ENDMDL
MODEL 4
REMARK VINA RESULT: -7.461278881      2.321      3.264
REMARK  5 active torsions:
REMARK  status: ('A' for Active; 'I' for Inactive)
REMARK    1  A    between atoms: O1_2  and  C2_3 
REMARK    2  A    between atoms: C2_3  and  C3_5 
REMARK    3  A    between atoms: C4_6  and  N1_7 
REMARK       I    between atoms: N1_7  and  C5_9 
REMARK    4  A    between atoms: C5_9  and  C6_11 
REMARK    5  A    between atoms: C6_11  and  C7_12 
ROOT
HETATM    1  C7  UNL     1     -25.040  -6.829  13.295  1.00  0.00     0.033 C 
HETATM    2  C8  UNL     1     -24.350  -6.888  14.566  1.00  0.00     0.096 C 
HETATM    3  N2  UNL     1     -23.814  -6.938  15.590  1.00  0.00    -0.192 NA
HETATM    4  C9  UNL     1     -26.349  -6.602  13.267  1.00  0.00    -0.070 C 
HETATM    5  C10 UNL     1     -27.044  -6.543  11.958  1.00  0.00     0.044 C 
HETATM    6  C11 UNL     1     -27.092  -6.410  14.539  1.00  0.00     0.044 C 
ENDROOT
BRANCH   1   7
HETATM    7  C6  UNL     1     -24.279  -7.023  12.040  1.00  0.00     0.153 C 
BRANCH   7   8
HETATM    8  C5  UNL     1     -23.449  -5.788  11.743  1.00  0.00     0.227 C 
HETATM    9  N1  UNL     1     -22.150  -5.710  12.212  1.00  0.00    -0.320 N 
ATOM     10  H1  UNL     1     -21.835  -6.543  12.709  1.00  0.00     0.169 HD
HETATM   11  O3  UNL     1     -24.026  -4.920  11.079  1.00  0.00    -0.273 OA
BRANCH   9  12
HETATM   12  C4  UNL     1     -21.169  -4.670  12.125  1.00  0.00     0.094 A 
HETATM   13  C3  UNL     1     -20.579  -3.950  11.154  1.00  0.00     0.080 A 
HETATM   14  C13 UNL     1     -19.453  -3.231  11.465  1.00  0.00    -0.026 A 
HETATM   15  C12 UNL     1     -19.030  -3.308  12.775  1.00  0.00    -0.008 A 
HETATM   16  C14 UNL     1     -18.538  -2.346  10.621  1.00  0.00     0.041 C 
HETATM   17  S1  UNL     1     -20.135  -4.321  13.514  1.00  0.00    -0.075 SA
HETATM   18  C17 UNL     1     -17.813  -2.562  13.243  1.00  0.00     0.047 C 
HETATM   19  C16 UNL     1     -17.684  -1.222  12.602  1.00  0.00     0.005 C 
HETATM   20  C15 UNL     1     -18.521  -1.029  11.362  1.00  0.00     0.005 C 
BRANCH  13  21
HETATM   21  C2  UNL     1     -21.294  -3.705   9.845  1.00  0.00     0.296 C 
HETATM   22  O2  UNL     1     -21.536  -4.639   9.053  1.00  0.00    -0.259 OA
BRANCH  21  23
HETATM   23  O1  UNL     1     -21.706  -2.462   9.433  1.00  0.00    -0.322 OA
HETATM   24  C1  UNL     1     -21.349  -1.853   8.233  1.00  0.00     0.213 C 
ENDBRANCH  21  23
ENDBRANCH  13  21
ENDBRANCH   9  12
ENDBRANCH   7   8
ENDBRANCH   1   7
TORSDOF 5
ENDMDL
MODEL 5
REMARK VINA RESULT: -7.416985301      2.323      2.802
REMARK  5 active torsions:
REMARK  status: ('A' for Active; 'I' for Inactive)
REMARK    1  A    between atoms: O1_2  and  C2_3 
REMARK    2  A    between atoms: C2_3  and  C3_5 
REMARK    3  A    between atoms: C4_6  and  N1_7 
REMARK       I    between atoms: N1_7  and  C5_9 
REMARK    4  A    between atoms: C5_9  and  C6_11 
REMARK    5  A    between atoms: C6_11  and  C7_12 
ROOT
HETATM    1  C7  UNL     1     -24.757  -6.619  13.904  1.00  0.00     0.033 C 
HETATM    2  C8  UNL     1     -23.366  -6.578  14.302  1.00  0.00     0.096 C 
HETATM    3  N2  UNL     1     -22.259  -6.549  14.638  1.00  0.00    -0.192 NA
HETATM    4  C9  UNL     1     -25.709  -6.542  14.828  1.00  0.00    -0.070 C 
HETATM    5  C10 UNL     1     -27.130  -6.585  14.406  1.00  0.00     0.044 C 
HETATM    6  C11 UNL     1     -25.338  -6.414  16.260  1.00  0.00     0.044 C 
ENDROOT
BRANCH   1   7
HETATM    7  C6  UNL     1     -25.103  -6.746  12.470  1.00  0.00     0.153 C 
BRANCH   7   8
HETATM    8  C5  UNL     1     -23.864  -6.545  11.619  1.00  0.00     0.227 C 
HETATM    9  N1  UNL     1     -23.249  -5.306  11.591  1.00  0.00    -0.320 N 
ATOM     10  H1  UNL     1     -23.679  -4.612  12.202  1.00  0.00     0.169 HD
HETATM   11  O3  UNL     1     -23.491  -7.546  10.996  1.00  0.00    -0.273 OA
BRANCH   9  12
HETATM   12  C4  UNL     1     -22.116  -4.823  10.860  1.00  0.00     0.094 A 
HETATM   13  C3  UNL     1     -20.782  -4.780  11.023  1.00  0.00     0.080 A 
HETATM   14  C13 UNL     1     -20.048  -3.957  10.207  1.00  0.00    -0.026 A 
HETATM   15  C12 UNL     1     -20.764  -3.244   9.269  1.00  0.00    -0.008 A 
HETATM   16  C14 UNL     1     -18.554  -3.652  10.137  1.00  0.00     0.041 C 
HETATM   17  S1  UNL     1     -22.353  -3.697   9.519  1.00  0.00    -0.075 SA
HETATM   18  C17 UNL     1     -20.076  -2.311   8.313  1.00  0.00     0.047 C 
HETATM   19  C16 UNL     1     -18.757  -2.835   7.855  1.00  0.00     0.005 C 
HETATM   20  C15 UNL     1     -18.189  -3.947   8.700  1.00  0.00     0.005 C 
BRANCH  13  21
HETATM   21  C2  UNL     1     -20.084  -5.819  11.872  1.00  0.00     0.296 C 
HETATM   22  O2  UNL     1     -20.343  -7.034  11.752  1.00  0.00    -0.259 OA
BRANCH  21  23
HETATM   23  O1  UNL     1     -19.148  -5.507  12.826  1.00  0.00    -0.322 OA
HETATM   24  C1  UNL     1     -19.298  -4.537  13.813  1.00  0.00     0.213 C 
ENDBRANCH  21  23
ENDBRANCH  13  21
ENDBRANCH   9  12
ENDBRANCH   7   8
ENDBRANCH   1   7
TORSDOF 5
ENDMDL
