MODEL 1
REMARK VINA RESULT: -6.302869026      0.000      0.000
REMARK  6 active torsions:
REMARK  status: ('A' for Active; 'I' for Inactive)
REMARK    1  A    between atoms: C2_2  and  O1_3 
REMARK    2  A    between atoms: O1_3  and  C3_4 
REMARK       I    between atoms: C3_4  and  N1_6 
REMARK    3  A    between atoms: N1_6  and  C4_8 
REMARK    4  A    between atoms: C7_12  and  C8_13 
REMARK    5  A    between atoms: C8_13  and  O4_15 
REMARK    6  A    between atoms: O4_15  and  C9_16 
ROOT
HETATM    1  C4  UNL     1     -21.615  -5.754  12.129  1.00  0.00     0.095 A 
HETATM    2  S1  UNL     1     -20.360  -4.536  12.370  1.00  0.00    -0.073 SA
HETATM    3  C5  UNL     1     -19.563  -4.681  10.891  1.00  0.00     0.026 A 
HETATM    4  C6  UNL     1     -20.270  -5.667  10.233  1.00  0.00    -0.021 A 
HETATM    5  C7  UNL     1     -21.321  -6.212  10.895  1.00  0.00     0.080 A 
HETATM    6  C11 UNL     1     -19.672  -5.876   8.875  1.00  0.00     0.077 C 
HETATM    7  C12 UNL     1     -19.696  -4.467   8.241  1.00  0.00     0.316 C 
HETATM    8  N2  UNL     1     -18.654  -3.682   8.859  1.00  0.00     0.014 N 
HETATM    9  C13 UNL     1     -19.115  -2.287   8.862  1.00  0.00     0.356 C 
HETATM   10  O5  UNL     1     -17.545  -3.732   8.087  1.00  0.00    -0.065 OA
HETATM   11  C14 UNL     1     -18.375  -4.044  10.202  1.00  0.00     0.358 C 
ENDROOT
BRANCH   1  12
HETATM   12  N1  UNL     1     -22.545  -5.993  13.161  1.00  0.00    -0.296 N 
HETATM   13  C3  UNL     1     -22.384  -6.443  14.456  1.00  0.00     0.365 C 
HETATM   14  O2  UNL     1     -21.328  -6.785  14.977  1.00  0.00    -0.238 OA
ATOM     15  H1  UNL     1     -23.513  -5.798  12.904  1.00  0.00     0.171 HD
BRANCH  13  16
HETATM   16  O1  UNL     1     -23.515  -6.535  15.297  1.00  0.00    -0.304 OA
BRANCH  16  17
HETATM   17  C2  UNL     1     -24.764  -6.866  14.747  1.00  0.00     0.176 C 
HETATM   18  C1  UNL     1     -25.918  -6.485  15.614  1.00  0.00     0.034 C 
ENDBRANCH  16  17
ENDBRANCH  13  16
ENDBRANCH   1  12
BRANCH   5  19
HETATM   19  C8  UNL     1     -21.917  -7.469  10.377  1.00  0.00     0.296 C 
HETATM   20  O3  UNL     1     -21.238  -8.552  10.340  1.00  0.00    -0.259 OA
BRANCH  19  21
HETATM   21  O4  UNL     1     -23.189  -7.584   9.929  1.00  0.00    -0.318 OA
BRANCH  21  22
HETATM   22  C9  UNL     1     -24.234  -8.168  10.682  1.00  0.00     0.174 C 
HETATM   23  C10 UNL     1     -25.212  -7.075  11.060  1.00  0.00     0.034 C 
ENDBRANCH  21  22
ENDBRANCH  19  21
ENDBRANCH   5  19
TORSDOF 6
ENDMDL
MODEL 2
REMARK VINA RESULT: -6.246781155      2.962      4.384
REMARK  6 active torsions:
REMARK  status: ('A' for Active; 'I' for Inactive)
REMARK    1  A    between atoms: C2_2  and  O1_3 
REMARK    2  A    between atoms: O1_3  and  C3_4 
REMARK       I    between atoms: C3_4  and  N1_6 
REMARK    3  A    between atoms: N1_6  and  C4_8 
REMARK    4  A    between atoms: C7_12  and  C8_13 
REMARK    5  A    between atoms: C8_13  and  O4_15 
REMARK    6  A    between atoms: O4_15  and  C9_16 
ROOT
HETATM    1  C4  UNL     1     -21.917  -4.837  11.297  1.00  0.00     0.095 A 
HETATM    2  S1  UNL     1     -20.884  -4.934  12.725  1.00  0.00    -0.073 SA
HETATM    3  C5  UNL     1     -19.708  -3.812  12.278  1.00  0.00     0.026 A 
HETATM    4  C6  UNL     1     -20.123  -3.380  11.034  1.00  0.00    -0.021 A 
HETATM    5  C7  UNL     1     -21.262  -3.929  10.544  1.00  0.00     0.080 A 
HETATM    6  C11 UNL     1     -19.163  -2.346  10.529  1.00  0.00     0.077 C 
HETATM    7  C12 UNL     1     -19.136  -1.288  11.656  1.00  0.00     0.316 C 
HETATM    8  N2  UNL     1     -18.372  -1.827  12.755  1.00  0.00     0.014 N 
HETATM    9  C13 UNL     1     -18.934  -1.257  13.987  1.00  0.00     0.356 C 
HETATM   10  O5  UNL     1     -17.095  -1.391  12.663  1.00  0.00    -0.065 OA
HETATM   11  C14 UNL     1     -18.437  -3.240  12.868  1.00  0.00     0.358 C 
ENDROOT
BRANCH   1  12
HETATM   12  N1  UNL     1     -23.069  -5.648  11.226  1.00  0.00    -0.296 N 
HETATM   13  C3  UNL     1     -24.393  -5.342  10.985  1.00  0.00     0.365 C 
HETATM   14  O2  UNL     1     -24.858  -4.220  10.817  1.00  0.00    -0.238 OA
ATOM     15  H1  UNL     1     -22.890  -6.640  11.381  1.00  0.00     0.171 HD
BRANCH  13  16
HETATM   16  O1  UNL     1     -25.338  -6.389  10.917  1.00  0.00    -0.304 OA
BRANCH  16  17
HETATM   17  C2  UNL     1     -26.490  -6.339  11.718  1.00  0.00     0.176 C 
HETATM   18  C1  UNL     1     -26.215  -6.536  13.173  1.00  0.00     0.034 C 
ENDBRANCH  16  17
ENDBRANCH  13  16
ENDBRANCH   1  12
BRANCH   5  19
HETATM   19  C8  UNL     1     -21.585  -3.741   9.108  1.00  0.00     0.296 C 
HETATM   20  O3  UNL     1     -21.506  -4.716   8.284  1.00  0.00    -0.259 OA
BRANCH  19  21
HETATM   21  O4  UNL     1     -21.993  -2.571   8.562  1.00  0.00    -0.318 OA
BRANCH  21  22
HETATM   22  C9  UNL     1     -21.396  -1.987   7.422  1.00  0.00     0.174 C 
HETATM   23  C10 UNL     1     -21.382  -0.485   7.611  1.00  0.00     0.034 C 
ENDBRANCH  21  22
ENDBRANCH  19  21
ENDBRANCH   5  19
TORSDOF 6
ENDMDL
MODEL 3
REMARK VINA RESULT: -6.228637097      1.536      1.828
REMARK  6 active torsions:
REMARK  status: ('A' for Active; 'I' for Inactive)
REMARK    1  A    between atoms: C2_2  and  O1_3 
REMARK    2  A    between atoms: O1_3  and  C3_4 
REMARK       I    between atoms: C3_4  and  N1_6 
REMARK    3  A    between atoms: N1_6  and  C4_8 
REMARK    4  A    between atoms: C7_12  and  C8_13 
REMARK    5  A    between atoms: C8_13  and  O4_15 
REMARK    6  A    between atoms: O4_15  and  C9_16 
ROOT
HETATM    1  C4  UNL     1     -22.430  -5.968  12.918  1.00  0.00     0.095 A 
HETATM    2  S1  UNL     1     -20.845  -5.602  13.601  1.00  0.00    -0.073 SA
HETATM    3  C5  UNL     1     -20.055  -5.119  12.193  1.00  0.00     0.026 A 
HETATM    4  C6  UNL     1     -21.019  -5.251  11.214  1.00  0.00    -0.021 A 
HETATM    5  C7  UNL     1     -22.237  -5.698  11.610  1.00  0.00     0.080 A 
HETATM    6  C11 UNL     1     -20.445  -4.822   9.898  1.00  0.00     0.077 C 
HETATM    7  C12 UNL     1     -19.926  -3.391  10.172  1.00  0.00     0.316 C 
HETATM    8  N2  UNL     1     -18.717  -3.497  10.954  1.00  0.00     0.014 N 
HETATM    9  C13 UNL     1     -18.653  -2.302  11.806  1.00  0.00     0.356 C 
HETATM   10  O5  UNL     1     -17.649  -3.452  10.126  1.00  0.00    -0.065 OA
HETATM   11  C14 UNL     1     -18.675  -4.633  11.804  1.00  0.00     0.358 C 
ENDROOT
BRANCH   1  12
HETATM   12  N1  UNL     1     -23.452  -6.438  13.769  1.00  0.00    -0.296 N 
HETATM   13  C3  UNL     1     -23.424  -6.892  15.073  1.00  0.00     0.365 C 
HETATM   14  O2  UNL     1     -22.427  -7.020  15.773  1.00  0.00    -0.238 OA
ATOM     15  H1  UNL     1     -24.379  -6.444  13.344  1.00  0.00     0.171 HD
BRANCH  13  16
HETATM   16  O1  UNL     1     -24.638  -7.253  15.699  1.00  0.00    -0.304 OA
BRANCH  16  17
HETATM   17  C2  UNL     1     -25.655  -6.296  15.845  1.00  0.00     0.176 C 
HETATM   18  C1  UNL     1     -26.816  -6.514  14.931  1.00  0.00     0.034 C 
ENDBRANCH  16  17
ENDBRANCH  13  16
ENDBRANCH   1  12
BRANCH   5  19
HETATM   19  C8  UNL     1     -23.202  -6.149  10.578  1.00  0.00     0.296 C 
HETATM   20  O3  UNL     1     -23.013  -7.235   9.931  1.00  0.00    -0.259 OA
BRANCH  19  21
HETATM   21  O4  UNL     1     -24.338  -5.487  10.252  1.00  0.00    -0.318 OA
BRANCH  21  22
HETATM   22  C9  UNL     1     -25.422  -5.308  11.141  1.00  0.00     0.174 C 
HETATM   23  C10 UNL     1     -26.074  -6.655  11.371  1.00  0.00     0.034 C 
ENDBRANCH  21  22
ENDBRANCH  19  21
ENDBRANCH   5  19
TORSDOF 6
ENDMDL
MODEL 4
REMARK VINA RESULT: -6.173721232      1.422      1.759
REMARK  6 active torsions:
REMARK  status: ('A' for Active; 'I' for Inactive)
REMARK    1  A    between atoms: C2_2  and  O1_3 
REMARK    2  A    between atoms: O1_3  and  C3_4 
REMARK       I    between atoms: C3_4  and  N1_6 
REMARK    3  A    between atoms: N1_6  and  C4_8 
REMARK    4  A    between atoms: C7_12  and  C8_13 
REMARK    5  A    between atoms: C8_13  and  O4_15 
REMARK    6  A    between atoms: O4_15  and  C9_16 
ROOT
HETATM    1  C4  UNL     1     -22.573  -6.294  12.640  1.00  0.00     0.095 A 
HETATM    2  S1  UNL     1     -20.863  -5.895  12.827  1.00  0.00    -0.073 SA
HETATM    3  C5  UNL     1     -20.346  -6.199  11.252  1.00  0.00     0.026 A 
HETATM    4  C6  UNL     1     -21.494  -6.608  10.603  1.00  0.00    -0.021 A 
HETATM    5  C7  UNL     1     -22.631  -6.657  11.342  1.00  0.00     0.080 A 
HETATM    6  C11 UNL     1     -21.172  -6.888   9.166  1.00  0.00     0.077 C 
HETATM    7  C12 UNL     1     -20.527  -5.573   8.671  1.00  0.00     0.316 C 
HETATM    8  N2  UNL     1     -19.194  -5.496   9.219  1.00  0.00     0.014 N 
HETATM    9  C13 UNL     1     -18.891  -4.071   9.407  1.00  0.00     0.356 C 
HETATM   10  O5  UNL     1     -18.313  -5.972   8.310  1.00  0.00    -0.065 OA
HETATM   11  C14 UNL     1     -19.047  -6.136  10.477  1.00  0.00     0.358 C 
ENDROOT
BRANCH   1  12
HETATM   12  N1  UNL     1     -23.428  -6.191  13.756  1.00  0.00    -0.296 N 
HETATM   13  C3  UNL     1     -23.277  -6.595  15.068  1.00  0.00     0.365 C 
HETATM   14  O2  UNL     1     -22.319  -7.202  15.533  1.00  0.00    -0.238 OA
ATOM     15  H1  UNL     1     -24.319  -5.735  13.559  1.00  0.00     0.171 HD
BRANCH  13  16
HETATM   16  O1  UNL     1     -24.299  -6.303  15.997  1.00  0.00    -0.304 OA
BRANCH  16  17
HETATM   17  C2  UNL     1     -25.531  -6.970  15.908  1.00  0.00     0.176 C 
HETATM   18  C1  UNL     1     -26.606  -6.157  15.265  1.00  0.00     0.034 C 
ENDBRANCH  16  17
ENDBRANCH  13  16
ENDBRANCH   1  12
BRANCH   5  19
HETATM   19  C8  UNL     1     -23.809  -7.372  10.792  1.00  0.00     0.296 C 
HETATM   20  O3  UNL     1     -23.811  -8.646  10.681  1.00  0.00    -0.259 OA
BRANCH  19  21
HETATM   21  O4  UNL     1     -24.952  -6.768  10.391  1.00  0.00    -0.318 OA
BRANCH  21  22
HETATM   22  C9  UNL     1     -25.662  -5.833  11.178  1.00  0.00     0.174 C 
HETATM   23  C10 UNL     1     -26.802  -6.557  11.861  1.00  0.00     0.034 C 
ENDBRANCH  21  22
ENDBRANCH  19  21
ENDBRANCH   5  19
TORSDOF 6
ENDMDL
MODEL 5
REMARK VINA RESULT: -6.141714078      2.624      4.100
REMARK  6 active torsions:
REMARK  status: ('A' for Active; 'I' for Inactive)
REMARK    1  A    between atoms: C2_2  and  O1_3 
REMARK    2  A    between atoms: O1_3  and  C3_4 
REMARK       I    between atoms: C3_4  and  N1_6 
REMARK    3  A    between atoms: N1_6  and  C4_8 
REMARK    4  A    between atoms: C7_12  and  C8_13 
REMARK    5  A    between atoms: C8_13  and  O4_15 
REMARK    6  A    between atoms: O4_15  and  C9_16 
ROOT
HETATM    1  C4  UNL     1     -22.366  -6.321  12.698  1.00  0.00     0.095 A 
HETATM    2  S1  UNL     1     -22.852  -6.903  11.104  1.00  0.00    -0.073 SA
HETATM    3  C5  UNL     1     -21.344  -6.900  10.350  1.00  0.00     0.026 A 
HETATM    4  C6  UNL     1     -20.487  -6.446  11.333  1.00  0.00    -0.021 A 
HETATM    5  C7  UNL     1     -21.038  -6.146  12.535  1.00  0.00     0.080 A 
HETATM    6  C11 UNL     1     -19.090  -6.421  10.792  1.00  0.00     0.077 C 
HETATM    7  C12 UNL     1     -18.864  -7.865  10.288  1.00  0.00     0.316 C 
HETATM    8  N2  UNL     1     -19.608  -8.031   9.063  1.00  0.00     0.014 N 
HETATM    9  C13 UNL     1     -20.016  -9.441   8.998  1.00  0.00     0.356 C 
HETATM   10  O5  UNL     1     -18.786  -7.808   8.012  1.00  0.00    -0.065 OA
HETATM   11  C14 UNL     1     -20.783  -7.240   8.986  1.00  0.00     0.358 C 
ENDROOT
BRANCH   1  12
HETATM   12  N1  UNL     1     -23.349  -6.151  13.695  1.00  0.00    -0.296 N 
HETATM   13  C3  UNL     1     -23.388  -6.540  15.020  1.00  0.00     0.365 C 
HETATM   14  O2  UNL     1     -22.533  -7.191  15.609  1.00  0.00    -0.238 OA
ATOM     15  H1  UNL     1     -24.180  -5.650  13.382  1.00  0.00     0.171 HD
BRANCH  13  16
HETATM   16  O1  UNL     1     -24.501  -6.175  15.808  1.00  0.00    -0.304 OA
BRANCH  16  17
HETATM   17  C2  UNL     1     -25.690  -6.918  15.719  1.00  0.00     0.176 C 
HETATM   18  C1  UNL     1     -26.632  -6.416  14.675  1.00  0.00     0.034 C 
ENDBRANCH  16  17
ENDBRANCH  13  16
ENDBRANCH   1  12
BRANCH   5  19
HETATM   19  C8  UNL     1     -20.236  -5.373  13.515  1.00  0.00     0.296 C 
HETATM   20  O3  UNL     1     -19.758  -5.933  14.560  1.00  0.00    -0.259 OA
BRANCH  19  21
HETATM   21  O4  UNL     1     -19.933  -4.059  13.389  1.00  0.00    -0.318 OA
BRANCH  21  22
HETATM   22  C9  UNL     1     -18.614  -3.553  13.420  1.00  0.00     0.174 C 
HETATM   23  C10 UNL     1     -18.305  -2.952  12.065  1.00  0.00     0.034 C 
ENDBRANCH  21  22
ENDBRANCH  19  21
ENDBRANCH   5  19
TORSDOF 6
ENDMDL
