MODEL 1
REMARK VINA RESULT: -8.101908218      0.000      0.000
REMARK  3 active torsions:
REMARK  status: ('A' for Active; 'I' for Inactive)
REMARK    1  A    between atoms: C6_10  and  C8_12 
REMARK    2  A    between atoms: C8_12  and  N3_13 
REMARK    3  A    between atoms: N3_13  and  C9_16 
ROOT
HETATM    1  C1  UNL     1     -25.532  -7.157  15.711  1.00  0.00     0.070 C 
HETATM    2  C2  UNL     1     -24.475  -6.755  14.709  1.00  0.00     0.022 A 
HETATM    3  C3  UNL     1     -24.763  -6.660  13.373  1.00  0.00     0.036 A 
HETATM    4  C4  UNL     1     -23.740  -6.280  12.481  1.00  0.00    -0.019 A 
HETATM    5  C5  UNL     1     -22.493  -6.018  12.971  1.00  0.00     0.069 A 
HETATM    6  N1  UNL     1     -22.257  -6.122  14.276  1.00  0.00    -0.301 N 
ATOM      7  H1  UNL     1     -21.324  -5.924  14.638  1.00  0.00     0.186 HD
HETATM    8  N2  UNL     1     -23.222  -6.480  15.109  1.00  0.00    -0.305 N 
ATOM      9  H2  UNL     1     -23.004  -6.550  16.103  1.00  0.00     0.186 HD
HETATM   10  C6  UNL     1     -21.409  -5.613  12.049  1.00  0.00     0.125 C 
HETATM   11  C7  UNL     1     -20.738  -6.885  11.569  1.00  0.00     0.055 C 
HETATM   12  O2  UNL     1     -21.921  -4.974  10.927  1.00  0.00    -0.371 OA
HETATM   13  C16 UNL     1     -22.864  -5.725  10.274  1.00  0.00     0.183 C 
HETATM   14  C17 UNL     1     -24.035  -6.178  11.057  1.00  0.00     0.003 C 
HETATM   15  C18 UNL     1     -24.637  -7.457  10.494  1.00  0.00     0.022 C 
HETATM   16  C19 UNL     1     -25.126  -5.110  10.875  1.00  0.00     0.022 C 
ENDROOT
BRANCH  10  17
HETATM   17  C8  UNL     1     -20.418  -4.772  12.794  1.00  0.00     0.276 C 
BRANCH  17  18
HETATM   18  N3  UNL     1     -19.105  -4.948  12.229  1.00  0.00    -0.068 N 
ATOM     19  H32 UNL     1     -18.574  -5.658  12.732  1.00  0.00     0.277 HD
ATOM     20  H31 UNL     1     -19.150  -5.402  11.316  1.00  0.00     0.277 HD
BRANCH  18  21
HETATM   21  C9  UNL     1     -18.379  -3.678  12.163  1.00  0.00     0.191 C 
HETATM   22  C10 UNL     1     -19.182  -2.731  11.306  1.00  0.00     0.059 C 
HETATM   23  C11 UNL     1     -18.833  -1.306  11.534  1.00  0.00     0.170 C 
HETATM   24  O1  UNL     1     -17.676  -1.108  12.266  1.00  0.00    -0.381 OA
HETATM   25  C12 UNL     1     -17.724  -1.678  13.531  1.00  0.00     0.055 C 
HETATM   26  C13 UNL     1     -16.311  -1.631  14.075  1.00  0.00     0.045 C 
HETATM   27  C14 UNL     1     -18.562  -0.819  14.482  1.00  0.00     0.045 C 
HETATM   28  C15 UNL     1     -18.192  -3.097  13.539  1.00  0.00     0.070 C 
ENDBRANCH  18  21
ENDBRANCH  17  18
ENDBRANCH  10  17
TORSDOF 3
ENDMDL
MODEL 2
REMARK VINA RESULT: -7.304550127      1.773      2.371
REMARK  3 active torsions:
REMARK  status: ('A' for Active; 'I' for Inactive)
REMARK    1  A    between atoms: C6_10  and  C8_12 
REMARK    2  A    between atoms: C8_12  and  N3_13 
REMARK    3  A    between atoms: N3_13  and  C9_16 
ROOT
HETATM    1  C1  UNL     1     -26.242  -6.545  11.550  1.00  0.00     0.070 C 
HETATM    2  C2  UNL     1     -24.744  -6.480  11.370  1.00  0.00     0.022 A 
HETATM    3  C3  UNL     1     -24.086  -7.369  10.562  1.00  0.00     0.036 A 
HETATM    4  C4  UNL     1     -22.687  -7.263  10.429  1.00  0.00    -0.019 A 
HETATM    5  C5  UNL     1     -22.026  -6.280  11.107  1.00  0.00     0.069 A 
HETATM    6  N1  UNL     1     -22.705  -5.436  11.880  1.00  0.00    -0.301 N 
ATOM      7  H1  UNL     1     -22.208  -4.701  12.384  1.00  0.00     0.186 HD
HETATM    8  N2  UNL     1     -24.019  -5.541  12.001  1.00  0.00    -0.305 N 
ATOM      9  H2  UNL     1     -24.505  -4.877  12.604  1.00  0.00     0.186 HD
HETATM   10  C6  UNL     1     -20.559  -6.150  10.974  1.00  0.00     0.125 C 
HETATM   11  C7  UNL     1     -19.939  -7.030  12.042  1.00  0.00     0.055 C 
HETATM   12  O2  UNL     1     -20.124  -6.634   9.746  1.00  0.00    -0.371 OA
HETATM   13  C16 UNL     1     -20.526  -7.924   9.512  1.00  0.00     0.183 C 
HETATM   14  C17 UNL     1     -21.977  -8.206   9.574  1.00  0.00     0.003 C 
HETATM   15  C18 UNL     1     -22.261  -9.655   9.942  1.00  0.00     0.022 C 
HETATM   16  C19 UNL     1     -22.518  -8.047   8.142  1.00  0.00     0.022 C 
ENDROOT
BRANCH  10  17
HETATM   17  C8  UNL     1     -20.167  -4.724  11.208  1.00  0.00     0.276 C 
BRANCH  17  18
HETATM   18  N3  UNL     1     -19.273  -4.642  12.334  1.00  0.00    -0.068 N 
ATOM     19  H32 UNL     1     -19.780  -4.698  13.218  1.00  0.00     0.277 HD
ATOM     20  H31 UNL     1     -18.706  -5.484  12.423  1.00  0.00     0.277 HD
BRANCH  18  21
HETATM   21  C9  UNL     1     -18.442  -3.438  12.268  1.00  0.00     0.191 C 
HETATM   22  C10 UNL     1     -19.180  -2.412  11.445  1.00  0.00     0.059 C 
HETATM   23  C11 UNL     1     -18.703  -1.026  11.683  1.00  0.00     0.170 C 
HETATM   24  O1  UNL     1     -17.517  -0.941  12.389  1.00  0.00    -0.381 OA
HETATM   25  C12 UNL     1     -17.585  -1.524  13.648  1.00  0.00     0.055 C 
HETATM   26  C13 UNL     1     -16.161  -1.607  14.157  1.00  0.00     0.045 C 
HETATM   27  C14 UNL     1     -18.322  -0.610  14.630  1.00  0.00     0.045 C 
HETATM   28  C15 UNL     1     -18.173  -2.897  13.647  1.00  0.00     0.070 C 
ENDBRANCH  18  21
ENDBRANCH  17  18
ENDBRANCH  10  17
TORSDOF 3
ENDMDL
MODEL 3
REMARK VINA RESULT: -7.116560736      1.375      1.854
REMARK  3 active torsions:
REMARK  status: ('A' for Active; 'I' for Inactive)
REMARK    1  A    between atoms: C6_10  and  C8_12 
REMARK    2  A    between atoms: C8_12  and  N3_13 
REMARK    3  A    between atoms: N3_13  and  C9_16 
ROOT
HETATM    1  C1  UNL     1     -25.821  -6.973  15.885  1.00  0.00     0.070 C 
HETATM    2  C2  UNL     1     -24.772  -6.692  14.836  1.00  0.00     0.022 A 
HETATM    3  C3  UNL     1     -25.101  -6.591  13.511  1.00  0.00     0.036 A 
HETATM    4  C4  UNL     1     -24.083  -6.327  12.573  1.00  0.00    -0.019 A 
HETATM    5  C5  UNL     1     -22.798  -6.180  13.010  1.00  0.00     0.069 A 
HETATM    6  N1  UNL     1     -22.521  -6.285  14.307  1.00  0.00    -0.301 N 
ATOM      7  H1  UNL     1     -21.560  -6.172  14.630  1.00  0.00     0.186 HD
HETATM    8  N2  UNL     1     -23.483  -6.533  15.183  1.00  0.00    -0.305 N 
ATOM      9  H2  UNL     1     -23.233  -6.608  16.169  1.00  0.00     0.186 HD
HETATM   10  C6  UNL     1     -21.717  -5.897  12.040  1.00  0.00     0.125 C 
HETATM   11  C7  UNL     1     -21.192  -7.236  11.561  1.00  0.00     0.055 C 
HETATM   12  O2  UNL     1     -22.209  -5.230  10.925  1.00  0.00    -0.371 OA
HETATM   13  C16 UNL     1     -23.246  -5.896  10.324  1.00  0.00     0.183 C 
HETATM   14  C17 UNL     1     -24.422  -6.220  11.159  1.00  0.00     0.003 C 
HETATM   15  C18 UNL     1     -25.167  -7.443  10.645  1.00  0.00     0.022 C 
HETATM   16  C19 UNL     1     -25.412  -5.054  10.998  1.00  0.00     0.022 C 
ENDROOT
BRANCH  10  17
HETATM   17  C8  UNL     1     -20.621  -5.145  12.730  1.00  0.00     0.276 C 
BRANCH  17  18
HETATM   18  N3  UNL     1     -19.348  -5.507  12.162  1.00  0.00    -0.068 N 
ATOM     19  H32 UNL     1     -18.722  -5.898  12.866  1.00  0.00     0.277 HD
ATOM     20  H31 UNL     1     -19.428  -6.321  11.553  1.00  0.00     0.277 HD
BRANCH  18  21
HETATM   21  C9  UNL     1     -18.733  -4.374  11.466  1.00  0.00     0.191 C 
HETATM   22  C10 UNL     1     -18.576  -4.754  10.015  1.00  0.00     0.059 C 
HETATM   23  C11 UNL     1     -18.421  -3.578   9.121  1.00  0.00     0.170 C 
HETATM   24  O1  UNL     1     -18.178  -2.386   9.779  1.00  0.00    -0.381 OA
HETATM   25  C12 UNL     1     -19.183  -2.036  10.670  1.00  0.00     0.055 C 
HETATM   26  C13 UNL     1     -18.638  -0.894  11.502  1.00  0.00     0.045 C 
HETATM   27  C14 UNL     1     -20.393  -1.465   9.926  1.00  0.00     0.045 C 
HETATM   28  C15 UNL     1     -19.591  -3.143  11.587  1.00  0.00     0.070 C 
ENDBRANCH  18  21
ENDBRANCH  17  18
ENDBRANCH  10  17
TORSDOF 3
ENDMDL
MODEL 4
REMARK VINA RESULT: -6.998904433      1.855      2.776
REMARK  3 active torsions:
REMARK  status: ('A' for Active; 'I' for Inactive)
REMARK    1  A    between atoms: C6_10  and  C8_12 
REMARK    2  A    between atoms: C8_12  and  N3_13 
REMARK    3  A    between atoms: N3_13  and  C9_16 
ROOT
HETATM    1  C1  UNL     1     -25.489  -7.095  15.957  1.00  0.00     0.070 C 
HETATM    2  C2  UNL     1     -24.537  -6.749  14.837  1.00  0.00     0.022 A 
HETATM    3  C3  UNL     1     -24.965  -6.674  13.538  1.00  0.00     0.036 A 
HETATM    4  C4  UNL     1     -24.035  -6.346  12.531  1.00  0.00    -0.019 A 
HETATM    5  C5  UNL     1     -22.735  -6.112  12.876  1.00  0.00     0.069 A 
HETATM    6  N1  UNL     1     -22.361  -6.195  14.150  1.00  0.00    -0.301 N 
ATOM      7  H1  UNL     1     -21.389  -6.018  14.404  1.00  0.00     0.186 HD
HETATM    8  N2  UNL     1     -23.240  -6.504  15.091  1.00  0.00    -0.305 N 
ATOM      9  H2  UNL     1     -22.917  -6.559  16.057  1.00  0.00     0.186 HD
HETATM   10  C6  UNL     1     -21.747  -5.761  11.832  1.00  0.00     0.125 C 
HETATM   11  C7  UNL     1     -21.169  -7.064  11.315  1.00  0.00     0.055 C 
HETATM   12  O2  UNL     1     -22.360  -5.132  10.756  1.00  0.00    -0.371 OA
HETATM   13  C16 UNL     1     -23.390  -5.867  10.229  1.00  0.00     0.183 C 
HETATM   14  C17 UNL     1     -24.480  -6.266  11.145  1.00  0.00     0.003 C 
HETATM   15  C18 UNL     1     -25.177  -7.536  10.682  1.00  0.00     0.022 C 
HETATM   16  C19 UNL     1     -25.554  -5.168  11.056  1.00  0.00     0.022 C 
ENDROOT
BRANCH  10  17
HETATM   17  C8  UNL     1     -20.657  -4.937  12.445  1.00  0.00     0.276 C 
BRANCH  17  18
HETATM   18  N3  UNL     1     -20.888  -3.542  12.170  1.00  0.00    -0.068 N 
ATOM     19  H32 UNL     1     -21.846  -3.374  11.866  1.00  0.00     0.277 HD
ATOM     20  H31 UNL     1     -20.896  -2.989  13.027  1.00  0.00     0.277 HD
BRANCH  18  21
HETATM   21  C9  UNL     1     -19.918  -3.021  11.205  1.00  0.00     0.191 C 
HETATM   22  C10 UNL     1     -18.760  -3.986  11.147  1.00  0.00     0.059 C 
HETATM   23  C11 UNL     1     -17.955  -3.852   9.906  1.00  0.00     0.170 C 
HETATM   24  O1  UNL     1     -18.228  -2.717   9.165  1.00  0.00    -0.381 OA
HETATM   25  C12 UNL     1     -19.551  -2.637   8.751  1.00  0.00     0.055 C 
HETATM   26  C13 UNL     1     -19.749  -1.231   8.222  1.00  0.00     0.045 C 
HETATM   27  C14 UNL     1     -19.804  -3.565   7.561  1.00  0.00     0.045 C 
HETATM   28  C15 UNL     1     -20.542  -2.881   9.842  1.00  0.00     0.070 C 
ENDBRANCH  18  21
ENDBRANCH  17  18
ENDBRANCH  10  17
TORSDOF 3
ENDMDL
MODEL 5
REMARK VINA RESULT: -6.857014949      2.751      7.026
REMARK  3 active torsions:
REMARK  status: ('A' for Active; 'I' for Inactive)
REMARK    1  A    between atoms: C6_10  and  C8_12 
REMARK    2  A    between atoms: C8_12  and  N3_13 
REMARK    3  A    between atoms: N3_13  and  C9_16 
ROOT
HETATM    1  C1  UNL     1     -22.158  -0.856   7.080  1.00  0.00     0.070 C 
HETATM    2  C2  UNL     1     -21.473  -1.927   7.894  1.00  0.00     0.022 A 
HETATM    3  C3  UNL     1     -20.941  -1.651   9.126  1.00  0.00     0.036 A 
HETATM    4  C4  UNL     1     -20.313  -2.688   9.845  1.00  0.00    -0.019 A 
HETATM    5  C5  UNL     1     -20.250  -3.936   9.295  1.00  0.00     0.069 A 
HETATM    6  N1  UNL     1     -20.780  -4.161   8.096  1.00  0.00    -0.301 N 
ATOM      7  H1  UNL     1     -20.733  -5.095   7.689  1.00  0.00     0.186 HD
HETATM    8  N2  UNL     1     -21.369  -3.182   7.426  1.00  0.00    -0.305 N 
ATOM      9  H2  UNL     1     -21.763  -3.391   6.509  1.00  0.00     0.186 HD
HETATM   10  C6  UNL     1     -19.599  -5.038  10.038  1.00  0.00     0.125 C 
HETATM   11  C7  UNL     1     -18.130  -5.015   9.665  1.00  0.00     0.055 C 
HETATM   12  O2  UNL     1     -19.673  -4.827  11.409  1.00  0.00    -0.371 OA
HETATM   13  C16 UNL     1     -19.164  -3.612  11.788  1.00  0.00     0.183 C 
HETATM   14  C17 UNL     1     -19.741  -2.405  11.156  1.00  0.00     0.003 C 
HETATM   15  C18 UNL     1     -18.752  -1.250  11.123  1.00  0.00     0.022 C 
HETATM   16  C19 UNL     1     -20.879  -1.929  12.075  1.00  0.00     0.022 C 
ENDROOT
BRANCH  10  17
HETATM   17  C8  UNL     1     -20.204  -6.341   9.617  1.00  0.00     0.276 C 
BRANCH  17  18
HETATM   18  N3  UNL     1     -20.988  -6.887  10.695  1.00  0.00    -0.068 N 
ATOM     19  H32 UNL     1     -20.691  -7.834  10.931  1.00  0.00     0.277 HD
ATOM     20  H31 UNL     1     -20.774  -6.430  11.581  1.00  0.00     0.277 HD
BRANCH  18  21
HETATM   21  C9  UNL     1     -22.420  -6.831  10.394  1.00  0.00     0.191 C 
HETATM   22  C10 UNL     1     -22.920  -8.249  10.264  1.00  0.00     0.059 C 
HETATM   23  C11 UNL     1     -24.390  -8.363  10.434  1.00  0.00     0.170 C 
HETATM   24  O1  UNL     1     -25.066  -7.156  10.409  1.00  0.00    -0.381 OA
HETATM   25  C12 UNL     1     -24.652  -6.275  11.399  1.00  0.00     0.055 C 
HETATM   26  C13 UNL     1     -25.262  -4.932  11.058  1.00  0.00     0.045 C 
HETATM   27  C14 UNL     1     -25.246  -6.666  12.755  1.00  0.00     0.045 C 
HETATM   28  C15 UNL     1     -23.169  -6.119  11.489  1.00  0.00     0.070 C 
ENDBRANCH  18  21
ENDBRANCH  17  18
ENDBRANCH  10  17
TORSDOF 3
ENDMDL
