MODEL 1
REMARK VINA RESULT: -6.865698568      0.000      0.000
REMARK  4 active torsions:
REMARK  status: ('A' for Active; 'I' for Inactive)
REMARK    1  A    between atoms: O1_2  and  C2_3 
REMARK    2  A    between atoms: C3_4  and  O2_5 
REMARK    3  A    between atoms: C5_8  and  C6_9 
REMARK    4  A    between atoms: C6_9  and  O3_10 
ROOT
HETATM    1  C2  UNL     1       4.211  -6.818 -10.996  1.00  0.00     0.118 A 
HETATM    2  C3  UNL     1       5.287  -6.316 -10.266  1.00  0.00     0.101 A 
HETATM    3  C4  UNL     1       5.386  -4.954 -10.140  1.00  0.00     0.049 A 
HETATM    4  C5  UNL     1       4.502  -4.046 -10.682  1.00  0.00    -0.020 A 
HETATM    5  C12 UNL     1       3.438  -4.547 -11.405  1.00  0.00     0.032 A 
HETATM    6  C13 UNL     1       3.315  -5.935 -11.546  1.00  0.00     0.047 A 
HETATM    7 BR1  UNL     1       1.859  -6.620 -12.545  1.00  0.00    -0.048 Br
ENDROOT
BRANCH   4   8
HETATM    8  C6  UNL     1       4.683  -2.576 -10.485  1.00  0.00     0.085 C 
HETATM    9  C7  UNL     1       4.382  -1.845 -11.754  1.00  0.00     0.043 C 
HETATM   10  C8  UNL     1       4.010  -0.424 -11.361  1.00  0.00     0.003 C 
HETATM   11  C9  UNL     1       2.614  -0.550 -10.773  1.00  0.00     0.000 C 
HETATM   12  C10 UNL     1       2.714  -1.310  -9.508  1.00  0.00     0.003 C 
HETATM   13  C11 UNL     1       3.959  -2.072  -9.292  1.00  0.00     0.043 C 
BRANCH   8  14
HETATM   14  O3  UNL     1       6.067  -2.394 -10.242  1.00  0.00    -0.385 OA
ATOM     15  H3  UNL     1       6.134  -2.150  -9.326  1.00  0.00     0.211 HD
ENDBRANCH   8  14
ENDBRANCH   4   8
BRANCH   2  16
HETATM   16  O2  UNL     1       6.224  -7.177  -9.693  1.00  0.00    -0.358 OA
ATOM     17  H2  UNL     1       6.606  -6.983  -8.845  1.00  0.00     0.217 HD
ENDBRANCH   2  16
BRANCH   1  18
HETATM   18  O1  UNL     1       4.111  -8.176 -11.127  1.00  0.00    -0.352 OA
HETATM   19  C1  UNL     1       3.456  -9.061 -10.251  1.00  0.00     0.210 C 
ENDBRANCH   1  18
TORSDOF 4
ENDMDL
MODEL 2
REMARK VINA RESULT: -6.860854185     12.132     13.570
REMARK  4 active torsions:
REMARK  status: ('A' for Active; 'I' for Inactive)
REMARK    1  A    between atoms: O1_2  and  C2_3 
REMARK    2  A    between atoms: C3_4  and  O2_5 
REMARK    3  A    between atoms: C5_8  and  C6_9 
REMARK    4  A    between atoms: C6_9  and  O3_10 
ROOT
HETATM    1  C2  UNL     1      -4.842  -0.840 -18.046  1.00  0.00     0.118 A 
HETATM    2  C3  UNL     1      -5.633  -0.080 -18.907  1.00  0.00     0.101 A 
HETATM    3  C4  UNL     1      -5.057   0.363 -20.070  1.00  0.00     0.049 A 
HETATM    4  C5  UNL     1      -3.755   0.114 -20.449  1.00  0.00    -0.020 A 
HETATM    5  C12 UNL     1      -2.976  -0.638 -19.593  1.00  0.00     0.032 A 
HETATM    6  C13 UNL     1      -3.542  -1.103 -18.401  1.00  0.00     0.047 A 
HETATM    7 BR1  UNL     1      -2.467  -2.128 -17.224  1.00  0.00    -0.048 Br
ENDROOT
BRANCH   4   8
HETATM    8  C6  UNL     1      -3.213   0.629 -21.743  1.00  0.00     0.085 C 
HETATM    9  C7  UNL     1      -3.714   2.015 -21.995  1.00  0.00     0.043 C 
HETATM   10  C8  UNL     1      -2.720   2.672 -22.940  1.00  0.00     0.003 C 
HETATM   11  C9  UNL     1      -1.511   2.967 -22.066  1.00  0.00     0.000 C 
HETATM   12  C10 UNL     1      -0.905   1.678 -21.669  1.00  0.00     0.003 C 
HETATM   13  C11 UNL     1      -1.740   0.474 -21.840  1.00  0.00     0.043 C 
BRANCH   8  14
HETATM   14  O3  UNL     1      -3.787  -0.189 -22.747  1.00  0.00    -0.385 OA
ATOM     15  H3  UNL     1      -3.324   0.029 -23.547  1.00  0.00     0.211 HD
ENDBRANCH   8  14
ENDBRANCH   4   8
BRANCH   2  16
HETATM   16  O2  UNL     1      -6.958   0.215 -18.584  1.00  0.00    -0.358 OA
ATOM     17  H2  UNL     1      -7.544   0.587 -19.233  1.00  0.00     0.217 HD
ENDBRANCH   2  16
BRANCH   1  18
HETATM   18  O1  UNL     1      -5.412  -1.281 -16.883  1.00  0.00    -0.352 OA
HETATM   19  C1  UNL     1      -5.380  -0.636 -15.632  1.00  0.00     0.210 C 
ENDBRANCH   1  18
TORSDOF 4
ENDMDL
MODEL 3
REMARK VINA RESULT: -6.810726049     11.604     12.782
REMARK  4 active torsions:
REMARK  status: ('A' for Active; 'I' for Inactive)
REMARK    1  A    between atoms: O1_2  and  C2_3 
REMARK    2  A    between atoms: C3_4  and  O2_5 
REMARK    3  A    between atoms: C5_8  and  C6_9 
REMARK    4  A    between atoms: C6_9  and  O3_10 
ROOT
HETATM    1  C2  UNL     1      -3.606  -2.194 -18.344  1.00  0.00     0.118 A 
HETATM    2  C3  UNL     1      -2.936  -2.586 -19.503  1.00  0.00     0.101 A 
HETATM    3  C4  UNL     1      -2.829  -1.666 -20.514  1.00  0.00     0.049 A 
HETATM    4  C5  UNL     1      -3.334  -0.384 -20.470  1.00  0.00    -0.020 A 
HETATM    5  C12 UNL     1      -3.998  -0.001 -19.322  1.00  0.00     0.032 A 
HETATM    6  C13 UNL     1      -4.119  -0.922 -18.275  1.00  0.00     0.047 A 
HETATM    7 BR1  UNL     1      -5.037  -0.396 -16.704  1.00  0.00    -0.048 Br
ENDROOT
BRANCH   4   8
HETATM    8  C6  UNL     1      -3.161   0.557 -21.618  1.00  0.00     0.085 C 
HETATM    9  C7  UNL     1      -3.854   1.850 -21.333  1.00  0.00     0.043 C 
HETATM   10  C8  UNL     1      -3.179   2.905 -22.195  1.00  0.00     0.003 C 
HETATM   11  C9  UNL     1      -1.843   3.148 -21.513  1.00  0.00     0.000 C 
HETATM   12  C10 UNL     1      -1.025   1.924 -21.653  1.00  0.00     0.003 C 
HETATM   13  C11 UNL     1      -1.742   0.691 -22.030  1.00  0.00     0.043 C 
BRANCH   8  14
HETATM   14  O3  UNL     1      -3.857  -0.035 -22.701  1.00  0.00    -0.385 OA
ATOM     15  H3  UNL     1      -4.772   0.181 -22.563  1.00  0.00     0.211 HD
ENDBRANCH   8  14
ENDBRANCH   4   8
BRANCH   2  16
HETATM   16  O2  UNL     1      -2.403  -3.870 -19.618  1.00  0.00    -0.358 OA
ATOM     17  H2  UNL     1      -2.520  -4.375 -20.415  1.00  0.00     0.217 HD
ENDBRANCH   2  16
BRANCH   1  18
HETATM   18  O1  UNL     1      -3.719  -3.111 -17.335  1.00  0.00    -0.352 OA
HETATM   19  C1  UNL     1      -2.853  -3.265 -16.236  1.00  0.00     0.210 C 
ENDBRANCH   1  18
TORSDOF 4
ENDMDL
MODEL 4
REMARK VINA RESULT: -6.792719138     12.241     14.050
REMARK  4 active torsions:
REMARK  status: ('A' for Active; 'I' for Inactive)
REMARK    1  A    between atoms: O1_2  and  C2_3 
REMARK    2  A    between atoms: C3_4  and  O2_5 
REMARK    3  A    between atoms: C5_8  and  C6_9 
REMARK    4  A    between atoms: C6_9  and  O3_10 
ROOT
HETATM    1  C2  UNL     1      -2.165   2.052 -22.237  1.00  0.00     0.118 A 
HETATM    2  C3  UNL     1      -1.768   1.970 -20.903  1.00  0.00     0.101 A 
HETATM    3  C4  UNL     1      -2.278   0.943 -20.152  1.00  0.00     0.049 A 
HETATM    4  C5  UNL     1      -3.156  -0.013 -20.617  1.00  0.00    -0.020 A 
HETATM    5  C12 UNL     1      -3.547   0.072 -21.938  1.00  0.00     0.032 A 
HETATM    6  C13 UNL     1      -3.038   1.111 -22.726  1.00  0.00     0.047 A 
HETATM    7 BR1  UNL     1      -3.584   1.231 -24.536  1.00  0.00    -0.048 Br
ENDROOT
BRANCH   4   8
HETATM    8  C6  UNL     1      -3.654  -1.106 -19.728  1.00  0.00     0.085 C 
HETATM    9  C7  UNL     1      -2.798  -1.207 -18.507  1.00  0.00     0.043 C 
HETATM   10  C8  UNL     1      -3.648  -1.866 -17.432  1.00  0.00     0.003 C 
HETATM   11  C9  UNL     1      -4.619  -0.777 -17.003  1.00  0.00     0.000 C 
HETATM   12  C10 UNL     1      -5.532  -0.503 -18.133  1.00  0.00     0.003 C 
HETATM   13  C11 UNL     1      -5.109  -0.995 -19.459  1.00  0.00     0.043 C 
BRANCH   8  14
HETATM   14  O3  UNL     1      -3.453  -2.306 -20.454  1.00  0.00    -0.385 OA
ATOM     15  H3  UNL     1      -2.607  -2.209 -20.875  1.00  0.00     0.211 HD
ENDBRANCH   8  14
ENDBRANCH   4   8
BRANCH   2  16
HETATM   16  O2  UNL     1      -0.885   2.907 -20.363  1.00  0.00    -0.358 OA
ATOM     17  H2  UNL     1      -1.203   3.606 -19.803  1.00  0.00     0.217 HD
ENDBRANCH   2  16
BRANCH   1  18
HETATM   18  O1  UNL     1      -1.661   3.078 -22.988  1.00  0.00    -0.352 OA
HETATM   19  C1  UNL     1      -0.494   3.052 -23.775  1.00  0.00     0.210 C 
ENDBRANCH   1  18
TORSDOF 4
ENDMDL
MODEL 5
REMARK VINA RESULT: -6.718046743     12.102     13.878
REMARK  4 active torsions:
REMARK  status: ('A' for Active; 'I' for Inactive)
REMARK    1  A    between atoms: O1_2  and  C2_3 
REMARK    2  A    between atoms: C3_4  and  O2_5 
REMARK    3  A    between atoms: C5_8  and  C6_9 
REMARK    4  A    between atoms: C6_9  and  O3_10 
ROOT
HETATM    1  C2  UNL     1      -2.636   1.762 -21.897  1.00  0.00     0.118 A 
HETATM    2  C3  UNL     1      -3.322   0.648 -22.379  1.00  0.00     0.101 A 
HETATM    3  C4  UNL     1      -3.670  -0.321 -21.473  1.00  0.00     0.049 A 
HETATM    4  C5  UNL     1      -3.392  -0.275 -20.124  1.00  0.00    -0.020 A 
HETATM    5  C12 UNL     1      -2.712   0.829 -19.652  1.00  0.00     0.032 A 
HETATM    6  C13 UNL     1      -2.347   1.833 -20.557  1.00  0.00     0.047 A 
HETATM    7 BR1  UNL     1      -1.407   3.344 -19.907  1.00  0.00    -0.048 Br
ENDROOT
BRANCH   4   8
HETATM    8  C6  UNL     1      -3.819  -1.375 -19.206  1.00  0.00     0.085 C 
HETATM    9  C7  UNL     1      -2.810  -1.560 -18.119  1.00  0.00     0.043 C 
HETATM   10  C8  UNL     1      -3.538  -2.217 -16.957  1.00  0.00     0.003 C 
HETATM   11  C9  UNL     1      -4.384  -1.101 -16.365  1.00  0.00     0.000 C 
HETATM   12  C10 UNL     1      -5.428  -0.744 -17.350  1.00  0.00     0.003 C 
HETATM   13  C11 UNL     1      -5.216  -1.206 -18.735  1.00  0.00     0.043 C 
BRANCH   8  14
HETATM   14  O3  UNL     1      -3.781  -2.556 -19.988  1.00  0.00    -0.385 OA
ATOM     15  H3  UNL     1      -4.439  -3.130 -19.612  1.00  0.00     0.211 HD
ENDBRANCH   8  14
ENDBRANCH   4   8
BRANCH   2  16
HETATM   16  O2  UNL     1      -3.633   0.532 -23.734  1.00  0.00    -0.358 OA
ATOM     17  H2  UNL     1      -3.227  -0.139 -24.270  1.00  0.00     0.217 HD
ENDBRANCH   2  16
BRANCH   1  18
HETATM   18  O1  UNL     1      -2.284   2.729 -22.798  1.00  0.00    -0.352 OA
HETATM   19  C1  UNL     1      -1.077   2.810 -23.518  1.00  0.00     0.210 C 
ENDBRANCH   1  18
TORSDOF 4
ENDMDL
