MODEL 1
REMARK VINA RESULT: -7.600859034      0.000      0.000
REMARK  4 active torsions:
REMARK  status: ('A' for Active; 'I' for Inactive)
REMARK    1  A    between atoms: O1_1  and  C1_3 
REMARK    2  A    between atoms: C3_5  and  O2_6 
REMARK    3  A    between atoms: C4_8  and  C5_9 
REMARK    4  A    between atoms: N1_10  and  C6_12 
ROOT
HETATM    1  C1  UNL     1      -3.584  -2.173 -16.869  1.00  0.00     0.085 A 
HETATM    2  C2  UNL     1      -2.875  -2.652 -17.943  1.00  0.00     0.075 A 
HETATM    3  C3  UNL     1      -3.005  -2.119 -19.219  1.00  0.00     0.080 A 
HETATM    4  C4  UNL     1      -3.871  -1.075 -19.423  1.00  0.00     0.013 A 
HETATM    5  C13 UNL     1      -4.581  -0.606 -18.311  1.00  0.00     0.037 A 
HETATM    6  C14 UNL     1      -4.449  -1.135 -17.056  1.00  0.00     0.045 A 
HETATM    7 BR1  UNL     1      -5.456  -0.436 -15.594  1.00  0.00    -0.048 Br
ENDROOT
BRANCH   4   8
HETATM    8  C5  UNL     1      -4.079  -0.445 -20.722  1.00  0.00     0.097 C 
HETATM    9  N1  UNL     1      -3.140   0.276 -21.204  1.00  0.00    -0.393 N 
ATOM     10  H1  UNL     1      -2.294   0.364 -20.640  1.00  0.00     0.159 HD
BRANCH   9  11
HETATM   11  C6  UNL     1      -3.153   0.966 -22.447  1.00  0.00     0.089 C 
HETATM   12  C7  UNL     1      -3.484   2.460 -22.282  1.00  0.00     0.009 C 
HETATM   13  C8  UNL     1      -2.967   3.007 -23.584  1.00  0.00     0.007 C 
HETATM   14  C12 UNL     1      -2.497   2.802 -21.207  1.00  0.00     0.007 C 
HETATM   15  C9  UNL     1      -1.837   2.075 -24.032  1.00  0.00     0.007 C 
HETATM   16  C10 UNL     1      -1.684   1.195 -22.837  1.00  0.00     0.009 C 
HETATM   17  C11 UNL     1      -1.246   2.078 -21.675  1.00  0.00     0.007 C 
ENDBRANCH   9  11
ENDBRANCH   4   8
BRANCH   3  18
HETATM   18  O2  UNL     1      -2.278  -2.625 -20.271  1.00  0.00    -0.360 OA
ATOM     19  H2  UNL     1      -2.324  -2.226 -21.132  1.00  0.00     0.217 HD
ENDBRANCH   3  18
BRANCH   1  20
HETATM   20  O1  UNL     1      -3.456  -2.706 -15.594  1.00  0.00    -0.359 OA
ATOM     21  H1  UNL     1      -4.053  -2.490 -14.888  1.00  0.00     0.217 HD
ENDBRANCH   1  20
TORSDOF 4
ENDMDL
MODEL 2
REMARK VINA RESULT: -7.363127845      3.694      6.754
REMARK  4 active torsions:
REMARK  status: ('A' for Active; 'I' for Inactive)
REMARK    1  A    between atoms: O1_1  and  C1_3 
REMARK    2  A    between atoms: C3_5  and  O2_6 
REMARK    3  A    between atoms: C4_8  and  C5_9 
REMARK    4  A    between atoms: N1_10  and  C6_12 
ROOT
HETATM    1  C1  UNL     1      -0.883   2.640 -23.680  1.00  0.00     0.085 A 
HETATM    2  C2  UNL     1      -2.038   3.213 -23.207  1.00  0.00     0.075 A 
HETATM    3  C3  UNL     1      -2.561   2.912 -21.956  1.00  0.00     0.080 A 
HETATM    4  C4  UNL     1      -1.907   2.010 -21.157  1.00  0.00     0.013 A 
HETATM    5  C13 UNL     1      -0.733   1.440 -21.664  1.00  0.00     0.037 A 
HETATM    6  C14 UNL     1      -0.221   1.741 -22.897  1.00  0.00     0.045 A 
HETATM    7 BR1  UNL     1       1.386   0.917 -23.511  1.00  0.00    -0.048 Br
ENDROOT
BRANCH   4   8
HETATM    8  C5  UNL     1      -2.373   1.627 -19.829  1.00  0.00     0.097 C 
HETATM    9  N1  UNL     1      -2.672   0.402 -19.621  1.00  0.00    -0.393 N 
ATOM     10  H1  UNL     1      -2.564  -0.236 -20.410  1.00  0.00     0.159 HD
BRANCH   9  11
HETATM   11  C6  UNL     1      -3.141  -0.163 -18.403  1.00  0.00     0.089 C 
HETATM   12  C7  UNL     1      -4.666  -0.365 -18.401  1.00  0.00     0.009 C 
HETATM   13  C8  UNL     1      -4.814  -1.367 -17.290  1.00  0.00     0.007 C 
HETATM   14  C12 UNL     1      -4.808  -1.091 -19.706  1.00  0.00     0.007 C 
HETATM   15  C9  UNL     1      -3.503  -2.157 -17.235  1.00  0.00     0.007 C 
HETATM   16  C10 UNL     1      -2.804  -1.662 -18.457  1.00  0.00     0.009 C 
HETATM   17  C11 UNL     1      -3.647  -2.069 -19.659  1.00  0.00     0.007 C 
ENDBRANCH   9  11
ENDBRANCH   4   8
BRANCH   3  18
HETATM   18  O2  UNL     1      -3.721   3.507 -21.516  1.00  0.00    -0.360 OA
ATOM     19  H2  UNL     1      -4.520   3.456 -22.028  1.00  0.00     0.217 HD
ENDBRANCH   3  18
BRANCH   1  20
HETATM   20  O1  UNL     1      -0.360   2.940 -24.930  1.00  0.00    -0.359 OA
ATOM     21  H1  UNL     1      -0.372   2.320 -25.650  1.00  0.00     0.217 HD
ENDBRANCH   1  20
TORSDOF 4
ENDMDL
MODEL 3
REMARK VINA RESULT: -7.225384734     11.842     13.655
REMARK  4 active torsions:
REMARK  status: ('A' for Active; 'I' for Inactive)
REMARK    1  A    between atoms: O1_1  and  C1_3 
REMARK    2  A    between atoms: C3_5  and  O2_6 
REMARK    3  A    between atoms: C4_8  and  C5_9 
REMARK    4  A    between atoms: N1_10  and  C6_12 
ROOT
HETATM    1  C1  UNL     1       5.086  -7.926  -8.215  1.00  0.00     0.085 A 
HETATM    2  C2  UNL     1       5.336  -8.092  -9.555  1.00  0.00     0.075 A 
HETATM    3  C3  UNL     1       5.059  -7.106 -10.492  1.00  0.00     0.080 A 
HETATM    4  C4  UNL     1       4.516  -5.918 -10.073  1.00  0.00     0.013 A 
HETATM    5  C13 UNL     1       4.271  -5.775  -8.702  1.00  0.00     0.037 A 
HETATM    6  C14 UNL     1       4.546  -6.750  -7.783  1.00  0.00     0.045 A 
HETATM    7 BR1  UNL     1       4.181  -6.473  -5.931  1.00  0.00    -0.048 Br
ENDROOT
BRANCH   4   8
HETATM    8  C5  UNL     1       4.190  -4.820 -10.977  1.00  0.00     0.097 C 
HETATM    9  N1  UNL     1       3.755  -3.729 -10.473  1.00  0.00    -0.393 N 
ATOM     10  H1  UNL     1       3.663  -3.697  -9.458  1.00  0.00     0.159 HD
BRANCH   9  11
HETATM   11  C6  UNL     1       3.386  -2.554 -11.185  1.00  0.00     0.089 C 
HETATM   12  C7  UNL     1       2.524  -1.603 -10.335  1.00  0.00     0.009 C 
HETATM   13  C8  UNL     1       2.695  -0.317 -11.095  1.00  0.00     0.007 C 
HETATM   14  C12 UNL     1       3.385  -1.539  -9.108  1.00  0.00     0.007 C 
HETATM   15  C9  UNL     1       4.057  -0.396 -11.790  1.00  0.00     0.007 C 
HETATM   16  C10 UNL     1       4.624  -1.642 -11.196  1.00  0.00     0.009 C 
HETATM   17  C11 UNL     1       4.778  -1.403  -9.699  1.00  0.00     0.007 C 
ENDBRANCH   9  11
ENDBRANCH   4   8
BRANCH   3  18
HETATM   18  O2  UNL     1       5.323  -7.308 -11.827  1.00  0.00    -0.360 OA
ATOM     19  H2  UNL     1       4.616  -7.393 -12.456  1.00  0.00     0.217 HD
ENDBRANCH   3  18
BRANCH   1  20
HETATM   20  O1  UNL     1       5.361  -8.912  -7.277  1.00  0.00    -0.359 OA
ATOM     21  H1  UNL     1       6.039  -8.814  -6.618  1.00  0.00     0.217 HD
ENDBRANCH   1  20
TORSDOF 4
ENDMDL
MODEL 4
REMARK VINA RESULT: -7.182028313      1.728      2.038
REMARK  4 active torsions:
REMARK  status: ('A' for Active; 'I' for Inactive)
REMARK    1  A    between atoms: O1_1  and  C1_3 
REMARK    2  A    between atoms: C3_5  and  O2_6 
REMARK    3  A    between atoms: C4_8  and  C5_9 
REMARK    4  A    between atoms: N1_10  and  C6_12 
ROOT
HETATM    1  C1  UNL     1      -4.427  -1.490 -16.506  1.00  0.00     0.085 A 
HETATM    2  C2  UNL     1      -5.465  -0.867 -17.155  1.00  0.00     0.075 A 
HETATM    3  C3  UNL     1      -5.403  -0.517 -18.497  1.00  0.00     0.080 A 
HETATM    4  C4  UNL     1      -4.266  -0.801 -19.210  1.00  0.00     0.013 A 
HETATM    5  C13 UNL     1      -3.223  -1.436 -18.525  1.00  0.00     0.037 A 
HETATM    6  C14 UNL     1      -3.290  -1.779 -17.202  1.00  0.00     0.045 A 
HETATM    7 BR1  UNL     1      -1.821  -2.643 -16.345  1.00  0.00    -0.048 Br
ENDROOT
BRANCH   4   8
HETATM    8  C5  UNL     1      -4.101  -0.476 -20.623  1.00  0.00     0.097 C 
HETATM    9  N1  UNL     1      -3.933   0.749 -20.948  1.00  0.00    -0.393 N 
ATOM     10  H1  UNL     1      -3.926   1.428 -20.187  1.00  0.00     0.159 HD
BRANCH   9  11
HETATM   11  C6  UNL     1      -3.755   1.261 -22.262  1.00  0.00     0.089 C 
HETATM   12  C7  UNL     1      -3.563   2.788 -22.273  1.00  0.00     0.009 C 
HETATM   13  C8  UNL     1      -2.935   2.981 -23.625  1.00  0.00     0.007 C 
HETATM   14  C12 UNL     1      -2.485   2.896 -21.237  1.00  0.00     0.007 C 
HETATM   15  C9  UNL     1      -2.196   1.681 -23.955  1.00  0.00     0.007 C 
HETATM   16  C10 UNL     1      -2.307   0.939 -22.665  1.00  0.00     0.009 C 
HETATM   17  C11 UNL     1      -1.563   1.748 -21.610  1.00  0.00     0.007 C 
ENDBRANCH   9  11
ENDBRANCH   4   8
BRANCH   3  18
HETATM   18  O2  UNL     1      -6.463   0.106 -19.113  1.00  0.00    -0.360 OA
ATOM     19  H2  UNL     1      -6.445   1.040 -19.287  1.00  0.00     0.217 HD
ENDBRANCH   3  18
BRANCH   1  20
HETATM   20  O1  UNL     1      -4.489  -1.839 -15.164  1.00  0.00    -0.359 OA
ATOM     21  H1  UNL     1      -4.737  -1.221 -14.487  1.00  0.00     0.217 HD
ENDBRANCH   1  20
TORSDOF 4
ENDMDL
MODEL 5
REMARK VINA RESULT: -7.055731818      1.678      2.021
REMARK  4 active torsions:
REMARK  status: ('A' for Active; 'I' for Inactive)
REMARK    1  A    between atoms: O1_1  and  C1_3 
REMARK    2  A    between atoms: C3_5  and  O2_6 
REMARK    3  A    between atoms: C4_8  and  C5_9 
REMARK    4  A    between atoms: N1_10  and  C6_12 
ROOT
HETATM    1  C1  UNL     1      -4.019  -1.697 -16.468  1.00  0.00     0.085 A 
HETATM    2  C2  UNL     1      -4.873  -1.148 -17.393  1.00  0.00     0.075 A 
HETATM    3  C3  UNL     1      -4.470  -0.828 -18.683  1.00  0.00     0.080 A 
HETATM    4  C4  UNL     1      -3.171  -1.066 -19.056  1.00  0.00     0.013 A 
HETATM    5  C13 UNL     1      -2.322  -1.626 -18.094  1.00  0.00     0.037 A 
HETATM    6  C14 UNL     1      -2.725  -1.940 -16.824  1.00  0.00     0.045 A 
HETATM    7 BR1  UNL     1      -1.501  -2.701 -15.574  1.00  0.00    -0.048 Br
ENDROOT
BRANCH   4   8
HETATM    8  C5  UNL     1      -2.649  -0.767 -20.385  1.00  0.00     0.097 C 
HETATM    9  N1  UNL     1      -2.484   0.458 -20.710  1.00  0.00    -0.393 N 
ATOM     10  H1  UNL     1      -2.732   1.155 -20.008  1.00  0.00     0.159 HD
BRANCH   9  11
HETATM   11  C6  UNL     1      -1.989   0.947 -21.950  1.00  0.00     0.089 C 
HETATM   12  C7  UNL     1      -2.887   2.046 -22.545  1.00  0.00     0.009 C 
HETATM   13  C8  UNL     1      -1.936   2.690 -23.514  1.00  0.00     0.007 C 
HETATM   14  C12 UNL     1      -3.000   2.934 -21.341  1.00  0.00     0.007 C 
HETATM   15  C9  UNL     1      -0.526   2.470 -22.957  1.00  0.00     0.007 C 
HETATM   16  C10 UNL     1      -0.823   1.891 -21.614  1.00  0.00     0.009 C 
HETATM   17  C11 UNL     1      -1.574   2.951 -20.818  1.00  0.00     0.007 C 
ENDBRANCH   9  11
ENDBRANCH   4   8
BRANCH   3  18
HETATM   18  O2  UNL     1      -5.354  -0.279 -19.582  1.00  0.00    -0.360 OA
ATOM     19  H2  UNL     1      -5.802  -0.823 -20.218  1.00  0.00     0.217 HD
ENDBRANCH   3  18
BRANCH   1  20
HETATM   20  O1  UNL     1      -4.422  -2.015 -15.179  1.00  0.00    -0.359 OA
ATOM     21  H1  UNL     1      -4.259  -2.866 -14.789  1.00  0.00     0.217 HD
ENDBRANCH   1  20
TORSDOF 4
ENDMDL
