MODEL 1
REMARK VINA RESULT: -7.538010908      0.000      0.000
REMARK  2 active torsions:
REMARK  status: ('A' for Active; 'I' for Inactive)
REMARK    1  A    between atoms: C4_6  and  C5_7 
REMARK    2  A    between atoms: C10_12  and  C11_13 
ROOT
HETATM    1  C11 UNL     1       2.483  -5.757 -12.004  1.00  0.00     0.078 A 
HETATM    2  N1  UNL     1       1.197  -6.141 -12.294  1.00  0.00    -0.297 N 
ATOM      3  H1  UNL     1       0.881  -7.094 -12.474  1.00  0.00     0.187 HD
HETATM    4  N2  UNL     1       0.429  -5.039 -12.298  1.00  0.00    -0.284 N 
ATOM      5  H2  UNL     1      -0.574  -5.015 -12.483  1.00  0.00     0.188 HD
HETATM    6  C12 UNL     1       1.201  -3.974 -12.017  1.00  0.00     0.136 A 
HETATM    7  N3  UNL     1       0.870  -2.661 -11.909  1.00  0.00    -0.337 N 
ATOM      8  H3  UNL     1      -0.090  -2.348 -12.049  1.00  0.00     0.168 HD
HETATM    9  C13 UNL     1       1.853  -1.781 -11.611  1.00  0.00     0.183 A 
HETATM   10  N4  UNL     1       3.101  -2.220 -11.433  1.00  0.00    -0.343 N 
ATOM     11  H4  UNL     1       3.822  -1.534 -11.208  1.00  0.00     0.167 HD
HETATM   12  C14 UNL     1       3.467  -3.512 -11.531  1.00  0.00     0.117 A 
HETATM   13  S1  UNL     1       5.035  -3.974 -11.292  1.00  0.00    -0.059 SA
HETATM   14  C15 UNL     1       2.489  -4.407 -11.831  1.00  0.00     0.076 A 
ENDROOT
BRANCH   1  15
HETATM   15  C10 UNL     1       3.520  -6.775 -11.870  1.00  0.00     0.053 A 
HETATM   16  C1  UNL     1       4.235  -7.301 -13.095  1.00  0.00     0.292 A 
HETATM   17  F1  UNL     1       3.390  -7.747 -14.061  1.00  0.00    -0.196 F 
HETATM   18  F2  UNL     1       4.942  -6.173 -13.570  1.00  0.00    -0.196 F 
HETATM   19  C2  UNL     1       5.137  -8.286 -12.544  1.00  0.00     0.057 A 
HETATM   20  C3  UNL     1       4.997  -8.338 -11.254  1.00  0.00     0.010 A 
HETATM   21  C4  UNL     1       3.952  -7.360 -10.799  1.00  0.00    -0.039 A 
BRANCH  21  22
HETATM   22  C5  UNL     1       3.703  -7.245  -9.365  1.00  0.00     0.019 C 
HETATM   23  C6  UNL     1       4.519  -6.180  -8.703  1.00  0.00     0.009 C 
HETATM   24  C7  UNL     1       4.953  -6.757  -7.400  1.00  0.00     0.001 C 
HETATM   25  C8  UNL     1       3.850  -7.736  -7.062  1.00  0.00     0.001 C 
HETATM   26  C9  UNL     1       3.808  -8.425  -8.494  1.00  0.00     0.009 C 
ENDBRANCH  21  22
ENDBRANCH   1  15
TORSDOF 2
ENDMDL
MODEL 2
REMARK VINA RESULT: -7.498604594      2.905      5.276
REMARK  2 active torsions:
REMARK  status: ('A' for Active; 'I' for Inactive)
REMARK    1  A    between atoms: C4_6  and  C5_7 
REMARK    2  A    between atoms: C10_12  and  C11_13 
ROOT
HETATM    1  C11 UNL     1       3.622  -7.163 -10.612  1.00  0.00     0.078 A 
HETATM    2  N1  UNL     1       3.340  -7.584  -9.336  1.00  0.00    -0.297 N 
ATOM      3  H1  UNL     1       2.647  -7.175  -8.708  1.00  0.00     0.187 HD
HETATM    4  N2  UNL     1       4.136  -8.629  -9.061  1.00  0.00    -0.284 N 
ATOM      5  H2  UNL     1       4.151  -9.151  -8.185  1.00  0.00     0.188 HD
HETATM    6  C12 UNL     1       4.911  -8.875 -10.132  1.00  0.00     0.136 A 
HETATM    7  N3  UNL     1       5.860  -9.827 -10.323  1.00  0.00    -0.337 N 
ATOM      8  H3  UNL     1       6.084 -10.500  -9.590  1.00  0.00     0.168 HD
HETATM    9  C13 UNL     1       6.501  -9.857 -11.514  1.00  0.00     0.183 A 
HETATM   10  N4  UNL     1       6.186  -8.964 -12.455  1.00  0.00    -0.343 N 
ATOM     11  H4  UNL     1       6.684  -9.010 -13.344  1.00  0.00     0.167 HD
HETATM   12  C14 UNL     1       5.252  -8.007 -12.304  1.00  0.00     0.117 A 
HETATM   13  S1  UNL     1       4.919  -6.941 -13.522  1.00  0.00    -0.059 SA
HETATM   14  C15 UNL     1       4.601  -7.965 -11.111  1.00  0.00     0.076 A 
ENDROOT
BRANCH   1  15
HETATM   15  C10 UNL     1       2.846  -6.072 -11.193  1.00  0.00     0.053 A 
HETATM   16  C1  UNL     1       1.609  -6.368 -12.012  1.00  0.00     0.292 A 
HETATM   17  F1  UNL     1       1.831  -7.253 -13.020  1.00  0.00    -0.196 F 
HETATM   18  F2  UNL     1       0.722  -6.936 -11.071  1.00  0.00    -0.196 F 
HETATM   19  C2  UNL     1       1.168  -5.054 -12.416  1.00  0.00     0.057 A 
HETATM   20  C3  UNL     1       1.969  -4.152 -11.934  1.00  0.00     0.010 A 
HETATM   21  C4  UNL     1       3.065  -4.797 -11.135  1.00  0.00    -0.039 A 
BRANCH  21  22
HETATM   22  C5  UNL     1       4.029  -3.926 -10.471  1.00  0.00     0.019 C 
HETATM   23  C6  UNL     1       3.563  -2.511 -10.343  1.00  0.00     0.009 C 
HETATM   24  C7  UNL     1       4.756  -1.666 -10.633  1.00  0.00     0.001 C 
HETATM   25  C8  UNL     1       5.918  -2.536 -10.205  1.00  0.00     0.001 C 
HETATM   26  C9  UNL     1       5.416  -3.847 -10.954  1.00  0.00     0.009 C 
ENDBRANCH  21  22
ENDBRANCH   1  15
TORSDOF 2
ENDMDL
MODEL 3
REMARK VINA RESULT: -7.488188010      8.688     11.043
REMARK  2 active torsions:
REMARK  status: ('A' for Active; 'I' for Inactive)
REMARK    1  A    between atoms: C4_6  and  C5_7 
REMARK    2  A    between atoms: C10_12  and  C11_13 
ROOT
HETATM    1  C11 UNL     1       3.084  -8.606 -20.020  1.00  0.00     0.078 A 
HETATM    2  N1  UNL     1       3.540  -7.625 -19.175  1.00  0.00    -0.297 N 
ATOM      3  H1  UNL     1       3.672  -6.642 -19.412  1.00  0.00     0.187 HD
HETATM    4  N2  UNL     1       3.780  -8.189 -17.980  1.00  0.00    -0.284 N 
ATOM      5  H2  UNL     1       4.128  -7.704 -17.153  1.00  0.00     0.188 HD
HETATM    6  C12 UNL     1       3.487  -9.499 -18.055  1.00  0.00     0.136 A 
HETATM    7  N3  UNL     1       3.567 -10.468 -17.106  1.00  0.00    -0.337 N 
ATOM      8  H3  UNL     1       3.892 -10.253 -16.163  1.00  0.00     0.168 HD
HETATM    9  C13 UNL     1       3.203 -11.724 -17.447  1.00  0.00     0.183 A 
HETATM   10  N4  UNL     1       2.780 -11.975 -18.688  1.00  0.00    -0.343 N 
ATOM     11  H4  UNL     1       2.511 -12.932 -18.918  1.00  0.00     0.167 HD
HETATM   12  C14 UNL     1       2.686 -11.044 -19.655  1.00  0.00     0.117 A 
HETATM   13  S1  UNL     1       2.149 -11.436 -21.168  1.00  0.00    -0.059 SA
HETATM   14  C15 UNL     1       3.050  -9.776 -19.326  1.00  0.00     0.076 A 
ENDROOT
BRANCH   1  15
HETATM   15  C10 UNL     1       2.681  -8.251 -21.377  1.00  0.00     0.053 A 
HETATM   16  C1  UNL     1       3.726  -7.999 -22.442  1.00  0.00     0.292 A 
HETATM   17  F1  UNL     1       4.660  -7.084 -22.073  1.00  0.00    -0.196 F 
HETATM   18  F2  UNL     1       4.339  -9.262 -22.603  1.00  0.00    -0.196 F 
HETATM   19  C2  UNL     1       2.931  -7.655 -23.598  1.00  0.00     0.057 A 
HETATM   20  C3  UNL     1       1.669  -7.697 -23.294  1.00  0.00     0.010 A 
HETATM   21  C4  UNL     1       1.489  -8.085 -21.854  1.00  0.00    -0.039 A 
BRANCH  21  22
HETATM   22  C5  UNL     1       0.126  -8.236 -21.353  1.00  0.00     0.019 C 
HETATM   23  C6  UNL     1      -0.838  -7.260 -21.949  1.00  0.00     0.009 C 
HETATM   24  C7  UNL     1      -1.717  -6.825 -20.827  1.00  0.00     0.001 C 
HETATM   25  C8  UNL     1      -1.717  -8.019 -19.896  1.00  0.00     0.001 C 
HETATM   26  C9  UNL     1      -0.140  -8.226 -19.907  1.00  0.00     0.009 C 
ENDBRANCH  21  22
ENDBRANCH   1  15
TORSDOF 2
ENDMDL
MODEL 4
REMARK VINA RESULT: -7.408094798      2.821      5.223
REMARK  2 active torsions:
REMARK  status: ('A' for Active; 'I' for Inactive)
REMARK    1  A    between atoms: C4_6  and  C5_7 
REMARK    2  A    between atoms: C10_12  and  C11_13 
ROOT
HETATM    1  C11 UNL     1       4.050  -6.608 -12.415  1.00  0.00     0.078 A 
HETATM    2  N1  UNL     1       4.599  -6.658 -13.672  1.00  0.00    -0.297 N 
ATOM      3  H1  UNL     1       4.337  -6.072 -14.465  1.00  0.00     0.187 HD
HETATM    4  N2  UNL     1       5.541  -7.615 -13.673  1.00  0.00    -0.284 N 
ATOM      5  H2  UNL     1       6.119  -7.879 -14.471  1.00  0.00     0.188 HD
HETATM    6  C12 UNL     1       5.598  -8.166 -12.448  1.00  0.00     0.136 A 
HETATM    7  N3  UNL     1       6.393  -9.160 -11.974  1.00  0.00    -0.337 N 
ATOM      8  H3  UNL     1       7.080  -9.615 -12.575  1.00  0.00     0.168 HD
HETATM    9  C13 UNL     1       6.246  -9.530 -10.681  1.00  0.00     0.183 A 
HETATM   10  N4  UNL     1       5.339  -8.916  -9.918  1.00  0.00    -0.343 N 
ATOM     11  H4  UNL     1       5.250  -9.215  -8.946  1.00  0.00     0.167 HD
HETATM   12  C14 UNL     1       4.534  -7.928 -10.351  1.00  0.00     0.117 A 
HETATM   13  S1  UNL     1       3.437  -7.217  -9.340  1.00  0.00    -0.059 SA
HETATM   14  C15 UNL     1       4.670  -7.547 -11.649  1.00  0.00     0.076 A 
ENDROOT
BRANCH   1  15
HETATM   15  C10 UNL     1       3.038  -5.601 -12.116  1.00  0.00     0.053 A 
HETATM   16  C1  UNL     1       1.595  -5.831 -12.507  1.00  0.00     0.292 A 
HETATM   17  F1  UNL     1       1.438  -6.147 -13.819  1.00  0.00    -0.196 F 
HETATM   18  F2  UNL     1       1.210  -6.930 -11.706  1.00  0.00    -0.196 F 
HETATM   19  C2  UNL     1       0.945  -4.617 -12.071  1.00  0.00     0.057 A 
HETATM   20  C3  UNL     1       1.816  -3.823 -11.524  1.00  0.00     0.010 A 
HETATM   21  C4  UNL     1       3.181  -4.449 -11.543  1.00  0.00    -0.039 A 
BRANCH  21  22
HETATM   22  C5  UNL     1       4.277  -3.715 -10.917  1.00  0.00     0.019 C 
HETATM   23  C6  UNL     1       3.985  -3.294  -9.512  1.00  0.00     0.009 C 
HETATM   24  C7  UNL     1       4.533  -1.915  -9.382  1.00  0.00     0.001 C 
HETATM   25  C8  UNL     1       5.677  -1.895 -10.374  1.00  0.00     0.001 C 
HETATM   26  C9  UNL     1       4.853  -2.533 -11.576  1.00  0.00     0.009 C 
ENDBRANCH  21  22
ENDBRANCH   1  15
TORSDOF 2
ENDMDL
MODEL 5
REMARK VINA RESULT: -7.331276796      4.355      6.377
REMARK  2 active torsions:
REMARK  status: ('A' for Active; 'I' for Inactive)
REMARK    1  A    between atoms: C4_6  and  C5_7 
REMARK    2  A    between atoms: C10_12  and  C11_13 
ROOT
HETATM    1  C11 UNL     1       4.276  -9.302 -14.816  1.00  0.00     0.078 A 
HETATM    2  N1  UNL     1       4.716  -8.252 -15.584  1.00  0.00    -0.297 N 
ATOM      3  H1  UNL     1       5.183  -7.412 -15.241  1.00  0.00     0.187 HD
HETATM    4  N2  UNL     1       4.421  -8.526 -16.864  1.00  0.00    -0.284 N 
ATOM      5  H2  UNL     1       4.629  -7.926 -17.663  1.00  0.00     0.188 HD
HETATM    6  C12 UNL     1       3.809  -9.721 -16.920  1.00  0.00     0.136 A 
HETATM    7  N3  UNL     1       3.333 -10.410 -17.990  1.00  0.00    -0.337 N 
ATOM      8  H3  UNL     1       3.411 -10.032 -18.934  1.00  0.00     0.168 HD
HETATM    9  C13 UNL     1       2.754 -11.611 -17.767  1.00  0.00     0.183 A 
HETATM   10  N4  UNL     1       2.667 -12.081 -16.520  1.00  0.00    -0.343 N 
ATOM     11  H4  UNL     1       2.225 -12.990 -16.381  1.00  0.00     0.167 HD
HETATM   12  C14 UNL     1       3.126 -11.429 -15.435  1.00  0.00     0.117 A 
HETATM   13  S1  UNL     1       2.982 -12.082 -13.924  1.00  0.00    -0.059 SA
HETATM   14  C15 UNL     1       3.710 -10.220 -15.646  1.00  0.00     0.076 A 
ENDROOT
BRANCH   1  15
HETATM   15  C10 UNL     1       4.531  -9.293 -13.379  1.00  0.00     0.053 A 
HETATM   16  C1  UNL     1       5.825  -9.853 -12.831  1.00  0.00     0.292 A 
HETATM   17  F1  UNL     1       6.085 -11.118 -13.253  1.00  0.00    -0.196 F 
HETATM   18  F2  UNL     1       6.805  -8.973 -13.342  1.00  0.00    -0.196 F 
HETATM   19  C2  UNL     1       5.670  -9.686 -11.404  1.00  0.00     0.057 A 
HETATM   20  C3  UNL     1       4.522  -9.134 -11.148  1.00  0.00     0.010 A 
HETATM   21  C4  UNL     1       3.770  -8.870 -12.421  1.00  0.00    -0.039 A 
BRANCH  21  22
HETATM   22  C5  UNL     1       2.477  -8.199 -12.323  1.00  0.00     0.019 C 
HETATM   23  C6  UNL     1       2.474  -6.825 -12.913  1.00  0.00     0.009 C 
HETATM   24  C7  UNL     1       1.669  -5.988 -11.980  1.00  0.00     0.001 C 
HETATM   25  C8  UNL     1       0.702  -6.976 -11.364  1.00  0.00     0.001 C 
HETATM   26  C9  UNL     1       1.799  -8.077 -11.024  1.00  0.00     0.009 C 
ENDBRANCH  21  22
ENDBRANCH   1  15
TORSDOF 2
ENDMDL
