MODEL 1
REMARK VINA RESULT: -8.113550014      0.000      0.000
REMARK  14 active torsions:
REMARK  status: ('A' for Active; 'I' for Inactive)
REMARK    1  A    between atoms: S1_2  and  C2_3 
REMARK    2  A    between atoms: C2_3  and  C3_4 
REMARK    3  A    between atoms: C3_4  and  C4_5 
REMARK    4  A    between atoms: C4_5  and  N1_6 
REMARK    5  A    between atoms: C4_5  and  C9_16 
REMARK       I    between atoms: N1_6  and  C5_8 
REMARK    6  A    between atoms: C5_8  and  C6_10 
REMARK       I    between atoms: C9_16  and  N3_18 
REMARK    7  A    between atoms: N3_18  and  C10_20 
REMARK    8  A    between atoms: C10_20  and  C11_21 
REMARK    9  A    between atoms: C10_20  and  C15_25 
REMARK   10  A    between atoms: C11_21  and  C12_22 
REMARK   11  A    between atoms: C15_25  and  O3_26 
REMARK   12  A    between atoms: C15_25  and  N4_28 
REMARK   13  A    between atoms: C20_34  and  C21_35 
REMARK       I    between atoms: C21_35  and  N5_37 
REMARK   14  A    between atoms: N5_37  and  C22_39 
ROOT
HETATM    1  C10 UNL     1      20.448  31.563  15.772  1.00  0.00     0.159 C 
ENDROOT
BRANCH   1   2
HETATM    2  N3  UNL     1      20.267  30.081  15.556  1.00  0.00    -0.347 N 
HETATM    3  C9  UNL     1      19.830  29.673  14.283  1.00  0.00     0.241 C 
HETATM    4  O2  UNL     1      19.612  30.571  13.389  1.00  0.00    -0.271 OA
ATOM      5  H3  UNL     1      20.453  29.406  16.298  1.00  0.00     0.163 HD
BRANCH   3   6
HETATM    6  C4  UNL     1      19.602  28.300  13.873  1.00  0.00     0.177 C 
BRANCH   6   7
HETATM    7  C3  UNL     1      18.172  28.129  13.394  1.00  0.00     0.045 C 
BRANCH   7   8
HETATM    8  C2  UNL     1      18.050  27.190  12.219  1.00  0.00     0.076 C 
BRANCH   8   9
HETATM    9  S1  UNL     1      17.724  28.130  10.686  1.00  0.00    -0.173 SA
HETATM   10  C1  UNL     1      18.539  27.417   9.259  1.00  0.00     0.089 C 
ENDBRANCH   8   9
ENDBRANCH   7   8
ENDBRANCH   6   7
BRANCH   6  11
HETATM   11  N1  UNL     1      20.609  27.753  13.057  1.00  0.00    -0.342 N 
HETATM   12  C5  UNL     1      21.985  28.019  12.985  1.00  0.00     0.269 C 
HETATM   13  O1  UNL     1      22.505  28.868  13.747  1.00  0.00    -0.266 OA
ATOM     14  H1  UNL     1      20.282  27.040  12.405  1.00  0.00     0.163 HD
BRANCH  12  15
HETATM   15  C6  UNL     1      22.845  27.292  11.995  1.00  0.00     0.107 A 
HETATM   16  C7  UNL     1      22.285  26.468  11.045  1.00  0.00     0.086 A 
HETATM   17  S2  UNL     1      23.663  25.917  10.205  1.00  0.00    -0.094 SA
HETATM   18  C8  UNL     1      24.857  26.747  11.091  1.00  0.00     0.138 A 
HETATM   19  N2  UNL     1      24.149  27.404  11.983  1.00  0.00    -0.355 N 
ATOM     20  H2  UNL     1      24.615  28.001  12.664  1.00  0.00     0.166 HD
ENDBRANCH  12  15
ENDBRANCH   6  11
ENDBRANCH   3   6
ENDBRANCH   1   2
BRANCH   1  21
HETATM   21  C11 UNL     1      21.745  31.831  16.388  1.00  0.00     0.037 C 
BRANCH  21  22
HETATM   22  C12 UNL     1      22.731  32.695  15.704  1.00  0.00    -0.020 C 
HETATM   23  C13 UNL     1      22.710  32.427  14.186  1.00  0.00     0.009 C 
HETATM   24  C14 UNL     1      22.221  34.172  15.779  1.00  0.00     0.009 C 
ENDBRANCH  21  22
ENDBRANCH   1  21
BRANCH   1  25
HETATM   25  C15 UNL     1      19.179  32.085  16.184  1.00  0.00     0.138 C 
BRANCH  25  26
HETATM   26  O3  UNL     1      18.508  31.149  16.911  1.00  0.00    -0.348 OA
ATOM     27  H3  UNL     1      17.606  31.420  17.031  1.00  0.00     0.219 HD
ENDBRANCH  25  26
BRANCH  25  28
HETATM   28  N4  UNL     1      18.444  33.266  16.062  1.00  0.00    -0.340 N 
HETATM   29  C16 UNL     1      18.364  34.231  14.987  1.00  0.00     0.200 C 
HETATM   30  S3  UNL     1      16.531  34.139  14.736  1.00  0.00    -0.137 SA
HETATM   31  C17 UNL     1      16.153  33.957  16.533  1.00  0.00     0.032 C 
HETATM   32  C18 UNL     1      15.438  35.211  16.964  1.00  0.00     0.029 C 
HETATM   33  C19 UNL     1      15.249  32.756  16.731  1.00  0.00     0.029 C 
HETATM   34  C20 UNL     1      17.503  33.745  17.115  1.00  0.00     0.197 C 
BRANCH  34  35
HETATM   35  C21 UNL     1      18.089  34.816  17.904  1.00  0.00     0.242 C 
HETATM   36  O4  UNL     1      18.060  34.787  19.187  1.00  0.00    -0.271 OA
HETATM   37  N5  UNL     1      18.723  35.955  17.361  1.00  0.00    -0.355 N 
ATOM     38  H5  UNL     1      18.776  36.035  16.345  1.00  0.00     0.162 HD
BRANCH  37  39
HETATM   39  C22 UNL     1      19.306  37.022  18.166  1.00  0.00     0.076 C 
HETATM   40  C23 UNL     1      18.533  38.297  17.912  1.00  0.00     0.032 C 
HETATM   41  C24 UNL     1      20.736  37.257  17.701  1.00  0.00     0.032 C 
ENDBRANCH  37  39
ENDBRANCH  34  35
ENDBRANCH  25  28
ENDBRANCH   1  25
TORSDOF 14
ENDMDL
MODEL 2
REMARK VINA RESULT: -7.839977392      1.712      3.747
REMARK  14 active torsions:
REMARK  status: ('A' for Active; 'I' for Inactive)
REMARK    1  A    between atoms: S1_2  and  C2_3 
REMARK    2  A    between atoms: C2_3  and  C3_4 
REMARK    3  A    between atoms: C3_4  and  C4_5 
REMARK    4  A    between atoms: C4_5  and  N1_6 
REMARK    5  A    between atoms: C4_5  and  C9_16 
REMARK       I    between atoms: N1_6  and  C5_8 
REMARK    6  A    between atoms: C5_8  and  C6_10 
REMARK       I    between atoms: C9_16  and  N3_18 
REMARK    7  A    between atoms: N3_18  and  C10_20 
REMARK    8  A    between atoms: C10_20  and  C11_21 
REMARK    9  A    between atoms: C10_20  and  C15_25 
REMARK   10  A    between atoms: C11_21  and  C12_22 
REMARK   11  A    between atoms: C15_25  and  O3_26 
REMARK   12  A    between atoms: C15_25  and  N4_28 
REMARK   13  A    between atoms: C20_34  and  C21_35 
REMARK       I    between atoms: C21_35  and  N5_37 
REMARK   14  A    between atoms: N5_37  and  C22_39 
ROOT
HETATM    1  C10 UNL     1      18.510  30.769  14.779  1.00  0.00     0.159 C 
ENDROOT
BRANCH   1   2
HETATM    2  N3  UNL     1      19.768  31.139  14.033  1.00  0.00    -0.347 N 
HETATM    3  C9  UNL     1      20.906  30.349  14.272  1.00  0.00     0.241 C 
HETATM    4  O2  UNL     1      20.812  29.370  15.101  1.00  0.00    -0.271 OA
ATOM      5  H3  UNL     1      19.792  31.927  13.385  1.00  0.00     0.163 HD
BRANCH   3   6
HETATM    6  C4  UNL     1      22.204  30.535  13.653  1.00  0.00     0.177 C 
BRANCH   6   7
HETATM    7  C3  UNL     1      23.117  31.317  14.580  1.00  0.00     0.045 C 
BRANCH   7   8
HETATM    8  C2  UNL     1      23.148  32.794  14.273  1.00  0.00     0.076 C 
BRANCH   8   9
HETATM    9  S1  UNL     1      22.028  33.700  15.397  1.00  0.00    -0.173 SA
HETATM   10  C1  UNL     1      21.769  32.840  16.947  1.00  0.00     0.089 C 
ENDBRANCH   8   9
ENDBRANCH   7   8
ENDBRANCH   6   7
BRANCH   6  11
HETATM   11  N1  UNL     1      22.747  29.380  13.061  1.00  0.00    -0.342 N 
HETATM   12  C5  UNL     1      22.272  28.564  12.023  1.00  0.00     0.269 C 
HETATM   13  O1  UNL     1      21.189  28.836  11.451  1.00  0.00    -0.266 OA
ATOM     14  H1  UNL     1      23.640  29.085  13.456  1.00  0.00     0.163 HD
BRANCH  12  15
HETATM   15  C6  UNL     1      23.054  27.361  11.588  1.00  0.00     0.107 A 
HETATM   16  C7  UNL     1      22.444  26.328  10.913  1.00  0.00     0.086 A 
HETATM   17  S2  UNL     1      23.747  25.257  10.661  1.00  0.00    -0.094 SA
HETATM   18  C8  UNL     1      24.976  26.162  11.416  1.00  0.00     0.138 A 
HETATM   19  N2  UNL     1      24.336  27.236  11.822  1.00  0.00    -0.355 N 
ATOM     20  H2  UNL     1      24.838  27.971  12.319  1.00  0.00     0.166 HD
ENDBRANCH  12  15
ENDBRANCH   6  11
ENDBRANCH   3   6
ENDBRANCH   1   2
BRANCH   1  21
HETATM   21  C11 UNL     1      17.529  30.191  13.865  1.00  0.00     0.037 C 
BRANCH  21  22
HETATM   22  C12 UNL     1      17.959  29.256  12.803  1.00  0.00    -0.020 C 
HETATM   23  C13 UNL     1      17.936  27.807  13.330  1.00  0.00     0.009 C 
HETATM   24  C14 UNL     1      16.847  29.219  11.705  1.00  0.00     0.009 C 
ENDBRANCH  21  22
ENDBRANCH   1  21
BRANCH   1  25
HETATM   25  C15 UNL     1      18.277  31.800  15.747  1.00  0.00     0.138 C 
BRANCH  25  26
HETATM   26  O3  UNL     1      18.530  31.325  16.998  1.00  0.00    -0.348 OA
ATOM     27  H3  UNL     1      19.197  30.651  16.958  1.00  0.00     0.219 HD
ENDBRANCH  25  26
BRANCH  25  28
HETATM   28  N4  UNL     1      17.877  33.138  15.775  1.00  0.00    -0.340 N 
HETATM   29  C16 UNL     1      17.966  34.180  14.775  1.00  0.00     0.200 C 
HETATM   30  S3  UNL     1      16.161  34.590  14.715  1.00  0.00    -0.137 SA
HETATM   31  C17 UNL     1      15.905  34.358  16.528  1.00  0.00     0.032 C 
HETATM   32  C18 UNL     1      15.591  35.713  17.108  1.00  0.00     0.029 C 
HETATM   33  C19 UNL     1      14.733  33.421  16.749  1.00  0.00     0.029 C 
HETATM   34  C20 UNL     1      17.194  33.753  16.950  1.00  0.00     0.197 C 
BRANCH  34  35
HETATM   35  C21 UNL     1      18.112  34.562  17.734  1.00  0.00     0.242 C 
HETATM   36  O4  UNL     1      18.132  34.487  19.016  1.00  0.00    -0.271 OA
HETATM   37  N5  UNL     1      19.036  35.479  17.189  1.00  0.00    -0.355 N 
ATOM     38  H5  UNL     1      19.066  35.584  16.175  1.00  0.00     0.162 HD
BRANCH  37  39
HETATM   39  C22 UNL     1      19.951  36.284  17.991  1.00  0.00     0.076 C 
HETATM   40  C23 UNL     1      19.304  37.626  18.260  1.00  0.00     0.032 C 
HETATM   41  C24 UNL     1      21.211  36.543  17.179  1.00  0.00     0.032 C 
ENDBRANCH  37  39
ENDBRANCH  34  35
ENDBRANCH  25  28
ENDBRANCH   1  25
TORSDOF 14
ENDMDL
MODEL 3
REMARK VINA RESULT: -7.812054531      1.981      9.143
REMARK  14 active torsions:
REMARK  status: ('A' for Active; 'I' for Inactive)
REMARK    1  A    between atoms: S1_2  and  C2_3 
REMARK    2  A    between atoms: C2_3  and  C3_4 
REMARK    3  A    between atoms: C3_4  and  C4_5 
REMARK    4  A    between atoms: C4_5  and  N1_6 
REMARK    5  A    between atoms: C4_5  and  C9_16 
REMARK       I    between atoms: N1_6  and  C5_8 
REMARK    6  A    between atoms: C5_8  and  C6_10 
REMARK       I    between atoms: C9_16  and  N3_18 
REMARK    7  A    between atoms: N3_18  and  C10_20 
REMARK    8  A    between atoms: C10_20  and  C11_21 
REMARK    9  A    between atoms: C10_20  and  C15_25 
REMARK   10  A    between atoms: C11_21  and  C12_22 
REMARK   11  A    between atoms: C15_25  and  O3_26 
REMARK   12  A    between atoms: C15_25  and  N4_28 
REMARK   13  A    between atoms: C20_34  and  C21_35 
REMARK       I    between atoms: C21_35  and  N5_37 
REMARK   14  A    between atoms: N5_37  and  C22_39 
ROOT
HETATM    1  C10 UNL     1      20.611  31.759  14.021  1.00  0.00     0.159 C 
ENDROOT
BRANCH   1   2
HETATM    2  N3  UNL     1      19.451  32.724  14.046  1.00  0.00    -0.347 N 
HETATM    3  C9  UNL     1      18.560  32.618  15.128  1.00  0.00     0.241 C 
HETATM    4  O2  UNL     1      18.778  31.720  16.021  1.00  0.00    -0.271 OA
ATOM      5  H3  UNL     1      19.320  33.420  13.312  1.00  0.00     0.163 HD
BRANCH   3   6
HETATM    6  C4  UNL     1      17.391  33.452  15.338  1.00  0.00     0.177 C 
BRANCH   6   7
HETATM    7  C3  UNL     1      16.304  32.659  16.041  1.00  0.00     0.045 C 
BRANCH   7   8
HETATM    8  C2  UNL     1      14.991  33.398  16.120  1.00  0.00     0.076 C 
BRANCH   8   9
HETATM    9  S1  UNL     1      14.694  33.983  17.826  1.00  0.00    -0.173 SA
HETATM   10  C1  UNL     1      14.412  35.750  17.906  1.00  0.00     0.089 C 
ENDBRANCH   8   9
ENDBRANCH   7   8
ENDBRANCH   6   7
BRANCH   6  11
HETATM   11  N1  UNL     1      17.665  34.734  15.848  1.00  0.00    -0.342 N 
HETATM   12  C5  UNL     1      18.053  35.154  17.130  1.00  0.00     0.269 C 
HETATM   13  O1  UNL     1      18.221  34.313  18.046  1.00  0.00    -0.266 OA
ATOM     14  H1  UNL     1      17.565  35.488  15.169  1.00  0.00     0.163 HD
BRANCH  12  15
HETATM   15  C6  UNL     1      18.269  36.610  17.416  1.00  0.00     0.107 A 
HETATM   16  C7  UNL     1      19.341  37.030  18.171  1.00  0.00     0.086 A 
HETATM   17  S2  UNL     1      19.120  38.720  18.181  1.00  0.00    -0.094 SA
HETATM   18  C8  UNL     1      17.701  38.803  17.243  1.00  0.00     0.138 A 
HETATM   19  N2  UNL     1      17.465  37.540  16.967  1.00  0.00    -0.355 N 
ATOM     20  H2  UNL     1      16.655  37.284  16.403  1.00  0.00     0.166 HD
ENDBRANCH  12  15
ENDBRANCH   6  11
ENDBRANCH   3   6
ENDBRANCH   1   2
BRANCH   1  21
HETATM   21  C11 UNL     1      21.877  32.486  14.074  1.00  0.00     0.037 C 
BRANCH  21  22
HETATM   22  C12 UNL     1      22.862  32.189  15.136  1.00  0.00    -0.020 C 
HETATM   23  C13 UNL     1      23.905  33.322  15.225  1.00  0.00     0.009 C 
HETATM   24  C14 UNL     1      22.140  32.305  16.518  1.00  0.00     0.009 C 
ENDBRANCH  21  22
ENDBRANCH   1  21
BRANCH   1  25
HETATM   25  C15 UNL     1      20.264  30.708  13.110  1.00  0.00     0.138 C 
BRANCH  25  26
HETATM   26  O3  UNL     1      20.197  31.199  11.842  1.00  0.00    -0.348 OA
ATOM     27  H3  UNL     1      20.796  30.722  11.280  1.00  0.00     0.219 HD
ENDBRANCH  25  26
BRANCH  25  28
HETATM   28  N4  UNL     1      19.984  29.340  13.148  1.00  0.00    -0.340 N 
HETATM   29  C16 UNL     1      19.606  28.476  14.246  1.00  0.00     0.200 C 
HETATM   30  S3  UNL     1      18.027  27.850  13.507  1.00  0.00    -0.137 SA
HETATM   31  C17 UNL     1      18.696  27.780  11.788  1.00  0.00     0.032 C 
HETATM   32  C18 UNL     1      18.766  26.326  11.399  1.00  0.00     0.029 C 
HETATM   33  C19 UNL     1      17.752  28.516  10.857  1.00  0.00     0.029 C 
HETATM   34  C20 UNL     1      19.999  28.478  11.932  1.00  0.00     0.197 C 
BRANCH  34  35
HETATM   35  C21 UNL     1      21.216  27.687  11.856  1.00  0.00     0.242 C 
HETATM   36  O4  UNL     1      21.876  27.385  12.915  1.00  0.00    -0.271 OA
HETATM   37  N5  UNL     1      21.776  27.194  10.659  1.00  0.00    -0.355 N 
ATOM     38  H5  UNL     1      21.297  27.403   9.783  1.00  0.00     0.162 HD
BRANCH  37  39
HETATM   39  C22 UNL     1      23.000  26.401  10.600  1.00  0.00     0.076 C 
HETATM   40  C23 UNL     1      24.128  27.288  10.120  1.00  0.00     0.032 C 
HETATM   41  C24 UNL     1      22.817  25.299   9.567  1.00  0.00     0.032 C 
ENDBRANCH  37  39
ENDBRANCH  34  35
ENDBRANCH  25  28
ENDBRANCH   1  25
TORSDOF 14
ENDMDL
MODEL 4
REMARK VINA RESULT: -7.786384289      2.997      9.951
REMARK  14 active torsions:
REMARK  status: ('A' for Active; 'I' for Inactive)
REMARK    1  A    between atoms: S1_2  and  C2_3 
REMARK    2  A    between atoms: C2_3  and  C3_4 
REMARK    3  A    between atoms: C3_4  and  C4_5 
REMARK    4  A    between atoms: C4_5  and  N1_6 
REMARK    5  A    between atoms: C4_5  and  C9_16 
REMARK       I    between atoms: N1_6  and  C5_8 
REMARK    6  A    between atoms: C5_8  and  C6_10 
REMARK       I    between atoms: C9_16  and  N3_18 
REMARK    7  A    between atoms: N3_18  and  C10_20 
REMARK    8  A    between atoms: C10_20  and  C11_21 
REMARK    9  A    between atoms: C10_20  and  C15_25 
REMARK   10  A    between atoms: C11_21  and  C12_22 
REMARK   11  A    between atoms: C15_25  and  O3_26 
REMARK   12  A    between atoms: C15_25  and  N4_28 
REMARK   13  A    between atoms: C20_34  and  C21_35 
REMARK       I    between atoms: C21_35  and  N5_37 
REMARK   14  A    between atoms: N5_37  and  C22_39 
ROOT
HETATM    1  C10 UNL     1      21.729  28.247  11.749  1.00  0.00     0.159 C 
ENDROOT
BRANCH   1   2
HETATM    2  N3  UNL     1      21.583  29.643  12.303  1.00  0.00    -0.347 N 
HETATM    3  C9  UNL     1      21.755  29.799  13.689  1.00  0.00     0.241 C 
HETATM    4  O2  UNL     1      22.022  28.759  14.397  1.00  0.00    -0.271 OA
ATOM      5  H3  UNL     1      21.370  30.437  11.699  1.00  0.00     0.163 HD
BRANCH   3   6
HETATM    6  C4  UNL     1      21.663  31.053  14.412  1.00  0.00     0.177 C 
BRANCH   6   7
HETATM    7  C3  UNL     1      22.548  32.099  13.758  1.00  0.00     0.045 C 
BRANCH   7   8
HETATM    8  C2  UNL     1      23.596  32.654  14.691  1.00  0.00     0.076 C 
BRANCH   8   9
HETATM    9  S1  UNL     1      22.869  33.939  15.769  1.00  0.00    -0.173 SA
HETATM   10  C1  UNL     1      22.349  33.288  17.356  1.00  0.00     0.089 C 
ENDBRANCH   8   9
ENDBRANCH   7   8
ENDBRANCH   6   7
BRANCH   6  11
HETATM   11  N1  UNL     1      20.353  31.452  14.737  1.00  0.00    -0.342 N 
HETATM   12  C5  UNL     1      19.258  31.776  13.921  1.00  0.00     0.269 C 
HETATM   13  O1  UNL     1      19.362  31.720  12.672  1.00  0.00    -0.266 OA
ATOM     14  H1  UNL     1      20.168  31.516  15.737  1.00  0.00     0.163 HD
BRANCH  12  15
HETATM   15  C6  UNL     1      17.955  32.192  14.535  1.00  0.00     0.107 A 
HETATM   16  C7  UNL     1      17.158  31.278  15.188  1.00  0.00     0.086 A 
HETATM   17  S2  UNL     1      15.847  32.248  15.683  1.00  0.00    -0.094 SA
HETATM   18  C8  UNL     1      16.370  33.738  15.045  1.00  0.00     0.138 A 
HETATM   19  N2  UNL     1      17.518  33.425  14.487  1.00  0.00    -0.355 N 
ATOM     20  H2  UNL     1      18.069  34.142  14.016  1.00  0.00     0.166 HD
ENDBRANCH  12  15
ENDBRANCH   6  11
ENDBRANCH   3   6
ENDBRANCH   1   2
BRANCH   1  21
HETATM   21  C11 UNL     1      22.986  28.120  11.017  1.00  0.00     0.037 C 
BRANCH  21  22
HETATM   22  C12 UNL     1      23.794  26.886  11.131  1.00  0.00    -0.020 C 
HETATM   23  C13 UNL     1      24.543  26.617   9.811  1.00  0.00     0.009 C 
HETATM   24  C14 UNL     1      24.972  27.165  12.121  1.00  0.00     0.009 C 
ENDBRANCH  21  22
ENDBRANCH   1  21
BRANCH   1  25
HETATM   25  C15 UNL     1      20.431  27.835  11.302  1.00  0.00     0.138 C 
BRANCH  25  26
HETATM   26  O3  UNL     1      19.537  28.847  11.482  1.00  0.00    -0.348 OA
ATOM     27  H3  UNL     1      18.695  28.602  11.119  1.00  0.00     0.219 HD
ENDBRANCH  25  26
BRANCH  25  28
HETATM   28  N4  UNL     1      19.827  26.710  10.736  1.00  0.00    -0.340 N 
HETATM   29  C16 UNL     1      18.933  25.723  11.302  1.00  0.00     0.200 C 
HETATM   30  S3  UNL     1      17.553  25.946  10.088  1.00  0.00    -0.137 SA
HETATM   31  C17 UNL     1      18.676  26.209   8.647  1.00  0.00     0.032 C 
HETATM   32  C18 UNL     1      18.503  25.025   7.730  1.00  0.00     0.029 C 
HETATM   33  C19 UNL     1      18.271  27.480   7.926  1.00  0.00     0.029 C 
HETATM   34  C20 UNL     1      20.002  26.334   9.304  1.00  0.00     0.197 C 
BRANCH  34  35
HETATM   35  C21 UNL     1      20.952  25.245   9.153  1.00  0.00     0.242 C 
HETATM   36  O4  UNL     1      21.119  24.377  10.084  1.00  0.00    -0.271 OA
HETATM   37  N5  UNL     1      21.758  25.039   8.013  1.00  0.00    -0.355 N 
ATOM     38  H5  UNL     1      21.671  25.697   7.238  1.00  0.00     0.162 HD
BRANCH  37  39
HETATM   39  C22 UNL     1      22.707  23.939   7.876  1.00  0.00     0.076 C 
HETATM   40  C23 UNL     1      23.890  24.421   7.064  1.00  0.00     0.032 C 
HETATM   41  C24 UNL     1      22.044  22.817   7.092  1.00  0.00     0.032 C 
ENDBRANCH  37  39
ENDBRANCH  34  35
ENDBRANCH  25  28
ENDBRANCH   1  25
TORSDOF 14
ENDMDL
MODEL 5
REMARK VINA RESULT: -7.764296461      2.506      9.383
REMARK  14 active torsions:
REMARK  status: ('A' for Active; 'I' for Inactive)
REMARK    1  A    between atoms: S1_2  and  C2_3 
REMARK    2  A    between atoms: C2_3  and  C3_4 
REMARK    3  A    between atoms: C3_4  and  C4_5 
REMARK    4  A    between atoms: C4_5  and  N1_6 
REMARK    5  A    between atoms: C4_5  and  C9_16 
REMARK       I    between atoms: N1_6  and  C5_8 
REMARK    6  A    between atoms: C5_8  and  C6_10 
REMARK       I    between atoms: C9_16  and  N3_18 
REMARK    7  A    between atoms: N3_18  and  C10_20 
REMARK    8  A    between atoms: C10_20  and  C11_21 
REMARK    9  A    between atoms: C10_20  and  C15_25 
REMARK   10  A    between atoms: C11_21  and  C12_22 
REMARK   11  A    between atoms: C15_25  and  O3_26 
REMARK   12  A    between atoms: C15_25  and  N4_28 
REMARK   13  A    between atoms: C20_34  and  C21_35 
REMARK       I    between atoms: C21_35  and  N5_37 
REMARK   14  A    between atoms: N5_37  and  C22_39 
ROOT
HETATM    1  C10 UNL     1      17.750  31.823  15.678  1.00  0.00     0.159 C 
ENDROOT
BRANCH   1   2
HETATM    2  N3  UNL     1      18.482  32.598  16.744  1.00  0.00    -0.347 N 
HETATM    3  C9  UNL     1      19.332  33.631  16.310  1.00  0.00     0.241 C 
HETATM    4  O2  UNL     1      19.436  33.852  15.047  1.00  0.00    -0.271 OA
ATOM      5  H3  UNL     1      18.366  32.384  17.735  1.00  0.00     0.163 HD
BRANCH   3   6
HETATM    6  C4  UNL     1      20.116  34.493  17.173  1.00  0.00     0.177 C 
BRANCH   6   7
HETATM    7  C3  UNL     1      21.544  34.583  16.663  1.00  0.00     0.045 C 
BRANCH   7   8
HETATM    8  C2  UNL     1      22.417  33.452  17.148  1.00  0.00     0.076 C 
BRANCH   8   9
HETATM    9  S1  UNL     1      22.680  32.234  15.811  1.00  0.00    -0.173 SA
HETATM   10  C1  UNL     1      23.379  32.974  14.337  1.00  0.00     0.089 C 
ENDBRANCH   8   9
ENDBRANCH   7   8
ENDBRANCH   6   7
BRANCH   6  11
HETATM   11  N1  UNL     1      19.494  35.706  17.518  1.00  0.00    -0.342 N 
HETATM   12  C5  UNL     1      18.381  35.974  18.330  1.00  0.00     0.269 C 
HETATM   13  O1  UNL     1      17.773  35.036  18.899  1.00  0.00    -0.266 OA
ATOM     14  H1  UNL     1      19.926  36.533  17.108  1.00  0.00     0.163 HD
BRANCH  12  15
HETATM   15  C6  UNL     1      17.907  37.384  18.522  1.00  0.00     0.107 A 
HETATM   16  C7  UNL     1      18.743  38.450  18.275  1.00  0.00     0.086 A 
HETATM   17  S2  UNL     1      17.734  39.776  18.634  1.00  0.00    -0.094 SA
HETATM   18  C8  UNL     1      16.328  38.921  19.073  1.00  0.00     0.138 A 
HETATM   19  N2  UNL     1      16.694  37.668  18.924  1.00  0.00    -0.355 N 
ATOM     20  H2  UNL     1      16.034  36.916  19.121  1.00  0.00     0.166 HD
ENDBRANCH  12  15
ENDBRANCH   6  11
ENDBRANCH   3   6
ENDBRANCH   1   2
BRANCH   1  21
HETATM   21  C11 UNL     1      16.345  31.660  16.043  1.00  0.00     0.037 C 
BRANCH  21  22
HETATM   22  C12 UNL     1      15.366  32.724  15.733  1.00  0.00    -0.020 C 
HETATM   23  C13 UNL     1      15.034  33.528  17.006  1.00  0.00     0.009 C 
HETATM   24  C14 UNL     1      16.077  33.798  14.847  1.00  0.00     0.009 C 
ENDBRANCH  21  22
ENDBRANCH   1  21
BRANCH   1  25
HETATM   25  C15 UNL     1      18.640  30.798  15.217  1.00  0.00     0.138 C 
BRANCH  25  26
HETATM   26  O3  UNL     1      19.157  30.123  16.281  1.00  0.00    -0.348 OA
ATOM     27  H3  UNL     1      19.478  30.739  16.928  1.00  0.00     0.219 HD
ENDBRANCH  25  26
BRANCH  25  28
HETATM   28  N4  UNL     1      19.119  30.295  14.006  1.00  0.00    -0.340 N 
HETATM   29  C16 UNL     1      19.225  30.904  12.697  1.00  0.00     0.200 C 
HETATM   30  S3  UNL     1      21.046  30.649  12.475  1.00  0.00    -0.137 SA
HETATM   31  C17 UNL     1      21.056  28.995  13.296  1.00  0.00     0.032 C 
HETATM   32  C18 UNL     1      21.381  27.977  12.234  1.00  0.00     0.029 C 
HETATM   33  C19 UNL     1      22.127  28.979  14.368  1.00  0.00     0.029 C 
HETATM   34  C20 UNL     1      19.688  28.923  13.868  1.00  0.00     0.197 C 
BRANCH  34  35
HETATM   35  C21 UNL     1      18.733  28.012  13.260  1.00  0.00     0.242 C 
HETATM   36  O4  UNL     1      17.803  27.465  13.957  1.00  0.00    -0.271 OA
HETATM   37  N5  UNL     1      18.732  27.646  11.897  1.00  0.00    -0.355 N 
ATOM     38  H5  UNL     1      19.449  28.048  11.293  1.00  0.00     0.162 HD
BRANCH  37  39
HETATM   39  C22 UNL     1      17.766  26.729  11.302  1.00  0.00     0.076 C 
HETATM   40  C23 UNL     1      18.330  25.326  11.364  1.00  0.00     0.032 C 
HETATM   41  C24 UNL     1      17.597  27.086   9.833  1.00  0.00     0.032 C 
ENDBRANCH  37  39
ENDBRANCH  34  35
ENDBRANCH  25  28
ENDBRANCH   1  25
TORSDOF 14
ENDMDL
