MODEL 1
REMARK VINA RESULT: -8.745622339      0.000      0.000
REMARK  15 active torsions:
REMARK  status: ('A' for Active; 'I' for Inactive)
REMARK    1  A    between atoms: C2_2  and  C3_3 
REMARK    2  A    between atoms: C3_3  and  O1_4 
REMARK    3  A    between atoms: O1_4  and  C4_5 
REMARK    4  A    between atoms: C8_9  and  C9_10 
REMARK    5  A    between atoms: C9_10  and  N1_11 
REMARK    6  A    between atoms: C9_10  and  N6_40 
REMARK    7  A    between atoms: N1_11  and  C10_13 
REMARK    8  A    between atoms: C11_16  and  N3_17 
REMARK    9  A    between atoms: N3_17  and  C12_19 
REMARK   10  A    between atoms: C12_19  and  C13_20 
REMARK   11  A    between atoms: C13_20  and  C14_21 
REMARK   12  A    between atoms: C14_21  and  N4_22 
REMARK   13  A    between atoms: C21_30  and  O3_31 
REMARK   14  A    between atoms: C23_33  and  O4_34 
REMARK   15  A    between atoms: C29_44  and  O5_45 
ROOT
HETATM    1  C10 UNL     1      20.274  29.824  15.377  1.00  0.00     0.682 A 
HETATM    2  N2  UNL     1      19.237  29.078  14.911  1.00  0.00    -0.176 N 
ATOM      3  H2  UNL     1      18.327  29.168  15.365  1.00  0.00     0.186 HD
HETATM    4  C11 UNL     1      19.359  28.231  13.884  1.00  0.00     0.133 A 
HETATM    5  C19 UNL     1      20.593  28.116  13.279  1.00  0.00     0.039 A 
HETATM    6  C20 UNL     1      20.769  27.269  12.230  1.00  0.00     0.057 A 
HETATM    7  C21 UNL     1      21.973  27.129  11.607  1.00  0.00     0.102 A 
HETATM    8  C23 UNL     1      23.050  27.886  12.070  1.00  0.00     0.103 A 
HETATM    9  C25 UNL     1      22.911  28.753  13.127  1.00  0.00     0.070 A 
HETATM   10  C26 UNL     1      21.681  28.870  13.734  1.00  0.00     0.066 A 
HETATM   11  N5  UNL     1      21.484  29.701  14.772  1.00  0.00    -0.191 N 
ATOM     12  H5  UNL     1      22.267  30.256  15.116  1.00  0.00     0.184 HD
ENDROOT
BRANCH   1  13
HETATM   13  N1  UNL     1      20.134  30.636  16.369  1.00  0.00    -0.201 N 
ATOM     14  H1  UNL     1      19.854  30.256  17.274  1.00  0.00     0.180 HD
BRANCH  13  15
HETATM   15  C9  UNL     1      20.356  32.065  16.258  1.00  0.00     0.228 C 
BRANCH  15  16
HETATM   16  C8  UNL     1      19.091  32.813  16.412  1.00  0.00    -0.013 A 
HETATM   17  C7  UNL     1      17.899  32.230  16.093  1.00  0.00     0.020 A 
HETATM   18  C5  UNL     1      16.684  32.918  16.219  1.00  0.00    -0.025 A 
HETATM   19  C4  UNL     1      16.654  34.220  16.674  1.00  0.00     0.108 A 
HETATM   20  C6  UNL     1      15.398  32.249  15.858  1.00  0.00     0.051 C 
HETATM   21  C29 UNL     1      17.874  34.792  16.993  1.00  0.00     0.102 A 
HETATM   22  C28 UNL     1      19.059  34.119  16.869  1.00  0.00     0.050 A 
BRANCH  19  23
HETATM   23  O1  UNL     1      15.469  34.922  16.807  1.00  0.00    -0.344 OA
BRANCH  23  24
HETATM   24  C3  UNL     1      14.816  34.885  18.079  1.00  0.00     0.202 C 
BRANCH  24  25
HETATM   25  C2  UNL     1      14.182  36.178  18.393  1.00  0.00    -0.011 C 
HETATM   26  C1  UNL     1      14.832  37.061  19.131  1.00  0.00     0.009 C 
ENDBRANCH  24  25
ENDBRANCH  23  24
ENDBRANCH  19  23
BRANCH  21  27
HETATM   27  O5  UNL     1      17.827  36.105  17.451  1.00  0.00    -0.353 OA
HETATM   28  C30 UNL     1      18.730  36.492  18.461  1.00  0.00     0.210 C 
ENDBRANCH  21  27
ENDBRANCH  15  16
BRANCH  15  29
HETATM   29  N6  UNL     1      21.286  32.529  17.265  1.00  0.00    -0.402 N 
HETATM   30  C27 UNL     1      22.606  32.788  16.790  1.00  0.00     0.142 C 
ATOM     31  H6  UNL     1      21.018  32.660  18.241  1.00  0.00     0.155 HD
ENDBRANCH  15  29
ENDBRANCH  13  15
ENDBRANCH   1  13
BRANCH   4  32
HETATM   32  N3  UNL     1      18.395  27.549  13.463  1.00  0.00    -0.355 N 
ATOM     33  H3  UNL     1      18.437  26.575  13.760  1.00  0.00     0.166 HD
BRANCH  32  34
HETATM   34  C12 UNL     1      17.275  27.834  12.674  1.00  0.00     0.064 C 
BRANCH  34  35
HETATM   35  C13 UNL     1      17.533  28.682  11.456  1.00  0.00     0.074 C 
BRANCH  35  36
HETATM   36  C14 UNL     1      17.241  27.811  10.251  1.00  0.00     0.277 C 
BRANCH  36  37
HETATM   37  N4  UNL     1      18.265  26.831  10.023  1.00  0.00     0.092 N 
HETATM   38  C15 UNL     1      19.094  27.291   8.933  1.00  0.00     0.298 C 
HETATM   39  C16 UNL     1      18.423  27.096   7.584  1.00  0.00     0.198 C 
HETATM   40  O2  UNL     1      17.996  25.794   7.394  1.00  0.00    -0.388 OA
HETATM   41  C17 UNL     1      17.028  25.497   8.375  1.00  0.00     0.198 C 
HETATM   42  C18 UNL     1      17.761  25.532   9.702  1.00  0.00     0.298 C 
ENDBRANCH  36  37
ENDBRANCH  35  36
ENDBRANCH  34  35
ENDBRANCH  32  34
ENDBRANCH   4  32
BRANCH   8  43
HETATM   43  O4  UNL     1      24.245  27.691  11.385  1.00  0.00    -0.353 OA
HETATM   44  C24 UNL     1      25.149  26.661  11.732  1.00  0.00     0.210 C 
ENDBRANCH   8  43
BRANCH   7  45
HETATM   45  O3  UNL     1      22.097  26.260  10.552  1.00  0.00    -0.353 OA
HETATM   46  C22 UNL     1      21.646  24.938  10.672  1.00  0.00     0.210 C 
ENDBRANCH   7  45
TORSDOF 15
ENDMDL
MODEL 2
REMARK VINA RESULT: -8.412464177      0.497      1.650
REMARK  15 active torsions:
REMARK  status: ('A' for Active; 'I' for Inactive)
REMARK    1  A    between atoms: C2_2  and  C3_3 
REMARK    2  A    between atoms: C3_3  and  O1_4 
REMARK    3  A    between atoms: O1_4  and  C4_5 
REMARK    4  A    between atoms: C8_9  and  C9_10 
REMARK    5  A    between atoms: C9_10  and  N1_11 
REMARK    6  A    between atoms: C9_10  and  N6_40 
REMARK    7  A    between atoms: N1_11  and  C10_13 
REMARK    8  A    between atoms: C11_16  and  N3_17 
REMARK    9  A    between atoms: N3_17  and  C12_19 
REMARK   10  A    between atoms: C12_19  and  C13_20 
REMARK   11  A    between atoms: C13_20  and  C14_21 
REMARK   12  A    between atoms: C14_21  and  N4_22 
REMARK   13  A    between atoms: C21_30  and  O3_31 
REMARK   14  A    between atoms: C23_33  and  O4_34 
REMARK   15  A    between atoms: C29_44  and  O5_45 
ROOT
HETATM    1  C10 UNL     1      20.303  30.044  15.494  1.00  0.00     0.682 A 
HETATM    2  N2  UNL     1      19.263  29.261  15.099  1.00  0.00    -0.176 N 
ATOM      3  H2  UNL     1      18.365  29.366  15.573  1.00  0.00     0.186 HD
HETATM    4  C11 UNL     1      19.368  28.361  14.117  1.00  0.00     0.133 A 
HETATM    5  C19 UNL     1      20.587  28.227  13.484  1.00  0.00     0.039 A 
HETATM    6  C20 UNL     1      20.744  27.325  12.479  1.00  0.00     0.057 A 
HETATM    7  C21 UNL     1      21.932  27.165  11.831  1.00  0.00     0.102 A 
HETATM    8  C23 UNL     1      23.012  27.958  12.221  1.00  0.00     0.103 A 
HETATM    9  C25 UNL     1      22.890  28.881  13.233  1.00  0.00     0.070 A 
HETATM   10  C26 UNL     1      21.677  29.017  13.867  1.00  0.00     0.066 A 
HETATM   11  N5  UNL     1      21.498  29.901  14.863  1.00  0.00    -0.191 N 
ATOM     12  H5  UNL     1      22.283  30.484  15.154  1.00  0.00     0.184 HD
ENDROOT
BRANCH   1  13
HETATM   13  N1  UNL     1      20.180  30.908  16.444  1.00  0.00    -0.201 N 
ATOM     14  H1  UNL     1      19.835  30.590  17.350  1.00  0.00     0.180 HD
BRANCH  13  15
HETATM   15  C9  UNL     1      20.509  32.312  16.282  1.00  0.00     0.228 C 
BRANCH  15  16
HETATM   16  C8  UNL     1      19.319  33.164  16.490  1.00  0.00    -0.013 A 
HETATM   17  C7  UNL     1      19.398  34.286  17.262  1.00  0.00     0.020 A 
HETATM   18  C5  UNL     1      18.284  35.107  17.486  1.00  0.00    -0.025 A 
HETATM   19  C4  UNL     1      17.061  34.804  16.928  1.00  0.00     0.108 A 
HETATM   20  C6  UNL     1      18.407  36.327  18.339  1.00  0.00     0.051 C 
HETATM   21  C29 UNL     1      17.002  33.662  16.147  1.00  0.00     0.102 A 
HETATM   22  C28 UNL     1      18.091  32.862  15.930  1.00  0.00     0.050 A 
BRANCH  19  23
HETATM   23  O1  UNL     1      15.945  35.598  17.133  1.00  0.00    -0.344 OA
BRANCH  23  24
HETATM   24  C3  UNL     1      15.077  35.253  18.215  1.00  0.00     0.202 C 
BRANCH  24  25
HETATM   25  C2  UNL     1      14.219  36.391  18.596  1.00  0.00    -0.011 C 
HETATM   26  C1  UNL     1      14.746  37.420  19.235  1.00  0.00     0.009 C 
ENDBRANCH  24  25
ENDBRANCH  23  24
ENDBRANCH  19  23
BRANCH  21  27
HETATM   27  O5  UNL     1      15.761  33.370  15.589  1.00  0.00    -0.353 OA
HETATM   28  C30 UNL     1      15.102  32.198  16.005  1.00  0.00     0.210 C 
ENDBRANCH  21  27
ENDBRANCH  15  16
BRANCH  15  29
HETATM   29  N6  UNL     1      21.532  32.719  17.222  1.00  0.00    -0.402 N 
HETATM   30  C27 UNL     1      22.798  33.017  16.638  1.00  0.00     0.142 C 
ATOM     31  H6  UNL     1      21.359  32.788  18.225  1.00  0.00     0.155 HD
ENDBRANCH  15  29
ENDBRANCH  13  15
ENDBRANCH   1  13
BRANCH   4  32
HETATM   32  N3  UNL     1      18.402  27.646  13.762  1.00  0.00    -0.355 N 
ATOM     33  H3  UNL     1      18.427  26.711  14.169  1.00  0.00     0.166 HD
BRANCH  32  34
HETATM   34  C12 UNL     1      17.296  27.850  12.928  1.00  0.00     0.064 C 
BRANCH  34  35
HETATM   35  C13 UNL     1      17.531  28.748  11.741  1.00  0.00     0.074 C 
BRANCH  35  36
HETATM   36  C14 UNL     1      17.261  27.914  10.506  1.00  0.00     0.277 C 
BRANCH  36  37
HETATM   37  N4  UNL     1      18.274  26.919  10.285  1.00  0.00     0.092 N 
HETATM   38  C15 UNL     1      19.117  27.368   9.202  1.00  0.00     0.298 C 
HETATM   39  C16 UNL     1      18.453  27.182   7.848  1.00  0.00     0.198 C 
HETATM   40  O2  UNL     1      18.009  25.886   7.655  1.00  0.00    -0.388 OA
HETATM   41  C17 UNL     1      17.030  25.602   8.628  1.00  0.00     0.198 C 
HETATM   42  C18 UNL     1      17.754  25.627   9.961  1.00  0.00     0.298 C 
ENDBRANCH  36  37
ENDBRANCH  35  36
ENDBRANCH  34  35
ENDBRANCH  32  34
ENDBRANCH   4  32
BRANCH   8  43
HETATM   43  O4  UNL     1      24.190  27.739  11.515  1.00  0.00    -0.353 OA
HETATM   44  C24 UNL     1      25.125  26.753  11.904  1.00  0.00     0.210 C 
ENDBRANCH   8  43
BRANCH   7  45
HETATM   45  O3  UNL     1      22.039  26.240  10.823  1.00  0.00    -0.353 OA
HETATM   46  C22 UNL     1      21.532  24.945  10.999  1.00  0.00     0.210 C 
ENDBRANCH   7  45
TORSDOF 15
ENDMDL
MODEL 3
REMARK VINA RESULT: -8.301642909      1.279      1.464
REMARK  15 active torsions:
REMARK  status: ('A' for Active; 'I' for Inactive)
REMARK    1  A    between atoms: C2_2  and  C3_3 
REMARK    2  A    between atoms: C3_3  and  O1_4 
REMARK    3  A    between atoms: O1_4  and  C4_5 
REMARK    4  A    between atoms: C8_9  and  C9_10 
REMARK    5  A    between atoms: C9_10  and  N1_11 
REMARK    6  A    between atoms: C9_10  and  N6_40 
REMARK    7  A    between atoms: N1_11  and  C10_13 
REMARK    8  A    between atoms: C11_16  and  N3_17 
REMARK    9  A    between atoms: N3_17  and  C12_19 
REMARK   10  A    between atoms: C12_19  and  C13_20 
REMARK   11  A    between atoms: C13_20  and  C14_21 
REMARK   12  A    between atoms: C14_21  and  N4_22 
REMARK   13  A    between atoms: C21_30  and  O3_31 
REMARK   14  A    between atoms: C23_33  and  O4_34 
REMARK   15  A    between atoms: C29_44  and  O5_45 
ROOT
HETATM    1  C10 UNL     1      21.490  29.986  14.243  1.00  0.00     0.682 A 
HETATM    2  N2  UNL     1      20.283  29.385  14.067  1.00  0.00    -0.176 N 
ATOM      3  H2  UNL     1      19.461  29.803  14.505  1.00  0.00     0.186 HD
HETATM    4  C11 UNL     1      20.128  28.270  13.346  1.00  0.00     0.133 A 
HETATM    5  C19 UNL     1      21.246  27.714  12.761  1.00  0.00     0.039 A 
HETATM    6  C20 UNL     1      21.141  26.580  12.017  1.00  0.00     0.057 A 
HETATM    7  C21 UNL     1      22.222  26.002  11.423  1.00  0.00     0.102 A 
HETATM    8  C23 UNL     1      23.471  26.603  11.592  1.00  0.00     0.103 A 
HETATM    9  C25 UNL     1      23.616  27.750  12.336  1.00  0.00     0.070 A 
HETATM   10  C26 UNL     1      22.503  28.307  12.922  1.00  0.00     0.066 A 
HETATM   11  N5  UNL     1      22.583  29.427  13.661  1.00  0.00    -0.191 N 
ATOM     12  H5  UNL     1      23.492  29.871  13.789  1.00  0.00     0.184 HD
ENDROOT
BRANCH   1  13
HETATM   13  N1  UNL     1      21.617  31.062  14.942  1.00  0.00    -0.201 N 
ATOM     14  H1  UNL     1      22.079  31.002  15.850  1.00  0.00     0.180 HD
BRANCH  13  15
HETATM   15  C9  UNL     1      21.133  32.355  14.497  1.00  0.00     0.228 C 
BRANCH  15  16
HETATM   16  C8  UNL     1      20.107  32.885  15.419  1.00  0.00    -0.013 A 
HETATM   17  C7  UNL     1      18.807  32.485  15.313  1.00  0.00     0.020 A 
HETATM   18  C5  UNL     1      17.810  32.978  16.166  1.00  0.00    -0.025 A 
HETATM   19  C4  UNL     1      18.115  33.894  17.152  1.00  0.00     0.108 A 
HETATM   20  C6  UNL     1      16.397  32.520  16.019  1.00  0.00     0.051 C 
HETATM   21  C29 UNL     1      19.440  34.286  17.245  1.00  0.00     0.102 A 
HETATM   22  C28 UNL     1      20.411  33.803  16.409  1.00  0.00     0.050 A 
BRANCH  19  23
HETATM   23  O1  UNL     1      17.151  34.397  18.008  1.00  0.00    -0.344 OA
BRANCH  23  24
HETATM   24  C3  UNL     1      16.514  35.623  17.641  1.00  0.00     0.202 C 
BRANCH  24  25
HETATM   25  C2  UNL     1      15.205  35.765  18.304  1.00  0.00    -0.011 C 
HETATM   26  C1  UNL     1      14.146  35.158  17.796  1.00  0.00     0.009 C 
ENDBRANCH  24  25
ENDBRANCH  23  24
ENDBRANCH  19  23
BRANCH  21  27
HETATM   27  O5  UNL     1      19.733  35.209  18.244  1.00  0.00    -0.353 OA
HETATM   28  C30 UNL     1      20.113  36.509  17.861  1.00  0.00     0.210 C 
ENDBRANCH  21  27
ENDBRANCH  15  16
BRANCH  15  29
HETATM   29  N6  UNL     1      22.212  33.317  14.414  1.00  0.00    -0.402 N 
HETATM   30  C27 UNL     1      23.505  32.793  14.711  1.00  0.00     0.142 C 
ATOM     31  H6  UNL     1      22.059  34.293  14.162  1.00  0.00     0.155 HD
ENDBRANCH  15  29
ENDBRANCH  13  15
ENDBRANCH   1  13
BRANCH   4  32
HETATM   32  N3  UNL     1      19.010  27.726  13.191  1.00  0.00    -0.355 N 
ATOM     33  H3  UNL     1      19.004  26.743  13.461  1.00  0.00     0.166 HD
BRANCH  32  34
HETATM   34  C12 UNL     1      17.767  28.174  12.728  1.00  0.00     0.064 C 
BRANCH  34  35
HETATM   35  C13 UNL     1      17.757  28.742  11.333  1.00  0.00     0.074 C 
BRANCH  35  36
HETATM   36  C14 UNL     1      17.263  27.639  10.418  1.00  0.00     0.277 C 
BRANCH  36  37
HETATM   37  N4  UNL     1      18.308  26.724  10.052  1.00  0.00     0.092 N 
HETATM   38  C15 UNL     1      19.087  27.330   8.997  1.00  0.00     0.298 C 
HETATM   39  C16 UNL     1      18.379  27.265   7.655  1.00  0.00     0.198 C 
HETATM   40  O2  UNL     1      17.984  25.979   7.332  1.00  0.00    -0.388 OA
HETATM   41  C17 UNL     1      17.057  25.543   8.300  1.00  0.00     0.198 C 
HETATM   42  C18 UNL     1      17.832  25.453   9.601  1.00  0.00     0.298 C 
ENDBRANCH  36  37
ENDBRANCH  35  36
ENDBRANCH  34  35
ENDBRANCH  32  34
ENDBRANCH   4  32
BRANCH   8  43
HETATM   43  O4  UNL     1      24.526  25.957  10.956  1.00  0.00    -0.353 OA
HETATM   44  C24 UNL     1      25.030  26.391   9.710  1.00  0.00     0.210 C 
ENDBRANCH   8  43
BRANCH   7  45
HETATM   45  O3  UNL     1      22.062  24.857  10.683  1.00  0.00    -0.353 OA
HETATM   46  C22 UNL     1      21.632  24.935   9.351  1.00  0.00     0.210 C 
ENDBRANCH   7  45
TORSDOF 15
ENDMDL
MODEL 4
REMARK VINA RESULT: -8.229362307      1.898      5.854
REMARK  15 active torsions:
REMARK  status: ('A' for Active; 'I' for Inactive)
REMARK    1  A    between atoms: C2_2  and  C3_3 
REMARK    2  A    between atoms: C3_3  and  O1_4 
REMARK    3  A    between atoms: O1_4  and  C4_5 
REMARK    4  A    between atoms: C8_9  and  C9_10 
REMARK    5  A    between atoms: C9_10  and  N1_11 
REMARK    6  A    between atoms: C9_10  and  N6_40 
REMARK    7  A    between atoms: N1_11  and  C10_13 
REMARK    8  A    between atoms: C11_16  and  N3_17 
REMARK    9  A    between atoms: N3_17  and  C12_19 
REMARK   10  A    between atoms: C12_19  and  C13_20 
REMARK   11  A    between atoms: C13_20  and  C14_21 
REMARK   12  A    between atoms: C14_21  and  N4_22 
REMARK   13  A    between atoms: C21_30  and  O3_31 
REMARK   14  A    between atoms: C23_33  and  O4_34 
REMARK   15  A    between atoms: C29_44  and  O5_45 
ROOT
HETATM    1  C10 UNL     1      18.512  30.191  15.148  1.00  0.00     0.682 A 
HETATM    2  N2  UNL     1      19.832  30.466  15.331  1.00  0.00    -0.176 N 
ATOM      3  H2  UNL     1      20.094  31.165  16.027  1.00  0.00     0.186 HD
HETATM    4  C11 UNL     1      20.799  29.858  14.638  1.00  0.00     0.133 A 
HETATM    5  C19 UNL     1      20.433  28.916  13.698  1.00  0.00     0.039 A 
HETATM    6  C20 UNL     1      21.381  28.270  12.967  1.00  0.00     0.057 A 
HETATM    7  C21 UNL     1      21.057  27.334  12.031  1.00  0.00     0.102 A 
HETATM    8  C23 UNL     1      19.708  27.038  11.829  1.00  0.00     0.103 A 
HETATM    9  C25 UNL     1      18.723  27.670  12.549  1.00  0.00     0.070 A 
HETATM   10  C26 UNL     1      19.084  28.611  13.486  1.00  0.00     0.066 A 
HETATM   11  N5  UNL     1      18.166  29.262  14.220  1.00  0.00    -0.191 N 
ATOM     12  H5  UNL     1      17.178  29.051  14.076  1.00  0.00     0.184 HD
ENDROOT
BRANCH   1  13
HETATM   13  N1  UNL     1      17.594  30.789  15.830  1.00  0.00    -0.201 N 
ATOM     14  H1  UNL     1      17.469  30.531  16.809  1.00  0.00     0.180 HD
BRANCH  13  15
HETATM   15  C9  UNL     1      16.732  31.811  15.267  1.00  0.00     0.228 C 
BRANCH  15  16
HETATM   16  C8  UNL     1      16.402  32.841  16.274  1.00  0.00    -0.013 A 
HETATM   17  C7  UNL     1      15.132  33.332  16.372  1.00  0.00     0.020 A 
HETATM   18  C5  UNL     1      14.792  34.317  17.310  1.00  0.00    -0.025 A 
HETATM   19  C4  UNL     1      15.739  34.827  18.173  1.00  0.00     0.108 A 
HETATM   20  C6  UNL     1      13.392  34.833  17.387  1.00  0.00     0.051 C 
HETATM   21  C29 UNL     1      17.021  34.314  18.059  1.00  0.00     0.102 A 
HETATM   22  C28 UNL     1      17.350  33.353  17.142  1.00  0.00     0.050 A 
BRANCH  19  23
HETATM   23  O1  UNL     1      15.430  35.799  19.108  1.00  0.00    -0.344 OA
BRANCH  23  24
HETATM   24  C3  UNL     1      15.568  37.166  18.712  1.00  0.00     0.202 C 
BRANCH  24  25
HETATM   25  C2  UNL     1      14.500  38.001  19.293  1.00  0.00    -0.011 C 
HETATM   26  C1  UNL     1      14.811  38.951  20.157  1.00  0.00     0.009 C 
ENDBRANCH  24  25
ENDBRANCH  23  24
ENDBRANCH  19  23
BRANCH  21  27
HETATM   27  O5  UNL     1      17.965  34.837  18.937  1.00  0.00    -0.353 OA
HETATM   28  C30 UNL     1      18.912  35.748  18.432  1.00  0.00     0.210 C 
ENDBRANCH  21  27
ENDBRANCH  15  16
BRANCH  15  29
HETATM   29  N6  UNL     1      17.362  32.462  14.138  1.00  0.00    -0.402 N 
HETATM   30  C27 UNL     1      17.945  33.731  14.427  1.00  0.00     0.142 C 
ATOM     31  H6  UNL     1      17.387  32.045  13.208  1.00  0.00     0.155 HD
ENDBRANCH  15  29
ENDBRANCH  13  15
ENDBRANCH   1  13
BRANCH   4  32
HETATM   32  N3  UNL     1      22.012  30.119  14.815  1.00  0.00    -0.355 N 
ATOM     33  H3  UNL     1      22.517  29.366  15.282  1.00  0.00     0.166 HD
BRANCH  32  34
HETATM   34  C12 UNL     1      22.824  31.218  14.513  1.00  0.00     0.064 C 
BRANCH  34  35
HETATM   35  C13 UNL     1      22.109  32.429  13.972  1.00  0.00     0.074 C 
BRANCH  35  36
HETATM   36  C14 UNL     1      22.468  33.587  14.881  1.00  0.00     0.277 C 
BRANCH  36  37
HETATM   37  N4  UNL     1      21.350  34.035  15.664  1.00  0.00     0.092 N 
HETATM   38  C15 UNL     1      21.547  35.433  15.968  1.00  0.00     0.298 C 
HETATM   39  C16 UNL     1      22.570  35.638  17.072  1.00  0.00     0.198 C 
HETATM   40  O2  UNL     1      22.277  34.899  18.204  1.00  0.00    -0.388 OA
HETATM   41  C17 UNL     1      22.317  33.531  17.863  1.00  0.00     0.198 C 
HETATM   42  C18 UNL     1      21.176  33.316  16.888  1.00  0.00     0.298 C 
ENDBRANCH  36  37
ENDBRANCH  35  36
ENDBRANCH  34  35
ENDBRANCH  32  34
ENDBRANCH   4  32
BRANCH   8  43
HETATM   43  O4  UNL     1      19.457  26.073  10.859  1.00  0.00    -0.353 OA
HETATM   44  C24 UNL     1      18.167  25.533  10.656  1.00  0.00     0.210 C 
ENDBRANCH   8  43
BRANCH   7  45
HETATM   45  O3  UNL     1      22.052  26.711  11.319  1.00  0.00    -0.353 OA
HETATM   46  C22 UNL     1      23.384  26.798  11.746  1.00  0.00     0.210 C 
ENDBRANCH   7  45
TORSDOF 15
ENDMDL
MODEL 5
REMARK VINA RESULT: -8.122487716      1.952     10.993
REMARK  15 active torsions:
REMARK  status: ('A' for Active; 'I' for Inactive)
REMARK    1  A    between atoms: C2_2  and  C3_3 
REMARK    2  A    between atoms: C3_3  and  O1_4 
REMARK    3  A    between atoms: O1_4  and  C4_5 
REMARK    4  A    between atoms: C8_9  and  C9_10 
REMARK    5  A    between atoms: C9_10  and  N1_11 
REMARK    6  A    between atoms: C9_10  and  N6_40 
REMARK    7  A    between atoms: N1_11  and  C10_13 
REMARK    8  A    between atoms: C11_16  and  N3_17 
REMARK    9  A    between atoms: N3_17  and  C12_19 
REMARK   10  A    between atoms: C12_19  and  C13_20 
REMARK   11  A    between atoms: C13_20  and  C14_21 
REMARK   12  A    between atoms: C14_21  and  N4_22 
REMARK   13  A    between atoms: C21_30  and  O3_31 
REMARK   14  A    between atoms: C23_33  and  O4_34 
REMARK   15  A    between atoms: C29_44  and  O5_45 
ROOT
HETATM    1  C10 UNL     1      19.883  29.456  14.791  1.00  0.00     0.682 A 
HETATM    2  N2  UNL     1      20.744  30.162  15.571  1.00  0.00    -0.176 N 
ATOM      3  H2  UNL     1      21.702  29.827  15.670  1.00  0.00     0.186 HD
HETATM    4  C11 UNL     1      20.386  31.278  16.214  1.00  0.00     0.133 A 
HETATM    5  C19 UNL     1      19.087  31.722  16.074  1.00  0.00     0.039 A 
HETATM    6  C20 UNL     1      18.675  32.852  16.708  1.00  0.00     0.057 A 
HETATM    7  C21 UNL     1      17.400  33.321  16.594  1.00  0.00     0.102 A 
HETATM    8  C23 UNL     1      16.502  32.610  15.797  1.00  0.00     0.103 A 
HETATM    9  C25 UNL     1      16.883  31.464  15.141  1.00  0.00     0.070 A 
HETATM   10  C26 UNL     1      18.177  31.018  15.279  1.00  0.00     0.066 A 
HETATM   11  N5  UNL     1      18.607  29.904  14.662  1.00  0.00    -0.191 N 
ATOM     12  H5  UNL     1      17.956  29.378  14.079  1.00  0.00     0.184 HD
ENDROOT
BRANCH   1  13
HETATM   13  N1  UNL     1      20.249  28.381  14.178  1.00  0.00    -0.201 N 
ATOM     14  H1  UNL     1      20.881  27.739  14.656  1.00  0.00     0.180 HD
BRANCH  13  15
HETATM   15  C9  UNL     1      19.804  28.045  12.838  1.00  0.00     0.228 C 
BRANCH  15  16
HETATM   16  C8  UNL     1      20.852  27.309  12.100  1.00  0.00    -0.013 A 
HETATM   17  C7  UNL     1      22.172  27.549  12.347  1.00  0.00     0.020 A 
HETATM   18  C5  UNL     1      23.187  26.874  11.655  1.00  0.00    -0.025 A 
HETATM   19  C4  UNL     1      22.881  25.935  10.692  1.00  0.00     0.108 A 
HETATM   20  C6  UNL     1      24.622  27.165  11.950  1.00  0.00     0.051 C 
HETATM   21  C29 UNL     1      21.536  25.705  10.457  1.00  0.00     0.102 A 
HETATM   22  C28 UNL     1      20.547  26.366  11.134  1.00  0.00     0.050 A 
BRANCH  19  23
HETATM   23  O1  UNL     1      23.864  25.255   9.994  1.00  0.00    -0.344 OA
BRANCH  23  24
HETATM   24  C3  UNL     1      24.275  25.792   8.734  1.00  0.00     0.202 C 
BRANCH  24  25
HETATM   25  C2  UNL     1      24.240  24.764   7.678  1.00  0.00    -0.011 C 
HETATM   26  C1  UNL     1      23.544  24.984   6.576  1.00  0.00     0.009 C 
ENDBRANCH  24  25
ENDBRANCH  23  24
ENDBRANCH  19  23
BRANCH  21  27
HETATM   27  O5  UNL     1      21.243  24.755   9.484  1.00  0.00    -0.353 OA
HETATM   28  C30 UNL     1      20.359  25.112   8.448  1.00  0.00     0.210 C 
ENDBRANCH  21  27
ENDBRANCH  15  16
BRANCH  15  29
HETATM   29  N6  UNL     1      18.611  27.227  12.874  1.00  0.00    -0.402 N 
HETATM   30  C27 UNL     1      17.512  27.736  12.120  1.00  0.00     0.142 C 
ATOM     31  H6  UNL     1      18.560  26.354  13.399  1.00  0.00     0.155 HD
ENDBRANCH  15  29
ENDBRANCH  13  15
ENDBRANCH   1  13
BRANCH   4  32
HETATM   32  N3  UNL     1      21.188  31.922  16.930  1.00  0.00    -0.355 N 
ATOM     33  H3  UNL     1      20.926  31.928  17.916  1.00  0.00     0.166 HD
BRANCH  32  34
HETATM   34  C12 UNL     1      22.365  32.633  16.673  1.00  0.00     0.064 C 
BRANCH  34  35
HETATM   35  C13 UNL     1      22.265  33.698  15.612  1.00  0.00     0.074 C 
BRANCH  35  36
HETATM   36  C14 UNL     1      21.446  34.826  16.204  1.00  0.00     0.277 C 
BRANCH  36  37
HETATM   37  N4  UNL     1      21.865  35.167  17.535  1.00  0.00     0.092 N 
HETATM   38  C15 UNL     1      20.688  35.258  18.367  1.00  0.00     0.298 C 
HETATM   39  C16 UNL     1      19.924  36.550  18.136  1.00  0.00     0.198 C 
HETATM   40  O2  UNL     1      20.731  37.667  18.259  1.00  0.00    -0.388 OA
HETATM   41  C17 UNL     1      21.730  37.604  17.266  1.00  0.00     0.198 C 
HETATM   42  C18 UNL     1      22.585  36.400  17.616  1.00  0.00     0.298 C 
ENDBRANCH  36  37
ENDBRANCH  35  36
ENDBRANCH  34  35
ENDBRANCH  32  34
ENDBRANCH   4  32
BRANCH   8  43
HETATM   43  O4  UNL     1      15.221  33.149  15.728  1.00  0.00    -0.353 OA
HETATM   44  C24 UNL     1      14.275  32.969  16.761  1.00  0.00     0.210 C 
ENDBRANCH   8  43
BRANCH   7  45
HETATM   45  O3  UNL     1      17.034  34.467  17.254  1.00  0.00    -0.353 OA
HETATM   46  C22 UNL     1      16.853  35.662  16.544  1.00  0.00     0.210 C 
ENDBRANCH   7  45
TORSDOF 15
ENDMDL
