MODEL 1
REMARK VINA RESULT: -8.739853151      0.000      0.000
REMARK  16 active torsions:
REMARK  status: ('A' for Active; 'I' for Inactive)
REMARK    1  A    between atoms: O1_2  and  C2_3 
REMARK    2  A    between atoms: C2_3  and  C3_4 
REMARK    3  A    between atoms: C3_4  and  O2_5 
REMARK    4  A    between atoms: O2_5  and  C4_6 
REMARK    5  A    between atoms: C6_8  and  C7_9 
REMARK       I    between atoms: C7_9  and  N1_11 
REMARK    6  A    between atoms: N1_11  and  C8_13 
REMARK    7  A    between atoms: C8_13  and  O4_14 
REMARK    8  A    between atoms: C8_13  and  C9_16 
REMARK    9  A    between atoms: C9_16  and  N2_17 
REMARK       I    between atoms: N2_17  and  C10_19 
REMARK   10  A    between atoms: C10_19  and  C11_21 
REMARK   11  A    between atoms: C11_21  and  N3_22 
REMARK   12  A    between atoms: C11_21  and  C17_31 
REMARK       I    between atoms: N3_22  and  C12_24 
REMARK   13  A    between atoms: C12_24  and  O7_26 
REMARK   14  A    between atoms: O7_26  and  C13_27 
REMARK   15  A    between atoms: C24_38  and  O8_39 
REMARK   16  A    between atoms: C27_42  and  O9_43 
ROOT
HETATM    1  C9  UNL     1      21.186  32.176  15.864  1.00  0.00     0.098 C 
HETATM    2  C20 UNL     1      22.551  32.175  16.468  1.00  0.00     0.040 C 
HETATM    3  C21 UNL     1      23.514  32.877  15.579  1.00  0.00     0.003 C 
HETATM    4  C22 UNL     1      22.756  33.349  14.386  1.00  0.00     0.003 C 
HETATM    5  C23 UNL     1      21.368  32.800  14.509  1.00  0.00     0.040 C 
ENDROOT
BRANCH   1   6
HETATM    6  C8  UNL     1      20.565  30.855  15.827  1.00  0.00     0.147 C 
BRANCH   6   7
HETATM    7  N1  UNL     1      20.214  29.915  14.881  1.00  0.00    -0.305 N 
HETATM    8  C7  UNL     1      20.917  29.189  13.955  1.00  0.00     0.260 C 
HETATM    9  O3  UNL     1      22.175  29.357  13.811  1.00  0.00    -0.267 OA
ATOM     10  H1  UNL     1      19.213  29.716  14.867  1.00  0.00     0.171 HD
BRANCH   8  11
HETATM   11  C6  UNL     1      20.381  28.160  13.042  1.00  0.00     0.068 A 
HETATM   12  C5  UNL     1      21.296  27.296  12.437  1.00  0.00     0.059 A 
HETATM   13  C4  UNL     1      20.937  26.323  11.546  1.00  0.00     0.103 A 
HETATM   14  C27 UNL     1      19.582  26.220  11.258  1.00  0.00     0.104 A 
HETATM   15  C26 UNL     1      18.665  27.046  11.830  1.00  0.00     0.077 A 
HETATM   16  C24 UNL     1      19.055  28.037  12.738  1.00  0.00     0.086 A 
BRANCH  13  17
HETATM   17  O2  UNL     1      21.816  25.458  10.931  1.00  0.00    -0.346 OA
BRANCH  17  18
HETATM   18  C3  UNL     1      22.878  25.888  10.112  1.00  0.00     0.201 C 
BRANCH  18  19
HETATM   19  C2  UNL     1      24.123  25.129  10.522  1.00  0.00     0.193 C 
BRANCH  19  20
HETATM   20  O1  UNL     1      24.541  25.476  11.799  1.00  0.00    -0.394 OA
HETATM   21  C1  UNL     1      24.959  26.800  11.887  1.00  0.00     0.201 C 
ENDBRANCH  19  20
ENDBRANCH  18  19
ENDBRANCH  17  18
ENDBRANCH  13  17
BRANCH  14  22
HETATM   22  O9  UNL     1      19.142  25.248  10.363  1.00  0.00    -0.353 OA
HETATM   23  C28 UNL     1      18.003  25.500   9.590  1.00  0.00     0.210 C 
ENDBRANCH  14  22
BRANCH  16  24
HETATM   24  O8  UNL     1      18.079  28.847  13.290  1.00  0.00    -0.355 OA
HETATM   25  C25 UNL     1      17.542  29.920  12.562  1.00  0.00     0.210 C 
ENDBRANCH  16  24
ENDBRANCH   8  11
ENDBRANCH   6   7
BRANCH   6  26
HETATM   26  O4  UNL     1      20.241  30.415  17.057  1.00  0.00    -0.347 OA
ATOM     27  H4  UNL     1      19.304  30.494  17.194  1.00  0.00     0.219 HD
ENDBRANCH   6  26
ENDBRANCH   1   6
BRANCH   1  28
HETATM   28  N2  UNL     1      20.294  33.057  16.669  1.00  0.00    -0.342 N 
HETATM   29  C10 UNL     1      19.085  33.606  16.274  1.00  0.00     0.241 C 
HETATM   30  O5  UNL     1      18.604  33.419  15.132  1.00  0.00    -0.271 OA
ATOM     31  H2  UNL     1      20.607  33.279  17.614  1.00  0.00     0.163 HD
BRANCH  29  32
HETATM   32  C11 UNL     1      18.251  34.472  17.169  1.00  0.00     0.182 C 
BRANCH  32  33
HETATM   33  N3  UNL     1      18.830  35.805  17.247  1.00  0.00    -0.323 N 
HETATM   34  C12 UNL     1      19.700  36.122  18.313  1.00  0.00     0.362 C 
HETATM   35  O6  UNL     1      19.954  35.248  19.182  1.00  0.00    -0.238 OA
ATOM     36  H3  UNL     1      18.608  36.504  16.538  1.00  0.00     0.165 HD
BRANCH  34  37
HETATM   37  O7  UNL     1      20.302  37.363  18.464  1.00  0.00    -0.294 OA
BRANCH  37  38
HETATM   38  C13 UNL     1      21.401  37.765  17.646  1.00  0.00     0.061 C 
HETATM   39  C14 UNL     1      22.132  36.601  17.063  1.00  0.00     0.046 C 
HETATM   40  C15 UNL     1      22.341  38.605  18.452  1.00  0.00     0.046 C 
HETATM   41  C16 UNL     1      20.855  38.610  16.495  1.00  0.00     0.046 C 
ENDBRANCH  37  38
ENDBRANCH  34  37
ENDBRANCH  32  33
BRANCH  32  42
HETATM   42  C17 UNL     1      16.872  34.679  16.589  1.00  0.00     0.009 C 
HETATM   43  C18 UNL     1      15.825  34.002  17.445  1.00  0.00     0.012 C 
HETATM   44  C19 UNL     1      16.486  36.087  16.325  1.00  0.00     0.012 C 
ENDBRANCH  32  42
ENDBRANCH  29  32
ENDBRANCH   1  28
TORSDOF 16
ENDMDL
MODEL 2
REMARK VINA RESULT: -8.683743949      2.062     10.769
REMARK  16 active torsions:
REMARK  status: ('A' for Active; 'I' for Inactive)
REMARK    1  A    between atoms: O1_2  and  C2_3 
REMARK    2  A    between atoms: C2_3  and  C3_4 
REMARK    3  A    between atoms: C3_4  and  O2_5 
REMARK    4  A    between atoms: O2_5  and  C4_6 
REMARK    5  A    between atoms: C6_8  and  C7_9 
REMARK       I    between atoms: C7_9  and  N1_11 
REMARK    6  A    between atoms: N1_11  and  C8_13 
REMARK    7  A    between atoms: C8_13  and  O4_14 
REMARK    8  A    between atoms: C8_13  and  C9_16 
REMARK    9  A    between atoms: C9_16  and  N2_17 
REMARK       I    between atoms: N2_17  and  C10_19 
REMARK   10  A    between atoms: C10_19  and  C11_21 
REMARK   11  A    between atoms: C11_21  and  N3_22 
REMARK   12  A    between atoms: C11_21  and  C17_31 
REMARK       I    between atoms: N3_22  and  C12_24 
REMARK   13  A    between atoms: C12_24  and  O7_26 
REMARK   14  A    between atoms: O7_26  and  C13_27 
REMARK   15  A    between atoms: C24_38  and  O8_39 
REMARK   16  A    between atoms: C27_42  and  O9_43 
ROOT
HETATM    1  C9  UNL     1      19.718  28.539  13.331  1.00  0.00     0.098 C 
HETATM    2  C20 UNL     1      18.415  27.937  13.741  1.00  0.00     0.040 C 
HETATM    3  C21 UNL     1      17.303  28.501  12.930  1.00  0.00     0.003 C 
HETATM    4  C22 UNL     1      17.900  29.475  11.973  1.00  0.00     0.003 C 
HETATM    5  C23 UNL     1      19.354  29.587  12.318  1.00  0.00     0.040 C 
ENDROOT
BRANCH   1   6
HETATM    6  C8  UNL     1      20.502  29.049  14.453  1.00  0.00     0.147 C 
BRANCH   6   7
HETATM    7  N1  UNL     1      20.759  30.263  15.054  1.00  0.00    -0.305 N 
HETATM    8  C7  UNL     1      19.971  31.311  15.453  1.00  0.00     0.260 C 
HETATM    9  O3  UNL     1      18.711  31.300  15.243  1.00  0.00    -0.267 OA
ATOM     10  H1  UNL     1      21.749  30.414  15.243  1.00  0.00     0.171 HD
BRANCH   8  11
HETATM   11  C6  UNL     1      20.412  32.537  16.150  1.00  0.00     0.068 A 
HETATM   12  C5  UNL     1      19.422  33.360  16.692  1.00  0.00     0.059 A 
HETATM   13  C4  UNL     1      19.691  34.538  17.332  1.00  0.00     0.103 A 
HETATM   14  C27 UNL     1      21.030  34.896  17.429  1.00  0.00     0.104 A 
HETATM   15  C26 UNL     1      22.017  34.117  16.910  1.00  0.00     0.077 A 
HETATM   16  C24 UNL     1      21.719  32.915  16.258  1.00  0.00     0.086 A 
BRANCH  13  17
HETATM   17  O2  UNL     1      18.739  35.373  17.875  1.00  0.00    -0.346 OA
BRANCH  17  18
HETATM   18  C3  UNL     1      17.429  35.484  17.367  1.00  0.00     0.201 C 
BRANCH  18  19
HETATM   19  C2  UNL     1      16.514  35.868  18.512  1.00  0.00     0.193 C 
BRANCH  19  20
HETATM   20  O1  UNL     1      15.637  34.843  18.836  1.00  0.00    -0.394 OA
HETATM   21  C1  UNL     1      15.247  34.097  17.727  1.00  0.00     0.201 C 
ENDBRANCH  19  20
ENDBRANCH  18  19
ENDBRANCH  17  18
ENDBRANCH  13  17
BRANCH  14  22
HETATM   22  O9  UNL     1      21.380  36.082  18.071  1.00  0.00    -0.353 OA
HETATM   23  C28 UNL     1      21.754  37.188  17.301  1.00  0.00     0.210 C 
ENDBRANCH  14  22
BRANCH  16  24
HETATM   24  O8  UNL     1      22.764  32.162  15.753  1.00  0.00    -0.355 OA
HETATM   25  C25 UNL     1      23.512  32.618  14.656  1.00  0.00     0.210 C 
ENDBRANCH  16  24
ENDBRANCH   8  11
ENDBRANCH   6   7
BRANCH   6  26
HETATM   26  O4  UNL     1      21.165  28.069  15.092  1.00  0.00    -0.347 OA
ATOM     27  H4  UNL     1      22.020  27.944  14.698  1.00  0.00     0.219 HD
ENDBRANCH   6  26
ENDBRANCH   1   6
BRANCH   1  28
HETATM   28  N2  UNL     1      20.546  27.501  12.654  1.00  0.00    -0.342 N 
HETATM   29  C10 UNL     1      21.585  27.713  11.763  1.00  0.00     0.241 C 
HETATM   30  O5  UNL     1      21.941  28.860  11.407  1.00  0.00    -0.271 OA
ATOM     31  H2  UNL     1      20.323  26.530  12.871  1.00  0.00     0.163 HD
BRANCH  29  32
HETATM   32  C11 UNL     1      22.371  26.595  11.146  1.00  0.00     0.182 C 
BRANCH  32  33
HETATM   33  N3  UNL     1      21.793  26.238   9.858  1.00  0.00    -0.323 N 
HETATM   34  C12 UNL     1      20.668  25.385   9.815  1.00  0.00     0.362 C 
HETATM   35  O6  UNL     1      20.189  24.942  10.892  1.00  0.00    -0.238 OA
ATOM     36  H3  UNL     1      22.198  26.600   8.995  1.00  0.00     0.165 HD
BRANCH  34  37
HETATM   37  O7  UNL     1      20.049  24.997   8.636  1.00  0.00    -0.294 OA
BRANCH  37  38
HETATM   38  C13 UNL     1      18.938  25.717   8.103  1.00  0.00     0.061 C 
HETATM   39  C14 UNL     1      18.739  27.036   8.775  1.00  0.00     0.046 C 
HETATM   40  C15 UNL     1      17.699  24.889   8.233  1.00  0.00     0.046 C 
HETATM   41  C16 UNL     1      19.202  25.974   6.619  1.00  0.00     0.046 C 
ENDBRANCH  37  38
ENDBRANCH  34  37
ENDBRANCH  32  33
BRANCH  32  42
HETATM   42  C17 UNL     1      23.781  27.035  10.832  1.00  0.00     0.009 C 
HETATM   43  C18 UNL     1      24.706  26.732  11.990  1.00  0.00     0.012 C 
HETATM   44  C19 UNL     1      24.356  26.512   9.568  1.00  0.00     0.012 C 
ENDBRANCH  32  42
ENDBRANCH  29  32
ENDBRANCH   1  28
TORSDOF 16
ENDMDL
MODEL 3
REMARK VINA RESULT: -8.586090205      1.256      1.518
REMARK  16 active torsions:
REMARK  status: ('A' for Active; 'I' for Inactive)
REMARK    1  A    between atoms: O1_2  and  C2_3 
REMARK    2  A    between atoms: C2_3  and  C3_4 
REMARK    3  A    between atoms: C3_4  and  O2_5 
REMARK    4  A    between atoms: O2_5  and  C4_6 
REMARK    5  A    between atoms: C6_8  and  C7_9 
REMARK       I    between atoms: C7_9  and  N1_11 
REMARK    6  A    between atoms: N1_11  and  C8_13 
REMARK    7  A    between atoms: C8_13  and  O4_14 
REMARK    8  A    between atoms: C8_13  and  C9_16 
REMARK    9  A    between atoms: C9_16  and  N2_17 
REMARK       I    between atoms: N2_17  and  C10_19 
REMARK   10  A    between atoms: C10_19  and  C11_21 
REMARK   11  A    between atoms: C11_21  and  N3_22 
REMARK   12  A    between atoms: C11_21  and  C17_31 
REMARK       I    between atoms: N3_22  and  C12_24 
REMARK   13  A    between atoms: C12_24  and  O7_26 
REMARK   14  A    between atoms: O7_26  and  C13_27 
REMARK   15  A    between atoms: C24_38  and  O8_39 
REMARK   16  A    between atoms: C27_42  and  O9_43 
ROOT
HETATM    1  C9  UNL     1      21.078  32.159  15.723  1.00  0.00     0.098 C 
HETATM    2  C20 UNL     1      22.313  32.312  16.548  1.00  0.00     0.040 C 
HETATM    3  C21 UNL     1      23.375  33.005  15.771  1.00  0.00     0.003 C 
HETATM    4  C22 UNL     1      22.812  33.316  14.427  1.00  0.00     0.003 C 
HETATM    5  C23 UNL     1      21.458  32.678  14.365  1.00  0.00     0.040 C 
ENDROOT
BRANCH   1   6
HETATM    6  C8  UNL     1      20.551  30.798  15.710  1.00  0.00     0.147 C 
BRANCH   6   7
HETATM    7  N1  UNL     1      20.188  29.850  14.776  1.00  0.00    -0.305 N 
HETATM    8  C7  UNL     1      20.875  29.143  13.823  1.00  0.00     0.260 C 
HETATM    9  O3  UNL     1      22.123  29.343  13.632  1.00  0.00    -0.267 OA
ATOM     10  H1  UNL     1      19.194  29.626  14.798  1.00  0.00     0.171 HD
BRANCH   8  11
HETATM   11  C6  UNL     1      20.331  28.102  12.928  1.00  0.00     0.068 A 
HETATM   12  C5  UNL     1      21.244  27.253  12.298  1.00  0.00     0.059 A 
HETATM   13  C4  UNL     1      20.877  26.271  11.421  1.00  0.00     0.103 A 
HETATM   14  C27 UNL     1      19.516  26.142  11.173  1.00  0.00     0.104 A 
HETATM   15  C26 UNL     1      18.601  26.953  11.770  1.00  0.00     0.077 A 
HETATM   16  C24 UNL     1      19.000  27.954  12.663  1.00  0.00     0.086 A 
BRANCH  13  17
HETATM   17  O2  UNL     1      21.753  25.420  10.782  1.00  0.00    -0.346 OA
BRANCH  17  18
HETATM   18  C3  UNL     1      22.909  25.864  10.110  1.00  0.00     0.201 C 
BRANCH  18  19
HETATM   19  C2  UNL     1      24.077  25.023  10.584  1.00  0.00     0.193 C 
BRANCH  19  20
HETATM   20  O1  UNL     1      24.578  25.473  11.797  1.00  0.00    -0.394 OA
HETATM   21  C1  UNL     1      24.929  26.820  11.768  1.00  0.00     0.201 C 
ENDBRANCH  19  20
ENDBRANCH  18  19
ENDBRANCH  17  18
ENDBRANCH  13  17
BRANCH  14  22
HETATM   22  O9  UNL     1      19.068  25.159  10.293  1.00  0.00    -0.353 OA
HETATM   23  C28 UNL     1      18.093  25.488   9.346  1.00  0.00     0.210 C 
ENDBRANCH  14  22
BRANCH  16  24
HETATM   24  O8  UNL     1      18.025  28.747  13.243  1.00  0.00    -0.355 OA
HETATM   25  C25 UNL     1      17.511  29.862  12.562  1.00  0.00     0.210 C 
ENDBRANCH  16  24
ENDBRANCH   8  11
ENDBRANCH   6   7
BRANCH   6  26
HETATM   26  O4  UNL     1      20.364  30.316  16.952  1.00  0.00    -0.347 OA
ATOM     27  H4  UNL     1      20.265  31.033  17.567  1.00  0.00     0.219 HD
ENDBRANCH   6  26
ENDBRANCH   1   6
BRANCH   1  28
HETATM   28  N2  UNL     1      20.008  33.037  16.277  1.00  0.00    -0.342 N 
HETATM   29  C10 UNL     1      18.642  32.910  16.087  1.00  0.00     0.241 C 
HETATM   30  O5  UNL     1      18.145  32.003  15.379  1.00  0.00    -0.271 OA
ATOM     31  H2  UNL     1      20.316  33.816  16.859  1.00  0.00     0.163 HD
BRANCH  29  32
HETATM   32  C11 UNL     1      17.642  33.840  16.704  1.00  0.00     0.182 C 
BRANCH  32  33
HETATM   33  N3  UNL     1      18.202  35.182  16.788  1.00  0.00    -0.323 N 
HETATM   34  C12 UNL     1      18.288  35.819  18.045  1.00  0.00     0.362 C 
HETATM   35  O6  UNL     1      17.873  35.219  19.071  1.00  0.00    -0.238 OA
ATOM     36  H3  UNL     1      18.528  35.657  15.947  1.00  0.00     0.165 HD
BRANCH  34  37
HETATM   37  O7  UNL     1      18.813  37.091  18.222  1.00  0.00    -0.294 OA
BRANCH  37  38
HETATM   38  C13 UNL     1      18.103  38.258  17.806  1.00  0.00     0.061 C 
HETATM   39  C14 UNL     1      16.808  37.928  17.140  1.00  0.00     0.046 C 
HETATM   40  C15 UNL     1      18.961  39.060  16.880  1.00  0.00     0.046 C 
HETATM   41  C16 UNL     1      17.801  39.100  19.046  1.00  0.00     0.046 C 
ENDBRANCH  37  38
ENDBRANCH  34  37
ENDBRANCH  32  33
BRANCH  32  42
HETATM   42  C17 UNL     1      16.422  33.982  15.825  1.00  0.00     0.009 C 
HETATM   43  C18 UNL     1      15.184  34.216  16.663  1.00  0.00     0.012 C 
HETATM   44  C19 UNL     1      16.513  35.001  14.750  1.00  0.00     0.012 C 
ENDBRANCH  32  42
ENDBRANCH  29  32
ENDBRANCH   1  28
TORSDOF 16
ENDMDL
MODEL 4
REMARK VINA RESULT: -8.410017395      1.840      2.440
REMARK  16 active torsions:
REMARK  status: ('A' for Active; 'I' for Inactive)
REMARK    1  A    between atoms: O1_2  and  C2_3 
REMARK    2  A    between atoms: C2_3  and  C3_4 
REMARK    3  A    between atoms: C3_4  and  O2_5 
REMARK    4  A    between atoms: O2_5  and  C4_6 
REMARK    5  A    between atoms: C6_8  and  C7_9 
REMARK       I    between atoms: C7_9  and  N1_11 
REMARK    6  A    between atoms: N1_11  and  C8_13 
REMARK    7  A    between atoms: C8_13  and  O4_14 
REMARK    8  A    between atoms: C8_13  and  C9_16 
REMARK    9  A    between atoms: C9_16  and  N2_17 
REMARK       I    between atoms: N2_17  and  C10_19 
REMARK   10  A    between atoms: C10_19  and  C11_21 
REMARK   11  A    between atoms: C11_21  and  N3_22 
REMARK   12  A    between atoms: C11_21  and  C17_31 
REMARK       I    between atoms: N3_22  and  C12_24 
REMARK   13  A    between atoms: C12_24  and  O7_26 
REMARK   14  A    between atoms: O7_26  and  C13_27 
REMARK   15  A    between atoms: C24_38  and  O8_39 
REMARK   16  A    between atoms: C27_42  and  O9_43 
ROOT
HETATM    1  C9  UNL     1      21.226  33.720  17.039  1.00  0.00     0.098 C 
HETATM    2  C20 UNL     1      21.948  34.283  18.218  1.00  0.00     0.040 C 
HETATM    3  C21 UNL     1      22.662  35.533  17.842  1.00  0.00     0.003 C 
HETATM    4  C22 UNL     1      22.387  35.787  16.400  1.00  0.00     0.003 C 
HETATM    5  C23 UNL     1      21.620  34.605  15.890  1.00  0.00     0.040 C 
ENDROOT
BRANCH   1   6
HETATM    6  C8  UNL     1      21.496  32.303  16.813  1.00  0.00     0.147 C 
BRANCH   6   7
HETATM    7  N1  UNL     1      21.229  31.351  15.851  1.00  0.00    -0.305 N 
HETATM    8  C7  UNL     1      21.759  31.070  14.619  1.00  0.00     0.260 C 
HETATM    9  O3  UNL     1      22.682  31.800  14.122  1.00  0.00    -0.267 OA
ATOM     10  H1  UNL     1      20.473  30.719  16.114  1.00  0.00     0.171 HD
BRANCH   8  11
HETATM   11  C6  UNL     1      21.386  29.953  13.727  1.00  0.00     0.068 A 
HETATM   12  C5  UNL     1      22.410  29.340  13.002  1.00  0.00     0.059 A 
HETATM   13  C4  UNL     1      22.198  28.319  12.117  1.00  0.00     0.103 A 
HETATM   14  C27 UNL     1      20.882  27.898  11.965  1.00  0.00     0.104 A 
HETATM   15  C26 UNL     1      19.863  28.475  12.656  1.00  0.00     0.077 A 
HETATM   16  C24 UNL     1      20.103  29.520  13.555  1.00  0.00     0.086 A 
BRANCH  13  17
HETATM   17  O2  UNL     1      23.185  27.696  11.385  1.00  0.00    -0.346 OA
BRANCH  17  18
HETATM   18  C3  UNL     1      24.446  27.360  11.916  1.00  0.00     0.201 C 
BRANCH  18  19
HETATM   19  C2  UNL     1      24.993  26.193  11.120  1.00  0.00     0.193 C 
BRANCH  19  20
HETATM   20  O1  UNL     1      24.221  25.052  11.283  1.00  0.00    -0.394 OA
HETATM   21  C1  UNL     1      23.552  24.683  10.119  1.00  0.00     0.201 C 
ENDBRANCH  19  20
ENDBRANCH  18  19
ENDBRANCH  17  18
ENDBRANCH  13  17
BRANCH  14  22
HETATM   22  O9  UNL     1      20.591  26.859  11.083  1.00  0.00    -0.353 OA
HETATM   23  C28 UNL     1      19.318  26.281  11.110  1.00  0.00     0.210 C 
ENDBRANCH  14  22
BRANCH  16  24
HETATM   24  O8  UNL     1      19.028  30.067  14.234  1.00  0.00    -0.355 OA
HETATM   25  C25 UNL     1      17.899  30.524  13.536  1.00  0.00     0.210 C 
ENDBRANCH  16  24
ENDBRANCH   8  11
ENDBRANCH   6   7
BRANCH   6  26
HETATM   26  O4  UNL     1      22.209  31.758  17.815  1.00  0.00    -0.347 OA
ATOM     27  H4  UNL     1      21.855  32.034  18.653  1.00  0.00     0.219 HD
ENDBRANCH   6  26
ENDBRANCH   1   6
BRANCH   1  28
HETATM   28  N2  UNL     1      19.758  33.858  17.252  1.00  0.00    -0.342 N 
HETATM   29  C10 UNL     1      18.757  33.677  16.313  1.00  0.00     0.241 C 
HETATM   30  O5  UNL     1      19.001  33.378  15.120  1.00  0.00    -0.271 OA
ATOM     31  H2  UNL     1      19.457  34.112  18.194  1.00  0.00     0.163 HD
BRANCH  29  32
HETATM   32  C11 UNL     1      17.300  33.824  16.633  1.00  0.00     0.182 C 
BRANCH  32  33
HETATM   33  N3  UNL     1      17.001  35.212  16.951  1.00  0.00    -0.323 N 
HETATM   34  C12 UNL     1      17.225  35.689  18.261  1.00  0.00     0.362 C 
HETATM   35  O6  UNL     1      17.673  34.900  19.135  1.00  0.00    -0.238 OA
ATOM     36  H3  UNL     1      16.633  35.836  16.233  1.00  0.00     0.165 HD
BRANCH  34  37
HETATM   37  O7  UNL     1      16.977  36.996  18.652  1.00  0.00    -0.294 OA
BRANCH  37  38
HETATM   38  C13 UNL     1      17.806  38.076  18.222  1.00  0.00     0.061 C 
HETATM   39  C14 UNL     1      19.233  37.667  18.062  1.00  0.00     0.046 C 
HETATM   40  C15 UNL     1      17.706  39.202  19.202  1.00  0.00     0.046 C 
HETATM   41  C16 UNL     1      17.294  38.560  16.865  1.00  0.00     0.046 C 
ENDBRANCH  37  38
ENDBRANCH  34  37
ENDBRANCH  32  33
BRANCH  32  42
HETATM   42  C17 UNL     1      16.446  33.507  15.429  1.00  0.00     0.009 C 
HETATM   43  C18 UNL     1      15.101  32.962  15.854  1.00  0.00     0.012 C 
HETATM   44  C19 UNL     1      16.267  34.612  14.454  1.00  0.00     0.012 C 
ENDBRANCH  32  42
ENDBRANCH  29  32
ENDBRANCH   1  28
TORSDOF 16
ENDMDL
MODEL 5
REMARK VINA RESULT: -8.317980848      2.354     11.110
REMARK  16 active torsions:
REMARK  status: ('A' for Active; 'I' for Inactive)
REMARK    1  A    between atoms: O1_2  and  C2_3 
REMARK    2  A    between atoms: C2_3  and  C3_4 
REMARK    3  A    between atoms: C3_4  and  O2_5 
REMARK    4  A    between atoms: O2_5  and  C4_6 
REMARK    5  A    between atoms: C6_8  and  C7_9 
REMARK       I    between atoms: C7_9  and  N1_11 
REMARK    6  A    between atoms: N1_11  and  C8_13 
REMARK    7  A    between atoms: C8_13  and  O4_14 
REMARK    8  A    between atoms: C8_13  and  C9_16 
REMARK    9  A    between atoms: C9_16  and  N2_17 
REMARK       I    between atoms: N2_17  and  C10_19 
REMARK   10  A    between atoms: C10_19  and  C11_21 
REMARK   11  A    between atoms: C11_21  and  N3_22 
REMARK   12  A    between atoms: C11_21  and  C17_31 
REMARK       I    between atoms: N3_22  and  C12_24 
REMARK   13  A    between atoms: C12_24  and  O7_26 
REMARK   14  A    between atoms: O7_26  and  C13_27 
REMARK   15  A    between atoms: C24_38  and  O8_39 
REMARK   16  A    between atoms: C27_42  and  O9_43 
ROOT
HETATM    1  C9  UNL     1      19.813  28.411  13.192  1.00  0.00     0.098 C 
HETATM    2  C20 UNL     1      18.520  27.731  13.497  1.00  0.00     0.040 C 
HETATM    3  C21 UNL     1      17.445  28.229  12.597  1.00  0.00     0.003 C 
HETATM    4  C22 UNL     1      18.058  29.238  11.688  1.00  0.00     0.003 C 
HETATM    5  C23 UNL     1      19.470  29.436  12.148  1.00  0.00     0.040 C 
ENDROOT
BRANCH   1   6
HETATM    6  C8  UNL     1      20.472  28.966  14.371  1.00  0.00     0.147 C 
BRANCH   6   7
HETATM    7  N1  UNL     1      20.586  30.188  15.000  1.00  0.00    -0.305 N 
HETATM    8  C7  UNL     1      19.693  31.174  15.330  1.00  0.00     0.260 C 
HETATM    9  O3  UNL     1      18.461  31.077  15.007  1.00  0.00    -0.267 OA
ATOM     10  H1  UNL     1      21.543  30.406  15.279  1.00  0.00     0.171 HD
BRANCH   8  11
HETATM   11  C6  UNL     1      19.982  32.419  16.071  1.00  0.00     0.068 A 
HETATM   12  C5  UNL     1      18.893  33.141  16.563  1.00  0.00     0.059 A 
HETATM   13  C4  UNL     1      19.018  34.326  17.236  1.00  0.00     0.103 A 
HETATM   14  C27 UNL     1      20.311  34.797  17.420  1.00  0.00     0.104 A 
HETATM   15  C26 UNL     1      21.393  34.117  16.952  1.00  0.00     0.077 A 
HETATM   16  C24 UNL     1      21.242  32.908  16.265  1.00  0.00     0.086 A 
BRANCH  13  17
HETATM   17  O2  UNL     1      17.964  35.063  17.731  1.00  0.00    -0.346 OA
BRANCH  17  18
HETATM   18  C3  UNL     1      16.721  35.172  17.075  1.00  0.00     0.201 C 
BRANCH  18  19
HETATM   19  C2  UNL     1      15.753  34.219  17.746  1.00  0.00     0.193 C 
BRANCH  19  20
HETATM   20  O1  UNL     1      15.125  34.805  18.836  1.00  0.00    -0.394 OA
HETATM   21  C1  UNL     1      14.555  36.037  18.530  1.00  0.00     0.201 C 
ENDBRANCH  19  20
ENDBRANCH  18  19
ENDBRANCH  17  18
ENDBRANCH  13  17
BRANCH  14  22
HETATM   22  O9  UNL     1      20.515  35.996  18.100  1.00  0.00    -0.353 OA
HETATM   23  C28 UNL     1      21.298  36.991  17.505  1.00  0.00     0.210 C 
ENDBRANCH  14  22
BRANCH  16  24
HETATM   24  O8  UNL     1      22.377  32.259  15.815  1.00  0.00    -0.355 OA
HETATM   25  C25 UNL     1      23.092  32.749  14.710  1.00  0.00     0.210 C 
ENDBRANCH  16  24
ENDBRANCH   8  11
ENDBRANCH   6   7
BRANCH   6  26
HETATM   26  O4  UNL     1      21.165  28.033  15.048  1.00  0.00    -0.347 OA
ATOM     27  H4  UNL     1      20.769  27.887  15.899  1.00  0.00     0.219 HD
ENDBRANCH   6  26
ENDBRANCH   1   6
BRANCH   1  28
HETATM   28  N2  UNL     1      20.754  27.426  12.588  1.00  0.00    -0.342 N 
HETATM   29  C10 UNL     1      21.762  27.685  11.674  1.00  0.00     0.241 C 
HETATM   30  O5  UNL     1      21.985  28.836  11.229  1.00  0.00    -0.271 OA
ATOM     31  H2  UNL     1      20.643  26.454  12.879  1.00  0.00     0.163 HD
BRANCH  29  32
HETATM   32  C11 UNL     1      22.670  26.621  11.136  1.00  0.00     0.182 C 
BRANCH  32  33
HETATM   33  N3  UNL     1      22.228  26.220   9.808  1.00  0.00    -0.323 N 
HETATM   34  C12 UNL     1      21.523  25.007   9.648  1.00  0.00     0.362 C 
HETATM   35  O6  UNL     1      21.295  24.289  10.657  1.00  0.00    -0.238 OA
ATOM     36  H3  UNL     1      22.427  26.810   9.000  1.00  0.00     0.165 HD
BRANCH  34  37
HETATM   37  O7  UNL     1      21.059  24.550   8.423  1.00  0.00    -0.294 OA
BRANCH  37  38
HETATM   38  C13 UNL     1      21.947  24.046   7.427  1.00  0.00     0.061 C 
HETATM   39  C14 UNL     1      23.289  23.699   7.984  1.00  0.00     0.046 C 
HETATM   40  C15 UNL     1      22.096  25.056   6.334  1.00  0.00     0.046 C 
HETATM   41  C16 UNL     1      21.333  22.775   6.838  1.00  0.00     0.046 C 
ENDBRANCH  37  38
ENDBRANCH  34  37
ENDBRANCH  32  33
BRANCH  32  42
HETATM   42  C17 UNL     1      24.069  27.153  10.938  1.00  0.00     0.009 C 
HETATM   43  C18 UNL     1      24.833  27.147  12.243  1.00  0.00     0.012 C 
HETATM   44  C19 UNL     1      24.867  26.493   9.875  1.00  0.00     0.012 C 
ENDBRANCH  32  42
ENDBRANCH  29  32
ENDBRANCH   1  28
TORSDOF 16
ENDMDL
