MODEL 1
REMARK VINA RESULT: -9.171601847      0.000      0.000
REMARK  13 active torsions:
REMARK  status: ('A' for Active; 'I' for Inactive)
REMARK    1  A    between atoms: C2_2  and  C4_4 
REMARK    2  A    between atoms: C7_10  and  C8_11 
REMARK    3  A    between atoms: C8_11  and  C9_12 
REMARK    4  A    between atoms: C9_12  and  C10_13 
REMARK    5  A    between atoms: N2_15  and  C12_16 
REMARK    6  A    between atoms: C12_16  and  C13_17 
REMARK       I    between atoms: C13_17  and  N3_19 
REMARK    7  A    between atoms: N3_19  and  C14_21 
REMARK    8  A    between atoms: C14_21  and  C15_22 
REMARK    9  A    between atoms: C15_22  and  S2_23 
REMARK   10  A    between atoms: C17_27  and  C18_28 
REMARK   11  A    between atoms: C18_28  and  C19_29 
REMARK       I    between atoms: C19_29  and  N4_31 
REMARK   12  A    between atoms: N4_31  and  C20_33 
REMARK   13  A    between atoms: C20_33  and  C21_34 
ROOT
HETATM    1  C4  UNL     1      21.178  32.743  15.132  1.00  0.00     0.021 A 
HETATM    2  S1  UNL     1      21.000  33.363  16.761  1.00  0.00    -0.069 SA
HETATM    3  C5  UNL     1      19.417  33.952  16.654  1.00  0.00     0.106 A 
HETATM    4  C6  UNL     1      19.050  33.670  15.391  1.00  0.00     0.076 A 
HETATM    5  N1  UNL     1      17.777  34.124  15.273  1.00  0.00    -0.343 N 
ATOM      6  H1  UNL     1      17.214  34.058  14.425  1.00  0.00     0.167 HD
HETATM    7  C7  UNL     1      17.352  34.683  16.446  1.00  0.00     0.085 A 
HETATM    8  N2  UNL     1      18.367  34.579  17.298  1.00  0.00    -0.320 N 
HETATM    9  C17 UNL     1      19.978  33.032  14.592  1.00  0.00    -0.002 A 
ENDROOT
BRANCH   9  10
HETATM   10  C18 UNL     1      19.574  32.626  13.164  1.00  0.00     0.145 C 
BRANCH  10  11
HETATM   11  C19 UNL     1      18.938  31.326  13.188  1.00  0.00     0.222 C 
HETATM   12  O4  UNL     1      17.887  31.107  13.813  1.00  0.00    -0.273 OA
HETATM   13  N4  UNL     1      19.510  30.209  12.467  1.00  0.00    -0.356 N 
ATOM     14  H4  UNL     1      20.367  30.361  11.936  1.00  0.00     0.162 HD
BRANCH  13  15
HETATM   15  C20 UNL     1      18.937  28.918  12.465  1.00  0.00     0.167 C 
BRANCH  15  16
HETATM   16  C21 UNL     1      18.902  28.141  11.231  1.00  0.00     0.033 A 
HETATM   17  C22 UNL     1      17.688  28.175  10.507  1.00  0.00    -0.047 A 
HETATM   18  C23 UNL     1      16.519  28.914  11.051  1.00  0.00     0.049 C 
HETATM   19  C24 UNL     1      17.660  27.503   9.317  1.00  0.00     0.032 A 
HETATM   20  C25 UNL     1      18.778  26.825   8.854  1.00  0.00     0.009 A 
HETATM   21  C26 UNL     1      18.701  26.106   7.542  1.00  0.00     0.068 C 
HETATM   22  N5  UNL     1      19.891  26.813   9.552  1.00  0.00    -0.327 N 
HETATM   23  C27 UNL     1      19.984  27.455  10.731  1.00  0.00     0.254 A 
ATOM     24  H5  UNL     1      20.701  26.307   9.193  1.00  0.00     0.169 HD
HETATM   25  O5  UNL     1      21.113  27.386  11.326  1.00  0.00    -0.268 OA
ENDBRANCH  15  16
ENDBRANCH  13  15
ENDBRANCH  10  11
ENDBRANCH   9  10
BRANCH   1  26
HETATM   26  C2  UNL     1      22.393  32.087  14.635  1.00  0.00    -0.054 C 
HETATM   27  C1  UNL     1      23.465  32.839  14.499  1.00  0.00     0.020 C 
HETATM   28  C3  UNL     1      22.466  30.680  14.237  1.00  0.00     0.049 C 
ENDBRANCH   1  26
BRANCH   8  29
HETATM   29  C12 UNL     1      18.530  34.987  18.656  1.00  0.00     0.234 C 
BRANCH  29  30
HETATM   30  C13 UNL     1      19.117  36.356  18.667  1.00  0.00     0.235 C 
HETATM   31  O1  UNL     1      20.388  36.476  18.605  1.00  0.00    -0.272 OA
HETATM   32  N3  UNL     1      18.279  37.484  18.743  1.00  0.00    -0.359 N 
ATOM     33  H3  UNL     1      17.274  37.316  18.794  1.00  0.00     0.162 HD
BRANCH  32  34
HETATM   34  C14 UNL     1      18.715  38.850  18.756  1.00  0.00     0.137 C 
BRANCH  34  35
HETATM   35  C15 UNL     1      17.541  39.766  18.965  1.00  0.00     0.159 C 
BRANCH  35  36
HETATM   36  S2  UNL     1      16.606  39.978  17.461  1.00  0.00     0.142 S 
HETATM   37  C16 UNL     1      17.278  41.332  16.549  1.00  0.00     0.161 C 
HETATM   38  O2  UNL     1      16.860  38.721  16.642  1.00  0.00    -0.228 OA
HETATM   39  O3  UNL     1      15.166  40.171  17.758  1.00  0.00    -0.228 OA
ENDBRANCH  35  36
ENDBRANCH  34  35
ENDBRANCH  32  34
ENDBRANCH  29  30
ENDBRANCH   8  29
BRANCH   7  40
HETATM   40  C8  UNL     1      16.001  35.242  16.599  1.00  0.00     0.076 C 
BRANCH  40  41
HETATM   41  C9  UNL     1      15.029  34.506  17.396  1.00  0.00     0.007 C 
BRANCH  41  42
HETATM   42  C10 UNL     1      14.003  35.520  17.995  1.00  0.00    -0.004 C 
HETATM   43  C11 UNL     1      14.727  36.576  18.772  1.00  0.00     0.005 C 
ENDBRANCH  41  42
ENDBRANCH  40  41
ENDBRANCH   7  40
TORSDOF 13
ENDMDL
MODEL 2
REMARK VINA RESULT: -8.960606699      1.462      1.601
REMARK  13 active torsions:
REMARK  status: ('A' for Active; 'I' for Inactive)
REMARK    1  A    between atoms: C2_2  and  C4_4 
REMARK    2  A    between atoms: C7_10  and  C8_11 
REMARK    3  A    between atoms: C8_11  and  C9_12 
REMARK    4  A    between atoms: C9_12  and  C10_13 
REMARK    5  A    between atoms: N2_15  and  C12_16 
REMARK    6  A    between atoms: C12_16  and  C13_17 
REMARK       I    between atoms: C13_17  and  N3_19 
REMARK    7  A    between atoms: N3_19  and  C14_21 
REMARK    8  A    between atoms: C14_21  and  C15_22 
REMARK    9  A    between atoms: C15_22  and  S2_23 
REMARK   10  A    between atoms: C17_27  and  C18_28 
REMARK   11  A    between atoms: C18_28  and  C19_29 
REMARK       I    between atoms: C19_29  and  N4_31 
REMARK   12  A    between atoms: N4_31  and  C20_33 
REMARK   13  A    between atoms: C20_33  and  C21_34 
ROOT
HETATM    1  C4  UNL     1      21.164  32.632  15.149  1.00  0.00     0.021 A 
HETATM    2  S1  UNL     1      20.935  33.224  16.783  1.00  0.00    -0.069 SA
HETATM    3  C5  UNL     1      19.357  33.820  16.635  1.00  0.00     0.106 A 
HETATM    4  C6  UNL     1      19.031  33.562  15.356  1.00  0.00     0.076 A 
HETATM    5  N1  UNL     1      17.764  34.023  15.205  1.00  0.00    -0.343 N 
ATOM      6  H1  UNL     1      17.229  33.974  14.337  1.00  0.00     0.167 HD
HETATM    7  C7  UNL     1      17.303  34.562  16.373  1.00  0.00     0.085 A 
HETATM    8  N2  UNL     1      18.289  34.439  17.255  1.00  0.00    -0.320 N 
HETATM    9  C17 UNL     1      19.983  32.936  14.575  1.00  0.00    -0.002 A 
ENDROOT
BRANCH   9  10
HETATM   10  C18 UNL     1      19.625  32.556  13.128  1.00  0.00     0.145 C 
BRANCH  10  11
HETATM   11  C19 UNL     1      18.937  31.283  13.113  1.00  0.00     0.222 C 
HETATM   12  O4  UNL     1      17.829  31.114  13.647  1.00  0.00    -0.273 OA
HETATM   13  N4  UNL     1      19.524  30.133  12.459  1.00  0.00    -0.356 N 
ATOM     14  H4  UNL     1      20.430  30.243  12.002  1.00  0.00     0.162 HD
BRANCH  13  15
HETATM   15  C20 UNL     1      18.903  28.865  12.423  1.00  0.00     0.167 C 
BRANCH  15  16
HETATM   16  C21 UNL     1      18.865  28.110  11.176  1.00  0.00     0.033 A 
HETATM   17  C22 UNL     1      17.650  28.159  10.454  1.00  0.00    -0.047 A 
HETATM   18  C23 UNL     1      16.484  28.891  11.012  1.00  0.00     0.049 C 
HETATM   19  C24 UNL     1      17.619  27.508   9.253  1.00  0.00     0.032 A 
HETATM   20  C25 UNL     1      18.736  26.835   8.777  1.00  0.00     0.009 A 
HETATM   21  C26 UNL     1      18.655  26.139   7.453  1.00  0.00     0.068 C 
HETATM   22  N5  UNL     1      19.849  26.809   9.474  1.00  0.00    -0.327 N 
HETATM   23  C27 UNL     1      19.945  27.430  10.663  1.00  0.00     0.254 A 
ATOM     24  H5  UNL     1      20.657  26.307   9.105  1.00  0.00     0.169 HD
HETATM   25  O5  UNL     1      21.074  27.348  11.256  1.00  0.00    -0.268 OA
ENDBRANCH  15  16
ENDBRANCH  13  15
ENDBRANCH  10  11
ENDBRANCH   9  10
BRANCH   1  26
HETATM   26  C2  UNL     1      22.393  31.981  14.680  1.00  0.00    -0.054 C 
HETATM   27  C1  UNL     1      23.486  32.714  14.658  1.00  0.00     0.020 C 
HETATM   28  C3  UNL     1      22.461  30.602  14.192  1.00  0.00     0.049 C 
ENDBRANCH   1  26
BRANCH   8  29
HETATM   29  C12 UNL     1      18.409  34.822  18.626  1.00  0.00     0.234 C 
BRANCH  29  30
HETATM   30  C13 UNL     1      18.937  36.214  18.678  1.00  0.00     0.235 C 
HETATM   31  O1  UNL     1      20.192  36.385  18.850  1.00  0.00    -0.272 OA
HETATM   32  N3  UNL     1      18.062  37.308  18.539  1.00  0.00    -0.359 N 
ATOM     33  H3  UNL     1      17.073  37.099  18.408  1.00  0.00     0.162 HD
BRANCH  32  34
HETATM   34  C14 UNL     1      18.442  38.690  18.566  1.00  0.00     0.137 C 
BRANCH  34  35
HETATM   35  C15 UNL     1      18.869  39.136  17.195  1.00  0.00     0.159 C 
BRANCH  35  36
HETATM   36  S2  UNL     1      20.603  39.553  17.158  1.00  0.00     0.142 S 
HETATM   37  C16 UNL     1      20.787  41.203  16.559  1.00  0.00     0.161 C 
HETATM   38  O2  UNL     1      21.053  39.555  18.611  1.00  0.00    -0.228 OA
HETATM   39  O3  UNL     1      21.363  38.579  16.337  1.00  0.00    -0.228 OA
ENDBRANCH  35  36
ENDBRANCH  34  35
ENDBRANCH  32  34
ENDBRANCH  29  30
ENDBRANCH   8  29
BRANCH   7  40
HETATM   40  C8  UNL     1      15.949  35.122  16.492  1.00  0.00     0.076 C 
BRANCH  40  41
HETATM   41  C9  UNL     1      14.933  34.346  17.189  1.00  0.00     0.007 C 
BRANCH  41  42
HETATM   42  C10 UNL     1      13.915  35.332  17.847  1.00  0.00    -0.004 C 
HETATM   43  C11 UNL     1      14.648  36.339  18.679  1.00  0.00     0.005 C 
ENDBRANCH  41  42
ENDBRANCH  40  41
ENDBRANCH   7  40
TORSDOF 13
ENDMDL
MODEL 3
REMARK VINA RESULT: -8.889071196      2.241      4.808
REMARK  13 active torsions:
REMARK  status: ('A' for Active; 'I' for Inactive)
REMARK    1  A    between atoms: C2_2  and  C4_4 
REMARK    2  A    between atoms: C7_10  and  C8_11 
REMARK    3  A    between atoms: C8_11  and  C9_12 
REMARK    4  A    between atoms: C9_12  and  C10_13 
REMARK    5  A    between atoms: N2_15  and  C12_16 
REMARK    6  A    between atoms: C12_16  and  C13_17 
REMARK       I    between atoms: C13_17  and  N3_19 
REMARK    7  A    between atoms: N3_19  and  C14_21 
REMARK    8  A    between atoms: C14_21  and  C15_22 
REMARK    9  A    between atoms: C15_22  and  S2_23 
REMARK   10  A    between atoms: C17_27  and  C18_28 
REMARK   11  A    between atoms: C18_28  and  C19_29 
REMARK       I    between atoms: C19_29  and  N4_31 
REMARK   12  A    between atoms: N4_31  and  C20_33 
REMARK   13  A    between atoms: C20_33  and  C21_34 
ROOT
HETATM    1  C4  UNL     1      16.480  34.244  16.904  1.00  0.00     0.021 A 
HETATM    2  S1  UNL     1      17.541  35.107  18.000  1.00  0.00    -0.069 SA
HETATM    3  C5  UNL     1      19.013  34.855  17.202  1.00  0.00     0.106 A 
HETATM    4  C6  UNL     1      18.677  34.126  16.122  1.00  0.00     0.076 A 
HETATM    5  N1  UNL     1      19.838  33.913  15.454  1.00  0.00    -0.343 N 
ATOM      6  H1  UNL     1      19.918  33.385  14.584  1.00  0.00     0.167 HD
HETATM    7  C7  UNL     1      20.887  34.500  16.105  1.00  0.00     0.085 A 
HETATM    8  N2  UNL     1      20.376  35.080  17.186  1.00  0.00    -0.320 N 
HETATM    9  C17 UNL     1      17.343  33.806  15.967  1.00  0.00    -0.002 A 
ENDROOT
BRANCH   9  10
HETATM   10  C18 UNL     1      16.906  33.037  14.709  1.00  0.00     0.145 C 
BRANCH  10  11
HETATM   11  C19 UNL     1      17.240  31.636  14.852  1.00  0.00     0.222 C 
HETATM   12  O4  UNL     1      17.177  31.041  15.941  1.00  0.00    -0.273 OA
HETATM   13  N4  UNL     1      17.667  30.856  13.710  1.00  0.00    -0.356 N 
ATOM     14  H4  UNL     1      17.720  31.315  12.800  1.00  0.00     0.162 HD
BRANCH  13  15
HETATM   15  C20 UNL     1      18.016  29.491  13.795  1.00  0.00     0.167 C 
BRANCH  15  16
HETATM   16  C21 UNL     1      19.254  29.017  13.186  1.00  0.00     0.033 A 
HETATM   17  C22 UNL     1      20.320  28.742  14.072  1.00  0.00    -0.047 A 
HETATM   18  C23 UNL     1      20.163  29.006  15.527  1.00  0.00     0.049 C 
HETATM   19  C24 UNL     1      21.465  28.238  13.523  1.00  0.00     0.032 A 
HETATM   20  C25 UNL     1      21.562  28.012  12.158  1.00  0.00     0.009 A 
HETATM   21  C26 UNL     1      22.837  27.454  11.602  1.00  0.00     0.068 C 
HETATM   22  N5  UNL     1      20.552  28.279  11.362  1.00  0.00    -0.327 N 
HETATM   23  C27 UNL     1      19.397  28.776  11.839  1.00  0.00     0.254 A 
ATOM     24  H5  UNL     1      20.645  28.106  10.361  1.00  0.00     0.169 HD
HETATM   25  O5  UNL     1      18.476  28.995  10.980  1.00  0.00    -0.268 OA
ENDBRANCH  15  16
ENDBRANCH  13  15
ENDBRANCH  10  11
ENDBRANCH   9  10
BRANCH   1  26
HETATM   26  C2  UNL     1      15.029  34.128  17.094  1.00  0.00    -0.054 C 
HETATM   27  C1  UNL     1      14.433  35.099  17.753  1.00  0.00     0.020 C 
HETATM   28  C3  UNL     1      14.228  32.986  16.648  1.00  0.00     0.049 C 
ENDBRANCH   1  26
BRANCH   8  29
HETATM   29  C12 UNL     1      20.969  35.828  18.249  1.00  0.00     0.234 C 
BRANCH  29  30
HETATM   30  C13 UNL     1      21.296  37.188  17.739  1.00  0.00     0.235 C 
HETATM   31  O1  UNL     1      22.452  37.673  17.990  1.00  0.00    -0.272 OA
HETATM   32  N3  UNL     1      20.344  37.914  16.998  1.00  0.00    -0.359 N 
ATOM     33  H3  UNL     1      19.441  37.469  16.838  1.00  0.00     0.162 HD
BRANCH  32  34
HETATM   34  C14 UNL     1      20.535  39.224  16.449  1.00  0.00     0.137 C 
BRANCH  34  35
HETATM   35  C15 UNL     1      19.717  40.229  17.212  1.00  0.00     0.159 C 
BRANCH  35  36
HETATM   36  S2  UNL     1      18.196  39.511  17.806  1.00  0.00     0.142 S 
HETATM   37  C16 UNL     1      17.045  40.804  18.152  1.00  0.00     0.161 C 
HETATM   38  O2  UNL     1      17.635  38.718  16.636  1.00  0.00    -0.228 OA
HETATM   39  O3  UNL     1      18.444  38.658  18.994  1.00  0.00    -0.228 OA
ENDBRANCH  35  36
ENDBRANCH  34  35
ENDBRANCH  32  34
ENDBRANCH  29  30
ENDBRANCH   8  29
BRANCH   7  40
HETATM   40  C8  UNL     1      22.261  34.436  15.587  1.00  0.00     0.076 C 
BRANCH  40  41
HETATM   41  C9  UNL     1      23.077  33.276  15.922  1.00  0.00     0.007 C 
BRANCH  41  42
HETATM   42  C10 UNL     1      23.563  32.607  14.597  1.00  0.00    -0.004 C 
HETATM   43  C11 UNL     1      22.443  31.822  13.985  1.00  0.00     0.005 C 
ENDBRANCH  41  42
ENDBRANCH  40  41
ENDBRANCH   7  40
TORSDOF 13
ENDMDL
MODEL 4
REMARK VINA RESULT: -8.765563788      3.215     11.021
REMARK  13 active torsions:
REMARK  status: ('A' for Active; 'I' for Inactive)
REMARK    1  A    between atoms: C2_2  and  C4_4 
REMARK    2  A    between atoms: C7_10  and  C8_11 
REMARK    3  A    between atoms: C8_11  and  C9_12 
REMARK    4  A    between atoms: C9_12  and  C10_13 
REMARK    5  A    between atoms: N2_15  and  C12_16 
REMARK    6  A    between atoms: C12_16  and  C13_17 
REMARK       I    between atoms: C13_17  and  N3_19 
REMARK    7  A    between atoms: N3_19  and  C14_21 
REMARK    8  A    between atoms: C14_21  and  C15_22 
REMARK    9  A    between atoms: C15_22  and  S2_23 
REMARK   10  A    between atoms: C17_27  and  C18_28 
REMARK   11  A    between atoms: C18_28  and  C19_29 
REMARK       I    between atoms: C19_29  and  N4_31 
REMARK   12  A    between atoms: N4_31  and  C20_33 
REMARK   13  A    between atoms: C20_33  and  C21_34 
ROOT
HETATM    1  C4  UNL     1      21.456  31.744  15.306  1.00  0.00     0.021 A 
HETATM    2  S1  UNL     1      22.218  31.420  13.761  1.00  0.00    -0.069 SA
HETATM    3  C5  UNL     1      21.319  30.062  13.298  1.00  0.00     0.106 A 
HETATM    4  C6  UNL     1      20.461  29.878  14.317  1.00  0.00     0.076 A 
HETATM    5  N1  UNL     1      19.718  28.796  13.973  1.00  0.00    -0.343 N 
ATOM      6  H1  UNL     1      18.972  28.399  14.545  1.00  0.00     0.167 HD
HETATM    7  C7  UNL     1      20.105  28.310  12.755  1.00  0.00     0.085 A 
HETATM    8  N2  UNL     1      21.097  29.091  12.341  1.00  0.00    -0.320 N 
HETATM    9  C17 UNL     1      20.534  30.764  15.373  1.00  0.00    -0.002 A 
ENDROOT
BRANCH   9  10
HETATM   10  C18 UNL     1      19.522  30.633  16.524  1.00  0.00     0.145 C 
BRANCH  10  11
HETATM   11  C19 UNL     1      18.279  31.279  16.159  1.00  0.00     0.222 C 
HETATM   12  O4  UNL     1      17.404  30.712  15.485  1.00  0.00    -0.273 OA
HETATM   13  N4  UNL     1      18.001  32.637  16.574  1.00  0.00    -0.356 N 
ATOM     14  H4  UNL     1      18.698  33.125  17.138  1.00  0.00     0.162 HD
BRANCH  13  15
HETATM   15  C20 UNL     1      16.811  33.318  16.237  1.00  0.00     0.167 C 
BRANCH  15  16
HETATM   16  C21 UNL     1      16.376  34.460  17.035  1.00  0.00     0.033 A 
HETATM   17  C22 UNL     1      14.994  34.529  17.322  1.00  0.00    -0.047 A 
HETATM   18  C23 UNL     1      14.066  33.513  16.759  1.00  0.00     0.049 C 
HETATM   19  C24 UNL     1      14.579  35.558  18.120  1.00  0.00     0.032 A 
HETATM   20  C25 UNL     1      15.486  36.483  18.619  1.00  0.00     0.009 A 
HETATM   21  C26 UNL     1      14.985  37.591  19.494  1.00  0.00     0.068 C 
HETATM   22  N5  UNL     1      16.764  36.390  18.332  1.00  0.00    -0.327 N 
HETATM   23  C27 UNL     1      17.236  35.400  17.552  1.00  0.00     0.254 A 
ATOM     24  H5  UNL     1      17.412  37.081  18.709  1.00  0.00     0.169 HD
HETATM   25  O5  UNL     1      18.497  35.398  17.340  1.00  0.00    -0.268 OA
ENDBRANCH  15  16
ENDBRANCH  13  15
ENDBRANCH  10  11
ENDBRANCH   9  10
BRANCH   1  26
HETATM   26  C2  UNL     1      21.837  32.854  16.188  1.00  0.00    -0.054 C 
HETATM   27  C1  UNL     1      22.454  32.542  17.308  1.00  0.00     0.020 C 
HETATM   28  C3  UNL     1      21.526  34.260  15.925  1.00  0.00     0.049 C 
ENDBRANCH   1  26
BRANCH   8  29
HETATM   29  C12 UNL     1      21.905  29.079  11.164  1.00  0.00     0.234 C 
BRANCH  29  30
HETATM   30  C13 UNL     1      22.909  27.987  11.296  1.00  0.00     0.235 C 
HETATM   31  O1  UNL     1      23.532  27.861  12.405  1.00  0.00    -0.272 OA
HETATM   32  N3  UNL     1      23.156  27.119  10.216  1.00  0.00    -0.359 N 
ATOM     33  H3  UNL     1      22.627  27.278   9.360  1.00  0.00     0.162 HD
BRANCH  32  34
HETATM   34  C14 UNL     1      24.090  26.030  10.217  1.00  0.00     0.137 C 
BRANCH  34  35
HETATM   35  C15 UNL     1      23.380  24.740   9.909  1.00  0.00     0.159 C 
BRANCH  35  36
HETATM   36  S2  UNL     1      23.090  24.560   8.158  1.00  0.00     0.142 S 
HETATM   37  C16 UNL     1      23.709  22.994   7.630  1.00  0.00     0.161 C 
HETATM   38  O2  UNL     1      21.578  24.517   7.998  1.00  0.00    -0.228 OA
HETATM   39  O3  UNL     1      23.702  25.681   7.404  1.00  0.00    -0.228 OA
ENDBRANCH  35  36
ENDBRANCH  34  35
ENDBRANCH  32  34
ENDBRANCH  29  30
ENDBRANCH   8  29
BRANCH   7  40
HETATM   40  C8  UNL     1      19.453  27.147  12.137  1.00  0.00     0.076 C 
BRANCH  40  41
HETATM   41  C9  UNL     1      18.040  27.242  11.795  1.00  0.00     0.007 C 
BRANCH  41  42
HETATM   42  C10 UNL     1      17.823  28.510  10.909  1.00  0.00    -0.004 C 
HETATM   43  C11 UNL     1      16.394  28.953  10.996  1.00  0.00     0.005 C 
ENDBRANCH  41  42
ENDBRANCH  40  41
ENDBRANCH   7  40
TORSDOF 13
ENDMDL
MODEL 5
REMARK VINA RESULT: -8.724159606      2.711      4.942
REMARK  13 active torsions:
REMARK  status: ('A' for Active; 'I' for Inactive)
REMARK    1  A    between atoms: C2_2  and  C4_4 
REMARK    2  A    between atoms: C7_10  and  C8_11 
REMARK    3  A    between atoms: C8_11  and  C9_12 
REMARK    4  A    between atoms: C9_12  and  C10_13 
REMARK    5  A    between atoms: N2_15  and  C12_16 
REMARK    6  A    between atoms: C12_16  and  C13_17 
REMARK       I    between atoms: C13_17  and  N3_19 
REMARK    7  A    between atoms: N3_19  and  C14_21 
REMARK    8  A    between atoms: C14_21  and  C15_22 
REMARK    9  A    between atoms: C15_22  and  S2_23 
REMARK   10  A    between atoms: C17_27  and  C18_28 
REMARK   11  A    between atoms: C18_28  and  C19_29 
REMARK       I    between atoms: C19_29  and  N4_31 
REMARK   12  A    between atoms: N4_31  and  C20_33 
REMARK   13  A    between atoms: C20_33  and  C21_34 
ROOT
HETATM    1  C4  UNL     1      18.423  29.511  13.756  1.00  0.00     0.021 A 
HETATM    2  S1  UNL     1      17.750  31.129  13.803  1.00  0.00    -0.069 SA
HETATM    3  C5  UNL     1      18.850  31.847  14.871  1.00  0.00     0.106 A 
HETATM    4  C6  UNL     1      19.705  30.854  15.173  1.00  0.00     0.076 A 
HETATM    5  N1  UNL     1      20.608  31.401  16.025  1.00  0.00    -0.343 N 
ATOM      6  H1  UNL     1      21.393  30.897  16.439  1.00  0.00     0.167 HD
HETATM    7  C7  UNL     1      20.323  32.718  16.254  1.00  0.00     0.085 A 
HETATM    8  N2  UNL     1      19.234  32.992  15.542  1.00  0.00    -0.320 N 
HETATM    9  C17 UNL     1      19.480  29.625  14.585  1.00  0.00    -0.002 A 
ENDROOT
BRANCH   9  10
HETATM   10  C18 UNL     1      20.476  28.483  14.845  1.00  0.00     0.145 C 
BRANCH  10  11
HETATM   11  C19 UNL     1      21.538  28.527  13.863  1.00  0.00     0.222 C 
HETATM   12  O4  UNL     1      22.361  29.456  13.808  1.00  0.00    -0.273 OA
HETATM   13  N4  UNL     1      21.689  27.468  12.888  1.00  0.00    -0.356 N 
ATOM     14  H4  UNL     1      21.034  26.686  12.915  1.00  0.00     0.162 HD
BRANCH  13  15
HETATM   15  C20 UNL     1      22.699  27.466  11.902  1.00  0.00     0.167 C 
BRANCH  15  16
HETATM   16  C21 UNL     1      22.609  26.549  10.771  1.00  0.00     0.033 A 
HETATM   17  C22 UNL     1      23.835  26.062  10.263  1.00  0.00    -0.047 A 
HETATM   18  C23 UNL     1      25.119  26.543  10.836  1.00  0.00     0.049 C 
HETATM   19  C24 UNL     1      23.765  25.154   9.245  1.00  0.00     0.032 A 
HETATM   20  C25 UNL     1      22.539  24.739   8.743  1.00  0.00     0.009 A 
HETATM   21  C26 UNL     1      22.512  23.738   7.628  1.00  0.00     0.068 C 
HETATM   22  N5  UNL     1      21.418  25.212   9.237  1.00  0.00    -0.327 N 
HETATM   23  C27 UNL     1      21.419  26.108  10.241  1.00  0.00     0.254 A 
ATOM     24  H5  UNL     1      20.529  24.893   8.852  1.00  0.00     0.169 HD
HETATM   25  O5  UNL     1      20.274  26.499  10.652  1.00  0.00    -0.268 OA
ENDBRANCH  15  16
ENDBRANCH  13  15
ENDBRANCH  10  11
ENDBRANCH   9  10
BRANCH   1  26
HETATM   26  C2  UNL     1      17.863  28.416  12.955  1.00  0.00    -0.054 C 
HETATM   27  C1  UNL     1      17.573  28.682  11.699  1.00  0.00     0.020 C 
HETATM   28  C3  UNL     1      17.563  27.082  13.479  1.00  0.00     0.049 C 
ENDBRANCH   1  26
BRANCH   8  29
HETATM   29  C12 UNL     1      18.461  34.182  15.385  1.00  0.00     0.234 C 
BRANCH  29  30
HETATM   30  C13 UNL     1      17.635  34.369  16.609  1.00  0.00     0.235 C 
HETATM   31  O1  UNL     1      16.797  33.457  16.927  1.00  0.00    -0.272 OA
HETATM   32  N3  UNL     1      17.782  35.530  17.391  1.00  0.00    -0.359 N 
ATOM     33  H3  UNL     1      18.466  36.219  17.078  1.00  0.00     0.162 HD
BRANCH  32  34
HETATM   34  C14 UNL     1      17.054  35.828  18.591  1.00  0.00     0.137 C 
BRANCH  34  35
HETATM   35  C15 UNL     1      16.455  37.204  18.503  1.00  0.00     0.159 C 
BRANCH  35  36
HETATM   36  S2  UNL     1      17.698  38.433  18.143  1.00  0.00     0.142 S 
HETATM   37  C16 UNL     1      17.320  39.913  19.028  1.00  0.00     0.161 C 
HETATM   38  O2  UNL     1      18.992  37.886  18.725  1.00  0.00    -0.228 OA
HETATM   39  O3  UNL     1      17.796  38.671  16.683  1.00  0.00    -0.228 OA
ENDBRANCH  35  36
ENDBRANCH  34  35
ENDBRANCH  32  34
ENDBRANCH  29  30
ENDBRANCH   8  29
BRANCH   7  40
HETATM   40  C8  UNL     1      21.154  33.555  17.131  1.00  0.00     0.076 C 
BRANCH  40  41
HETATM   41  C9  UNL     1      22.592  33.328  17.151  1.00  0.00     0.007 C 
BRANCH  41  42
HETATM   42  C10 UNL     1      23.229  34.046  15.918  1.00  0.00    -0.004 C 
HETATM   43  C11 UNL     1      23.700  33.028  14.925  1.00  0.00     0.005 C 
ENDBRANCH  41  42
ENDBRANCH  40  41
ENDBRANCH   7  40
TORSDOF 13
ENDMDL
