MODEL 1
REMARK VINA RESULT: -8.534268905      0.000      0.000
REMARK  16 active torsions:
REMARK  status: ('A' for Active; 'I' for Inactive)
REMARK    1  A    between atoms: C2_2  and  C3_3 
REMARK    2  A    between atoms: C3_3  and  C4_4 
REMARK    3  A    between atoms: C4_4  and  C5_5 
REMARK    4  A    between atoms: C5_5  and  C6_6 
REMARK    5  A    between atoms: C6_6  and  C7_7 
REMARK    6  A    between atoms: C7_7  and  O1_8 
REMARK    7  A    between atoms: O1_8  and  C8_9 
REMARK       I    between atoms: C8_9  and  N1_11 
REMARK    8  A    between atoms: C9_13  and  C10_14 
REMARK    9  A    between atoms: C9_13  and  C25_46 
REMARK       I    between atoms: C10_14  and  N2_16 
REMARK   10  A    between atoms: C13_22  and  C14_23 
REMARK   11  A    between atoms: C14_23  and  C15_24 
REMARK   12  A    between atoms: C15_24  and  C16_25 
REMARK   13  A    between atoms: C16_25  and  C17_26 
REMARK   14  A    between atoms: C17_26  and  C18_27 
REMARK   15  A    between atoms: C19_32  and  N6_33 
REMARK       I    between atoms: N6_33  and  C20_35 
REMARK   16  A    between atoms: C20_35  and  C21_37 
ROOT
HETATM    1  C10 UNL     1      18.916  29.692  14.327  1.00  0.00     0.270 C 
HETATM    2  O3  UNL     1      20.059  29.745  14.809  1.00  0.00    -0.266 OA
HETATM    3  N2  UNL     1      17.844  30.006  15.235  1.00  0.00    -0.306 N 
ATOM      4  H2  UNL     1      17.378  29.279  15.779  1.00  0.00     0.170 HD
HETATM    5  C11 UNL     1      17.501  31.236  15.333  1.00  0.00     0.138 A 
HETATM    6  C12 UNL     1      16.479  31.591  16.188  1.00  0.00     0.139 A 
HETATM    7  N3  UNL     1      16.128  32.865  16.285  1.00  0.00    -0.351 N 
ATOM      8  H3  UNL     1      15.372  33.130  16.916  1.00  0.00     0.166 HD
HETATM    9  C13 UNL     1      16.746  33.805  15.571  1.00  0.00     0.095 A 
HETATM   10  N7  UNL     1      17.737  33.479  14.738  1.00  0.00    -0.287 N 
ATOM     11  H7  UNL     1      18.210  34.198  14.190  1.00  0.00     0.188 HD
HETATM   12  N8  UNL     1      18.093  32.216  14.634  1.00  0.00    -0.283 N 
ATOM     13  H8  UNL     1      18.850  31.973  13.996  1.00  0.00     0.188 HD
ENDROOT
BRANCH   1  14
HETATM   14  C9  UNL     1      18.559  29.355  12.969  1.00  0.00     0.085 C 
HETATM   15  N1  UNL     1      19.161  29.879  11.985  1.00  0.00    -0.301 N 
HETATM   16  C8  UNL     1      20.221  30.828  12.221  1.00  0.00     0.365 C 
ATOM     17  H1  UNL     1      18.898  29.630  11.031  1.00  0.00     0.171 HD
HETATM   18  O2  UNL     1      19.955  32.054  12.296  1.00  0.00    -0.238 OA
BRANCH  16  19
HETATM   19  O1  UNL     1      21.473  30.399  12.355  1.00  0.00    -0.304 OA
BRANCH  19  20
HETATM   20  C7  UNL     1      22.236  29.395  11.929  1.00  0.00     0.180 C 
BRANCH  20  21
HETATM   21  C6  UNL     1      22.318  28.145  12.690  1.00  0.00     0.027 C 
BRANCH  21  22
HETATM   22  C5  UNL     1      21.702  26.888  12.233  1.00  0.00     0.002 C 
BRANCH  22  23
HETATM   23  C4  UNL     1      22.649  25.965  11.497  1.00  0.00     0.000 C 
BRANCH  23  24
HETATM   24  C3  UNL     1      24.068  26.253  11.871  1.00  0.00    -0.000 C 
BRANCH  24  25
HETATM   25  C2  UNL     1      24.980  26.498  10.697  1.00  0.00    -0.005 C 
HETATM   26  C1  UNL     1      24.273  26.142   9.398  1.00  0.00     0.005 C 
ENDBRANCH  24  25
ENDBRANCH  23  24
ENDBRANCH  22  23
ENDBRANCH  21  22
ENDBRANCH  20  21
ENDBRANCH  19  20
ENDBRANCH  16  19
BRANCH  14  27
HETATM   27  C25 UNL     1      17.466  28.377  12.669  1.00  0.00     0.033 C 
HETATM   28  C26 UNL     1      16.850  28.749  11.347  1.00  0.00     0.016 C 
HETATM   29  C27 UNL     1      17.974  26.961  12.620  1.00  0.00     0.016 C 
ENDBRANCH  14  27
ENDBRANCH   1  14
BRANCH   9  30
HETATM   30  C14 UNL     1      16.351  35.243  15.676  1.00  0.00     0.078 C 
BRANCH  30  31
HETATM   31  C15 UNL     1      15.653  35.508  16.999  1.00  0.00     0.008 C 
BRANCH  31  32
HETATM   32  C16 UNL     1      16.163  36.820  17.515  1.00  0.00     0.007 C 
BRANCH  32  33
HETATM   33  C17 UNL     1      17.152  36.656  18.649  1.00  0.00     0.066 C 
BRANCH  33  34
HETATM   34  C18 UNL     1      18.497  36.470  18.002  1.00  0.00     0.069 A 
HETATM   35  N4  UNL     1      19.318  37.376  17.495  1.00  0.00    -0.296 N 
HETATM   36  N5  UNL     1      20.425  37.028  16.987  1.00  0.00    -0.279 N 
ATOM     37  H4  UNL     1      19.058  38.362  17.513  1.00  0.00     0.187 HD
HETATM   38  C19 UNL     1      20.755  35.736  16.969  1.00  0.00     0.167 A 
ATOM     39  H5  UNL     1      21.057  37.728  16.596  1.00  0.00     0.189 HD
HETATM   40  S1  UNL     1      19.389  35.025  17.722  1.00  0.00    -0.038 SA
BRANCH  38  41
HETATM   41  N6  UNL     1      21.809  35.130  16.514  1.00  0.00    -0.305 N 
HETATM   42  C20 UNL     1      21.804  33.925  15.793  1.00  0.00     0.231 C 
HETATM   43  O4  UNL     1      20.945  33.628  14.938  1.00  0.00    -0.272 OA
ATOM     44  H6  UNL     1      22.714  35.565  16.694  1.00  0.00     0.171 HD
BRANCH  42  45
HETATM   45  C21 UNL     1      22.897  32.951  16.072  1.00  0.00     0.030 C 
HETATM   46  C22 UNL     1      22.762  32.489  17.500  1.00  0.00     0.025 C 
HETATM   47  C23 UNL     1      22.739  31.754  15.147  1.00  0.00     0.025 C 
HETATM   48  C24 UNL     1      24.255  33.549  15.813  1.00  0.00     0.025 C 
ENDBRANCH  42  45
ENDBRANCH  38  41
ENDBRANCH  33  34
ENDBRANCH  32  33
ENDBRANCH  31  32
ENDBRANCH  30  31
ENDBRANCH   9  30
TORSDOF 16
ENDMDL
MODEL 2
REMARK VINA RESULT: -8.435708830      1.644      2.855
REMARK  16 active torsions:
REMARK  status: ('A' for Active; 'I' for Inactive)
REMARK    1  A    between atoms: C2_2  and  C3_3 
REMARK    2  A    between atoms: C3_3  and  C4_4 
REMARK    3  A    between atoms: C4_4  and  C5_5 
REMARK    4  A    between atoms: C5_5  and  C6_6 
REMARK    5  A    between atoms: C6_6  and  C7_7 
REMARK    6  A    between atoms: C7_7  and  O1_8 
REMARK    7  A    between atoms: O1_8  and  C8_9 
REMARK       I    between atoms: C8_9  and  N1_11 
REMARK    8  A    between atoms: C9_13  and  C10_14 
REMARK    9  A    between atoms: C9_13  and  C25_46 
REMARK       I    between atoms: C10_14  and  N2_16 
REMARK   10  A    between atoms: C13_22  and  C14_23 
REMARK   11  A    between atoms: C14_23  and  C15_24 
REMARK   12  A    between atoms: C15_24  and  C16_25 
REMARK   13  A    between atoms: C16_25  and  C17_26 
REMARK   14  A    between atoms: C17_26  and  C18_27 
REMARK   15  A    between atoms: C19_32  and  N6_33 
REMARK       I    between atoms: N6_33  and  C20_35 
REMARK   16  A    between atoms: C20_35  and  C21_37 
ROOT
HETATM    1  C10 UNL     1      19.030  30.225  12.731  1.00  0.00     0.270 C 
HETATM    2  O3  UNL     1      18.236  29.881  11.842  1.00  0.00    -0.266 OA
HETATM    3  N2  UNL     1      19.010  31.622  13.075  1.00  0.00    -0.306 N 
ATOM      4  H2  UNL     1      19.625  32.292  12.613  1.00  0.00     0.170 HD
HETATM    5  C11 UNL     1      18.186  31.990  13.985  1.00  0.00     0.138 A 
HETATM    6  C12 UNL     1      18.126  33.317  14.352  1.00  0.00     0.139 A 
HETATM    7  N3  UNL     1      17.272  33.692  15.294  1.00  0.00    -0.351 N 
ATOM      8  H3  UNL     1      17.227  34.673  15.568  1.00  0.00     0.166 HD
HETATM    9  C13 UNL     1      16.473  32.807  15.887  1.00  0.00     0.095 A 
HETATM   10  N7  UNL     1      16.517  31.518  15.544  1.00  0.00    -0.287 N 
ATOM     11  H7  UNL     1      15.906  30.839  15.998  1.00  0.00     0.188 HD
HETATM   12  N8  UNL     1      17.362  31.136  14.611  1.00  0.00    -0.283 N 
ATOM     13  H8  UNL     1      17.392  30.150  14.352  1.00  0.00     0.188 HD
ENDROOT
BRANCH   1  14
HETATM   14  C9  UNL     1      19.957  29.379  13.445  1.00  0.00     0.085 C 
HETATM   15  N1  UNL     1      19.566  28.320  14.022  1.00  0.00    -0.301 N 
HETATM   16  C8  UNL     1      18.172  27.952  13.966  1.00  0.00     0.365 C 
ATOM     17  H1  UNL     1      20.232  27.732  14.523  1.00  0.00     0.171 HD
HETATM   18  O2  UNL     1      17.387  28.346  14.864  1.00  0.00    -0.238 OA
BRANCH  16  19
HETATM   19  O1  UNL     1      17.730  27.195  12.965  1.00  0.00    -0.304 OA
BRANCH  19  20
HETATM   20  C7  UNL     1      18.177  26.219  12.178  1.00  0.00     0.180 C 
BRANCH  20  21
HETATM   21  C6  UNL     1      18.751  26.524  10.864  1.00  0.00     0.027 C 
BRANCH  21  22
HETATM   22  C5  UNL     1      20.117  27.044  10.689  1.00  0.00     0.002 C 
BRANCH  22  23
HETATM   23  C4  UNL     1      21.175  26.276  11.452  1.00  0.00     0.000 C 
BRANCH  23  24
HETATM   24  C3  UNL     1      22.529  26.510  10.863  1.00  0.00    -0.000 C 
BRANCH  24  25
HETATM   25  C2  UNL     1      23.672  26.169  11.784  1.00  0.00    -0.005 C 
HETATM   26  C1  UNL     1      24.686  27.303  11.805  1.00  0.00     0.005 C 
ENDBRANCH  24  25
ENDBRANCH  23  24
ENDBRANCH  22  23
ENDBRANCH  21  22
ENDBRANCH  20  21
ENDBRANCH  19  20
ENDBRANCH  16  19
BRANCH  14  27
HETATM   27  C25 UNL     1      21.413  29.716  13.535  1.00  0.00     0.033 C 
HETATM   28  C26 UNL     1      22.117  28.585  14.235  1.00  0.00     0.016 C 
HETATM   29  C27 UNL     1      22.024  29.941  12.178  1.00  0.00     0.016 C 
ENDBRANCH  14  27
ENDBRANCH   1  14
BRANCH   9  30
HETATM   30  C14 UNL     1      15.509  33.225  16.952  1.00  0.00     0.078 C 
BRANCH  30  31
HETATM   31  C15 UNL     1      15.239  34.718  16.868  1.00  0.00     0.008 C 
BRANCH  31  32
HETATM   32  C16 UNL     1      15.047  35.213  18.270  1.00  0.00     0.007 C 
BRANCH  32  33
HETATM   33  C17 UNL     1      15.906  36.419  18.585  1.00  0.00     0.066 C 
BRANCH  33  34
HETATM   34  C18 UNL     1      17.304  36.053  18.170  1.00  0.00     0.069 A 
HETATM   35  N4  UNL     1      18.119  36.668  17.327  1.00  0.00    -0.296 N 
HETATM   36  N5  UNL     1      19.277  36.207  17.100  1.00  0.00    -0.279 N 
ATOM     37  H4  UNL     1      17.813  37.520  16.857  1.00  0.00     0.187 HD
HETATM   38  C19 UNL     1      19.666  35.093  17.720  1.00  0.00     0.167 A 
ATOM     39  H5  UNL     1      19.904  36.683  16.451  1.00  0.00     0.189 HD
HETATM   40  S1  UNL     1      18.281  34.723  18.659  1.00  0.00    -0.038 SA
BRANCH  38  41
HETATM   41  N6  UNL     1      20.780  34.427  17.661  1.00  0.00    -0.305 N 
HETATM   42  C20 UNL     1      21.371  33.937  16.485  1.00  0.00     0.231 C 
HETATM   43  O4  UNL     1      21.379  34.554  15.401  1.00  0.00    -0.272 OA
ATOM     44  H6  UNL     1      21.264  34.246  18.540  1.00  0.00     0.171 HD
BRANCH  42  45
HETATM   45  C21 UNL     1      22.026  32.600  16.549  1.00  0.00     0.030 C 
HETATM   46  C22 UNL     1      23.003  32.501  15.407  1.00  0.00     0.025 C 
HETATM   47  C23 UNL     1      22.783  32.485  17.862  1.00  0.00     0.025 C 
HETATM   48  C24 UNL     1      21.016  31.483  16.507  1.00  0.00     0.025 C 
ENDBRANCH  42  45
ENDBRANCH  38  41
ENDBRANCH  33  34
ENDBRANCH  32  33
ENDBRANCH  31  32
ENDBRANCH  30  31
ENDBRANCH   9  30
TORSDOF 16
ENDMDL
MODEL 3
REMARK VINA RESULT: -8.362953141      3.025      9.612
REMARK  16 active torsions:
REMARK  status: ('A' for Active; 'I' for Inactive)
REMARK    1  A    between atoms: C2_2  and  C3_3 
REMARK    2  A    between atoms: C3_3  and  C4_4 
REMARK    3  A    between atoms: C4_4  and  C5_5 
REMARK    4  A    between atoms: C5_5  and  C6_6 
REMARK    5  A    between atoms: C6_6  and  C7_7 
REMARK    6  A    between atoms: C7_7  and  O1_8 
REMARK    7  A    between atoms: O1_8  and  C8_9 
REMARK       I    between atoms: C8_9  and  N1_11 
REMARK    8  A    between atoms: C9_13  and  C10_14 
REMARK    9  A    between atoms: C9_13  and  C25_46 
REMARK       I    between atoms: C10_14  and  N2_16 
REMARK   10  A    between atoms: C13_22  and  C14_23 
REMARK   11  A    between atoms: C14_23  and  C15_24 
REMARK   12  A    between atoms: C15_24  and  C16_25 
REMARK   13  A    between atoms: C16_25  and  C17_26 
REMARK   14  A    between atoms: C17_26  and  C18_27 
REMARK   15  A    between atoms: C19_32  and  N6_33 
REMARK       I    between atoms: N6_33  and  C20_35 
REMARK   16  A    between atoms: C20_35  and  C21_37 
ROOT
HETATM    1  C10 UNL     1      20.215  37.673  18.147  1.00  0.00     0.270 C 
HETATM    2  O3  UNL     1      19.611  37.445  19.207  1.00  0.00    -0.266 OA
HETATM    3  N2  UNL     1      21.265  36.745  17.819  1.00  0.00    -0.306 N 
ATOM      4  H2  UNL     1      22.229  36.907  18.112  1.00  0.00     0.170 HD
HETATM    5  C11 UNL     1      20.938  35.707  17.143  1.00  0.00     0.138 A 
HETATM    6  C12 UNL     1      21.905  34.785  16.802  1.00  0.00     0.139 A 
HETATM    7  N3  UNL     1      21.562  33.713  16.102  1.00  0.00    -0.351 N 
ATOM      8  H3  UNL     1      22.276  33.031  15.848  1.00  0.00     0.166 HD
HETATM    9  C13 UNL     1      20.300  33.513  15.728  1.00  0.00     0.095 A 
HETATM   10  N7  UNL     1      19.351  34.395  16.049  1.00  0.00    -0.287 N 
ATOM     11  H7  UNL     1      18.383  34.243  15.762  1.00  0.00     0.188 HD
HETATM   12  N8  UNL     1      19.681  35.463  16.743  1.00  0.00    -0.283 N 
ATOM     13  H8  UNL     1      18.952  36.133  16.986  1.00  0.00     0.188 HD
ENDROOT
BRANCH   1  14
HETATM   14  C9  UNL     1      19.976  38.758  17.224  1.00  0.00     0.085 C 
HETATM   15  N1  UNL     1      18.816  38.983  16.766  1.00  0.00    -0.301 N 
HETATM   16  C8  UNL     1      17.715  38.143  17.170  1.00  0.00     0.365 C 
ATOM     17  H1  UNL     1      18.661  39.753  16.115  1.00  0.00     0.171 HD
HETATM   18  O2  UNL     1      17.431  37.120  16.497  1.00  0.00    -0.238 OA
BRANCH  16  19
HETATM   19  O1  UNL     1      17.006  38.458  18.251  1.00  0.00    -0.304 OA
BRANCH  19  20
HETATM   20  C7  UNL     1      15.773  38.283  18.722  1.00  0.00     0.180 C 
BRANCH  20  21
HETATM   21  C6  UNL     1      15.285  36.943  19.058  1.00  0.00     0.027 C 
BRANCH  21  22
HETATM   22  C5  UNL     1      14.657  36.049  18.070  1.00  0.00     0.002 C 
BRANCH  22  23
HETATM   23  C4  UNL     1      14.926  34.579  18.305  1.00  0.00     0.000 C 
BRANCH  23  24
HETATM   24  C3  UNL     1      16.111  34.124  17.515  1.00  0.00    -0.000 C 
BRANCH  24  25
HETATM   25  C2  UNL     1      15.783  33.656  16.121  1.00  0.00    -0.005 C 
HETATM   26  C1  UNL     1      15.574  32.149  16.107  1.00  0.00     0.005 C 
ENDBRANCH  24  25
ENDBRANCH  23  24
ENDBRANCH  22  23
ENDBRANCH  21  22
ENDBRANCH  20  21
ENDBRANCH  19  20
ENDBRANCH  16  19
BRANCH  14  27
HETATM   27  C25 UNL     1      21.083  39.658  16.773  1.00  0.00     0.033 C 
HETATM   28  C26 UNL     1      21.085  39.684  15.267  1.00  0.00     0.016 C 
HETATM   29  C27 UNL     1      20.929  41.056  17.311  1.00  0.00     0.016 C 
ENDBRANCH  14  27
ENDBRANCH   1  14
BRANCH   9  30
HETATM   30  C14 UNL     1      19.909  32.305  14.936  1.00  0.00     0.078 C 
BRANCH  30  31
HETATM   31  C15 UNL     1      18.697  32.605  14.071  1.00  0.00     0.008 C 
BRANCH  31  32
HETATM   32  C16 UNL     1      18.167  31.292  13.580  1.00  0.00     0.007 C 
BRANCH  32  33
HETATM   33  C17 UNL     1      18.586  30.129  14.454  1.00  0.00     0.066 C 
BRANCH  33  34
HETATM   34  C18 UNL     1      19.285  29.157  13.545  1.00  0.00     0.069 A 
HETATM   35  N4  UNL     1      19.122  27.848  13.429  1.00  0.00    -0.296 N 
HETATM   36  N5  UNL     1      19.809  27.186  12.595  1.00  0.00    -0.279 N 
ATOM     37  H4  UNL     1      18.439  27.369  14.015  1.00  0.00     0.187 HD
HETATM   38  C19 UNL     1      20.699  27.823  11.835  1.00  0.00     0.167 A 
ATOM     39  H5  UNL     1      19.682  26.178  12.508  1.00  0.00     0.189 HD
HETATM   40  S1  UNL     1      20.512  29.440  12.371  1.00  0.00    -0.038 SA
BRANCH  38  41
HETATM   41  N6  UNL     1      21.513  27.384  10.923  1.00  0.00    -0.305 N 
HETATM   42  C20 UNL     1      22.499  26.404  11.119  1.00  0.00     0.231 C 
HETATM   43  O4  UNL     1      22.344  25.395  11.837  1.00  0.00    -0.272 OA
ATOM     44  H6  UNL     1      21.428  27.784   9.988  1.00  0.00     0.171 HD
BRANCH  42  45
HETATM   45  C21 UNL     1      23.803  26.588  10.422  1.00  0.00     0.030 C 
HETATM   46  C22 UNL     1      23.891  28.019   9.961  1.00  0.00     0.025 C 
HETATM   47  C23 UNL     1      24.930  26.314  11.406  1.00  0.00     0.025 C 
HETATM   48  C24 UNL     1      23.960  25.628   9.273  1.00  0.00     0.025 C 
ENDBRANCH  42  45
ENDBRANCH  38  41
ENDBRANCH  33  34
ENDBRANCH  32  33
ENDBRANCH  31  32
ENDBRANCH  30  31
ENDBRANCH   9  30
TORSDOF 16
ENDMDL
MODEL 4
REMARK VINA RESULT: -8.352921939      3.124      8.277
REMARK  16 active torsions:
REMARK  status: ('A' for Active; 'I' for Inactive)
REMARK    1  A    between atoms: C2_2  and  C3_3 
REMARK    2  A    between atoms: C3_3  and  C4_4 
REMARK    3  A    between atoms: C4_4  and  C5_5 
REMARK    4  A    between atoms: C5_5  and  C6_6 
REMARK    5  A    between atoms: C6_6  and  C7_7 
REMARK    6  A    between atoms: C7_7  and  O1_8 
REMARK    7  A    between atoms: O1_8  and  C8_9 
REMARK       I    between atoms: C8_9  and  N1_11 
REMARK    8  A    between atoms: C9_13  and  C10_14 
REMARK    9  A    between atoms: C9_13  and  C25_46 
REMARK       I    between atoms: C10_14  and  N2_16 
REMARK   10  A    between atoms: C13_22  and  C14_23 
REMARK   11  A    between atoms: C14_23  and  C15_24 
REMARK   12  A    between atoms: C15_24  and  C16_25 
REMARK   13  A    between atoms: C16_25  and  C17_26 
REMARK   14  A    between atoms: C17_26  and  C18_27 
REMARK   15  A    between atoms: C19_32  and  N6_33 
REMARK       I    between atoms: N6_33  and  C20_35 
REMARK   16  A    between atoms: C20_35  and  C21_37 
ROOT
HETATM    1  C10 UNL     1      19.345  39.040  18.668  1.00  0.00     0.270 C 
HETATM    2  O3  UNL     1      18.523  39.652  19.367  1.00  0.00    -0.266 OA
HETATM    3  N2  UNL     1      19.415  37.620  18.892  1.00  0.00    -0.306 N 
ATOM      4  H2  UNL     1      20.067  37.220  19.567  1.00  0.00     0.170 HD
HETATM    5  C11 UNL     1      18.625  36.879  18.207  1.00  0.00     0.138 A 
HETATM    6  C12 UNL     1      18.651  35.512  18.383  1.00  0.00     0.139 A 
HETATM    7  N3  UNL     1      17.831  34.751  17.673  1.00  0.00    -0.351 N 
ATOM      8  H3  UNL     1      17.849  33.739  17.800  1.00  0.00     0.166 HD
HETATM    9  C13 UNL     1      16.984  35.287  16.795  1.00  0.00     0.095 A 
HETATM   10  N7  UNL     1      16.945  36.608  16.612  1.00  0.00    -0.287 N 
ATOM     11  H7  UNL     1      16.297  37.019  15.940  1.00  0.00     0.188 HD
HETATM   12  N8  UNL     1      17.756  37.373  17.312  1.00  0.00    -0.283 N 
ATOM     13  H8  UNL     1      17.722  38.382  17.168  1.00  0.00     0.188 HD
ENDROOT
BRANCH   1  14
HETATM   14  C9  UNL     1      20.225  39.598  17.668  1.00  0.00     0.085 C 
HETATM   15  N1  UNL     1      21.484  39.562  17.810  1.00  0.00    -0.301 N 
HETATM   16  C8  UNL     1      22.051  38.955  18.989  1.00  0.00     0.365 C 
ATOM     17  H1  UNL     1      22.093  39.961  17.095  1.00  0.00     0.171 HD
HETATM   18  O2  UNL     1      22.280  39.658  20.004  1.00  0.00    -0.238 OA
BRANCH  16  19
HETATM   19  O1  UNL     1      22.329  37.654  18.992  1.00  0.00    -0.304 OA
BRANCH  19  20
HETATM   20  C7  UNL     1      22.782  36.727  18.150  1.00  0.00     0.180 C 
BRANCH  20  21
HETATM   21  C6  UNL     1      22.271  35.355  18.205  1.00  0.00     0.027 C 
BRANCH  21  22
HETATM   22  C5  UNL     1      22.130  34.505  17.010  1.00  0.00     0.002 C 
BRANCH  22  23
HETATM   23  C4  UNL     1      22.517  33.059  17.229  1.00  0.00     0.000 C 
BRANCH  23  24
HETATM   24  C3  UNL     1      21.648  32.149  16.421  1.00  0.00    -0.000 C 
BRANCH  24  25
HETATM   25  C2  UNL     1      21.152  32.750  15.132  1.00  0.00    -0.005 C 
HETATM   26  C1  UNL     1      21.839  32.091  13.945  1.00  0.00     0.005 C 
ENDBRANCH  24  25
ENDBRANCH  23  24
ENDBRANCH  22  23
ENDBRANCH  21  22
ENDBRANCH  20  21
ENDBRANCH  19  20
ENDBRANCH  16  19
BRANCH  14  27
HETATM   27  C25 UNL     1      19.688  40.241  16.427  1.00  0.00     0.033 C 
HETATM   28  C26 UNL     1      19.531  41.715  16.690  1.00  0.00     0.016 C 
HETATM   29  C27 UNL     1      20.593  40.024  15.243  1.00  0.00     0.016 C 
ENDBRANCH  14  27
ENDBRANCH   1  14
BRANCH   9  30
HETATM   30  C14 UNL     1      16.059  34.431  15.990  1.00  0.00     0.078 C 
BRANCH  30  31
HETATM   31  C15 UNL     1      16.557  34.306  14.561  1.00  0.00     0.008 C 
BRANCH  31  32
HETATM   32  C16 UNL     1      17.478  33.124  14.513  1.00  0.00     0.007 C 
BRANCH  32  33
HETATM   33  C17 UNL     1      16.923  31.922  15.248  1.00  0.00     0.066 C 
BRANCH  33  34
HETATM   34  C18 UNL     1      17.929  30.822  15.060  1.00  0.00     0.069 A 
HETATM   35  N4  UNL     1      18.615  30.145  15.970  1.00  0.00    -0.296 N 
HETATM   36  N5  UNL     1      19.427  29.239  15.619  1.00  0.00    -0.279 N 
ATOM     37  H4  UNL     1      18.488  30.356  16.959  1.00  0.00     0.187 HD
HETATM   38  C19 UNL     1      19.585  28.972  14.322  1.00  0.00     0.167 A 
ATOM     39  H5  UNL     1      19.955  28.719  16.321  1.00  0.00     0.189 HD
HETATM   40  S1  UNL     1      18.503  30.094  13.610  1.00  0.00    -0.038 SA
BRANCH  38  41
HETATM   41  N6  UNL     1      20.341  28.110  13.714  1.00  0.00    -0.305 N 
HETATM   42  C20 UNL     1      21.727  28.235  13.527  1.00  0.00     0.231 C 
HETATM   43  O4  UNL     1      22.505  28.705  14.383  1.00  0.00    -0.272 OA
ATOM     44  H6  UNL     1      19.892  27.274  13.341  1.00  0.00     0.171 HD
BRANCH  42  45
HETATM   45  C21 UNL     1      22.293  27.775  12.228  1.00  0.00     0.030 C 
HETATM   46  C22 UNL     1      23.777  27.585  12.401  1.00  0.00     0.025 C 
HETATM   47  C23 UNL     1      21.661  26.441  11.861  1.00  0.00     0.025 C 
HETATM   48  C24 UNL     1      21.988  28.743  11.114  1.00  0.00     0.025 C 
ENDBRANCH  42  45
ENDBRANCH  38  41
ENDBRANCH  33  34
ENDBRANCH  32  33
ENDBRANCH  31  32
ENDBRANCH  30  31
ENDBRANCH   9  30
TORSDOF 16
ENDMDL
MODEL 5
REMARK VINA RESULT: -8.246686664      2.886      8.304
REMARK  16 active torsions:
REMARK  status: ('A' for Active; 'I' for Inactive)
REMARK    1  A    between atoms: C2_2  and  C3_3 
REMARK    2  A    between atoms: C3_3  and  C4_4 
REMARK    3  A    between atoms: C4_4  and  C5_5 
REMARK    4  A    between atoms: C5_5  and  C6_6 
REMARK    5  A    between atoms: C6_6  and  C7_7 
REMARK    6  A    between atoms: C7_7  and  O1_8 
REMARK    7  A    between atoms: O1_8  and  C8_9 
REMARK       I    between atoms: C8_9  and  N1_11 
REMARK    8  A    between atoms: C9_13  and  C10_14 
REMARK    9  A    between atoms: C9_13  and  C25_46 
REMARK       I    between atoms: C10_14  and  N2_16 
REMARK   10  A    between atoms: C13_22  and  C14_23 
REMARK   11  A    between atoms: C14_23  and  C15_24 
REMARK   12  A    between atoms: C15_24  and  C16_25 
REMARK   13  A    between atoms: C16_25  and  C17_26 
REMARK   14  A    between atoms: C17_26  and  C18_27 
REMARK   15  A    between atoms: C19_32  and  N6_33 
REMARK       I    between atoms: N6_33  and  C20_35 
REMARK   16  A    between atoms: C20_35  and  C21_37 
ROOT
HETATM    1  C10 UNL     1      17.906  35.069  18.282  1.00  0.00     0.270 C 
HETATM    2  O3  UNL     1      17.314  34.738  19.322  1.00  0.00    -0.266 OA
HETATM    3  N2  UNL     1      18.983  34.204  17.879  1.00  0.00    -0.306 N 
ATOM      4  H2  UNL     1      19.943  34.373  18.182  1.00  0.00     0.170 HD
HETATM    5  C11 UNL     1      18.687  33.213  17.123  1.00  0.00     0.138 A 
HETATM    6  C12 UNL     1      19.681  32.354  16.707  1.00  0.00     0.139 A 
HETATM    7  N3  UNL     1      19.370  31.331  15.925  1.00  0.00    -0.351 N 
ATOM      8  H3  UNL     1      20.104  30.694  15.615  1.00  0.00     0.166 HD
HETATM    9  C13 UNL     1      18.112  31.121  15.538  1.00  0.00     0.095 A 
HETATM   10  N7  UNL     1      17.137  31.942  15.931  1.00  0.00    -0.287 N 
ATOM     11  H7  UNL     1      16.174  31.782  15.635  1.00  0.00     0.188 HD
HETATM   12  N8  UNL     1      17.437  32.962  16.707  1.00  0.00    -0.283 N 
ATOM     13  H8  UNL     1      16.687  33.587  17.004  1.00  0.00     0.188 HD
ENDROOT
BRANCH   1  14
HETATM   14  C9  UNL     1      17.627  36.216  17.450  1.00  0.00     0.085 C 
HETATM   15  N1  UNL     1      18.469  37.156  17.328  1.00  0.00    -0.301 N 
HETATM   16  C8  UNL     1      19.726  37.082  18.031  1.00  0.00     0.365 C 
ATOM     17  H1  UNL     1      18.258  37.960  16.736  1.00  0.00     0.171 HD
HETATM   18  O2  UNL     1      19.827  37.575  19.182  1.00  0.00    -0.238 OA
BRANCH  16  19
HETATM   19  O1  UNL     1      20.771  36.495  17.455  1.00  0.00    -0.304 OA
BRANCH  19  20
HETATM   20  C7  UNL     1      21.934  35.951  17.811  1.00  0.00     0.180 C 
BRANCH  20  21
HETATM   21  C6  UNL     1      22.750  35.227  16.833  1.00  0.00     0.027 C 
BRANCH  21  22
HETATM   22  C5  UNL     1      22.817  33.757  16.778  1.00  0.00     0.002 C 
BRANCH  22  23
HETATM   23  C4  UNL     1      23.543  33.214  15.567  1.00  0.00     0.000 C 
BRANCH  23  24
HETATM   24  C3  UNL     1      22.919  31.937  15.102  1.00  0.00    -0.000 C 
BRANCH  24  25
HETATM   25  C2  UNL     1      22.092  32.071  13.850  1.00  0.00    -0.005 C 
HETATM   26  C1  UNL     1      21.792  30.698  13.269  1.00  0.00     0.005 C 
ENDBRANCH  24  25
ENDBRANCH  23  24
ENDBRANCH  22  23
ENDBRANCH  21  22
ENDBRANCH  20  21
ENDBRANCH  19  20
ENDBRANCH  16  19
BRANCH  14  27
HETATM   27  C25 UNL     1      16.338  36.342  16.700  1.00  0.00     0.033 C 
HETATM   28  C26 UNL     1      16.455  35.552  15.424  1.00  0.00     0.016 C 
HETATM   29  C27 UNL     1      15.166  35.846  17.506  1.00  0.00     0.016 C 
ENDBRANCH  14  27
ENDBRANCH   1  14
BRANCH   9  30
HETATM   30  C14 UNL     1      17.757  29.967  14.654  1.00  0.00     0.078 C 
BRANCH  30  31
HETATM   31  C15 UNL     1      17.986  30.324  13.196  1.00  0.00     0.008 C 
BRANCH  31  32
HETATM   32  C16 UNL     1      17.334  29.257  12.370  1.00  0.00     0.007 C 
BRANCH  32  33
HETATM   33  C17 UNL     1      17.426  27.887  13.008  1.00  0.00     0.066 C 
BRANCH  33  34
HETATM   34  C18 UNL     1      18.546  27.175  12.302  1.00  0.00     0.069 A 
HETATM   35  N4  UNL     1      18.787  25.876  12.204  1.00  0.00    -0.296 N 
HETATM   36  N5  UNL     1      19.791  25.456  11.557  1.00  0.00    -0.279 N 
ATOM     37  H4  UNL     1      18.159  25.209  12.652  1.00  0.00     0.187 HD
HETATM   38  C19 UNL     1      20.606  26.337  10.976  1.00  0.00     0.167 A 
ATOM     39  H5  UNL     1      19.975  24.455  11.482  1.00  0.00     0.189 HD
HETATM   40  S1  UNL     1      19.862  27.821  11.401  1.00  0.00    -0.038 SA
BRANCH  38  41
HETATM   41  N6  UNL     1      21.683  26.168  10.271  1.00  0.00    -0.305 N 
HETATM   42  C20 UNL     1      22.962  25.913  10.792  1.00  0.00     0.231 C 
HETATM   43  O4  UNL     1      23.179  25.179  11.778  1.00  0.00    -0.272 OA
ATOM     44  H6  UNL     1      21.593  26.225   9.257  1.00  0.00     0.171 HD
BRANCH  42  45
HETATM   45  C21 UNL     1      24.123  26.561  10.119  1.00  0.00     0.030 C 
HETATM   46  C22 UNL     1      24.295  25.926   8.764  1.00  0.00     0.025 C 
HETATM   47  C23 UNL     1      23.824  28.041   9.939  1.00  0.00     0.025 C 
HETATM   48  C24 UNL     1      25.378  26.448  10.944  1.00  0.00     0.025 C 
ENDBRANCH  42  45
ENDBRANCH  38  41
ENDBRANCH  33  34
ENDBRANCH  32  33
ENDBRANCH  31  32
ENDBRANCH  30  31
ENDBRANCH   9  30
TORSDOF 16
ENDMDL
