MODEL 1
REMARK VINA RESULT: -8.183525740      0.000      0.000
REMARK  15 active torsions:
REMARK  status: ('A' for Active; 'I' for Inactive)
REMARK    1  A    between atoms: C4_4  and  C5_5 
REMARK    2  A    between atoms: C11_11  and  N1_12 
REMARK    3  A    between atoms: N1_12  and  C12_13 
REMARK    4  A    between atoms: N1_12  and  C15_20 
REMARK    5  A    between atoms: C12_13  and  C13_14 
REMARK    6  A    between atoms: C13_14  and  C14_15 
REMARK    7  A    between atoms: C14_15  and  N2_16 
REMARK    8  A    between atoms: C15_20  and  C16_21 
REMARK    9  A    between atoms: C16_21  and  C17_22 
REMARK   10  A    between atoms: C17_22  and  N3_23 
REMARK   11  A    between atoms: C24_31  and  N4_32 
REMARK   12  A    between atoms: N4_32  and  C25_33 
REMARK   13  A    between atoms: C25_33  and  C26_34 
REMARK   14  A    between atoms: C26_34  and  C27_35 
REMARK   15  A    between atoms: C27_35  and  N5_36 
ROOT
HETATM    1  C1  UNL     1      21.472  36.341  17.853  1.00  0.00     0.103 C 
HETATM    2  C2  UNL     1      21.033  35.397  17.211  1.00  0.00    -0.145 C 
HETATM    3  C3  UNL     1      20.582  34.306  16.437  1.00  0.00     0.045 A 
HETATM    4  C4  UNL     1      19.228  33.987  16.289  1.00  0.00     0.013 A 
HETATM    5  C11 UNL     1      18.935  32.952  15.445  1.00  0.00     0.047 A 
HETATM    6  C22 UNL     1      19.990  32.265  14.747  1.00  0.00     0.049 A 
HETATM    7  C23 UNL     1      21.290  32.618  14.925  1.00  0.00     0.053 A 
HETATM    8  C24 UNL     1      22.305  31.928  14.247  1.00  0.00     0.191 A 
HETATM    9  N6  UNL     1      23.600  32.270  14.468  1.00  0.00    -0.327 N 
ATOM     10  H6  UNL     1      24.351  31.773  13.990  1.00  0.00     0.169 HD
HETATM   11  C32 UNL     1      23.885  33.268  15.319  1.00  0.00     0.183 A 
HETATM   12  N7  UNL     1      22.911  33.917  15.937  1.00  0.00    -0.350 N 
ATOM     13  H7  UNL     1      23.160  34.675  16.573  1.00  0.00     0.166 HD
HETATM   14  C33 UNL     1      21.597  33.621  15.763  1.00  0.00     0.067 A 
ENDROOT
BRANCH   4  15
HETATM   15  C5  UNL     1      18.223  34.770  17.070  1.00  0.00    -0.066 C 
HETATM   16  C6  UNL     1      17.554  35.868  16.271  1.00  0.00     0.035 C 
HETATM   17  C7  UNL     1      16.799  36.787  17.162  1.00  0.00     0.004 C 
HETATM   18  C8  UNL     1      17.793  37.256  18.226  1.00  0.00     0.001 C 
HETATM   19  C9  UNL     1      17.942  36.114  19.191  1.00  0.00     0.004 C 
HETATM   20  C10 UNL     1      18.281  34.815  18.520  1.00  0.00     0.035 C 
ENDBRANCH   4  15
BRANCH   5  21
HETATM   21  N1  UNL     1      17.719  32.227  15.323  1.00  0.00    -0.359 N 
BRANCH  21  22
HETATM   22  C12 UNL     1      16.821  31.762  16.320  1.00  0.00     0.066 C 
BRANCH  22  23
HETATM   23  C13 UNL     1      15.359  31.966  16.233  1.00  0.00     0.072 C 
BRANCH  23  24
HETATM   24  C14 UNL     1      15.151  33.453  16.628  1.00  0.00     0.234 C 
BRANCH  24  25
HETATM   25  N2  UNL     1      14.890  33.639  18.026  1.00  0.00    -0.079 N 
ATOM     26  H23 UNL     1      13.920  33.410  18.247  1.00  0.00     0.274 HD
ATOM     27  H22 UNL     1      15.362  32.925  18.581  1.00  0.00     0.274 HD
ATOM     28  H21 UNL     1      15.127  34.573  18.361  1.00  0.00     0.274 HD
ENDBRANCH  24  25
ENDBRANCH  23  24
ENDBRANCH  22  23
ENDBRANCH  21  22
BRANCH  21  29
HETATM   29  C15 UNL     1      17.451  31.566  14.012  1.00  0.00     0.133 C 
BRANCH  29  30
HETATM   30  C16 UNL     1      17.816  30.139  13.926  1.00  0.00     0.064 C 
BRANCH  30  31
HETATM   31  C17 UNL     1      17.565  29.790  12.436  1.00  0.00     0.060 C 
BRANCH  31  32
HETATM   32  N3  UNL     1      17.681  28.426  12.109  1.00  0.00    -0.389 N 
HETATM   33  C18 UNL     1      18.034  27.474  13.057  1.00  0.00     0.148 C 
HETATM   34  C19 UNL     1      17.825  26.086  12.397  1.00  0.00     0.187 C 
HETATM   35  O1  UNL     1      18.851  26.030  11.436  1.00  0.00    -0.388 OA
HETATM   36  C20 UNL     1      18.419  26.832  10.406  1.00  0.00     0.187 C 
HETATM   37  C21 UNL     1      18.075  28.223  10.750  1.00  0.00     0.148 C 
ENDBRANCH  31  32
ENDBRANCH  30  31
ENDBRANCH  29  30
ENDBRANCH  21  29
ENDBRANCH   5  21
BRANCH   8  38
HETATM   38  N4  UNL     1      22.029  31.183  13.346  1.00  0.00    -0.403 NA
BRANCH  38  39
HETATM   39  C25 UNL     1      21.735  30.356  12.351  1.00  0.00     0.159 C 
BRANCH  39  40
HETATM   40  C26 UNL     1      21.281  28.951  12.538  1.00  0.00     0.079 C 
BRANCH  40  41
HETATM   41  C27 UNL     1      21.804  28.090  11.372  1.00  0.00     0.128 C 
BRANCH  41  42
HETATM   42  N5  UNL     1      22.631  27.087  11.942  1.00  0.00    -0.389 N 
HETATM   43  C28 UNL     1      22.284  25.753  11.519  1.00  0.00     0.148 C 
HETATM   44  C29 UNL     1      23.380  25.112  10.695  1.00  0.00     0.187 C 
HETATM   45  O2  UNL     1      24.507  25.099  11.519  1.00  0.00    -0.385 OA
HETATM   46  C30 UNL     1      24.957  26.388  11.586  1.00  0.00     0.212 C 
HETATM   47  C31 UNL     1      23.985  27.359  12.196  1.00  0.00     0.084 C 
ENDBRANCH  41  42
ENDBRANCH  40  41
ENDBRANCH  39  40
ENDBRANCH  38  39
ENDBRANCH   8  38
TORSDOF 15
ENDMDL
MODEL 2
REMARK VINA RESULT: -8.143192531      3.111      7.826
REMARK  15 active torsions:
REMARK  status: ('A' for Active; 'I' for Inactive)
REMARK    1  A    between atoms: C4_4  and  C5_5 
REMARK    2  A    between atoms: C11_11  and  N1_12 
REMARK    3  A    between atoms: N1_12  and  C12_13 
REMARK    4  A    between atoms: N1_12  and  C15_20 
REMARK    5  A    between atoms: C12_13  and  C13_14 
REMARK    6  A    between atoms: C13_14  and  C14_15 
REMARK    7  A    between atoms: C14_15  and  N2_16 
REMARK    8  A    between atoms: C15_20  and  C16_21 
REMARK    9  A    between atoms: C16_21  and  C17_22 
REMARK   10  A    between atoms: C17_22  and  N3_23 
REMARK   11  A    between atoms: C24_31  and  N4_32 
REMARK   12  A    between atoms: N4_32  and  C25_33 
REMARK   13  A    between atoms: C25_33  and  C26_34 
REMARK   14  A    between atoms: C26_34  and  C27_35 
REMARK   15  A    between atoms: C27_35  and  N5_36 
ROOT
HETATM    1  C1  UNL     1      23.848  32.401  14.647  1.00  0.00     0.103 C 
HETATM    2  C2  UNL     1      22.687  32.608  14.974  1.00  0.00    -0.145 C 
HETATM    3  C3  UNL     1      21.370  32.887  15.397  1.00  0.00     0.045 A 
HETATM    4  C4  UNL     1      20.287  32.046  15.118  1.00  0.00     0.013 A 
HETATM    5  C11 UNL     1      19.083  32.402  15.660  1.00  0.00     0.047 A 
HETATM    6  C22 UNL     1      18.980  33.576  16.487  1.00  0.00     0.049 A 
HETATM    7  C23 UNL     1      20.064  34.358  16.729  1.00  0.00     0.053 A 
HETATM    8  C24 UNL     1      19.941  35.505  17.524  1.00  0.00     0.191 A 
HETATM    9  N6  UNL     1      21.028  36.294  17.723  1.00  0.00    -0.327 N 
ATOM     10  H6  UNL     1      20.954  37.137  18.291  1.00  0.00     0.169 HD
HETATM   11  C32 UNL     1      22.201  35.956  17.166  1.00  0.00     0.183 A 
HETATM   12  N7  UNL     1      22.300  34.861  16.431  1.00  0.00    -0.350 N 
ATOM     13  H7  UNL     1      23.207  34.627  16.025  1.00  0.00     0.166 HD
HETATM   14  C33 UNL     1      21.251  34.033  16.190  1.00  0.00     0.067 A 
ENDROOT
BRANCH   4  15
HETATM   15  C5  UNL     1      20.518  30.857  14.244  1.00  0.00    -0.066 C 
HETATM   16  C6  UNL     1      20.831  29.589  15.011  1.00  0.00     0.035 C 
HETATM   17  C7  UNL     1      21.336  28.529  14.100  1.00  0.00     0.004 C 
HETATM   18  C8  UNL     1      22.509  29.149  13.339  1.00  0.00     0.001 C 
HETATM   19  C9  UNL     1      21.904  30.044  12.294  1.00  0.00     0.004 C 
HETATM   20  C10 UNL     1      20.913  31.021  12.856  1.00  0.00     0.035 C 
ENDBRANCH   4  15
BRANCH   5  21
HETATM   21  N1  UNL     1      17.787  31.929  15.324  1.00  0.00    -0.359 N 
BRANCH  21  22
HETATM   22  C12 UNL     1      16.676  31.618  16.153  1.00  0.00     0.066 C 
BRANCH  22  23
HETATM   23  C13 UNL     1      15.379  32.320  16.043  1.00  0.00     0.072 C 
BRANCH  23  24
HETATM   24  C14 UNL     1      15.586  33.643  16.828  1.00  0.00     0.234 C 
BRANCH  24  25
HETATM   25  N2  UNL     1      14.827  33.707  18.043  1.00  0.00    -0.079 N 
ATOM     26  H23 UNL     1      14.157  32.939  18.094  1.00  0.00     0.274 HD
ATOM     27  H22 UNL     1      15.410  33.476  18.848  1.00  0.00     0.274 HD
ATOM     28  H21 UNL     1      14.360  34.604  18.181  1.00  0.00     0.274 HD
ENDBRANCH  24  25
ENDBRANCH  23  24
ENDBRANCH  22  23
ENDBRANCH  21  22
BRANCH  21  29
HETATM   29  C15 UNL     1      17.604  31.367  13.953  1.00  0.00     0.133 C 
BRANCH  29  30
HETATM   30  C16 UNL     1      17.426  29.904  13.877  1.00  0.00     0.064 C 
BRANCH  30  31
HETATM   31  C17 UNL     1      17.472  29.612  12.355  1.00  0.00     0.060 C 
BRANCH  31  32
HETATM   32  N3  UNL     1      17.875  28.310  12.003  1.00  0.00    -0.389 N 
HETATM   33  C18 UNL     1      17.808  27.255  12.904  1.00  0.00     0.148 C 
HETATM   34  C19 UNL     1      18.098  25.961  12.100  1.00  0.00     0.187 C 
HETATM   35  O1  UNL     1      19.465  26.076  11.788  1.00  0.00    -0.388 OA
HETATM   36  C20 UNL     1      19.519  26.990  10.762  1.00  0.00     0.187 C 
HETATM   37  C21 UNL     1      18.908  28.307  11.016  1.00  0.00     0.148 C 
ENDBRANCH  31  32
ENDBRANCH  30  31
ENDBRANCH  29  30
ENDBRANCH  21  29
ENDBRANCH   5  21
BRANCH   8  38
HETATM   38  N4  UNL     1      18.947  35.683  18.175  1.00  0.00    -0.403 NA
BRANCH  38  39
HETATM   39  C25 UNL     1      17.843  35.881  18.885  1.00  0.00     0.159 C 
BRANCH  39  40
HETATM   40  C26 UNL     1      16.736  36.785  18.473  1.00  0.00     0.079 C 
BRANCH  40  41
HETATM   41  C27 UNL     1      17.131  37.509  17.171  1.00  0.00     0.128 C 
BRANCH  41  42
HETATM   42  N5  UNL     1      17.433  38.851  17.522  1.00  0.00    -0.389 N 
HETATM   43  C28 UNL     1      18.819  39.194  17.324  1.00  0.00     0.148 C 
HETATM   44  C29 UNL     1      18.999  40.241  16.246  1.00  0.00     0.187 C 
HETATM   45  O2  UNL     1      18.264  41.348  16.674  1.00  0.00    -0.385 OA
HETATM   46  C30 UNL     1      16.945  41.032  16.508  1.00  0.00     0.212 C 
HETATM   47  C31 UNL     1      16.476  39.858  17.320  1.00  0.00     0.084 C 
ENDBRANCH  41  42
ENDBRANCH  40  41
ENDBRANCH  39  40
ENDBRANCH  38  39
ENDBRANCH   8  38
TORSDOF 15
ENDMDL
MODEL 3
REMARK VINA RESULT: -8.070100717      3.257      8.254
REMARK  15 active torsions:
REMARK  status: ('A' for Active; 'I' for Inactive)
REMARK    1  A    between atoms: C4_4  and  C5_5 
REMARK    2  A    between atoms: C11_11  and  N1_12 
REMARK    3  A    between atoms: N1_12  and  C12_13 
REMARK    4  A    between atoms: N1_12  and  C15_20 
REMARK    5  A    between atoms: C12_13  and  C13_14 
REMARK    6  A    between atoms: C13_14  and  C14_15 
REMARK    7  A    between atoms: C14_15  and  N2_16 
REMARK    8  A    between atoms: C15_20  and  C16_21 
REMARK    9  A    between atoms: C16_21  and  C17_22 
REMARK   10  A    between atoms: C17_22  and  N3_23 
REMARK   11  A    between atoms: C24_31  and  N4_32 
REMARK   12  A    between atoms: N4_32  and  C25_33 
REMARK   13  A    between atoms: C25_33  and  C26_34 
REMARK   14  A    between atoms: C26_34  and  C27_35 
REMARK   15  A    between atoms: C27_35  and  N5_36 
ROOT
HETATM    1  C1  UNL     1      23.867  32.333  14.613  1.00  0.00     0.103 C 
HETATM    2  C2  UNL     1      22.709  32.545  14.948  1.00  0.00    -0.145 C 
HETATM    3  C3  UNL     1      21.396  32.829  15.381  1.00  0.00     0.045 A 
HETATM    4  C4  UNL     1      20.309  31.993  15.109  1.00  0.00     0.013 A 
HETATM    5  C11 UNL     1      19.110  32.355  15.660  1.00  0.00     0.047 A 
HETATM    6  C22 UNL     1      19.017  33.529  16.488  1.00  0.00     0.049 A 
HETATM    7  C23 UNL     1      20.107  34.305  16.722  1.00  0.00     0.053 A 
HETATM    8  C24 UNL     1      19.994  35.453  17.519  1.00  0.00     0.191 A 
HETATM    9  N6  UNL     1      21.086  36.237  17.710  1.00  0.00    -0.327 N 
ATOM     10  H6  UNL     1      21.019  37.080  18.279  1.00  0.00     0.169 HD
HETATM   11  C32 UNL     1      22.254  35.894  17.145  1.00  0.00     0.183 A 
HETATM   12  N7  UNL     1      22.343  34.799  16.409  1.00  0.00    -0.350 N 
ATOM     13  H7  UNL     1      23.245  34.561  15.997  1.00  0.00     0.166 HD
HETATM   14  C33 UNL     1      21.288  33.975  16.175  1.00  0.00     0.067 A 
ENDROOT
BRANCH   4  15
HETATM   15  C5  UNL     1      20.528  30.803  14.233  1.00  0.00    -0.066 C 
HETATM   16  C6  UNL     1      20.846  29.535  14.997  1.00  0.00     0.035 C 
HETATM   17  C7  UNL     1      21.339  28.474  14.081  1.00  0.00     0.004 C 
HETATM   18  C8  UNL     1      22.506  29.092  13.308  1.00  0.00     0.001 C 
HETATM   19  C9  UNL     1      21.893  29.987  12.269  1.00  0.00     0.004 C 
HETATM   20  C10 UNL     1      20.909  30.966  12.842  1.00  0.00     0.035 C 
ENDBRANCH   4  15
BRANCH   5  21
HETATM   21  N1  UNL     1      17.809  31.886  15.332  1.00  0.00    -0.359 N 
BRANCH  21  22
HETATM   22  C12 UNL     1      16.713  31.551  16.171  1.00  0.00     0.066 C 
BRANCH  22  23
HETATM   23  C13 UNL     1      15.396  32.214  16.065  1.00  0.00     0.072 C 
BRANCH  23  24
HETATM   24  C14 UNL     1      15.580  33.563  16.812  1.00  0.00     0.234 C 
BRANCH  24  25
HETATM   25  N2  UNL     1      14.795  33.661  18.009  1.00  0.00    -0.079 N 
ATOM     26  H23 UNL     1      15.217  33.120  18.764  1.00  0.00     0.274 HD
ATOM     27  H22 UNL     1      14.863  34.595  18.411  1.00  0.00     0.274 HD
ATOM     28  H21 UNL     1      13.819  33.395  17.875  1.00  0.00     0.274 HD
ENDBRANCH  24  25
ENDBRANCH  23  24
ENDBRANCH  22  23
ENDBRANCH  21  22
BRANCH  21  29
HETATM   29  C15 UNL     1      17.604  31.362  13.950  1.00  0.00     0.133 C 
BRANCH  29  30
HETATM   30  C16 UNL     1      17.358  29.911  13.845  1.00  0.00     0.064 C 
BRANCH  30  31
HETATM   31  C17 UNL     1      17.490  29.630  12.325  1.00  0.00     0.060 C 
BRANCH  31  32
HETATM   32  N3  UNL     1      17.875  28.319  11.986  1.00  0.00    -0.389 N 
HETATM   33  C18 UNL     1      17.803  27.276  12.900  1.00  0.00     0.148 C 
HETATM   34  C19 UNL     1      18.073  25.969  12.109  1.00  0.00     0.187 C 
HETATM   35  O1  UNL     1      19.438  26.066  11.785  1.00  0.00    -0.388 OA
HETATM   36  C20 UNL     1      19.495  26.967  10.748  1.00  0.00     0.187 C 
HETATM   37  C21 UNL     1      18.901  28.294  10.991  1.00  0.00     0.148 C 
ENDBRANCH  31  32
ENDBRANCH  30  31
ENDBRANCH  29  30
ENDBRANCH  21  29
ENDBRANCH   5  21
BRANCH   8  38
HETATM   38  N4  UNL     1      19.006  35.635  18.177  1.00  0.00    -0.403 NA
BRANCH  38  39
HETATM   39  C25 UNL     1      17.907  35.835  18.895  1.00  0.00     0.159 C 
BRANCH  39  40
HETATM   40  C26 UNL     1      16.766  36.683  18.457  1.00  0.00     0.079 C 
BRANCH  40  41
HETATM   41  C27 UNL     1      17.310  37.964  17.797  1.00  0.00     0.128 C 
BRANCH  41  42
HETATM   42  N5  UNL     1      16.241  38.898  17.769  1.00  0.00    -0.389 N 
HETATM   43  C28 UNL     1      15.370  38.802  18.913  1.00  0.00     0.148 C 
HETATM   44  C29 UNL     1      15.421  40.045  19.774  1.00  0.00     0.187 C 
HETATM   45  O2  UNL     1      15.037  41.096  18.938  1.00  0.00    -0.385 OA
HETATM   46  C30 UNL     1      16.086  41.326  18.092  1.00  0.00     0.212 C 
HETATM   47  C31 UNL     1      16.437  40.167  17.202  1.00  0.00     0.084 C 
ENDBRANCH  41  42
ENDBRANCH  40  41
ENDBRANCH  39  40
ENDBRANCH  38  39
ENDBRANCH   8  38
TORSDOF 15
ENDMDL
MODEL 4
REMARK VINA RESULT: -7.825943943      1.078      1.547
REMARK  15 active torsions:
REMARK  status: ('A' for Active; 'I' for Inactive)
REMARK    1  A    between atoms: C4_4  and  C5_5 
REMARK    2  A    between atoms: C11_11  and  N1_12 
REMARK    3  A    between atoms: N1_12  and  C12_13 
REMARK    4  A    between atoms: N1_12  and  C15_20 
REMARK    5  A    between atoms: C12_13  and  C13_14 
REMARK    6  A    between atoms: C13_14  and  C14_15 
REMARK    7  A    between atoms: C14_15  and  N2_16 
REMARK    8  A    between atoms: C15_20  and  C16_21 
REMARK    9  A    between atoms: C16_21  and  C17_22 
REMARK   10  A    between atoms: C17_22  and  N3_23 
REMARK   11  A    between atoms: C24_31  and  N4_32 
REMARK   12  A    between atoms: N4_32  and  C25_33 
REMARK   13  A    between atoms: C25_33  and  C26_34 
REMARK   14  A    between atoms: C26_34  and  C27_35 
REMARK   15  A    between atoms: C27_35  and  N5_36 
ROOT
HETATM    1  C1  UNL     1      22.789  36.698  18.037  1.00  0.00     0.103 C 
HETATM    2  C2  UNL     1      22.133  35.854  17.441  1.00  0.00    -0.145 C 
HETATM    3  C3  UNL     1      21.428  34.870  16.717  1.00  0.00     0.045 A 
HETATM    4  C4  UNL     1      20.031  34.799  16.692  1.00  0.00     0.013 A 
HETATM    5  C11 UNL     1      19.484  33.842  15.882  1.00  0.00     0.047 A 
HETATM    6  C22 UNL     1      20.333  32.986  15.096  1.00  0.00     0.049 A 
HETATM    7  C23 UNL     1      21.685  33.099  15.156  1.00  0.00     0.053 A 
HETATM    8  C24 UNL     1      22.496  32.246  14.393  1.00  0.00     0.191 A 
HETATM    9  N6  UNL     1      23.846  32.350  14.496  1.00  0.00    -0.327 N 
ATOM     10  H6  UNL     1      24.451  31.731  13.956  1.00  0.00     0.169 HD
HETATM   11  C32 UNL     1      24.379  33.271  15.313  1.00  0.00     0.183 A 
HETATM   12  N7  UNL     1      23.596  34.076  16.012  1.00  0.00    -0.350 N 
ATOM     13  H7  UNL     1      24.031  34.771  16.620  1.00  0.00     0.166 HD
HETATM   14  C33 UNL     1      22.240  34.022  15.958  1.00  0.00     0.067 A 
ENDROOT
BRANCH   4  15
HETATM   15  C5  UNL     1      19.256  35.741  17.555  1.00  0.00    -0.066 C 
HETATM   16  C6  UNL     1      18.257  35.053  18.461  1.00  0.00     0.035 C 
HETATM   17  C7  UNL     1      17.324  36.039  19.066  1.00  0.00     0.004 C 
HETATM   18  C8  UNL     1      16.726  36.827  17.899  1.00  0.00     0.001 C 
HETATM   19  C9  UNL     1      17.788  37.796  17.461  1.00  0.00     0.004 C 
HETATM   20  C10 UNL     1      19.109  37.137  17.184  1.00  0.00     0.035 C 
ENDBRANCH   4  15
BRANCH   5  21
HETATM   21  N1  UNL     1      18.152  33.347  15.873  1.00  0.00    -0.359 N 
BRANCH  21  22
HETATM   22  C12 UNL     1      16.938  33.978  15.489  1.00  0.00     0.066 C 
BRANCH  22  23
HETATM   23  C13 UNL     1      15.613  33.366  15.725  1.00  0.00     0.072 C 
BRANCH  23  24
HETATM   24  C14 UNL     1      14.955  34.270  16.803  1.00  0.00     0.234 C 
BRANCH  24  25
HETATM   25  N2  UNL     1      14.874  33.649  18.093  1.00  0.00    -0.079 N 
ATOM     26  H23 UNL     1      15.440  32.800  18.123  1.00  0.00     0.274 HD
ATOM     27  H22 UNL     1      15.365  34.204  18.794  1.00  0.00     0.274 HD
ATOM     28  H21 UNL     1      13.917  33.457  18.390  1.00  0.00     0.274 HD
ENDBRANCH  24  25
ENDBRANCH  23  24
ENDBRANCH  22  23
ENDBRANCH  21  22
BRANCH  21  29
HETATM   29  C15 UNL     1      17.884  32.104  16.653  1.00  0.00     0.133 C 
BRANCH  29  30
HETATM   30  C16 UNL     1      17.223  31.012  15.913  1.00  0.00     0.064 C 
BRANCH  30  31
HETATM   31  C17 UNL     1      18.401  30.276  15.222  1.00  0.00     0.060 C 
BRANCH  31  32
HETATM   32  N3  UNL     1      18.033  29.355  14.223  1.00  0.00    -0.389 N 
HETATM   33  C18 UNL     1      18.458  28.033  14.254  1.00  0.00     0.148 C 
HETATM   34  C19 UNL     1      17.670  27.283  13.149  1.00  0.00     0.187 C 
HETATM   35  O1  UNL     1      18.211  27.804  11.959  1.00  0.00    -0.388 OA
HETATM   36  C20 UNL     1      17.645  29.050  11.827  1.00  0.00     0.187 C 
HETATM   37  C21 UNL     1      17.823  29.982  12.955  1.00  0.00     0.148 C 
ENDBRANCH  31  32
ENDBRANCH  30  31
ENDBRANCH  29  30
ENDBRANCH  21  29
ENDBRANCH   5  21
BRANCH   8  38
HETATM   38  N4  UNL     1      22.013  31.573  13.525  1.00  0.00    -0.403 NA
BRANCH  38  39
HETATM   39  C25 UNL     1      21.483  30.835  12.556  1.00  0.00     0.159 C 
BRANCH  39  40
HETATM   40  C26 UNL     1      21.318  29.358  12.627  1.00  0.00     0.079 C 
BRANCH  40  41
HETATM   41  C27 UNL     1      22.137  28.702  11.498  1.00  0.00     0.128 C 
BRANCH  41  42
HETATM   42  N5  UNL     1      22.790  27.577  12.065  1.00  0.00    -0.389 N 
HETATM   43  C28 UNL     1      22.148  26.326  11.749  1.00  0.00     0.148 C 
HETATM   44  C29 UNL     1      23.021  25.438  10.888  1.00  0.00     0.187 C 
HETATM   45  O2  UNL     1      24.187  25.231  11.627  1.00  0.00    -0.385 OA
HETATM   46  C30 UNL     1      24.891  26.402  11.585  1.00  0.00     0.212 C 
HETATM   47  C31 UNL     1      24.187  27.577  12.204  1.00  0.00     0.084 C 
ENDBRANCH  41  42
ENDBRANCH  40  41
ENDBRANCH  39  40
ENDBRANCH  38  39
ENDBRANCH   8  38
TORSDOF 15
ENDMDL
MODEL 5
REMARK VINA RESULT: -7.710893020      3.835      9.560
REMARK  15 active torsions:
REMARK  status: ('A' for Active; 'I' for Inactive)
REMARK    1  A    between atoms: C4_4  and  C5_5 
REMARK    2  A    between atoms: C11_11  and  N1_12 
REMARK    3  A    between atoms: N1_12  and  C12_13 
REMARK    4  A    between atoms: N1_12  and  C15_20 
REMARK    5  A    between atoms: C12_13  and  C13_14 
REMARK    6  A    between atoms: C13_14  and  C14_15 
REMARK    7  A    between atoms: C14_15  and  N2_16 
REMARK    8  A    between atoms: C15_20  and  C16_21 
REMARK    9  A    between atoms: C16_21  and  C17_22 
REMARK   10  A    between atoms: C17_22  and  N3_23 
REMARK   11  A    between atoms: C24_31  and  N4_32 
REMARK   12  A    between atoms: N4_32  and  C25_33 
REMARK   13  A    between atoms: C25_33  and  C26_34 
REMARK   14  A    between atoms: C26_34  and  C27_35 
REMARK   15  A    between atoms: C27_35  and  N5_36 
ROOT
HETATM    1  C1  UNL     1      15.074  32.213  16.022  1.00  0.00     0.103 C 
HETATM    2  C2  UNL     1      16.026  32.904  16.360  1.00  0.00    -0.145 C 
HETATM    3  C3  UNL     1      17.083  33.748  16.764  1.00  0.00     0.045 A 
HETATM    4  C4  UNL     1      18.408  33.553  16.362  1.00  0.00     0.013 A 
HETATM    5  C11 UNL     1      19.312  34.496  16.766  1.00  0.00     0.047 A 
HETATM    6  C22 UNL     1      18.881  35.627  17.544  1.00  0.00     0.049 A 
HETATM    7  C23 UNL     1      17.579  35.770  17.905  1.00  0.00     0.053 A 
HETATM    8  C24 UNL     1      17.180  36.872  18.676  1.00  0.00     0.191 A 
HETATM    9  N6  UNL     1      15.881  36.976  19.059  1.00  0.00    -0.327 N 
ATOM     10  H6  UNL     1      15.576  37.766  19.627  1.00  0.00     0.169 HD
HETATM   11  C32 UNL     1      15.003  36.034  18.685  1.00  0.00     0.183 A 
HETATM   12  N7  UNL     1      15.397  35.010  17.945  1.00  0.00    -0.350 N 
ATOM     13  H7  UNL     1      14.704  34.313  17.671  1.00  0.00     0.166 HD
HETATM   14  C33 UNL     1      16.680  34.845  17.533  1.00  0.00     0.067 A 
ENDROOT
BRANCH   4  15
HETATM   15  C5  UNL     1      18.735  32.337  15.557  1.00  0.00    -0.066 C 
HETATM   16  C6  UNL     1      18.457  32.494  14.078  1.00  0.00     0.035 C 
HETATM   17  C7  UNL     1      18.517  31.180  13.385  1.00  0.00     0.004 C 
HETATM   18  C8  UNL     1      17.562  30.257  14.144  1.00  0.00     0.001 C 
HETATM   19  C9  UNL     1      18.279  29.856  15.402  1.00  0.00     0.004 C 
HETATM   20  C10 UNL     1      18.800  31.028  16.183  1.00  0.00     0.035 C 
ENDBRANCH   4  15
BRANCH   5  21
HETATM   21  N1  UNL     1      20.731  34.419  16.765  1.00  0.00    -0.359 N 
BRANCH  21  22
HETATM   22  C12 UNL     1      21.680  34.912  17.700  1.00  0.00     0.066 C 
BRANCH  22  23
HETATM   23  C13 UNL     1      22.673  35.952  17.354  1.00  0.00     0.072 C 
BRANCH  23  24
HETATM   24  C14 UNL     1      21.936  37.293  17.615  1.00  0.00     0.234 C 
BRANCH  24  25
HETATM   25  N2  UNL     1      21.365  37.868  16.432  1.00  0.00    -0.079 N 
ATOM     26  H23 UNL     1      22.005  37.781  15.642  1.00  0.00     0.274 HD
ATOM     27  H22 UNL     1      20.594  37.296  16.087  1.00  0.00     0.274 HD
ATOM     28  H21 UNL     1      21.070  38.837  16.554  1.00  0.00     0.274 HD
ENDBRANCH  24  25
ENDBRANCH  23  24
ENDBRANCH  22  23
ENDBRANCH  21  22
BRANCH  21  29
HETATM   29  C15 UNL     1      21.391  34.050  15.479  1.00  0.00     0.133 C 
BRANCH  29  30
HETATM   30  C16 UNL     1      22.106  32.759  15.471  1.00  0.00     0.064 C 
BRANCH  30  31
HETATM   31  C17 UNL     1      22.310  32.466  13.962  1.00  0.00     0.060 C 
BRANCH  31  32
HETATM   32  N3  UNL     1      22.150  31.120  13.583  1.00  0.00    -0.389 N 
HETATM   33  C18 UNL     1      21.537  30.763  12.389  1.00  0.00     0.148 C 
HETATM   34  C19 UNL     1      21.759  29.239  12.209  1.00  0.00     0.187 C 
HETATM   35  O1  UNL     1      20.946  28.675  13.209  1.00  0.00    -0.388 OA
HETATM   36  C20 UNL     1      21.641  28.863  14.381  1.00  0.00     0.187 C 
HETATM   37  C21 UNL     1      22.022  30.248  14.710  1.00  0.00     0.148 C 
ENDBRANCH  31  32
ENDBRANCH  30  31
ENDBRANCH  29  30
ENDBRANCH  21  29
ENDBRANCH   5  21
BRANCH   8  38
HETATM   38  N4  UNL     1      17.925  37.801  18.829  1.00  0.00    -0.403 NA
BRANCH  38  39
HETATM   39  C25 UNL     1      18.744  38.830  19.010  1.00  0.00     0.159 C 
BRANCH  39  40
HETATM   40  C26 UNL     1      18.895  39.956  18.049  1.00  0.00     0.079 C 
BRANCH  40  41
HETATM   41  C27 UNL     1      17.733  39.919  17.038  1.00  0.00     0.128 C 
BRANCH  41  42
HETATM   42  N5  UNL     1      16.796  40.901  17.454  1.00  0.00    -0.389 N 
HETATM   43  C28 UNL     1      15.535  40.344  17.877  1.00  0.00     0.148 C 
HETATM   44  C29 UNL     1      15.275  40.572  19.350  1.00  0.00     0.187 C 
HETATM   45  O2  UNL     1      15.294  41.958  19.522  1.00  0.00    -0.385 OA
HETATM   46  C30 UNL     1      16.601  42.346  19.428  1.00  0.00     0.212 C 
HETATM   47  C31 UNL     1      17.243  42.065  18.099  1.00  0.00     0.084 C 
ENDBRANCH  41  42
ENDBRANCH  40  41
ENDBRANCH  39  40
ENDBRANCH  38  39
ENDBRANCH   8  38
TORSDOF 15
ENDMDL
