MODEL 1
REMARK VINA RESULT: -8.787377500      0.000      0.000
REMARK  16 active torsions:
REMARK  status: ('A' for Active; 'I' for Inactive)
REMARK    1  A    between atoms: O1_2  and  C2_3 
REMARK    2  A    between atoms: C2_3  and  C3_5 
REMARK    3  A    between atoms: C6_10  and  S1_11 
REMARK    4  A    between atoms: S1_11  and  C7_12 
REMARK    5  A    between atoms: C7_12  and  C8_13 
REMARK    6  A    between atoms: C8_13  and  N2_15 
REMARK    7  A    between atoms: N2_15  and  C9_17 
REMARK    8  A    between atoms: C9_17  and  C10_18 
REMARK    9  A    between atoms: C10_18  and  C11_19 
REMARK   10  A    between atoms: C11_19  and  N3_20 
REMARK   11  A    between atoms: N4_23  and  C14_24 
REMARK   12  A    between atoms: C14_24  and  C15_25 
REMARK   13  A    between atoms: C15_25  and  C16_26 
REMARK   14  A    between atoms: C16_26  and  N5_27 
REMARK       I    between atoms: N5_27  and  C17_29 
REMARK   15  A    between atoms: C21_36  and  C22_37 
REMARK   16  A    between atoms: C22_37  and  C23_38 
ROOT
HETATM    1  C7  UNL     1      21.925  30.368  14.442  1.00  0.00     0.151 C 
ENDROOT
BRANCH   1   2
HETATM    2  S1  UNL     1      20.217  29.954  14.826  1.00  0.00    -0.087 SA
BRANCH   2   3
HETATM    3  C6  UNL     1      19.507  28.954  13.498  1.00  0.00     0.141 C 
HETATM    4  N1  UNL     1      18.527  29.357  12.783  1.00  0.00    -0.340 N 
HETATM    5  C4  UNL     1      18.047  28.478  11.741  1.00  0.00     0.021 C 
ATOM      6  H1  UNL     1      18.098  30.269  12.943  1.00  0.00     0.167 HD
HETATM    7  C3  UNL     1      18.563  27.301  11.465  1.00  0.00     0.062 C 
HETATM    8  C5  UNL     1      16.740  28.839  11.071  1.00  0.00     0.069 C 
HETATM    9  C21 UNL     1      19.923  26.996  11.978  1.00  0.00     0.125 C 
HETATM   10  N6  UNL     1      19.998  27.625  13.320  1.00  0.00    -0.362 N 
ATOM     11  H6  UNL     1      20.396  27.114  14.107  1.00  0.00     0.162 HD
BRANCH   7  12
HETATM   12  C2  UNL     1      17.903  26.349  10.564  1.00  0.00     0.292 C 
HETATM   13  O2  UNL     1      17.622  25.187  11.018  1.00  0.00    -0.259 OA
BRANCH  12  14
HETATM   14  O1  UNL     1      17.550  26.580   9.265  1.00  0.00    -0.323 OA
HETATM   15  C1  UNL     1      18.476  27.093   8.324  1.00  0.00     0.213 C 
ENDBRANCH  12  14
ENDBRANCH   7  12
BRANCH   9  16
HETATM   16  C22 UNL     1      21.071  27.573  11.265  1.00  0.00     0.035 C 
BRANCH  16  17
HETATM   17  C23 UNL     1      22.428  27.106  11.280  1.00  0.00    -0.012 C 
HETATM   18  C24 UNL     1      22.670  25.628  11.418  1.00  0.00     0.005 C 
HETATM   19  C25 UNL     1      23.910  25.233  10.592  1.00  0.00     0.000 C 
HETATM   20  C26 UNL     1      24.925  26.355  10.736  1.00  0.00     0.000 C 
HETATM   21  C27 UNL     1      24.737  27.046  12.072  1.00  0.00     0.000 C 
HETATM   22  C28 UNL     1      23.427  27.795  12.177  1.00  0.00     0.005 C 
ENDBRANCH  16  17
ENDBRANCH   9  16
ENDBRANCH   2   3
ENDBRANCH   1   2
BRANCH   1  23
HETATM   23  C8  UNL     1      22.353  31.583  15.180  1.00  0.00     0.083 C 
HETATM   24  S2  UNL     1      23.469  32.600  14.500  1.00  0.00    -0.065 SA
BRANCH  23  25
HETATM   25  N2  UNL     1      21.841  31.912  16.449  1.00  0.00    -0.384 N 
ATOM     26  H2  UNL     1      21.878  31.162  17.139  1.00  0.00     0.160 HD
BRANCH  25  27
HETATM   27  C9  UNL     1      21.284  33.125  16.909  1.00  0.00     0.122 C 
BRANCH  27  28
HETATM   28  C10 UNL     1      20.194  33.761  16.108  1.00  0.00     0.050 C 
BRANCH  28  29
HETATM   29  C11 UNL     1      18.826  33.287  16.522  1.00  0.00     0.274 C 
BRANCH  29  30
HETATM   30  N3  UNL     1      18.041  32.829  15.409  1.00  0.00     0.091 N 
HETATM   31  C12 UNL     1      17.303  33.912  14.773  1.00  0.00     0.292 C 
HETATM   32  C13 UNL     1      16.496  34.641  15.777  1.00  0.00     0.152 C 
HETATM   33  N4  UNL     1      15.459  33.760  16.293  1.00  0.00    -0.390 N 
HETATM   34  C19 UNL     1      15.649  32.404  15.920  1.00  0.00     0.152 C 
HETATM   35  C20 UNL     1      17.050  31.910  15.992  1.00  0.00     0.292 C 
BRANCH  33  36
HETATM   36  C14 UNL     1      15.090  34.039  17.622  1.00  0.00     0.063 C 
BRANCH  36  37
HETATM   37  C15 UNL     1      14.761  35.477  17.853  1.00  0.00     0.089 C 
BRANCH  37  38
HETATM   38  C16 UNL     1      15.568  36.100  18.919  1.00  0.00     0.069 C 
BRANCH  38  39
HETATM   39  N5  UNL     1      16.756  36.793  18.629  1.00  0.00    -0.341 N 
HETATM   40  C17 UNL     1      18.006  36.100  18.849  1.00  0.00     0.217 C 
HETATM   41  C18 UNL     1      19.301  36.728  18.581  1.00  0.00     0.117 C 
HETATM   42  O3  UNL     1      17.958  34.934  19.280  1.00  0.00    -0.274 OA
ATOM     43  H5  UNL     1      16.738  37.750  18.276  1.00  0.00     0.167 HD
ENDBRANCH  38  39
ENDBRANCH  37  38
ENDBRANCH  36  37
ENDBRANCH  33  36
ENDBRANCH  29  30
ENDBRANCH  28  29
ENDBRANCH  27  28
ENDBRANCH  25  27
ENDBRANCH  23  25
ENDBRANCH   1  23
TORSDOF 16
ENDMDL
MODEL 2
REMARK VINA RESULT: -8.428181656      1.633      1.957
REMARK  16 active torsions:
REMARK  status: ('A' for Active; 'I' for Inactive)
REMARK    1  A    between atoms: O1_2  and  C2_3 
REMARK    2  A    between atoms: C2_3  and  C3_5 
REMARK    3  A    between atoms: C6_10  and  S1_11 
REMARK    4  A    between atoms: S1_11  and  C7_12 
REMARK    5  A    between atoms: C7_12  and  C8_13 
REMARK    6  A    between atoms: C8_13  and  N2_15 
REMARK    7  A    between atoms: N2_15  and  C9_17 
REMARK    8  A    between atoms: C9_17  and  C10_18 
REMARK    9  A    between atoms: C10_18  and  C11_19 
REMARK   10  A    between atoms: C11_19  and  N3_20 
REMARK   11  A    between atoms: N4_23  and  C14_24 
REMARK   12  A    between atoms: C14_24  and  C15_25 
REMARK   13  A    between atoms: C15_25  and  C16_26 
REMARK   14  A    between atoms: C16_26  and  N5_27 
REMARK       I    between atoms: N5_27  and  C17_29 
REMARK   15  A    between atoms: C21_36  and  C22_37 
REMARK   16  A    between atoms: C22_37  and  C23_38 
ROOT
HETATM    1  C7  UNL     1      22.849  31.750  15.328  1.00  0.00     0.151 C 
ENDROOT
BRANCH   1   2
HETATM    2  S1  UNL     1      22.022  32.012  13.752  1.00  0.00    -0.087 SA
BRANCH   2   3
HETATM    3  C6  UNL     1      20.874  30.656  13.419  1.00  0.00     0.141 C 
HETATM    4  N1  UNL     1      19.692  30.851  12.973  1.00  0.00    -0.340 N 
HETATM    5  C4  UNL     1      18.863  29.691  12.733  1.00  0.00     0.021 C 
ATOM      6  H1  UNL     1      19.345  31.794  12.792  1.00  0.00     0.167 HD
HETATM    7  C3  UNL     1      19.249  28.450  12.922  1.00  0.00     0.062 C 
HETATM    8  C5  UNL     1      17.395  29.929  12.452  1.00  0.00     0.069 C 
HETATM    9  C21 UNL     1      20.705  28.179  13.031  1.00  0.00     0.125 C 
HETATM   10  N6  UNL     1      21.275  29.333  13.771  1.00  0.00    -0.362 N 
ATOM     11  H6  UNL     1      21.947  29.181  14.523  1.00  0.00     0.162 HD
BRANCH   7  12
HETATM   12  C2  UNL     1      18.307  27.325  12.891  1.00  0.00     0.292 C 
HETATM   13  O2  UNL     1      17.712  27.008  13.978  1.00  0.00    -0.259 OA
BRANCH  12  14
HETATM   14  O1  UNL     1      17.994  26.565  11.800  1.00  0.00    -0.323 OA
HETATM   15  C1  UNL     1      18.739  25.410  11.461  1.00  0.00     0.213 C 
ENDBRANCH  12  14
ENDBRANCH   7  12
BRANCH   9  16
HETATM   16  C22 UNL     1      21.492  28.145  11.791  1.00  0.00     0.035 C 
BRANCH  16  17
HETATM   17  C23 UNL     1      22.658  27.353  11.522  1.00  0.00    -0.012 C 
HETATM   18  C24 UNL     1      22.514  25.856  11.515  1.00  0.00     0.005 C 
HETATM   19  C25 UNL     1      23.452  25.257  10.448  1.00  0.00     0.000 C 
HETATM   20  C26 UNL     1      24.740  26.064  10.473  1.00  0.00     0.000 C 
HETATM   21  C27 UNL     1      24.964  26.625  11.864  1.00  0.00     0.000 C 
HETATM   22  C28 UNL     1      23.937  27.663  12.261  1.00  0.00     0.005 C 
ENDBRANCH  16  17
ENDBRANCH   9  16
ENDBRANCH   2   3
ENDBRANCH   1   2
BRANCH   1  23
HETATM   23  C8  UNL     1      22.003  32.220  16.453  1.00  0.00     0.083 C 
HETATM   24  S2  UNL     1      22.098  33.799  16.941  1.00  0.00    -0.065 SA
BRANCH  23  25
HETATM   25  N2  UNL     1      21.110  31.368  17.130  1.00  0.00    -0.384 N 
ATOM     26  H2  UNL     1      21.368  31.146  18.091  1.00  0.00     0.160 HD
BRANCH  25  27
HETATM   27  C9  UNL     1      19.911  30.775  16.677  1.00  0.00     0.122 C 
BRANCH  27  28
HETATM   28  C10 UNL     1      18.645  31.565  16.766  1.00  0.00     0.050 C 
BRANCH  28  29
HETATM   29  C11 UNL     1      18.619  32.718  15.797  1.00  0.00     0.274 C 
BRANCH  29  30
HETATM   30  N3  UNL     1      17.486  32.672  14.915  1.00  0.00     0.091 N 
HETATM   31  C12 UNL     1      17.003  34.002  14.569  1.00  0.00     0.292 C 
HETATM   32  C13 UNL     1      16.738  34.786  15.796  1.00  0.00     0.152 C 
HETATM   33  N4  UNL     1      15.630  34.185  16.523  1.00  0.00    -0.390 N 
HETATM   34  C19 UNL     1      15.281  32.899  16.034  1.00  0.00     0.152 C 
HETATM   35  C20 UNL     1      16.424  32.012  15.692  1.00  0.00     0.292 C 
BRANCH  33  36
HETATM   36  C14 UNL     1      15.702  34.369  17.917  1.00  0.00     0.063 C 
BRANCH  36  37
HETATM   37  C15 UNL     1      16.958  35.044  18.358  1.00  0.00     0.089 C 
BRANCH  37  38
HETATM   38  C16 UNL     1      16.747  36.425  18.832  1.00  0.00     0.069 C 
BRANCH  38  39
HETATM   39  N5  UNL     1      17.791  37.367  18.831  1.00  0.00    -0.341 N 
HETATM   40  C17 UNL     1      17.892  38.252  17.690  1.00  0.00     0.217 C 
HETATM   41  C18 UNL     1      18.939  39.268  17.586  1.00  0.00     0.117 C 
HETATM   42  O3  UNL     1      17.052  38.128  16.781  1.00  0.00    -0.274 OA
ATOM     43  H5  UNL     1      18.452  37.425  19.605  1.00  0.00     0.167 HD
ENDBRANCH  38  39
ENDBRANCH  37  38
ENDBRANCH  36  37
ENDBRANCH  33  36
ENDBRANCH  29  30
ENDBRANCH  28  29
ENDBRANCH  27  28
ENDBRANCH  25  27
ENDBRANCH  23  25
ENDBRANCH   1  23
TORSDOF 16
ENDMDL
MODEL 3
REMARK VINA RESULT: -8.347751872      2.604     10.399
REMARK  16 active torsions:
REMARK  status: ('A' for Active; 'I' for Inactive)
REMARK    1  A    between atoms: O1_2  and  C2_3 
REMARK    2  A    between atoms: C2_3  and  C3_5 
REMARK    3  A    between atoms: C6_10  and  S1_11 
REMARK    4  A    between atoms: S1_11  and  C7_12 
REMARK    5  A    between atoms: C7_12  and  C8_13 
REMARK    6  A    between atoms: C8_13  and  N2_15 
REMARK    7  A    between atoms: N2_15  and  C9_17 
REMARK    8  A    between atoms: C9_17  and  C10_18 
REMARK    9  A    between atoms: C10_18  and  C11_19 
REMARK   10  A    between atoms: C11_19  and  N3_20 
REMARK   11  A    between atoms: N4_23  and  C14_24 
REMARK   12  A    between atoms: C14_24  and  C15_25 
REMARK   13  A    between atoms: C15_25  and  C16_26 
REMARK   14  A    between atoms: C16_26  and  N5_27 
REMARK       I    between atoms: N5_27  and  C17_29 
REMARK   15  A    between atoms: C21_36  and  C22_37 
REMARK   16  A    between atoms: C22_37  and  C23_38 
ROOT
HETATM    1  C7  UNL     1      22.785  32.485  15.494  1.00  0.00     0.151 C 
ENDROOT
BRANCH   1   2
HETATM    2  S1  UNL     1      22.637  32.871  17.244  1.00  0.00    -0.087 SA
BRANCH   2   3
HETATM    3  C6  UNL     1      21.708  34.406  17.465  1.00  0.00     0.141 C 
HETATM    4  N1  UNL     1      22.101  35.522  16.982  1.00  0.00    -0.340 N 
HETATM    5  C4  UNL     1      21.272  36.684  17.211  1.00  0.00     0.021 C 
ATOM      6  H1  UNL     1      22.970  35.590  16.451  1.00  0.00     0.167 HD
HETATM    7  C3  UNL     1      20.133  36.667  17.865  1.00  0.00     0.062 C 
HETATM    8  C5  UNL     1      21.856  38.036  16.864  1.00  0.00     0.069 C 
HETATM    9  C21 UNL     1      19.461  35.358  18.067  1.00  0.00     0.125 C 
HETATM   10  N6  UNL     1      20.551  34.378  18.301  1.00  0.00    -0.362 N 
ATOM     11  H6  UNL     1      20.475  33.692  19.051  1.00  0.00     0.162 HD
BRANCH   7  12
HETATM   12  C2  UNL     1      19.448  37.899  18.275  1.00  0.00     0.292 C 
HETATM   13  O2  UNL     1      19.645  38.331  19.462  1.00  0.00    -0.259 OA
BRANCH  12  14
HETATM   14  O1  UNL     1      18.605  38.647  17.504  1.00  0.00    -0.323 OA
HETATM   15  C1  UNL     1      17.260  38.261  17.285  1.00  0.00     0.213 C 
ENDBRANCH  12  14
ENDBRANCH   7  12
BRANCH   9  16
HETATM   16  C22 UNL     1      18.722  34.784  16.934  1.00  0.00     0.035 C 
BRANCH  16  17
HETATM   17  C23 UNL     1      17.387  34.259  16.944  1.00  0.00    -0.012 C 
HETATM   18  C24 UNL     1      16.552  34.416  15.704  1.00  0.00     0.005 C 
HETATM   19  C25 UNL     1      15.649  33.178  15.534  1.00  0.00     0.000 C 
HETATM   20  C26 UNL     1      15.181  32.767  16.920  1.00  0.00     0.000 C 
HETATM   21  C27 UNL     1      15.125  33.984  17.823  1.00  0.00     0.000 C 
HETATM   22  C28 UNL     1      16.488  34.572  18.116  1.00  0.00     0.005 C 
ENDBRANCH  16  17
ENDBRANCH   9  16
ENDBRANCH   2   3
ENDBRANCH   1   2
BRANCH   1  23
HETATM   23  C8  UNL     1      21.698  31.572  15.060  1.00  0.00     0.083 C 
HETATM   24  S2  UNL     1      20.228  32.200  14.629  1.00  0.00    -0.065 SA
BRANCH  23  25
HETATM   25  N2  UNL     1      21.868  30.176  14.999  1.00  0.00    -0.384 N 
ATOM     26  H2  UNL     1      21.833  29.695  15.897  1.00  0.00     0.160 HD
BRANCH  25  27
HETATM   27  C9  UNL     1      22.079  29.342  13.879  1.00  0.00     0.122 C 
BRANCH  27  28
HETATM   28  C10 UNL     1      20.913  29.010  13.005  1.00  0.00     0.050 C 
BRANCH  28  29
HETATM   29  C11 UNL     1      19.788  28.364  13.770  1.00  0.00     0.274 C 
BRANCH  29  30
HETATM   30  N3  UNL     1      18.496  28.690  13.231  1.00  0.00     0.091 N 
HETATM   31  C12 UNL     1      17.621  27.527  13.158  1.00  0.00     0.292 C 
HETATM   32  C13 UNL     1      18.287  26.430  12.420  1.00  0.00     0.152 C 
HETATM   33  N4  UNL     1      18.469  26.824  11.031  1.00  0.00    -0.390 N 
HETATM   34  C19 UNL     1      18.221  28.204  10.811  1.00  0.00     0.152 C 
HETATM   35  C20 UNL     1      18.757  29.125  11.849  1.00  0.00     0.292 C 
BRANCH  33  36
HETATM   36  C14 UNL     1      19.598  26.245  10.423  1.00  0.00     0.063 C 
BRANCH  36  37
HETATM   37  C15 UNL     1      20.212  25.155  11.236  1.00  0.00     0.089 C 
BRANCH  37  38
HETATM   38  C16 UNL     1      21.687  25.155  11.199  1.00  0.00     0.069 C 
BRANCH  38  39
HETATM   39  N5  UNL     1      22.428  26.314  11.493  1.00  0.00    -0.341 N 
HETATM   40  C17 UNL     1      23.852  26.164  11.694  1.00  0.00     0.217 C 
HETATM   41  C18 UNL     1      24.717  27.303  12.006  1.00  0.00     0.117 C 
HETATM   42  O3  UNL     1      24.338  25.023  11.595  1.00  0.00    -0.274 OA
ATOM     43  H5  UNL     1      21.977  27.226  11.562  1.00  0.00     0.167 HD
ENDBRANCH  38  39
ENDBRANCH  37  38
ENDBRANCH  36  37
ENDBRANCH  33  36
ENDBRANCH  29  30
ENDBRANCH  28  29
ENDBRANCH  27  28
ENDBRANCH  25  27
ENDBRANCH  23  25
ENDBRANCH   1  23
TORSDOF 16
ENDMDL
MODEL 4
REMARK VINA RESULT: -8.331810580      1.004      1.145
REMARK  16 active torsions:
REMARK  status: ('A' for Active; 'I' for Inactive)
REMARK    1  A    between atoms: O1_2  and  C2_3 
REMARK    2  A    between atoms: C2_3  and  C3_5 
REMARK    3  A    between atoms: C6_10  and  S1_11 
REMARK    4  A    between atoms: S1_11  and  C7_12 
REMARK    5  A    between atoms: C7_12  and  C8_13 
REMARK    6  A    between atoms: C8_13  and  N2_15 
REMARK    7  A    between atoms: N2_15  and  C9_17 
REMARK    8  A    between atoms: C9_17  and  C10_18 
REMARK    9  A    between atoms: C10_18  and  C11_19 
REMARK   10  A    between atoms: C11_19  and  N3_20 
REMARK   11  A    between atoms: N4_23  and  C14_24 
REMARK   12  A    between atoms: C14_24  and  C15_25 
REMARK   13  A    between atoms: C15_25  and  C16_26 
REMARK   14  A    between atoms: C16_26  and  N5_27 
REMARK       I    between atoms: N5_27  and  C17_29 
REMARK   15  A    between atoms: C21_36  and  C22_37 
REMARK   16  A    between atoms: C22_37  and  C23_38 
ROOT
HETATM    1  C7  UNL     1      21.905  30.427  14.461  1.00  0.00     0.151 C 
ENDROOT
BRANCH   1   2
HETATM    2  S1  UNL     1      20.205  29.957  14.814  1.00  0.00    -0.087 SA
BRANCH   2   3
HETATM    3  C6  UNL     1      19.549  28.941  13.470  1.00  0.00     0.141 C 
HETATM    4  N1  UNL     1      18.579  29.324  12.731  1.00  0.00    -0.340 N 
HETATM    5  C4  UNL     1      18.144  28.434  11.678  1.00  0.00     0.021 C 
ATOM      6  H1  UNL     1      18.128  30.227  12.878  1.00  0.00     0.167 HD
HETATM    7  C3  UNL     1      18.690  27.268  11.416  1.00  0.00     0.062 C 
HETATM    8  C5  UNL     1      16.847  28.769  10.974  1.00  0.00     0.069 C 
HETATM    9  C21 UNL     1      20.042  26.990  11.964  1.00  0.00     0.125 C 
HETATM   10  N6  UNL     1      20.071  27.623  13.307  1.00  0.00    -0.362 N 
ATOM     11  H6  UNL     1      20.459  27.120  14.104  1.00  0.00     0.162 HD
BRANCH   7  12
HETATM   12  C2  UNL     1      18.072  26.302  10.500  1.00  0.00     0.292 C 
HETATM   13  O2  UNL     1      17.540  25.253  11.002  1.00  0.00    -0.259 OA
BRANCH  12  14
HETATM   14  O1  UNL     1      18.004  26.410   9.141  1.00  0.00    -0.323 OA
HETATM   15  C1  UNL     1      18.464  25.376   8.290  1.00  0.00     0.213 C 
ENDBRANCH  12  14
ENDBRANCH   7  12
BRANCH   9  16
HETATM   16  C22 UNL     1      21.196  27.590  11.279  1.00  0.00     0.035 C 
BRANCH  16  17
HETATM   17  C23 UNL     1      22.557  27.135  11.309  1.00  0.00    -0.012 C 
HETATM   18  C24 UNL     1      22.810  25.657  11.425  1.00  0.00     0.005 C 
HETATM   19  C25 UNL     1      24.067  25.287  10.613  1.00  0.00     0.000 C 
HETATM   20  C26 UNL     1      25.069  26.416  10.792  1.00  0.00     0.000 C 
HETATM   21  C27 UNL     1      24.854  27.083  12.137  1.00  0.00     0.000 C 
HETATM   22  C28 UNL     1      23.535  27.818  12.234  1.00  0.00     0.005 C 
ENDBRANCH  16  17
ENDBRANCH   9  16
ENDBRANCH   2   3
ENDBRANCH   1   2
BRANCH   1  23
HETATM   23  C8  UNL     1      22.286  31.643  15.221  1.00  0.00     0.083 C 
HETATM   24  S2  UNL     1      23.439  32.662  14.608  1.00  0.00    -0.065 SA
BRANCH  23  25
HETATM   25  N2  UNL     1      21.699  31.972  16.457  1.00  0.00    -0.384 N 
ATOM     26  H2  UNL     1      21.557  31.187  17.092  1.00  0.00     0.160 HD
BRANCH  25  27
HETATM   27  C9  UNL     1      21.279  33.226  16.951  1.00  0.00     0.122 C 
BRANCH  27  28
HETATM   28  C10 UNL     1      19.813  33.506  17.037  1.00  0.00     0.050 C 
BRANCH  28  29
HETATM   29  C11 UNL     1      19.209  33.823  15.694  1.00  0.00     0.274 C 
BRANCH  29  30
HETATM   30  N3  UNL     1      18.150  32.919  15.339  1.00  0.00     0.091 N 
HETATM   31  C12 UNL     1      17.151  33.549  14.486  1.00  0.00     0.292 C 
HETATM   32  C13 UNL     1      16.652  34.792  15.114  1.00  0.00     0.152 C 
HETATM   33  N4  UNL     1      15.922  34.460  16.328  1.00  0.00    -0.390 N 
HETATM   34  C19 UNL     1      16.102  33.110  16.729  1.00  0.00     0.152 C 
HETATM   35  C20 UNL     1      17.489  32.586  16.611  1.00  0.00     0.292 C 
BRANCH  33  36
HETATM   36  C14 UNL     1      15.982  35.461  17.316  1.00  0.00     0.063 C 
BRANCH  36  37
HETATM   37  C15 UNL     1      16.695  36.693  16.864  1.00  0.00     0.089 C 
BRANCH  37  38
HETATM   38  C16 UNL     1      17.782  37.107  17.771  1.00  0.00     0.069 C 
BRANCH  38  39
HETATM   39  N5  UNL     1      19.088  37.324  17.297  1.00  0.00    -0.341 N 
HETATM   40  C17 UNL     1      20.184  36.884  18.133  1.00  0.00     0.217 C 
HETATM   41  C18 UNL     1      21.582  37.061  17.737  1.00  0.00     0.117 C 
HETATM   42  O3  UNL     1      19.909  36.340  19.217  1.00  0.00    -0.274 OA
ATOM     43  H5  UNL     1      19.257  37.774  16.398  1.00  0.00     0.167 HD
ENDBRANCH  38  39
ENDBRANCH  37  38
ENDBRANCH  36  37
ENDBRANCH  33  36
ENDBRANCH  29  30
ENDBRANCH  28  29
ENDBRANCH  27  28
ENDBRANCH  25  27
ENDBRANCH  23  25
ENDBRANCH   1  23
TORSDOF 16
ENDMDL
MODEL 5
REMARK VINA RESULT: -8.288525621      1.889      4.308
REMARK  16 active torsions:
REMARK  status: ('A' for Active; 'I' for Inactive)
REMARK    1  A    between atoms: O1_2  and  C2_3 
REMARK    2  A    between atoms: C2_3  and  C3_5 
REMARK    3  A    between atoms: C6_10  and  S1_11 
REMARK    4  A    between atoms: S1_11  and  C7_12 
REMARK    5  A    between atoms: C7_12  and  C8_13 
REMARK    6  A    between atoms: C8_13  and  N2_15 
REMARK    7  A    between atoms: N2_15  and  C9_17 
REMARK    8  A    between atoms: C9_17  and  C10_18 
REMARK    9  A    between atoms: C10_18  and  C11_19 
REMARK   10  A    between atoms: C11_19  and  N3_20 
REMARK   11  A    between atoms: N4_23  and  C14_24 
REMARK   12  A    between atoms: C14_24  and  C15_25 
REMARK   13  A    between atoms: C15_25  and  C16_26 
REMARK   14  A    between atoms: C16_26  and  N5_27 
REMARK       I    between atoms: N5_27  and  C17_29 
REMARK   15  A    between atoms: C21_36  and  C22_37 
REMARK   16  A    between atoms: C22_37  and  C23_38 
ROOT
HETATM    1  C7  UNL     1      18.611  32.112  14.132  1.00  0.00     0.151 C 
ENDROOT
BRANCH   1   2
HETATM    2  S1  UNL     1      18.925  30.482  14.825  1.00  0.00    -0.087 SA
BRANCH   2   3
HETATM    3  C6  UNL     1      18.863  29.230  13.522  1.00  0.00     0.141 C 
HETATM    4  N1  UNL     1      18.170  29.380  12.458  1.00  0.00    -0.340 N 
HETATM    5  C4  UNL     1      18.204  28.318  11.477  1.00  0.00     0.021 C 
ATOM      6  H1  UNL     1      17.612  30.221  12.306  1.00  0.00     0.167 HD
HETATM    7  C3  UNL     1      18.915  27.219  11.595  1.00  0.00     0.062 C 
HETATM    8  C5  UNL     1      17.197  28.378  10.350  1.00  0.00     0.069 C 
HETATM    9  C21 UNL     1      20.021  27.205  12.586  1.00  0.00     0.125 C 
HETATM   10  N6  UNL     1      19.532  27.989  13.747  1.00  0.00    -0.362 N 
ATOM     11  H6  UNL     1      19.673  27.646  14.697  1.00  0.00     0.162 HD
BRANCH   7  12
HETATM   12  C2  UNL     1      18.739  26.073  10.696  1.00  0.00     0.292 C 
HETATM   13  O2  UNL     1      17.918  25.156  11.044  1.00  0.00    -0.259 OA
BRANCH  12  14
HETATM   14  O1  UNL     1      19.372  25.880   9.502  1.00  0.00    -0.323 OA
HETATM   15  C1  UNL     1      18.672  25.443   8.352  1.00  0.00     0.213 C 
ENDBRANCH  12  14
ENDBRANCH   7  12
BRANCH   9  16
HETATM   16  C22 UNL     1      21.276  27.877  12.223  1.00  0.00     0.035 C 
BRANCH  16  17
HETATM   17  C23 UNL     1      22.471  27.268  11.712  1.00  0.00    -0.012 C 
HETATM   18  C24 UNL     1      22.489  25.775  11.536  1.00  0.00     0.005 C 
HETATM   19  C25 UNL     1      23.326  25.415  10.292  1.00  0.00     0.000 C 
HETATM   20  C26 UNL     1      24.510  26.368  10.254  1.00  0.00     0.000 C 
HETATM   21  C27 UNL     1      24.867  26.797  11.663  1.00  0.00     0.000 C 
HETATM   22  C28 UNL     1      23.801  27.651  12.314  1.00  0.00     0.005 C 
ENDBRANCH  16  17
ENDBRANCH   9  16
ENDBRANCH   2   3
ENDBRANCH   1   2
BRANCH   1  23
HETATM   23  C8  UNL     1      17.636  32.860  14.963  1.00  0.00     0.083 C 
HETATM   24  S2  UNL     1      16.564  32.028  15.912  1.00  0.00    -0.065 SA
BRANCH  23  25
HETATM   25  N2  UNL     1      17.584  34.266  14.978  1.00  0.00    -0.384 N 
ATOM     26  H2  UNL     1      18.471  34.735  14.800  1.00  0.00     0.160 HD
BRANCH  25  27
HETATM   27  C9  UNL     1      16.486  35.125  15.205  1.00  0.00     0.122 C 
BRANCH  27  28
HETATM   28  C10 UNL     1      16.219  35.594  16.599  1.00  0.00     0.050 C 
BRANCH  28  29
HETATM   29  C11 UNL     1      17.048  36.796  16.968  1.00  0.00     0.274 C 
BRANCH  29  30
HETATM   30  N3  UNL     1      17.356  36.844  18.371  1.00  0.00     0.091 N 
HETATM   31  C12 UNL     1      18.554  37.626  18.645  1.00  0.00     0.292 C 
HETATM   32  C13 UNL     1      19.686  37.132  17.830  1.00  0.00     0.152 C 
HETATM   33  N4  UNL     1      20.036  35.786  18.257  1.00  0.00    -0.390 N 
HETATM   34  C19 UNL     1      19.068  35.210  19.122  1.00  0.00     0.152 C 
HETATM   35  C20 UNL     1      17.650  35.451  18.745  1.00  0.00     0.292 C 
BRANCH  33  36
HETATM   36  C14 UNL     1      20.567  34.986  17.228  1.00  0.00     0.063 C 
BRANCH  36  37
HETATM   37  C15 UNL     1      21.824  34.281  17.618  1.00  0.00     0.089 C 
BRANCH  37  38
HETATM   38  C16 UNL     1      22.597  33.779  16.466  1.00  0.00     0.069 C 
BRANCH  38  39
HETATM   39  N5  UNL     1      22.493  32.443  16.039  1.00  0.00    -0.341 N 
HETATM   40  C17 UNL     1      22.520  32.193  14.615  1.00  0.00     0.217 C 
HETATM   41  C18 UNL     1      22.417  30.842  14.061  1.00  0.00     0.117 C 
HETATM   42  O3  UNL     1      22.633  33.170  13.853  1.00  0.00    -0.274 OA
ATOM     43  H5  UNL     1      22.402  31.679  16.708  1.00  0.00     0.167 HD
ENDBRANCH  38  39
ENDBRANCH  37  38
ENDBRANCH  36  37
ENDBRANCH  33  36
ENDBRANCH  29  30
ENDBRANCH  28  29
ENDBRANCH  27  28
ENDBRANCH  25  27
ENDBRANCH  23  25
ENDBRANCH   1  23
TORSDOF 16
ENDMDL
