MODEL 1
REMARK VINA RESULT: -8.044906181      0.000      0.000
REMARK  14 active torsions:
REMARK  status: ('A' for Active; 'I' for Inactive)
REMARK    1  A    between atoms: C2_2  and  C3_3 
REMARK    2  A    between atoms: C3_3  and  C4_4 
REMARK    3  A    between atoms: C11_14  and  O2_15 
REMARK    4  A    between atoms: O2_15  and  C12_16 
REMARK       I    between atoms: C12_16  and  N2_18 
REMARK    5  A    between atoms: N2_18  and  C13_20 
REMARK    6  A    between atoms: C13_20  and  C14_21 
REMARK    7  A    between atoms: C14_21  and  C15_22 
REMARK    8  A    between atoms: C17_24  and  C18_25 
REMARK       I    between atoms: N3_31  and  C20_32 
REMARK    9  A    between atoms: C20_32  and  O7_34 
REMARK   10  A    between atoms: O7_34  and  C21_35 
REMARK   11  A    between atoms: C21_35  and  C22_36 
REMARK   12  A    between atoms: C22_36  and  C23_37 
REMARK   13  A    between atoms: C23_37  and  C24_38 
REMARK   14  A    between atoms: C24_38  and  C25_39 
ROOT
HETATM    1  C4  UNL     1      20.971  34.398  18.315  1.00  0.00     0.141 C 
HETATM    2  C5  UNL     1      21.423  34.060  16.940  1.00  0.00     0.024 C 
HETATM    3  C6  UNL     1      21.515  33.041  16.178  1.00  0.00     0.058 C 
HETATM    4  C7  UNL     1      21.975  32.775  14.821  1.00  0.00     0.256 C 
HETATM    5  O1  UNL     1      22.797  33.289  14.027  1.00  0.00    -0.268 OA
HETATM    6  N1  UNL     1      21.087  31.663  14.759  1.00  0.00    -0.312 N 
HETATM    7  C8  UNL     1      21.202  31.592  16.203  1.00  0.00     0.191 C 
HETATM    8  S1  UNL     1      19.590  31.155  16.852  1.00  0.00    -0.134 SA
HETATM    9  C9  UNL     1      18.339  31.409  15.593  1.00  0.00     0.115 C 
HETATM   10  C10 UNL     1      18.824  30.893  14.305  1.00  0.00    -0.015 C 
HETATM   11  C11 UNL     1      17.961  30.542  13.381  1.00  0.00     0.153 C 
HETATM   12  C17 UNL     1      20.274  30.758  14.010  1.00  0.00     0.222 C 
HETATM   13  S2  UNL     1      21.852  35.764  16.378  1.00  0.00    -0.062 SA
HETATM   14  C19 UNL     1      20.524  36.526  17.345  1.00  0.00     0.150 C 
HETATM   15  S3  UNL     1      20.112  38.067  17.273  1.00  0.00    -0.052 SA
HETATM   16  N3  UNL     1      19.992  35.476  18.117  1.00  0.00    -0.268 N 
HETATM   17  C20 UNL     1      18.685  35.435  18.653  1.00  0.00     0.369 C 
HETATM   18  O6  UNL     1      18.291  34.442  19.342  1.00  0.00    -0.238 OA
ENDROOT
BRANCH   1  19
HETATM   19  C3  UNL     1      22.084  34.916  19.152  1.00  0.00     0.057 C 
BRANCH  19  20
HETATM   20  C2  UNL     1      21.833  35.127  20.559  1.00  0.00    -0.035 C 
HETATM   21  C1  UNL     1      21.258  34.396  21.462  1.00  0.00     0.007 C 
ENDBRANCH  19  20
ENDBRANCH   1  19
BRANCH  12  22
HETATM   22  C18 UNL     1      20.693  29.367  14.283  1.00  0.00     0.201 C 
HETATM   23  O4  UNL     1      21.897  29.007  14.091  1.00  0.00    -0.646 OA
HETATM   24  O5  UNL     1      19.811  28.428  14.744  1.00  0.00    -0.646 OA
ENDBRANCH  12  22
BRANCH  17  25
HETATM   25  O7  UNL     1      17.778  36.459  18.459  1.00  0.00    -0.304 OA
BRANCH  25  26
HETATM   26  C21 UNL     1      16.657  36.441  17.626  1.00  0.00     0.180 C 
BRANCH  26  27
HETATM   27  C22 UNL     1      15.367  36.092  18.371  1.00  0.00     0.027 C 
BRANCH  27  28
HETATM   28  C23 UNL     1      14.676  35.062  17.533  1.00  0.00     0.002 C 
BRANCH  28  29
HETATM   29  C24 UNL     1      15.541  33.967  17.081  1.00  0.00    -0.000 C 
BRANCH  29  30
HETATM   30  C25 UNL     1      15.603  33.587  15.658  1.00  0.00    -0.005 C 
HETATM   31  C26 UNL     1      16.415  34.446  14.741  1.00  0.00     0.005 C 
ENDBRANCH  29  30
ENDBRANCH  28  29
ENDBRANCH  27  28
ENDBRANCH  26  27
ENDBRANCH  25  26
ENDBRANCH  17  25
BRANCH  11  32
HETATM   32  O2  UNL     1      18.352  30.055  12.158  1.00  0.00    -0.273 OA
BRANCH  32  33
HETATM   33  C12 UNL     1      17.880  28.866  11.636  1.00  0.00     0.365 C 
HETATM   34  O3  UNL     1      16.958  28.867  10.795  1.00  0.00    -0.238 OA
HETATM   35  N2  UNL     1      18.449  27.649  12.060  1.00  0.00    -0.337 N 
ATOM     36  H2  UNL     1      19.203  27.645  12.747  1.00  0.00     0.164 HD
BRANCH  35  37
HETATM   37  C13 UNL     1      17.955  26.405  11.512  1.00  0.00     0.125 C 
BRANCH  37  38
HETATM   38  C14 UNL     1      18.843  25.939  10.365  1.00  0.00     0.019 C 
BRANCH  38  39
HETATM   39  C15 UNL     1      17.967  25.856   9.122  1.00  0.00    -0.003 C 
HETATM   40  C16 UNL     1      18.307  26.965   8.151  1.00  0.00     0.005 C 
ENDBRANCH  38  39
ENDBRANCH  37  38
ENDBRANCH  35  37
ENDBRANCH  32  33
ENDBRANCH  11  32
TORSDOF 14
ENDMDL
MODEL 2
REMARK VINA RESULT: -7.743687202      0.758      1.237
REMARK  14 active torsions:
REMARK  status: ('A' for Active; 'I' for Inactive)
REMARK    1  A    between atoms: C2_2  and  C3_3 
REMARK    2  A    between atoms: C3_3  and  C4_4 
REMARK    3  A    between atoms: C11_14  and  O2_15 
REMARK    4  A    between atoms: O2_15  and  C12_16 
REMARK       I    between atoms: C12_16  and  N2_18 
REMARK    5  A    between atoms: N2_18  and  C13_20 
REMARK    6  A    between atoms: C13_20  and  C14_21 
REMARK    7  A    between atoms: C14_21  and  C15_22 
REMARK    8  A    between atoms: C17_24  and  C18_25 
REMARK       I    between atoms: N3_31  and  C20_32 
REMARK    9  A    between atoms: C20_32  and  O7_34 
REMARK   10  A    between atoms: O7_34  and  C21_35 
REMARK   11  A    between atoms: C21_35  and  C22_36 
REMARK   12  A    between atoms: C22_36  and  C23_37 
REMARK   13  A    between atoms: C23_37  and  C24_38 
REMARK   14  A    between atoms: C24_38  and  C25_39 
ROOT
HETATM    1  C4  UNL     1      20.964  34.285  18.284  1.00  0.00     0.141 C 
HETATM    2  C5  UNL     1      21.535  33.866  16.977  1.00  0.00     0.024 C 
HETATM    3  C6  UNL     1      21.631  32.816  16.259  1.00  0.00     0.058 C 
HETATM    4  C7  UNL     1      22.213  32.469  14.970  1.00  0.00     0.256 C 
HETATM    5  O1  UNL     1      23.154  32.892  14.258  1.00  0.00    -0.268 OA
HETATM    6  N1  UNL     1      21.255  31.423  14.841  1.00  0.00    -0.312 N 
HETATM    7  C8  UNL     1      21.206  31.396  16.289  1.00  0.00     0.191 C 
HETATM    8  S1  UNL     1      19.505  31.103  16.767  1.00  0.00    -0.134 SA
HETATM    9  C9  UNL     1      18.422  31.402  15.371  1.00  0.00     0.115 C 
HETATM   10  C10 UNL     1      19.002  30.806  14.159  1.00  0.00    -0.015 C 
HETATM   11  C11 UNL     1      18.221  30.486  13.156  1.00  0.00     0.153 C 
HETATM   12  C17 UNL     1      20.461  30.554  14.031  1.00  0.00     0.222 C 
HETATM   13  S2  UNL     1      22.152  35.513  16.420  1.00  0.00    -0.062 SA
HETATM   14  C19 UNL     1      20.790  36.405  17.212  1.00  0.00     0.150 C 
HETATM   15  S3  UNL     1      20.508  37.968  17.052  1.00  0.00    -0.052 SA
HETATM   16  N3  UNL     1      20.098  35.425  17.949  1.00  0.00    -0.268 N 
HETATM   17  C20 UNL     1      18.742  35.499  18.338  1.00  0.00     0.369 C 
HETATM   18  O6  UNL     1      18.200  34.564  19.006  1.00  0.00    -0.238 OA
ENDROOT
BRANCH   1  19
HETATM   19  C3  UNL     1      22.017  34.751  19.224  1.00  0.00     0.057 C 
BRANCH  19  20
HETATM   20  C2  UNL     1      21.624  35.065  20.578  1.00  0.00    -0.035 C 
HETATM   21  C1  UNL     1      21.246  34.324  21.573  1.00  0.00     0.007 C 
ENDBRANCH  19  20
ENDBRANCH   1  19
BRANCH  12  22
HETATM   22  C18 UNL     1      20.740  29.146  14.387  1.00  0.00     0.201 C 
HETATM   23  O4  UNL     1      19.804  28.386  14.787  1.00  0.00    -0.646 OA
HETATM   24  O5  UNL     1      22.000  28.619  14.300  1.00  0.00    -0.646 OA
ENDBRANCH  12  22
BRANCH  17  25
HETATM   25  O7  UNL     1      17.943  36.580  18.015  1.00  0.00    -0.304 OA
BRANCH  25  26
HETATM   26  C21 UNL     1      16.780  36.563  17.241  1.00  0.00     0.180 C 
BRANCH  26  27
HETATM   27  C22 UNL     1      15.506  36.705  18.076  1.00  0.00     0.027 C 
BRANCH  27  28
HETATM   28  C23 UNL     1      14.693  35.481  17.795  1.00  0.00     0.002 C 
BRANCH  28  29
HETATM   29  C24 UNL     1      15.292  34.564  16.819  1.00  0.00    -0.000 C 
BRANCH  29  30
HETATM   30  C25 UNL     1      15.577  33.161  17.171  1.00  0.00    -0.005 C 
HETATM   31  C26 UNL     1      15.189  32.102  16.188  1.00  0.00     0.005 C 
ENDBRANCH  29  30
ENDBRANCH  28  29
ENDBRANCH  27  28
ENDBRANCH  26  27
ENDBRANCH  25  26
ENDBRANCH  17  25
BRANCH  11  32
HETATM   32  O2  UNL     1      18.703  29.927  11.998  1.00  0.00    -0.273 OA
BRANCH  32  33
HETATM   33  C12 UNL     1      18.227  28.738  11.480  1.00  0.00     0.365 C 
HETATM   34  O3  UNL     1      17.344  28.740  10.599  1.00  0.00    -0.238 OA
HETATM   35  N2  UNL     1      18.749  27.518  11.957  1.00  0.00    -0.337 N 
ATOM     36  H2  UNL     1      19.471  27.514  12.677  1.00  0.00     0.164 HD
BRANCH  35  37
HETATM   37  C13 UNL     1      18.251  26.273  11.414  1.00  0.00     0.125 C 
BRANCH  37  38
HETATM   38  C14 UNL     1      19.168  25.773  10.304  1.00  0.00     0.019 C 
BRANCH  38  39
HETATM   39  C15 UNL     1      20.601  25.981  10.775  1.00  0.00    -0.003 C 
HETATM   40  C16 UNL     1      21.163  24.706  11.364  1.00  0.00     0.005 C 
ENDBRANCH  38  39
ENDBRANCH  37  38
ENDBRANCH  35  37
ENDBRANCH  32  33
ENDBRANCH  11  32
TORSDOF 14
ENDMDL
MODEL 3
REMARK VINA RESULT: -7.161715849      1.320      2.140
REMARK  14 active torsions:
REMARK  status: ('A' for Active; 'I' for Inactive)
REMARK    1  A    between atoms: C2_2  and  C3_3 
REMARK    2  A    between atoms: C3_3  and  C4_4 
REMARK    3  A    between atoms: C11_14  and  O2_15 
REMARK    4  A    between atoms: O2_15  and  C12_16 
REMARK       I    between atoms: C12_16  and  N2_18 
REMARK    5  A    between atoms: N2_18  and  C13_20 
REMARK    6  A    between atoms: C13_20  and  C14_21 
REMARK    7  A    between atoms: C14_21  and  C15_22 
REMARK    8  A    between atoms: C17_24  and  C18_25 
REMARK       I    between atoms: N3_31  and  C20_32 
REMARK    9  A    between atoms: C20_32  and  O7_34 
REMARK   10  A    between atoms: O7_34  and  C21_35 
REMARK   11  A    between atoms: C21_35  and  C22_36 
REMARK   12  A    between atoms: C22_36  and  C23_37 
REMARK   13  A    between atoms: C23_37  and  C24_38 
REMARK   14  A    between atoms: C24_38  and  C25_39 
ROOT
HETATM    1  C4  UNL     1      20.871  34.264  18.278  1.00  0.00     0.141 C 
HETATM    2  C5  UNL     1      21.443  33.836  16.974  1.00  0.00     0.024 C 
HETATM    3  C6  UNL     1      21.533  32.783  16.260  1.00  0.00     0.058 C 
HETATM    4  C7  UNL     1      22.116  32.427  14.973  1.00  0.00     0.256 C 
HETATM    5  O1  UNL     1      23.063  32.840  14.263  1.00  0.00    -0.268 OA
HETATM    6  N1  UNL     1      21.150  31.389  14.844  1.00  0.00    -0.312 N 
HETATM    7  C8  UNL     1      21.096  31.366  16.293  1.00  0.00     0.191 C 
HETATM    8  S1  UNL     1      19.391  31.088  16.766  1.00  0.00    -0.134 SA
HETATM    9  C9  UNL     1      18.315  31.392  15.365  1.00  0.00     0.115 C 
HETATM   10  C10 UNL     1      18.894  30.787  14.157  1.00  0.00    -0.015 C 
HETATM   11  C11 UNL     1      18.114  30.470  13.152  1.00  0.00     0.153 C 
HETATM   12  C17 UNL     1      20.352  30.523  14.035  1.00  0.00     0.222 C 
HETATM   13  S2  UNL     1      22.075  35.475  16.414  1.00  0.00    -0.062 SA
HETATM   14  C19 UNL     1      20.717  36.381  17.199  1.00  0.00     0.150 C 
HETATM   15  S3  UNL     1      20.449  37.946  17.033  1.00  0.00    -0.052 SA
HETATM   16  N3  UNL     1      20.015  35.409  17.936  1.00  0.00    -0.268 N 
HETATM   17  C20 UNL     1      18.658  35.495  18.320  1.00  0.00     0.369 C 
HETATM   18  O6  UNL     1      18.106  34.566  18.990  1.00  0.00    -0.238 OA
ENDROOT
BRANCH   1  19
HETATM   19  C3  UNL     1      21.924  34.723  19.220  1.00  0.00     0.057 C 
BRANCH  19  20
HETATM   20  C2  UNL     1      21.537  35.002  20.584  1.00  0.00    -0.035 C 
HETATM   21  C1  UNL     1      21.138  34.238  21.552  1.00  0.00     0.007 C 
ENDBRANCH  19  20
ENDBRANCH   1  19
BRANCH  12  22
HETATM   22  C18 UNL     1      20.618  29.115  14.396  1.00  0.00     0.201 C 
HETATM   23  O4  UNL     1      21.797  28.646  14.335  1.00  0.00    -0.646 OA
HETATM   24  O5  UNL     1      19.616  28.275  14.803  1.00  0.00    -0.646 OA
ENDBRANCH  12  22
BRANCH  17  25
HETATM   25  O7  UNL     1      17.869  36.581  17.992  1.00  0.00    -0.304 OA
BRANCH  25  26
HETATM   26  C21 UNL     1      16.602  36.552  17.404  1.00  0.00     0.180 C 
BRANCH  26  27
HETATM   27  C22 UNL     1      15.501  37.068  18.333  1.00  0.00     0.027 C 
BRANCH  27  28
HETATM   28  C23 UNL     1      16.046  38.312  18.961  1.00  0.00     0.002 C 
BRANCH  28  29
HETATM   29  C24 UNL     1      15.277  39.527  18.671  1.00  0.00    -0.000 C 
BRANCH  29  30
HETATM   30  C25 UNL     1      15.690  40.448  17.597  1.00  0.00    -0.005 C 
HETATM   31  C26 UNL     1      17.010  40.204  16.936  1.00  0.00     0.005 C 
ENDBRANCH  29  30
ENDBRANCH  28  29
ENDBRANCH  27  28
ENDBRANCH  26  27
ENDBRANCH  25  26
ENDBRANCH  17  25
BRANCH  11  32
HETATM   32  O2  UNL     1      18.596  29.904  11.997  1.00  0.00    -0.273 OA
BRANCH  32  33
HETATM   33  C12 UNL     1      18.091  28.733  11.466  1.00  0.00     0.365 C 
HETATM   34  O3  UNL     1      17.231  28.768  10.563  1.00  0.00    -0.238 OA
HETATM   35  N2  UNL     1      18.557  27.495  11.952  1.00  0.00    -0.337 N 
ATOM     36  H2  UNL     1      19.260  27.464  12.690  1.00  0.00     0.164 HD
BRANCH  35  37
HETATM   37  C13 UNL     1      18.029  26.269  11.394  1.00  0.00     0.125 C 
BRANCH  37  38
HETATM   38  C14 UNL     1      19.114  25.200  11.339  1.00  0.00     0.019 C 
BRANCH  38  39
HETATM   39  C15 UNL     1      20.456  25.919  11.369  1.00  0.00    -0.003 C 
HETATM   40  C16 UNL     1      21.596  24.932  11.244  1.00  0.00     0.005 C 
ENDBRANCH  38  39
ENDBRANCH  37  38
ENDBRANCH  35  37
ENDBRANCH  32  33
ENDBRANCH  11  32
TORSDOF 14
ENDMDL
MODEL 4
REMARK VINA RESULT: -6.950153686      1.508      1.946
REMARK  14 active torsions:
REMARK  status: ('A' for Active; 'I' for Inactive)
REMARK    1  A    between atoms: C2_2  and  C3_3 
REMARK    2  A    between atoms: C3_3  and  C4_4 
REMARK    3  A    between atoms: C11_14  and  O2_15 
REMARK    4  A    between atoms: O2_15  and  C12_16 
REMARK       I    between atoms: C12_16  and  N2_18 
REMARK    5  A    between atoms: N2_18  and  C13_20 
REMARK    6  A    between atoms: C13_20  and  C14_21 
REMARK    7  A    between atoms: C14_21  and  C15_22 
REMARK    8  A    between atoms: C17_24  and  C18_25 
REMARK       I    between atoms: N3_31  and  C20_32 
REMARK    9  A    between atoms: C20_32  and  O7_34 
REMARK   10  A    between atoms: O7_34  and  C21_35 
REMARK   11  A    between atoms: C21_35  and  C22_36 
REMARK   12  A    between atoms: C22_36  and  C23_37 
REMARK   13  A    between atoms: C23_37  and  C24_38 
REMARK   14  A    between atoms: C24_38  and  C25_39 
ROOT
HETATM    1  C4  UNL     1      21.311  34.598  18.390  1.00  0.00     0.141 C 
HETATM    2  C5  UNL     1      22.000  34.092  17.173  1.00  0.00     0.024 C 
HETATM    3  C6  UNL     1      22.098  33.014  16.499  1.00  0.00     0.058 C 
HETATM    4  C7  UNL     1      22.801  32.579  15.299  1.00  0.00     0.256 C 
HETATM    5  O1  UNL     1      23.852  32.905  14.698  1.00  0.00    -0.268 OA
HETATM    6  N1  UNL     1      21.785  31.606  15.079  1.00  0.00    -0.312 N 
HETATM    7  C8  UNL     1      21.560  31.632  16.511  1.00  0.00     0.191 C 
HETATM    8  S1  UNL     1      19.796  31.485  16.784  1.00  0.00    -0.134 SA
HETATM    9  C9  UNL     1      18.916  31.819  15.258  1.00  0.00     0.115 C 
HETATM   10  C10 UNL     1      19.588  31.139  14.142  1.00  0.00    -0.015 C 
HETATM   11  C11 UNL     1      18.910  30.846  13.059  1.00  0.00     0.153 C 
HETATM   12  C17 UNL     1      21.027  30.773  14.200  1.00  0.00     0.222 C 
HETATM   13  S2  UNL     1      22.809  35.666  16.656  1.00  0.00    -0.062 SA
HETATM   14  C19 UNL     1      21.437  36.686  17.253  1.00  0.00     0.150 C 
HETATM   15  S3  UNL     1      21.303  38.260  17.021  1.00  0.00    -0.052 SA
HETATM   16  N3  UNL     1      20.586  35.788  17.924  1.00  0.00    -0.268 N 
HETATM   17  C20 UNL     1      19.203  35.978  18.141  1.00  0.00     0.369 C 
HETATM   18  O6  UNL     1      18.511  35.110  18.761  1.00  0.00    -0.238 OA
ENDROOT
BRANCH   1  19
HETATM   19  C3  UNL     1      22.277  35.013  19.440  1.00  0.00     0.057 C 
BRANCH  19  20
HETATM   20  C2  UNL     1      21.822  35.026  20.811  1.00  0.00    -0.035 C 
HETATM   21  C1  UNL     1      21.040  34.236  21.479  1.00  0.00     0.007 C 
ENDBRANCH  19  20
ENDBRANCH   1  19
BRANCH  12  22
HETATM   22  C18 UNL     1      21.148  29.361  14.622  1.00  0.00     0.201 C 
HETATM   23  O4  UNL     1      22.197  28.696  14.354  1.00  0.00    -0.646 OA
HETATM   24  O5  UNL     1      20.146  28.727  15.306  1.00  0.00    -0.646 OA
ENDBRANCH  12  22
BRANCH  17  25
HETATM   25  O7  UNL     1      18.537  37.105  17.697  1.00  0.00    -0.304 OA
BRANCH  25  26
HETATM   26  C21 UNL     1      17.233  37.169  17.200  1.00  0.00     0.180 C 
BRANCH  26  27
HETATM   27  C22 UNL     1      16.308  38.030  18.063  1.00  0.00     0.027 C 
BRANCH  27  28
HETATM   28  C23 UNL     1      15.130  37.166  18.388  1.00  0.00     0.002 C 
BRANCH  28  29
HETATM   29  C24 UNL     1      15.433  35.733  18.478  1.00  0.00    -0.000 C 
BRANCH  29  30
HETATM   30  C25 UNL     1      14.643  34.742  17.727  1.00  0.00    -0.005 C 
HETATM   31  C26 UNL     1      15.322  34.004  16.616  1.00  0.00     0.005 C 
ENDBRANCH  29  30
ENDBRANCH  28  29
ENDBRANCH  27  28
ENDBRANCH  26  27
ENDBRANCH  25  26
ENDBRANCH  17  25
BRANCH  11  32
HETATM   32  O2  UNL     1      19.482  30.213  11.982  1.00  0.00    -0.273 OA
BRANCH  32  33
HETATM   33  C12 UNL     1      19.381  28.852  11.768  1.00  0.00     0.365 C 
HETATM   34  O3  UNL     1      18.276  28.333  11.512  1.00  0.00    -0.238 OA
HETATM   35  N2  UNL     1      20.539  28.052  11.841  1.00  0.00    -0.337 N 
ATOM     36  H2  UNL     1      21.444  28.474  12.050  1.00  0.00     0.164 HD
BRANCH  35  37
HETATM   37  C13 UNL     1      20.433  26.627  11.615  1.00  0.00     0.125 C 
BRANCH  37  38
HETATM   38  C14 UNL     1      21.814  25.984  11.619  1.00  0.00     0.019 C 
BRANCH  38  39
HETATM   39  C15 UNL     1      22.804  27.040  11.146  1.00  0.00    -0.003 C 
HETATM   40  C16 UNL     1      24.131  26.889  11.857  1.00  0.00     0.005 C 
ENDBRANCH  38  39
ENDBRANCH  37  38
ENDBRANCH  35  37
ENDBRANCH  32  33
ENDBRANCH  11  32
TORSDOF 14
ENDMDL
MODEL 5
REMARK VINA RESULT: -6.612636294      2.421      3.247
REMARK  14 active torsions:
REMARK  status: ('A' for Active; 'I' for Inactive)
REMARK    1  A    between atoms: C2_2  and  C3_3 
REMARK    2  A    between atoms: C3_3  and  C4_4 
REMARK    3  A    between atoms: C11_14  and  O2_15 
REMARK    4  A    between atoms: O2_15  and  C12_16 
REMARK       I    between atoms: C12_16  and  N2_18 
REMARK    5  A    between atoms: N2_18  and  C13_20 
REMARK    6  A    between atoms: C13_20  and  C14_21 
REMARK    7  A    between atoms: C14_21  and  C15_22 
REMARK    8  A    between atoms: C17_24  and  C18_25 
REMARK       I    between atoms: N3_31  and  C20_32 
REMARK    9  A    between atoms: C20_32  and  O7_34 
REMARK   10  A    between atoms: O7_34  and  C21_35 
REMARK   11  A    between atoms: C21_35  and  C22_36 
REMARK   12  A    between atoms: C22_36  and  C23_37 
REMARK   13  A    between atoms: C23_37  and  C24_38 
REMARK   14  A    between atoms: C24_38  and  C25_39 
ROOT
HETATM    1  C4  UNL     1      20.054  35.412  18.681  1.00  0.00     0.141 C 
HETATM    2  C5  UNL     1      21.002  34.940  17.637  1.00  0.00     0.024 C 
HETATM    3  C6  UNL     1      21.300  33.863  17.021  1.00  0.00     0.058 C 
HETATM    4  C7  UNL     1      22.253  33.462  15.995  1.00  0.00     0.256 C 
HETATM    5  O1  UNL     1      23.379  33.851  15.605  1.00  0.00    -0.268 OA
HETATM    6  N1  UNL     1      21.365  32.421  15.603  1.00  0.00    -0.312 N 
HETATM    7  C8  UNL     1      20.859  32.448  16.961  1.00  0.00     0.191 C 
HETATM    8  S1  UNL     1      19.089  32.187  16.885  1.00  0.00    -0.134 SA
HETATM    9  C9  UNL     1      18.509  32.443  15.208  1.00  0.00     0.115 C 
HETATM   10  C10 UNL     1      19.431  31.797  14.263  1.00  0.00    -0.015 C 
HETATM   11  C11 UNL     1      19.001  31.446  13.075  1.00  0.00     0.153 C 
HETATM   12  C17 UNL     1      20.851  31.528  14.613  1.00  0.00     0.222 C 
HETATM   13  S2  UNL     1      21.796  36.559  17.250  1.00  0.00    -0.062 SA
HETATM   14  C19 UNL     1      20.271  37.491  17.540  1.00  0.00     0.150 C 
HETATM   15  S3  UNL     1      20.085  39.050  17.247  1.00  0.00    -0.052 SA
HETATM   16  N3  UNL     1      19.362  36.545  18.051  1.00  0.00    -0.268 N 
HETATM   17  C20 UNL     1      17.954  36.645  17.987  1.00  0.00     0.369 C 
HETATM   18  O6  UNL     1      17.210  35.740  18.479  1.00  0.00    -0.238 OA
ENDROOT
BRANCH   1  19
HETATM   19  C3  UNL     1      20.764  35.904  19.890  1.00  0.00     0.057 C 
BRANCH  19  20
HETATM   20  C2  UNL     1      21.809  35.074  20.445  1.00  0.00    -0.035 C 
HETATM   21  C1  UNL     1      22.990  35.348  20.904  1.00  0.00     0.007 C 
ENDBRANCH  19  20
ENDBRANCH   1  19
BRANCH  12  22
HETATM   22  C18 UNL     1      20.975  30.133  15.085  1.00  0.00     0.201 C 
HETATM   23  O4  UNL     1      21.983  29.431  14.762  1.00  0.00    -0.646 OA
HETATM   24  O5  UNL     1      20.019  29.554  15.876  1.00  0.00    -0.646 OA
ENDBRANCH  12  22
BRANCH  17  25
HETATM   25  O7  UNL     1      17.320  37.719  17.392  1.00  0.00    -0.304 OA
BRANCH  25  26
HETATM   26  C21 UNL     1      16.126  38.321  17.800  1.00  0.00     0.180 C 
BRANCH  26  27
HETATM   27  C22 UNL     1      16.283  39.155  19.073  1.00  0.00     0.027 C 
BRANCH  27  28
HETATM   28  C23 UNL     1      16.698  40.520  18.620  1.00  0.00     0.002 C 
BRANCH  28  29
HETATM   29  C24 UNL     1      16.142  40.925  17.324  1.00  0.00    -0.000 C 
BRANCH  29  30
HETATM   30  C25 UNL     1      16.996  41.534  16.289  1.00  0.00    -0.005 C 
HETATM   31  C26 UNL     1      18.156  42.364  16.740  1.00  0.00     0.005 C 
ENDBRANCH  29  30
ENDBRANCH  28  29
ENDBRANCH  27  28
ENDBRANCH  26  27
ENDBRANCH  25  26
ENDBRANCH  17  25
BRANCH  11  32
HETATM   32  O2  UNL     1      19.815  30.840  12.148  1.00  0.00    -0.273 OA
BRANCH  32  33
HETATM   33  C12 UNL     1      19.729  29.498  11.835  1.00  0.00     0.365 C 
HETATM   34  O3  UNL     1      18.646  29.003  11.461  1.00  0.00    -0.238 OA
HETATM   35  N2  UNL     1      20.878  28.688  11.940  1.00  0.00    -0.337 N 
ATOM     36  H2  UNL     1      21.765  29.090  12.245  1.00  0.00     0.164 HD
BRANCH  35  37
HETATM   37  C13 UNL     1      20.788  27.282  11.611  1.00  0.00     0.125 C 
BRANCH  37  38
HETATM   38  C14 UNL     1      22.124  26.592  11.857  1.00  0.00     0.019 C 
BRANCH  38  39
HETATM   39  C15 UNL     1      23.197  27.673  11.850  1.00  0.00    -0.003 C 
HETATM   40  C16 UNL     1      24.567  27.069  12.070  1.00  0.00     0.005 C 
ENDBRANCH  38  39
ENDBRANCH  37  38
ENDBRANCH  35  37
ENDBRANCH  32  33
ENDBRANCH  11  32
TORSDOF 14
ENDMDL
