MODEL 1
REMARK VINA RESULT: -10.109246327      0.000      0.000
REMARK  13 active torsions:
REMARK  status: ('A' for Active; 'I' for Inactive)
REMARK    1  A    between atoms: C4_6  and  C5_7 
REMARK    2  A    between atoms: C5_7  and  C6_8 
REMARK    3  A    between atoms: C6_8  and  N3_9 
REMARK    4  A    between atoms: N3_9  and  C7_11 
REMARK    5  A    between atoms: C10_14  and  C11_15 
REMARK    6  A    between atoms: C18_22  and  C19_23 
REMARK    7  A    between atoms: C19_23  and  C20_24 
REMARK    8  A    between atoms: C20_24  and  N4_25 
REMARK    9  A    between atoms: N4_25  and  C21_27 
REMARK   10  A    between atoms: C22_30  and  O1_31 
REMARK   11  A    between atoms: O1_31  and  C23_32 
REMARK   12  A    between atoms: C23_32  and  C24_33 
REMARK   13  A    between atoms: C27_38  and  N7_39 
ROOT
HETATM    1  C19 UNL     1      18.258  30.400  12.638  1.00  0.00     0.086 C 
ENDROOT
BRANCH   1   2
HETATM    2  C18 UNL     1      18.173  30.800  14.080  1.00  0.00    -0.026 A 
HETATM    3  C7  UNL     1      18.906  30.080  15.004  1.00  0.00     0.034 A 
HETATM    4  C8  UNL     1      18.775  30.424  16.328  1.00  0.00     0.030 A 
HETATM    5  C9  UNL     1      17.934  31.457  16.689  1.00  0.00     0.014 A 
HETATM    6  C10 UNL     1      17.188  32.197  15.799  1.00  0.00    -0.029 A 
HETATM    7  C17 UNL     1      17.326  31.844  14.468  1.00  0.00     0.021 A 
BRANCH   3   8
HETATM    8  N3  UNL     1      19.759  29.031  14.628  1.00  0.00    -0.389 N 
ATOM      9  H3  UNL     1      19.316  28.241  14.159  1.00  0.00     0.159 HD
BRANCH   8  10
HETATM   10  C6  UNL     1      21.171  28.933  14.822  1.00  0.00     0.125 C 
BRANCH  10  11
HETATM   11  C5  UNL     1      22.036  29.512  13.777  1.00  0.00     0.064 C 
BRANCH  11  12
HETATM   12  C4  UNL     1      21.829  30.917  13.337  1.00  0.00     0.060 C 
HETATM   13  N2  UNL     1      22.183  31.917  14.191  1.00  0.00    -0.390 N 
HETATM   14  C3  UNL     1      23.480  32.311  14.503  1.00  0.00     0.152 C 
HETATM   15  C33 UNL     1      21.197  32.710  14.842  1.00  0.00     0.152 C 
HETATM   16  C2  UNL     1      23.507  33.347  15.644  1.00  0.00     0.291 C 
HETATM   17  N1  UNL     1      22.674  32.957  16.736  1.00  0.00     0.087 N 
HETATM   18  C1  UNL     1      22.505  34.126  17.594  1.00  0.00     0.310 C 
HETATM   19  C34 UNL     1      21.356  32.531  16.340  1.00  0.00     0.291 C 
ENDBRANCH  11  12
ENDBRANCH  10  11
ENDBRANCH   8  10
ENDBRANCH   3   8
BRANCH   6  20
HETATM   20  C11 UNL     1      16.278  33.271  16.213  1.00  0.00    -0.052 C 
HETATM   21  C12 UNL     1      15.506  33.202  17.285  1.00  0.00    -0.019 C 
HETATM   22  C13 UNL     1      14.590  34.286  17.697  1.00  0.00     0.028 C 
HETATM   23  C14 UNL     1      15.071  35.659  17.352  1.00  0.00     0.004 C 
HETATM   24  C15 UNL     1      16.313  35.663  16.513  1.00  0.00     0.005 C 
HETATM   25  C16 UNL     1      16.155  34.556  15.455  1.00  0.00     0.039 C 
ENDBRANCH   6  20
ENDBRANCH   1   2
BRANCH   1  26
HETATM   26  C20 UNL     1      17.139  29.404  12.440  1.00  0.00     0.083 C 
BRANCH  26  27
HETATM   27  N4  UNL     1      17.501  28.087  12.107  1.00  0.00    -0.204 N 
ATOM     28  H4  UNL     1      17.130  27.386  12.748  1.00  0.00     0.183 HD
BRANCH  27  29
HETATM   29  C21 UNL     1      18.191  27.603  11.177  1.00  0.00     0.699 A 
HETATM   30  N5  UNL     1      17.762  27.646   9.904  1.00  0.00    -0.154 N 
HETATM   31  C22 UNL     1      18.440  27.131   8.866  1.00  0.00     0.252 A 
ATOM     32  H5  UNL     1      16.867  28.099   9.715  1.00  0.00     0.188 HD
HETATM   33  N6  UNL     1      19.628  26.539   9.178  1.00  0.00    -0.154 N 
HETATM   34  C27 UNL     1      20.110  26.459  10.409  1.00  0.00     0.698 A 
ATOM     35  H6  UNL     1      20.176  26.133   8.419  1.00  0.00     0.188 HD
HETATM   36  N9  UNL     1      19.392  26.991  11.409  1.00  0.00    -0.022 N 
ATOM     37  H9  UNL     1      19.749  26.939  12.363  1.00  0.00     0.203 HD
BRANCH  31  38
HETATM   38  O1  UNL     1      18.001  27.179   7.552  1.00  0.00    -0.321 OA
BRANCH  38  39
HETATM   39  C23 UNL     1      18.697  26.438   6.570  1.00  0.00     0.183 C 
BRANCH  39  40
HETATM   40  C24 UNL     1      18.647  27.102   5.220  1.00  0.00     0.010 A 
HETATM   41  C25 UNL     1      17.521  26.855   4.283  1.00  0.00     0.007 A 
HETATM   42  C26 UNL     1      17.643  28.177   4.985  1.00  0.00     0.007 A 
ENDBRANCH  39  40
ENDBRANCH  38  39
ENDBRANCH  31  38
BRANCH  34  43
HETATM   43  N7  UNL     1      21.367  25.830  10.734  1.00  0.00    -0.214 N 
HETATM   44  C28 UNL     1      22.164  26.453  11.761  1.00  0.00     0.171 C 
HETATM   45  C29 UNL     1      23.593  26.039  11.787  1.00  0.00     0.292 C 
HETATM   46  N8  UNL     1      24.084  25.505  10.561  1.00  0.00     0.087 N 
HETATM   47  C30 UNL     1      24.458  26.479   9.574  1.00  0.00     0.310 C 
HETATM   48  C31 UNL     1      23.286  24.434  10.030  1.00  0.00     0.292 C 
HETATM   49  C32 UNL     1      21.817  24.640  10.091  1.00  0.00     0.171 C 
ENDBRANCH  34  43
ENDBRANCH  27  29
ENDBRANCH  26  27
ENDBRANCH   1  26
TORSDOF 13
ENDMDL
MODEL 2
REMARK VINA RESULT: -10.095403110      1.447      3.814
REMARK  13 active torsions:
REMARK  status: ('A' for Active; 'I' for Inactive)
REMARK    1  A    between atoms: C4_6  and  C5_7 
REMARK    2  A    between atoms: C5_7  and  C6_8 
REMARK    3  A    between atoms: C6_8  and  N3_9 
REMARK    4  A    between atoms: N3_9  and  C7_11 
REMARK    5  A    between atoms: C10_14  and  C11_15 
REMARK    6  A    between atoms: C18_22  and  C19_23 
REMARK    7  A    between atoms: C19_23  and  C20_24 
REMARK    8  A    between atoms: C20_24  and  N4_25 
REMARK    9  A    between atoms: N4_25  and  C21_27 
REMARK   10  A    between atoms: C22_30  and  O1_31 
REMARK   11  A    between atoms: O1_31  and  C23_32 
REMARK   12  A    between atoms: C23_32  and  C24_33 
REMARK   13  A    between atoms: C27_38  and  N7_39 
ROOT
HETATM    1  C19 UNL     1      18.475  29.813  12.470  1.00  0.00     0.086 C 
ENDROOT
BRANCH   1   2
HETATM    2  C18 UNL     1      18.413  30.285  13.891  1.00  0.00    -0.026 A 
HETATM    3  C7  UNL     1      19.173  29.621  14.836  1.00  0.00     0.034 A 
HETATM    4  C8  UNL     1      19.064  30.032  16.143  1.00  0.00     0.030 A 
HETATM    5  C9  UNL     1      18.217  31.072  16.468  1.00  0.00     0.014 A 
HETATM    6  C10 UNL     1      17.445  31.757  15.556  1.00  0.00    -0.029 A 
HETATM    7  C17 UNL     1      17.561  31.338  14.243  1.00  0.00     0.021 A 
BRANCH   3   8
HETATM    8  N3  UNL     1      20.031  28.565  14.496  1.00  0.00    -0.389 N 
ATOM      9  H3  UNL     1      19.737  27.636  14.797  1.00  0.00     0.159 HD
BRANCH   8  10
HETATM   10  C6  UNL     1      21.266  28.629  13.782  1.00  0.00     0.125 C 
BRANCH  10  11
HETATM   11  C5  UNL     1      22.203  29.708  14.151  1.00  0.00     0.064 C 
BRANCH  11  12
HETATM   12  C4  UNL     1      22.016  31.075  13.596  1.00  0.00     0.060 C 
HETATM   13  N2  UNL     1      22.257  32.138  14.412  1.00  0.00    -0.390 N 
HETATM   14  C3  UNL     1      23.505  32.586  14.831  1.00  0.00     0.152 C 
HETATM   15  C33 UNL     1      21.191  32.945  14.899  1.00  0.00     0.152 C 
HETATM   16  C2  UNL     1      23.389  33.696  15.895  1.00  0.00     0.291 C 
HETATM   17  N1  UNL     1      22.451  33.357  16.916  1.00  0.00     0.087 N 
HETATM   18  C1  UNL     1      22.168  34.576  17.670  1.00  0.00     0.310 C 
HETATM   19  C34 UNL     1      21.192  32.870  16.414  1.00  0.00     0.291 C 
ENDBRANCH  11  12
ENDBRANCH  10  11
ENDBRANCH   8  10
ENDBRANCH   3   8
BRANCH   6  20
HETATM   20  C11 UNL     1      16.530  32.840  15.933  1.00  0.00    -0.052 C 
HETATM   21  C12 UNL     1      15.846  32.859  17.067  1.00  0.00    -0.019 C 
HETATM   22  C13 UNL     1      14.924  33.951  17.441  1.00  0.00     0.028 C 
HETATM   23  C14 UNL     1      15.325  35.296  16.923  1.00  0.00     0.004 C 
HETATM   24  C15 UNL     1      16.497  35.250  15.989  1.00  0.00     0.005 C 
HETATM   25  C16 UNL     1      16.299  34.036  15.064  1.00  0.00     0.039 C 
ENDBRANCH   6  20
ENDBRANCH   1   2
BRANCH   1  26
HETATM   26  C20 UNL     1      17.324  28.843  12.328  1.00  0.00     0.083 C 
BRANCH  26  27
HETATM   27  N4  UNL     1      17.640  27.475  12.273  1.00  0.00    -0.204 N 
ATOM     28  H4  UNL     1      17.186  26.920  12.998  1.00  0.00     0.183 HD
BRANCH  27  29
HETATM   29  C21 UNL     1      18.370  26.799  11.508  1.00  0.00     0.699 A 
HETATM   30  N5  UNL     1      19.475  26.188  11.968  1.00  0.00    -0.154 N 
HETATM   31  C22 UNL     1      20.309  25.467  11.202  1.00  0.00     0.252 A 
ATOM     32  H5  UNL     1      19.694  26.278  12.961  1.00  0.00     0.188 HD
HETATM   33  N6  UNL     1      19.968  25.382   9.885  1.00  0.00    -0.154 N 
HETATM   34  C27 UNL     1      18.896  25.959   9.363  1.00  0.00     0.698 A 
ATOM     35  H6  UNL     1      20.574  24.845   9.265  1.00  0.00     0.188 HD
HETATM   36  N9  UNL     1      18.096  26.668  10.175  1.00  0.00    -0.022 N 
ATOM     37  H9  UNL     1      17.267  27.118   9.789  1.00  0.00     0.203 HD
BRANCH  31  38
HETATM   38  O1  UNL     1      21.446  24.833  11.677  1.00  0.00    -0.321 OA
BRANCH  38  39
HETATM   39  C23 UNL     1      22.691  25.116  11.071  1.00  0.00     0.183 C 
BRANCH  39  40
HETATM   40  C24 UNL     1      23.333  26.350  11.648  1.00  0.00     0.010 A 
HETATM   41  C25 UNL     1      24.795  26.406  11.907  1.00  0.00     0.007 A 
HETATM   42  C26 UNL     1      24.199  27.186  10.771  1.00  0.00     0.007 A 
ENDBRANCH  39  40
ENDBRANCH  38  39
ENDBRANCH  31  38
BRANCH  34  43
HETATM   43  N7  UNL     1      18.540  25.868   7.967  1.00  0.00    -0.214 N 
HETATM   44  C28 UNL     1      18.350  24.545   7.426  1.00  0.00     0.171 C 
HETATM   45  C29 UNL     1      18.392  24.460   5.941  1.00  0.00     0.292 C 
HETATM   46  N8  UNL     1      19.076  25.533   5.300  1.00  0.00     0.087 N 
HETATM   47  C30 UNL     1      20.506  25.420   5.275  1.00  0.00     0.310 C 
HETATM   48  C31 UNL     1      18.614  26.836   5.691  1.00  0.00     0.292 C 
HETATM   49  C32 UNL     1      18.368  27.018   7.144  1.00  0.00     0.171 C 
ENDBRANCH  34  43
ENDBRANCH  27  29
ENDBRANCH  26  27
ENDBRANCH   1  26
TORSDOF 13
ENDMDL
MODEL 3
REMARK VINA RESULT: -9.923082592      0.761      1.024
REMARK  13 active torsions:
REMARK  status: ('A' for Active; 'I' for Inactive)
REMARK    1  A    between atoms: C4_6  and  C5_7 
REMARK    2  A    between atoms: C5_7  and  C6_8 
REMARK    3  A    between atoms: C6_8  and  N3_9 
REMARK    4  A    between atoms: N3_9  and  C7_11 
REMARK    5  A    between atoms: C10_14  and  C11_15 
REMARK    6  A    between atoms: C18_22  and  C19_23 
REMARK    7  A    between atoms: C19_23  and  C20_24 
REMARK    8  A    between atoms: C20_24  and  N4_25 
REMARK    9  A    between atoms: N4_25  and  C21_27 
REMARK   10  A    between atoms: C22_30  and  O1_31 
REMARK   11  A    between atoms: O1_31  and  C23_32 
REMARK   12  A    between atoms: C23_32  and  C24_33 
REMARK   13  A    between atoms: C27_38  and  N7_39 
ROOT
HETATM    1  C19 UNL     1      18.338  30.523  12.814  1.00  0.00     0.086 C 
ENDROOT
BRANCH   1   2
HETATM    2  C18 UNL     1      18.316  31.025  14.226  1.00  0.00    -0.026 A 
HETATM    3  C7  UNL     1      19.175  30.444  15.141  1.00  0.00     0.034 A 
HETATM    4  C8  UNL     1      19.103  30.878  16.444  1.00  0.00     0.030 A 
HETATM    5  C9  UNL     1      18.198  31.859  16.793  1.00  0.00     0.014 A 
HETATM    6  C10 UNL     1      17.327  32.460  15.911  1.00  0.00    -0.029 A 
HETATM    7  C17 UNL     1      17.406  32.018  14.602  1.00  0.00     0.021 A 
BRANCH   3   8
HETATM    8  N3  UNL     1      20.092  29.447  14.778  1.00  0.00    -0.389 N 
ATOM      9  H3  UNL     1      19.734  28.493  14.767  1.00  0.00     0.159 HD
BRANCH   8  10
HETATM   10  C6  UNL     1      21.466  29.605  14.420  1.00  0.00     0.125 C 
BRANCH  10  11
HETATM   11  C5  UNL     1      21.881  30.921  13.901  1.00  0.00     0.064 C 
BRANCH  11  12
HETATM   12  C4  UNL     1      22.979  31.670  14.567  1.00  0.00     0.060 C 
HETATM   13  N2  UNL     1      22.661  32.479  15.616  1.00  0.00    -0.390 N 
HETATM   14  C3  UNL     1      22.302  32.064  16.894  1.00  0.00     0.152 C 
HETATM   15  C33 UNL     1      22.712  33.895  15.492  1.00  0.00     0.152 C 
HETATM   16  C2  UNL     1      21.831  33.243  17.769  1.00  0.00     0.291 C 
HETATM   17  N1  UNL     1      20.902  34.079  17.078  1.00  0.00     0.087 N 
HETATM   18  C1  UNL     1      20.778  35.317  17.843  1.00  0.00     0.310 C 
HETATM   19  C34 UNL     1      21.322  34.444  15.750  1.00  0.00     0.291 C 
ENDBRANCH  11  12
ENDBRANCH  10  11
ENDBRANCH   8  10
ENDBRANCH   3   8
BRANCH   6  20
HETATM   20  C11 UNL     1      16.353  33.480  16.315  1.00  0.00    -0.052 C 
HETATM   21  C12 UNL     1      15.499  33.321  17.314  1.00  0.00    -0.019 C 
HETATM   22  C13 UNL     1      14.519  34.351  17.716  1.00  0.00     0.028 C 
HETATM   23  C14 UNL     1      14.982  35.756  17.498  1.00  0.00     0.004 C 
HETATM   24  C15 UNL     1      16.287  35.848  16.766  1.00  0.00     0.005 C 
HETATM   25  C16 UNL     1      16.249  34.808  15.632  1.00  0.00     0.039 C 
ENDBRANCH   6  20
ENDBRANCH   1   2
BRANCH   1  26
HETATM   26  C20 UNL     1      17.179  29.558  12.722  1.00  0.00     0.083 C 
BRANCH  26  27
HETATM   27  N4  UNL     1      17.468  28.241  12.326  1.00  0.00    -0.204 N 
ATOM     28  H4  UNL     1      16.984  27.533  12.877  1.00  0.00     0.183 HD
BRANCH  27  29
HETATM   29  C21 UNL     1      18.204  27.764  11.428  1.00  0.00     0.699 A 
HETATM   30  N5  UNL     1      17.797  27.730  10.147  1.00  0.00    -0.154 N 
HETATM   31  C22 UNL     1      18.525  27.217   9.142  1.00  0.00     0.252 A 
ATOM     32  H5  UNL     1      16.880  28.118   9.925  1.00  0.00     0.188 HD
HETATM   33  N6  UNL     1      19.740  26.711   9.498  1.00  0.00    -0.154 N 
HETATM   34  C27 UNL     1      20.203  26.711  10.739  1.00  0.00     0.698 A 
ATOM     35  H6  UNL     1      20.326  26.310   8.766  1.00  0.00     0.188 HD
HETATM   36  N9  UNL     1      19.434  27.237  11.705  1.00  0.00    -0.022 N 
ATOM     37  H9  UNL     1      19.776  27.244  12.665  1.00  0.00     0.203 HD
BRANCH  31  38
HETATM   38  O1  UNL     1      18.109  27.185   7.821  1.00  0.00    -0.321 OA
BRANCH  38  39
HETATM   39  C23 UNL     1      18.641  26.200   6.959  1.00  0.00     0.183 C 
BRANCH  39  40
HETATM   40  C24 UNL     1      18.787  26.702   5.547  1.00  0.00     0.010 A 
HETATM   41  C25 UNL     1      17.615  26.791   4.637  1.00  0.00     0.007 A 
HETATM   42  C26 UNL     1      18.230  28.040   5.200  1.00  0.00     0.007 A 
ENDBRANCH  39  40
ENDBRANCH  38  39
ENDBRANCH  31  38
BRANCH  34  43
HETATM   43  N7  UNL     1      21.490  26.173  11.111  1.00  0.00    -0.214 N 
HETATM   44  C28 UNL     1      22.357  27.028  11.882  1.00  0.00     0.171 C 
HETATM   45  C29 UNL     1      23.789  26.623  11.897  1.00  0.00     0.292 C 
HETATM   46  N8  UNL     1      24.188  25.795  10.808  1.00  0.00     0.087 N 
HETATM   47  C30 UNL     1      24.470  26.487   9.583  1.00  0.00     0.310 C 
HETATM   48  C31 UNL     1      23.364  24.631  10.628  1.00  0.00     0.292 C 
HETATM   49  C32 UNL     1      21.902  24.857  10.752  1.00  0.00     0.171 C 
ENDBRANCH  34  43
ENDBRANCH  27  29
ENDBRANCH  26  27
ENDBRANCH   1  26
TORSDOF 13
ENDMDL
MODEL 4
REMARK VINA RESULT: -9.880715953      1.521      3.867
REMARK  13 active torsions:
REMARK  status: ('A' for Active; 'I' for Inactive)
REMARK    1  A    between atoms: C4_6  and  C5_7 
REMARK    2  A    between atoms: C5_7  and  C6_8 
REMARK    3  A    between atoms: C6_8  and  N3_9 
REMARK    4  A    between atoms: N3_9  and  C7_11 
REMARK    5  A    between atoms: C10_14  and  C11_15 
REMARK    6  A    between atoms: C18_22  and  C19_23 
REMARK    7  A    between atoms: C19_23  and  C20_24 
REMARK    8  A    between atoms: C20_24  and  N4_25 
REMARK    9  A    between atoms: N4_25  and  C21_27 
REMARK   10  A    between atoms: C22_30  and  O1_31 
REMARK   11  A    between atoms: O1_31  and  C23_32 
REMARK   12  A    between atoms: C23_32  and  C24_33 
REMARK   13  A    between atoms: C27_38  and  N7_39 
ROOT
HETATM    1  C19 UNL     1      18.554  30.496  12.766  1.00  0.00     0.086 C 
ENDROOT
BRANCH   1   2
HETATM    2  C18 UNL     1      18.499  30.999  14.177  1.00  0.00    -0.026 A 
HETATM    3  C7  UNL     1      19.376  30.459  15.099  1.00  0.00     0.034 A 
HETATM    4  C8  UNL     1      19.276  30.891  16.400  1.00  0.00     0.030 A 
HETATM    5  C9  UNL     1      18.326  31.831  16.741  1.00  0.00     0.014 A 
HETATM    6  C10 UNL     1      17.435  32.391  15.851  1.00  0.00    -0.029 A 
HETATM    7  C17 UNL     1      17.542  31.951  14.544  1.00  0.00     0.021 A 
BRANCH   3   8
HETATM    8  N3  UNL     1      20.340  29.504  14.744  1.00  0.00    -0.389 N 
ATOM      9  H3  UNL     1      20.022  28.536  14.719  1.00  0.00     0.159 HD
BRANCH   8  10
HETATM   10  C6  UNL     1      21.712  29.720  14.412  1.00  0.00     0.125 C 
BRANCH  10  11
HETATM   11  C5  UNL     1      22.077  31.049  13.886  1.00  0.00     0.064 C 
BRANCH  11  12
HETATM   12  C4  UNL     1      23.136  31.848  14.558  1.00  0.00     0.060 C 
HETATM   13  N2  UNL     1      22.782  32.614  15.627  1.00  0.00    -0.390 N 
HETATM   14  C3  UNL     1      22.461  32.153  16.899  1.00  0.00     0.152 C 
HETATM   15  C33 UNL     1      22.747  34.033  15.532  1.00  0.00     0.152 C 
HETATM   16  C2  UNL     1      21.930  33.283  17.803  1.00  0.00     0.291 C 
HETATM   17  N1  UNL     1      20.946  34.075  17.140  1.00  0.00     0.087 N 
HETATM   18  C1  UNL     1      20.756  35.288  17.932  1.00  0.00     0.310 C 
HETATM   19  C34 UNL     1      21.329  34.493  15.815  1.00  0.00     0.291 C 
ENDBRANCH  11  12
ENDBRANCH  10  11
ENDBRANCH   8  10
ENDBRANCH   3   8
BRANCH   6  20
HETATM   20  C11 UNL     1      16.414  33.368  16.246  1.00  0.00    -0.052 C 
HETATM   21  C12 UNL     1      15.614  33.208  17.289  1.00  0.00    -0.019 C 
HETATM   22  C13 UNL     1      14.585  34.193  17.682  1.00  0.00     0.028 C 
HETATM   23  C14 UNL     1      14.946  35.611  17.374  1.00  0.00     0.004 C 
HETATM   24  C15 UNL     1      16.211  35.747  16.581  1.00  0.00     0.005 C 
HETATM   25  C16 UNL     1      16.195  34.648  15.503  1.00  0.00     0.039 C 
ENDBRANCH   6  20
ENDBRANCH   1   2
BRANCH   1  26
HETATM   26  C20 UNL     1      17.504  29.411  12.694  1.00  0.00     0.083 C 
BRANCH  26  27
HETATM   27  N4  UNL     1      17.956  28.080  12.679  1.00  0.00    -0.204 N 
ATOM     28  H4  UNL     1      17.633  27.530  13.475  1.00  0.00     0.183 HD
BRANCH  27  29
HETATM   29  C21 UNL     1      18.677  27.434  11.881  1.00  0.00     0.699 A 
HETATM   30  N5  UNL     1      19.898  27.005  12.245  1.00  0.00    -0.154 N 
HETATM   31  C22 UNL     1      20.727  26.327  11.436  1.00  0.00     0.252 A 
ATOM     32  H5  UNL     1      20.213  27.208  13.194  1.00  0.00     0.188 HD
HETATM   33  N6  UNL     1      20.254  26.086  10.181  1.00  0.00    -0.154 N 
HETATM   34  C27 UNL     1      19.062  26.480   9.755  1.00  0.00     0.698 A 
ATOM     35  H6  UNL     1      20.851  25.574   9.532  1.00  0.00     0.188 HD
HETATM   36  N9  UNL     1      18.274  27.154  10.605  1.00  0.00    -0.022 N 
ATOM     37  H9  UNL     1      17.354  27.464  10.293  1.00  0.00     0.203 HD
BRANCH  31  38
HETATM   38  O1  UNL     1      21.984  25.881  11.812  1.00  0.00    -0.321 OA
BRANCH  38  39
HETATM   39  C23 UNL     1      22.752  25.137  10.887  1.00  0.00     0.183 C 
BRANCH  39  40
HETATM   40  C24 UNL     1      24.141  25.694  10.728  1.00  0.00     0.010 A 
HETATM   41  C25 UNL     1      24.383  27.160  10.690  1.00  0.00     0.007 A 
HETATM   42  C26 UNL     1      24.786  26.360  11.895  1.00  0.00     0.007 A 
ENDBRANCH  39  40
ENDBRANCH  38  39
ENDBRANCH  31  38
BRANCH  34  43
HETATM   43  N7  UNL     1      18.567  26.224   8.424  1.00  0.00    -0.214 N 
HETATM   44  C28 UNL     1      18.340  24.846   8.065  1.00  0.00     0.171 C 
HETATM   45  C29 UNL     1      18.229  24.586   6.604  1.00  0.00     0.292 C 
HETATM   46  N8  UNL     1      18.829  25.577   5.773  1.00  0.00     0.087 N 
HETATM   47  C30 UNL     1      20.251  25.463   5.613  1.00  0.00     0.310 C 
HETATM   48  C31 UNL     1      18.394  26.917   6.055  1.00  0.00     0.292 C 
HETATM   49  C32 UNL     1      18.296  27.268   7.494  1.00  0.00     0.171 C 
ENDBRANCH  34  43
ENDBRANCH  27  29
ENDBRANCH  26  27
ENDBRANCH   1  26
TORSDOF 13
ENDMDL
MODEL 5
REMARK VINA RESULT: -9.876975404      2.171      4.516
REMARK  13 active torsions:
REMARK  status: ('A' for Active; 'I' for Inactive)
REMARK    1  A    between atoms: C4_6  and  C5_7 
REMARK    2  A    between atoms: C5_7  and  C6_8 
REMARK    3  A    between atoms: C6_8  and  N3_9 
REMARK    4  A    between atoms: N3_9  and  C7_11 
REMARK    5  A    between atoms: C10_14  and  C11_15 
REMARK    6  A    between atoms: C18_22  and  C19_23 
REMARK    7  A    between atoms: C19_23  and  C20_24 
REMARK    8  A    between atoms: C20_24  and  N4_25 
REMARK    9  A    between atoms: N4_25  and  C21_27 
REMARK   10  A    between atoms: C22_30  and  O1_31 
REMARK   11  A    between atoms: O1_31  and  C23_32 
REMARK   12  A    between atoms: C23_32  and  C24_33 
REMARK   13  A    between atoms: C27_38  and  N7_39 
ROOT
HETATM    1  C19 UNL     1      20.121  31.099  16.669  1.00  0.00     0.086 C 
ENDROOT
BRANCH   1   2
HETATM    2  C18 UNL     1      19.236  31.982  15.842  1.00  0.00    -0.026 A 
HETATM    3  C7  UNL     1      19.515  32.113  14.495  1.00  0.00     0.034 A 
HETATM    4  C8  UNL     1      18.728  32.969  13.762  1.00  0.00     0.030 A 
HETATM    5  C9  UNL     1      17.703  33.656  14.378  1.00  0.00     0.014 A 
HETATM    6  C10 UNL     1      17.393  33.552  15.716  1.00  0.00    -0.029 A 
HETATM    7  C17 UNL     1      18.190  32.689  16.447  1.00  0.00     0.021 A 
BRANCH   3   8
HETATM    8  N3  UNL     1      20.560  31.410  13.877  1.00  0.00    -0.389 N 
ATOM      9  H3  UNL     1      20.332  30.476  13.539  1.00  0.00     0.159 HD
BRANCH   8  10
HETATM   10  C6  UNL     1      21.905  31.842  13.662  1.00  0.00     0.125 C 
BRANCH  10  11
HETATM   11  C5  UNL     1      22.842  31.715  14.794  1.00  0.00     0.064 C 
BRANCH  11  12
HETATM   12  C4  UNL     1      23.553  32.917  15.307  1.00  0.00     0.060 C 
HETATM   13  N2  UNL     1      22.952  33.651  16.283  1.00  0.00    -0.390 N 
HETATM   14  C3  UNL     1      22.812  33.287  17.618  1.00  0.00     0.152 C 
HETATM   15  C33 UNL     1      22.421  34.943  16.008  1.00  0.00     0.152 C 
HETATM   16  C2  UNL     1      21.918  34.275  18.393  1.00  0.00     0.291 C 
HETATM   17  N1  UNL     1      20.719  34.577  17.681  1.00  0.00     0.087 N 
HETATM   18  C1  UNL     1      20.115  35.745  18.318  1.00  0.00     0.310 C 
HETATM   19  C34 UNL     1      20.932  34.915  16.297  1.00  0.00     0.291 C 
ENDBRANCH  11  12
ENDBRANCH  10  11
ENDBRANCH   8  10
ENDBRANCH   3   8
BRANCH   6  20
HETATM   20  C11 UNL     1      16.315  34.318  16.353  1.00  0.00    -0.052 C 
HETATM   21  C12 UNL     1      15.410  33.778  17.154  1.00  0.00    -0.019 C 
HETATM   22  C13 UNL     1      14.325  34.553  17.791  1.00  0.00     0.028 C 
HETATM   23  C14 UNL     1      14.689  35.968  18.110  1.00  0.00     0.004 C 
HETATM   24  C15 UNL     1      16.029  36.375  17.577  1.00  0.00     0.005 C 
HETATM   25  C16 UNL     1      16.153  35.793  16.158  1.00  0.00     0.039 C 
ENDBRANCH   6  20
ENDBRANCH   1   2
BRANCH   1  26
HETATM   26  C20 UNL     1      19.414  29.764  16.713  1.00  0.00     0.083 C 
BRANCH  26  27
HETATM   27  N4  UNL     1      20.090  28.660  16.168  1.00  0.00    -0.204 N 
ATOM     28  H4  UNL     1      20.425  27.999  16.868  1.00  0.00     0.183 HD
BRANCH  27  29
HETATM   29  C21 UNL     1      20.364  28.325  14.990  1.00  0.00     0.699 A 
HETATM   30  N5  UNL     1      21.634  28.329  14.548  1.00  0.00    -0.154 N 
HETATM   31  C22 UNL     1      21.994  28.002  13.297  1.00  0.00     0.252 A 
ATOM     32  H5  UNL     1      22.368  28.598  15.204  1.00  0.00     0.188 HD
HETATM   33  N6  UNL     1      20.972  27.654  12.465  1.00  0.00    -0.154 N 
HETATM   34  C27 UNL     1      19.699  27.628  12.832  1.00  0.00     0.698 A 
ATOM     35  H6  UNL     1      21.201  27.398  11.505  1.00  0.00     0.188 HD
HETATM   36  N9  UNL     1      19.396  27.964  14.095  1.00  0.00    -0.022 N 
ATOM     37  H9  UNL     1      18.421  27.950  14.394  1.00  0.00     0.203 HD
BRANCH  31  38
HETATM   38  O1  UNL     1      23.303  28.002  12.842  1.00  0.00    -0.321 OA
BRANCH  38  39
HETATM   39  C23 UNL     1      23.548  27.840  11.459  1.00  0.00     0.183 C 
BRANCH  39  40
HETATM   40  C24 UNL     1      24.553  26.753  11.186  1.00  0.00     0.010 A 
HETATM   41  C25 UNL     1      24.136  25.333  11.063  1.00  0.00     0.007 A 
HETATM   42  C26 UNL     1      24.562  26.102   9.847  1.00  0.00     0.007 A 
ENDBRANCH  39  40
ENDBRANCH  38  39
ENDBRANCH  31  38
BRANCH  34  43
HETATM   43  N7  UNL     1      18.621  27.260  11.948  1.00  0.00    -0.214 N 
HETATM   44  C28 UNL     1      18.494  25.862  11.619  1.00  0.00     0.171 C 
HETATM   45  C29 UNL     1      17.662  25.570  10.420  1.00  0.00     0.292 C 
HETATM   46  N8  UNL     1      17.525  26.657   9.508  1.00  0.00     0.087 N 
HETATM   47  C30 UNL     1      18.628  26.846   8.609  1.00  0.00     0.310 C 
HETATM   48  C31 UNL     1      17.073  27.877  10.119  1.00  0.00     0.292 C 
HETATM   49  C32 UNL     1      17.704  28.214  11.419  1.00  0.00     0.171 C 
ENDBRANCH  34  43
ENDBRANCH  27  29
ENDBRANCH  26  27
ENDBRANCH   1  26
TORSDOF 13
ENDMDL
