MODEL 1
REMARK VINA RESULT: -9.122281158      0.000      0.000
REMARK  13 active torsions:
REMARK  status: ('A' for Active; 'I' for Inactive)
REMARK    1  A    between atoms: C6_6  and  C7_7 
REMARK       I    between atoms: C7_7  and  N1_9 
REMARK    2  A    between atoms: N1_9  and  C8_11 
REMARK    3  A    between atoms: C10_13  and  C11_14 
REMARK       I    between atoms: C11_14  and  N2_16 
REMARK    4  A    between atoms: N2_16  and  C12_18 
REMARK    5  A    between atoms: C12_18  and  C13_19 
REMARK    6  A    between atoms: C13_19  and  C14_20 
REMARK    7  A    between atoms: C14_20  and  C15_21 
REMARK    8  A    between atoms: N4_23  and  C16_24 
REMARK    9  A    between atoms: C16_24  and  C17_25 
REMARK   10  A    between atoms: C17_25  and  C18_26 
REMARK   11  A    between atoms: C18_26  and  N5_27 
REMARK   12  A    between atoms: C22_33  and  C23_34 
REMARK   13  A    between atoms: C24_35  and  C25_36 
REMARK       I    between atoms: C25_36  and  N7_38 
ROOT
HETATM    1  C7  UNL     1      16.726  34.819  15.646  1.00  0.00     0.257 C 
HETATM    2  O1  UNL     1      16.350  34.973  14.471  1.00  0.00    -0.267 OA
HETATM    3  N1  UNL     1      17.605  33.779  15.984  1.00  0.00    -0.308 N 
ATOM      4  H1  UNL     1      17.887  33.694  16.961  1.00  0.00     0.170 HD
ENDROOT
BRANCH   3   5
HETATM    5  C8  UNL     1      18.135  32.828  15.056  1.00  0.00     0.125 A 
HETATM    6  C9  UNL     1      19.410  32.622  14.600  1.00  0.00     0.086 A 
HETATM    7  C10 UNL     1      19.425  31.560  13.684  1.00  0.00     0.122 A 
HETATM    8  N4  UNL     1      18.145  31.155  13.617  1.00  0.00    -0.285 N 
HETATM    9  N6  UNL     1      17.392  31.895  14.418  1.00  0.00    -0.283 N 
ATOM     10  H6  UNL     1      16.386  31.777  14.538  1.00  0.00     0.189 HD
BRANCH   7  11
HETATM   11  C11 UNL     1      20.587  31.040  12.975  1.00  0.00     0.273 C 
HETATM   12  O2  UNL     1      20.843  31.350  11.783  1.00  0.00    -0.266 OA
HETATM   13  N2  UNL     1      21.489  30.137  13.643  1.00  0.00    -0.332 N 
ATOM     14  H2  UNL     1      21.258  29.925  14.614  1.00  0.00     0.168 HD
BRANCH  13  15
HETATM   15  C12 UNL     1      22.624  29.518  13.153  1.00  0.00     0.091 C 
BRANCH  15  16
HETATM   16  C13 UNL     1      22.853  28.213  12.591  1.00  0.00     0.018 C 
BRANCH  16  17
HETATM   17  C14 UNL     1      23.794  27.715  11.626  1.00  0.00     0.016 C 
BRANCH  17  18
HETATM   18  C15 UNL     1      24.638  26.517  11.833  1.00  0.00     0.100 C 
HETATM   19  N3  UNL     1      24.279  25.224  11.492  1.00  0.00    -0.115 NA
ENDBRANCH  17  18
ENDBRANCH  16  17
ENDBRANCH  15  16
ENDBRANCH  13  15
ENDBRANCH   7  11
BRANCH   8  20
HETATM   20  C16 UNL     1      17.609  30.090  12.813  1.00  0.00     0.151 C 
BRANCH  20  21
HETATM   21  C17 UNL     1      18.017  28.780  13.488  1.00  0.00     0.052 C 
BRANCH  21  22
HETATM   22  C18 UNL     1      17.874  27.650  12.514  1.00  0.00     0.273 C 
BRANCH  22  23
HETATM   23  N5  UNL     1      18.346  28.039  11.218  1.00  0.00     0.080 N 
HETATM   24  C19 UNL     1      19.729  27.797  10.990  1.00  0.00     0.309 C 
HETATM   25  C20 UNL     1      17.452  27.621  10.199  1.00  0.00     0.309 C 
ENDBRANCH  22  23
ENDBRANCH  21  22
ENDBRANCH  20  21
ENDBRANCH   8  20
ENDBRANCH   3   5
BRANCH   1  26
HETATM   26  C6  UNL     1      16.246  35.719  16.667  1.00  0.00     0.039 A 
HETATM   27  C4  UNL     1      15.178  35.433  17.468  1.00  0.00    -0.046 A 
HETATM   28  C3  UNL     1      14.736  36.304  18.439  1.00  0.00     0.015 A 
HETATM   29  C5  UNL     1      14.459  34.165  17.307  1.00  0.00     0.049 C 
HETATM   30  C2  UNL     1      15.394  37.486  18.598  1.00  0.00    -0.051 A 
HETATM   31  C1  UNL     1      14.943  38.445  19.653  1.00  0.00     0.049 C 
HETATM   32  C22 UNL     1      16.519  37.860  17.804  1.00  0.00    -0.029 A 
HETATM   33  C21 UNL     1      16.901  36.950  16.858  1.00  0.00     0.029 A 
BRANCH  32  34
HETATM   34  C23 UNL     1      17.062  39.160  17.997  1.00  0.00     0.017 C 
HETATM   35  C24 UNL     1      18.198  39.715  17.721  1.00  0.00     0.075 C 
BRANCH  35  36
HETATM   36  C25 UNL     1      19.419  39.318  17.128  1.00  0.00     0.243 C 
HETATM   37  O3  UNL     1      19.859  39.740  16.052  1.00  0.00    -0.268 OA
HETATM   38  N7  UNL     1      20.270  38.345  17.781  1.00  0.00    -0.348 N 
HETATM   39  C26 UNL     1      19.768  37.854  19.027  1.00  0.00     0.127 C 
HETATM   40  C30 UNL     1      21.473  38.068  17.031  1.00  0.00     0.136 C 
HETATM   41  C27 UNL     1      20.753  36.900  19.696  1.00  0.00     0.030 C 
HETATM   42  C28 UNL     1      20.450  35.463  19.256  1.00  0.00     0.075 C 
HETATM   43  S1  UNL     1      20.633  35.469  17.438  1.00  0.00    -0.167 SA
HETATM   44  C29 UNL     1      21.940  36.661  17.042  1.00  0.00     0.093 C 
ENDBRANCH  35  36
ENDBRANCH  32  34
ENDBRANCH   1  26
TORSDOF 13
ENDMDL
MODEL 2
REMARK VINA RESULT: -9.052175518      1.516      2.064
REMARK  13 active torsions:
REMARK  status: ('A' for Active; 'I' for Inactive)
REMARK    1  A    between atoms: C6_6  and  C7_7 
REMARK       I    between atoms: C7_7  and  N1_9 
REMARK    2  A    between atoms: N1_9  and  C8_11 
REMARK    3  A    between atoms: C10_13  and  C11_14 
REMARK       I    between atoms: C11_14  and  N2_16 
REMARK    4  A    between atoms: N2_16  and  C12_18 
REMARK    5  A    between atoms: C12_18  and  C13_19 
REMARK    6  A    between atoms: C13_19  and  C14_20 
REMARK    7  A    between atoms: C14_20  and  C15_21 
REMARK    8  A    between atoms: N4_23  and  C16_24 
REMARK    9  A    between atoms: C16_24  and  C17_25 
REMARK   10  A    between atoms: C17_25  and  C18_26 
REMARK   11  A    between atoms: C18_26  and  N5_27 
REMARK   12  A    between atoms: C22_33  and  C23_34 
REMARK   13  A    between atoms: C24_35  and  C25_36 
REMARK       I    between atoms: C25_36  and  N7_38 
ROOT
HETATM    1  C7  UNL     1      16.731  34.885  15.712  1.00  0.00     0.257 C 
HETATM    2  O1  UNL     1      16.352  35.052  14.540  1.00  0.00    -0.267 OA
HETATM    3  N1  UNL     1      17.608  33.839  16.037  1.00  0.00    -0.308 N 
ATOM      4  H1  UNL     1      17.892  33.744  17.012  1.00  0.00     0.170 HD
ENDROOT
BRANCH   3   5
HETATM    5  C8  UNL     1      18.131  32.895  15.099  1.00  0.00     0.125 A 
HETATM    6  C9  UNL     1      19.400  32.699  14.624  1.00  0.00     0.086 A 
HETATM    7  C10 UNL     1      19.411  31.640  13.705  1.00  0.00     0.122 A 
HETATM    8  N4  UNL     1      18.132  31.226  13.655  1.00  0.00    -0.285 N 
HETATM    9  N6  UNL     1      17.385  31.959  14.468  1.00  0.00    -0.283 N 
ATOM     10  H6  UNL     1      16.382  31.833  14.602  1.00  0.00     0.189 HD
BRANCH   7  11
HETATM   11  C11 UNL     1      20.566  31.130  12.978  1.00  0.00     0.273 C 
HETATM   12  O2  UNL     1      20.853  31.514  11.815  1.00  0.00    -0.266 OA
HETATM   13  N2  UNL     1      21.424  30.150  13.594  1.00  0.00    -0.332 N 
ATOM     14  H2  UNL     1      21.168  29.878  14.543  1.00  0.00     0.168 HD
BRANCH  13  15
HETATM   15  C12 UNL     1      22.545  29.526  13.078  1.00  0.00     0.091 C 
BRANCH  15  16
HETATM   16  C13 UNL     1      22.770  28.202  12.563  1.00  0.00     0.018 C 
BRANCH  16  17
HETATM   17  C14 UNL     1      23.688  27.671  11.593  1.00  0.00     0.016 C 
BRANCH  17  18
HETATM   18  C15 UNL     1      24.562  26.502  11.833  1.00  0.00     0.100 C 
HETATM   19  N3  UNL     1      24.265  25.200  11.464  1.00  0.00    -0.115 NA
ENDBRANCH  17  18
ENDBRANCH  16  17
ENDBRANCH  15  16
ENDBRANCH  13  15
ENDBRANCH   7  11
BRANCH   8  20
HETATM   20  C16 UNL     1      17.592  30.160  12.854  1.00  0.00     0.151 C 
BRANCH  20  21
HETATM   21  C17 UNL     1      18.063  28.851  13.489  1.00  0.00     0.052 C 
BRANCH  21  22
HETATM   22  C18 UNL     1      17.524  27.693  12.704  1.00  0.00     0.273 C 
BRANCH  22  23
HETATM   23  N5  UNL     1      18.594  26.937  12.123  1.00  0.00     0.080 N 
HETATM   24  C19 UNL     1      18.241  25.621  11.714  1.00  0.00     0.309 C 
HETATM   25  C20 UNL     1      19.326  27.716  11.189  1.00  0.00     0.309 C 
ENDBRANCH  22  23
ENDBRANCH  21  22
ENDBRANCH  20  21
ENDBRANCH   8  20
ENDBRANCH   3   5
BRANCH   1  26
HETATM   26  C6  UNL     1      16.258  35.778  16.743  1.00  0.00     0.039 A 
HETATM   27  C4  UNL     1      15.252  35.449  17.605  1.00  0.00    -0.046 A 
HETATM   28  C3  UNL     1      14.816  36.315  18.585  1.00  0.00     0.015 A 
HETATM   29  C5  UNL     1      14.598  34.142  17.505  1.00  0.00     0.049 C 
HETATM   30  C2  UNL     1      15.415  37.533  18.687  1.00  0.00    -0.051 A 
HETATM   31  C1  UNL     1      14.969  38.487  19.749  1.00  0.00     0.049 C 
HETATM   32  C22 UNL     1      16.472  37.952  17.826  1.00  0.00    -0.029 A 
HETATM   33  C21 UNL     1      16.853  37.047  16.876  1.00  0.00     0.029 A 
BRANCH  32  34
HETATM   34  C23 UNL     1      16.952  39.284  17.967  1.00  0.00     0.017 C 
HETATM   35  C24 UNL     1      18.113  39.806  18.200  1.00  0.00     0.075 C 
BRANCH  35  36
HETATM   36  C25 UNL     1      19.425  39.334  18.434  1.00  0.00     0.243 C 
HETATM   37  O3  UNL     1      19.828  38.845  19.496  1.00  0.00    -0.268 OA
HETATM   38  N7  UNL     1      20.425  39.397  17.388  1.00  0.00    -0.348 N 
HETATM   39  C26 UNL     1      19.964  39.959  16.156  1.00  0.00     0.127 C 
HETATM   40  C30 UNL     1      21.701  38.866  17.808  1.00  0.00     0.136 C 
HETATM   41  C27 UNL     1      21.043  39.915  15.077  1.00  0.00     0.030 C 
HETATM   42  C28 UNL     1      21.855  41.215  15.116  1.00  0.00     0.075 C 
HETATM   43  S1  UNL     1      22.571  41.285  16.796  1.00  0.00    -0.167 SA
HETATM   44  C29 UNL     1      22.901  39.575  17.301  1.00  0.00     0.093 C 
ENDBRANCH  35  36
ENDBRANCH  32  34
ENDBRANCH   1  26
TORSDOF 13
ENDMDL
MODEL 3
REMARK VINA RESULT: -9.030908551      1.435      2.847
REMARK  13 active torsions:
REMARK  status: ('A' for Active; 'I' for Inactive)
REMARK    1  A    between atoms: C6_6  and  C7_7 
REMARK       I    between atoms: C7_7  and  N1_9 
REMARK    2  A    between atoms: N1_9  and  C8_11 
REMARK    3  A    between atoms: C10_13  and  C11_14 
REMARK       I    between atoms: C11_14  and  N2_16 
REMARK    4  A    between atoms: N2_16  and  C12_18 
REMARK    5  A    between atoms: C12_18  and  C13_19 
REMARK    6  A    between atoms: C13_19  and  C14_20 
REMARK    7  A    between atoms: C14_20  and  C15_21 
REMARK    8  A    between atoms: N4_23  and  C16_24 
REMARK    9  A    between atoms: C16_24  and  C17_25 
REMARK   10  A    between atoms: C17_25  and  C18_26 
REMARK   11  A    between atoms: C18_26  and  N5_27 
REMARK   12  A    between atoms: C22_33  and  C23_34 
REMARK   13  A    between atoms: C24_35  and  C25_36 
REMARK       I    between atoms: C25_36  and  N7_38 
ROOT
HETATM    1  C7  UNL     1      16.621  34.897  15.616  1.00  0.00     0.257 C 
HETATM    2  O1  UNL     1      16.342  35.178  14.438  1.00  0.00    -0.267 OA
HETATM    3  N1  UNL     1      17.314  33.715  15.923  1.00  0.00    -0.308 N 
ATOM      4  H1  UNL     1      17.522  33.530  16.904  1.00  0.00     0.170 HD
ENDROOT
BRANCH   3   5
HETATM    5  C8  UNL     1      17.747  32.753  14.958  1.00  0.00     0.125 A 
HETATM    6  C9  UNL     1      17.193  31.568  14.551  1.00  0.00     0.086 A 
HETATM    7  C10 UNL     1      18.002  30.973  13.571  1.00  0.00     0.122 A 
HETATM    8  N4  UNL     1      19.028  31.828  13.418  1.00  0.00    -0.285 N 
HETATM    9  N6  UNL     1      18.879  32.867  14.228  1.00  0.00    -0.283 N 
ATOM     10  H6  UNL     1      19.531  33.648  14.291  1.00  0.00     0.189 HD
BRANCH   7  11
HETATM   11  C11 UNL     1      17.759  29.706  12.895  1.00  0.00     0.273 C 
HETATM   12  O2  UNL     1      17.491  29.638  11.667  1.00  0.00    -0.266 OA
HETATM   13  N2  UNL     1      17.822  28.473  13.638  1.00  0.00    -0.332 N 
ATOM     14  H2  UNL     1      18.060  28.569  14.626  1.00  0.00     0.168 HD
BRANCH  13  15
HETATM   15  C12 UNL     1      17.606  27.179  13.201  1.00  0.00     0.091 C 
BRANCH  15  16
HETATM   16  C13 UNL     1      18.155  26.418  12.111  1.00  0.00     0.018 C 
BRANCH  16  17
HETATM   17  C14 UNL     1      17.814  26.315  10.718  1.00  0.00     0.016 C 
BRANCH  17  18
HETATM   18  C15 UNL     1      18.603  25.553   9.726  1.00  0.00     0.100 C 
HETATM   19  N3  UNL     1      18.066  24.772   8.716  1.00  0.00    -0.115 NA
ENDBRANCH  17  18
ENDBRANCH  16  17
ENDBRANCH  15  16
ENDBRANCH  13  15
ENDBRANCH   7  11
BRANCH   8  20
HETATM   20  C16 UNL     1      20.153  31.690  12.532  1.00  0.00     0.151 C 
BRANCH  20  21
HETATM   21  C17 UNL     1      21.250  30.973  13.321  1.00  0.00     0.052 C 
BRANCH  21  22
HETATM   22  C18 UNL     1      21.776  29.825  12.514  1.00  0.00     0.273 C 
BRANCH  22  23
HETATM   23  N5  UNL     1      21.247  28.584  12.998  1.00  0.00     0.080 N 
HETATM   24  C19 UNL     1      21.726  27.427  12.324  1.00  0.00     0.309 C 
HETATM   25  C20 UNL     1      21.254  28.542  14.417  1.00  0.00     0.309 C 
ENDBRANCH  22  23
ENDBRANCH  21  22
ENDBRANCH  20  21
ENDBRANCH   8  20
ENDBRANCH   3   5
BRANCH   1  26
HETATM   26  C6  UNL     1      16.225  35.797  16.672  1.00  0.00     0.039 A 
HETATM   27  C4  UNL     1      15.176  35.543  17.510  1.00  0.00    -0.046 A 
HETATM   28  C3  UNL     1      14.814  36.413  18.514  1.00  0.00     0.015 A 
HETATM   29  C5  UNL     1      14.394  34.313  17.353  1.00  0.00     0.049 C 
HETATM   30  C2  UNL     1      15.532  37.560  18.669  1.00  0.00    -0.051 A 
HETATM   31  C1  UNL     1      15.168  38.516  19.759  1.00  0.00     0.049 C 
HETATM   32  C22 UNL     1      16.640  37.898  17.837  1.00  0.00    -0.029 A 
HETATM   33  C21 UNL     1      16.943  36.993  16.860  1.00  0.00     0.029 A 
BRANCH  32  34
HETATM   34  C23 UNL     1      17.251  39.169  18.033  1.00  0.00     0.017 C 
HETATM   35  C24 UNL     1      18.412  39.665  17.754  1.00  0.00     0.075 C 
BRANCH  35  36
HETATM   36  C25 UNL     1      19.608  39.209  17.154  1.00  0.00     0.243 C 
HETATM   37  O3  UNL     1      20.055  39.599  16.068  1.00  0.00    -0.268 OA
HETATM   38  N7  UNL     1      20.423  38.207  17.809  1.00  0.00    -0.348 N 
HETATM   39  C26 UNL     1      19.914  37.752  19.066  1.00  0.00     0.127 C 
HETATM   40  C30 UNL     1      21.605  37.870  17.050  1.00  0.00     0.136 C 
HETATM   41  C27 UNL     1      20.864  36.764  19.736  1.00  0.00     0.030 C 
HETATM   42  C28 UNL     1      20.494  35.337  19.315  1.00  0.00     0.075 C 
HETATM   43  S1  UNL     1      20.657  35.314  17.496  1.00  0.00    -0.167 SA
HETATM   44  C29 UNL     1      22.011  36.443  17.073  1.00  0.00     0.093 C 
ENDBRANCH  35  36
ENDBRANCH  32  34
ENDBRANCH   1  26
TORSDOF 13
ENDMDL
MODEL 4
REMARK VINA RESULT: -8.969721814      1.597      3.270
REMARK  13 active torsions:
REMARK  status: ('A' for Active; 'I' for Inactive)
REMARK    1  A    between atoms: C6_6  and  C7_7 
REMARK       I    between atoms: C7_7  and  N1_9 
REMARK    2  A    between atoms: N1_9  and  C8_11 
REMARK    3  A    between atoms: C10_13  and  C11_14 
REMARK       I    between atoms: C11_14  and  N2_16 
REMARK    4  A    between atoms: N2_16  and  C12_18 
REMARK    5  A    between atoms: C12_18  and  C13_19 
REMARK    6  A    between atoms: C13_19  and  C14_20 
REMARK    7  A    between atoms: C14_20  and  C15_21 
REMARK    8  A    between atoms: N4_23  and  C16_24 
REMARK    9  A    between atoms: C16_24  and  C17_25 
REMARK   10  A    between atoms: C17_25  and  C18_26 
REMARK   11  A    between atoms: C18_26  and  N5_27 
REMARK   12  A    between atoms: C22_33  and  C23_34 
REMARK   13  A    between atoms: C24_35  and  C25_36 
REMARK       I    between atoms: C25_36  and  N7_38 
ROOT
HETATM    1  C7  UNL     1      16.654  34.870  15.633  1.00  0.00     0.257 C 
HETATM    2  O1  UNL     1      16.339  35.067  14.447  1.00  0.00    -0.267 OA
HETATM    3  N1  UNL     1      17.418  33.749  15.992  1.00  0.00    -0.308 N 
ATOM      4  H1  UNL     1      17.654  33.632  16.977  1.00  0.00     0.170 HD
ENDROOT
BRANCH   3   5
HETATM    5  C8  UNL     1      17.889  32.758  15.074  1.00  0.00     0.125 A 
HETATM    6  C9  UNL     1      17.292  31.631  14.574  1.00  0.00     0.086 A 
HETATM    7  C10 UNL     1      18.168  30.973  13.699  1.00  0.00     0.122 A 
HETATM    8  N4  UNL     1      19.277  31.732  13.700  1.00  0.00    -0.285 N 
HETATM    9  N6  UNL     1      19.114  32.775  14.502  1.00  0.00    -0.283 N 
ATOM     10  H6  UNL     1      19.819  33.494  14.667  1.00  0.00     0.189 HD
BRANCH   7  11
HETATM   11  C11 UNL     1      17.906  29.738  12.972  1.00  0.00     0.273 C 
HETATM   12  O2  UNL     1      17.666  29.721  11.737  1.00  0.00    -0.266 OA
HETATM   13  N2  UNL     1      17.916  28.479  13.671  1.00  0.00    -0.332 N 
ATOM     14  H2  UNL     1      18.132  28.532  14.667  1.00  0.00     0.168 HD
BRANCH  13  15
HETATM   15  C12 UNL     1      17.674  27.208  13.183  1.00  0.00     0.091 C 
BRANCH  15  16
HETATM   16  C13 UNL     1      18.166  26.500  12.031  1.00  0.00     0.018 C 
BRANCH  16  17
HETATM   17  C14 UNL     1      19.456  26.433  11.400  1.00  0.00     0.016 C 
BRANCH  17  18
HETATM   18  C15 UNL     1      20.486  27.489  11.507  1.00  0.00     0.100 C 
HETATM   19  N3  UNL     1      21.070  27.911  12.690  1.00  0.00    -0.115 NA
ENDBRANCH  17  18
ENDBRANCH  16  17
ENDBRANCH  15  16
ENDBRANCH  13  15
ENDBRANCH   7  11
BRANCH   8  20
HETATM   20  C16 UNL     1      20.493  31.500  12.967  1.00  0.00     0.151 C 
BRANCH  20  21
HETATM   21  C17 UNL     1      21.599  32.264  13.696  1.00  0.00     0.052 C 
BRANCH  21  22
HETATM   22  C18 UNL     1      22.353  31.323  14.586  1.00  0.00     0.273 C 
BRANCH  22  23
HETATM   23  N5  UNL     1      22.818  32.002  15.759  1.00  0.00     0.080 N 
HETATM   24  C19 UNL     1      23.510  33.220  15.509  1.00  0.00     0.309 C 
HETATM   25  C20 UNL     1      21.817  32.036  16.764  1.00  0.00     0.309 C 
ENDBRANCH  22  23
ENDBRANCH  21  22
ENDBRANCH  20  21
ENDBRANCH   8  20
ENDBRANCH   3   5
BRANCH   1  26
HETATM   26  C6  UNL     1      16.225  35.806  16.645  1.00  0.00     0.039 A 
HETATM   27  C4  UNL     1      15.169  35.566  17.477  1.00  0.00    -0.046 A 
HETATM   28  C3  UNL     1      14.776  36.470  18.440  1.00  0.00     0.015 A 
HETATM   29  C5  UNL     1      14.413  34.316  17.362  1.00  0.00     0.049 C 
HETATM   30  C2  UNL     1      15.469  37.637  18.555  1.00  0.00    -0.051 A 
HETATM   31  C1  UNL     1      15.071  38.631  19.599  1.00  0.00     0.049 C 
HETATM   32  C22 UNL     1      16.583  37.962  17.725  1.00  0.00    -0.029 A 
HETATM   33  C21 UNL     1      16.917  37.022  16.791  1.00  0.00     0.029 A 
BRANCH  32  34
HETATM   34  C23 UNL     1      17.165  39.251  17.876  1.00  0.00     0.017 C 
HETATM   35  C24 UNL     1      18.321  39.759  17.591  1.00  0.00     0.075 C 
BRANCH  35  36
HETATM   36  C25 UNL     1      19.533  39.303  17.024  1.00  0.00     0.243 C 
HETATM   37  O3  UNL     1      20.002  39.681  15.943  1.00  0.00    -0.268 OA
HETATM   38  N7  UNL     1      20.339  38.315  17.712  1.00  0.00    -0.348 N 
HETATM   39  C26 UNL     1      19.804  37.875  18.963  1.00  0.00     0.127 C 
HETATM   40  C30 UNL     1      21.540  37.976  16.985  1.00  0.00     0.136 C 
HETATM   41  C27 UNL     1      20.745  36.902  19.668  1.00  0.00     0.030 C 
HETATM   42  C28 UNL     1      20.393  35.467  19.260  1.00  0.00     0.075 C 
HETATM   43  S1  UNL     1      20.599  35.420  17.445  1.00  0.00    -0.167 SA
HETATM   44  C29 UNL     1      21.955  36.552  17.037  1.00  0.00     0.093 C 
ENDBRANCH  35  36
ENDBRANCH  32  34
ENDBRANCH   1  26
TORSDOF 13
ENDMDL
MODEL 5
REMARK VINA RESULT: -8.963543296      2.176      3.774
REMARK  13 active torsions:
REMARK  status: ('A' for Active; 'I' for Inactive)
REMARK    1  A    between atoms: C6_6  and  C7_7 
REMARK       I    between atoms: C7_7  and  N1_9 
REMARK    2  A    between atoms: N1_9  and  C8_11 
REMARK    3  A    between atoms: C10_13  and  C11_14 
REMARK       I    between atoms: C11_14  and  N2_16 
REMARK    4  A    between atoms: N2_16  and  C12_18 
REMARK    5  A    between atoms: C12_18  and  C13_19 
REMARK    6  A    between atoms: C13_19  and  C14_20 
REMARK    7  A    between atoms: C14_20  and  C15_21 
REMARK    8  A    between atoms: N4_23  and  C16_24 
REMARK    9  A    between atoms: C16_24  and  C17_25 
REMARK   10  A    between atoms: C17_25  and  C18_26 
REMARK   11  A    between atoms: C18_26  and  N5_27 
REMARK   12  A    between atoms: C22_33  and  C23_34 
REMARK   13  A    between atoms: C24_35  and  C25_36 
REMARK       I    between atoms: C25_36  and  N7_38 
ROOT
HETATM    1  C7  UNL     1      17.698  33.726  16.471  1.00  0.00     0.257 C 
HETATM    2  O1  UNL     1      18.657  33.294  17.133  1.00  0.00    -0.267 OA
HETATM    3  N1  UNL     1      17.536  33.359  15.125  1.00  0.00    -0.308 N 
ATOM      4  H1  UNL     1      16.732  33.736  14.625  1.00  0.00     0.170 HD
ENDROOT
BRANCH   3   5
HETATM    5  C8  UNL     1      18.420  32.494  14.407  1.00  0.00     0.125 A 
HETATM    6  C9  UNL     1      18.182  31.353  13.688  1.00  0.00     0.086 A 
HETATM    7  C10 UNL     1      19.385  30.856  13.166  1.00  0.00     0.122 A 
HETATM    8  N4  UNL     1      20.320  31.723  13.592  1.00  0.00    -0.285 N 
HETATM    9  N6  UNL     1      19.756  32.679  14.317  1.00  0.00    -0.283 N 
ATOM     10  H6  UNL     1      20.263  33.452  14.748  1.00  0.00     0.189 HD
BRANCH   7  11
HETATM   11  C11 UNL     1      19.552  29.659  12.352  1.00  0.00     0.273 C 
HETATM   12  O2  UNL     1      18.760  29.362  11.421  1.00  0.00    -0.266 OA
HETATM   13  N2  UNL     1      20.656  28.768  12.606  1.00  0.00    -0.332 N 
ATOM     14  H2  UNL     1      21.285  29.053  13.357  1.00  0.00     0.168 HD
BRANCH  13  15
HETATM   15  C12 UNL     1      20.982  27.582  11.975  1.00  0.00     0.091 C 
BRANCH  15  16
HETATM   16  C13 UNL     1      22.063  27.212  11.101  1.00  0.00     0.018 C 
BRANCH  16  17
HETATM   17  C14 UNL     1      23.428  27.650  10.991  1.00  0.00     0.016 C 
BRANCH  17  18
HETATM   18  C15 UNL     1      24.590  26.866  11.463  1.00  0.00     0.100 C 
HETATM   19  N3  UNL     1      24.551  25.531  11.830  1.00  0.00    -0.115 NA
ENDBRANCH  17  18
ENDBRANCH  16  17
ENDBRANCH  15  16
ENDBRANCH  13  15
ENDBRANCH   7  11
BRANCH   8  20
HETATM   20  C16 UNL     1      21.736  31.672  13.341  1.00  0.00     0.151 C 
BRANCH  20  21
HETATM   21  C17 UNL     1      22.420  31.542  14.702  1.00  0.00     0.052 C 
BRANCH  21  22
HETATM   22  C18 UNL     1      23.171  32.804  15.006  1.00  0.00     0.273 C 
BRANCH  22  23
HETATM   23  N5  UNL     1      22.771  33.334  16.275  1.00  0.00     0.080 N 
HETATM   24  C19 UNL     1      22.138  34.607  16.218  1.00  0.00     0.309 C 
HETATM   25  C20 UNL     1      22.135  32.344  17.069  1.00  0.00     0.309 C 
ENDBRANCH  22  23
ENDBRANCH  21  22
ENDBRANCH  20  21
ENDBRANCH   8  20
ENDBRANCH   3   5
BRANCH   1  26
HETATM   26  C6  UNL     1      16.747  34.613  17.096  1.00  0.00     0.039 A 
HETATM   27  C4  UNL     1      15.432  34.288  17.271  1.00  0.00    -0.046 A 
HETATM   28  C3  UNL     1      14.539  35.148  17.873  1.00  0.00     0.015 A 
HETATM   29  C5  UNL     1      14.930  32.991  16.809  1.00  0.00     0.049 C 
HETATM   30  C2  UNL     1      14.994  36.357  18.304  1.00  0.00    -0.051 A 
HETATM   31  C1  UNL     1      14.049  37.304  18.971  1.00  0.00     0.049 C 
HETATM   32  C22 UNL     1      16.351  36.771  18.160  1.00  0.00    -0.029 A 
HETATM   33  C21 UNL     1      17.181  35.872  17.552  1.00  0.00     0.029 A 
BRANCH  32  34
HETATM   34  C23 UNL     1      16.685  38.095  18.562  1.00  0.00     0.017 C 
HETATM   35  C24 UNL     1      17.797  38.721  18.773  1.00  0.00     0.075 C 
BRANCH  35  36
HETATM   36  C25 UNL     1      19.176  38.413  18.725  1.00  0.00     0.243 C 
HETATM   37  O3  UNL     1      19.777  37.704  19.541  1.00  0.00    -0.268 OA
HETATM   38  N7  UNL     1      20.009  38.936  17.662  1.00  0.00    -0.348 N 
HETATM   39  C26 UNL     1      19.320  39.756  16.713  1.00  0.00     0.127 C 
HETATM   40  C30 UNL     1      21.385  38.513  17.775  1.00  0.00     0.136 C 
HETATM   41  C27 UNL     1      20.239  40.200  15.578  1.00  0.00     0.030 C 
HETATM   42  C28 UNL     1      20.885  41.542  15.943  1.00  0.00     0.075 C 
HETATM   43  S1  UNL     1      21.810  41.226  17.486  1.00  0.00    -0.167 SA
HETATM   44  C29 UNL     1      22.410  39.518  17.403  1.00  0.00     0.093 C 
ENDBRANCH  35  36
ENDBRANCH  32  34
ENDBRANCH   1  26
TORSDOF 13
ENDMDL
