MODEL 1
REMARK VINA RESULT: -8.696682234      0.000      0.000
REMARK  13 active torsions:
REMARK  status: ('A' for Active; 'I' for Inactive)
REMARK    1  A    between atoms: O1_2  and  C2_3 
REMARK    2  A    between atoms: C6_7  and  C7_8 
REMARK       I    between atoms: C7_8  and  N1_10 
REMARK    3  A    between atoms: N1_10  and  C8_12 
REMARK    4  A    between atoms: C10_14  and  C11_15 
REMARK       I    between atoms: C11_15  and  N2_17 
REMARK    5  A    between atoms: N2_17  and  C12_19 
REMARK    6  A    between atoms: C14_21  and  C15_22 
REMARK       I    between atoms: C15_22  and  N3_24 
REMARK    7  A    between atoms: N3_24  and  C16_26 
REMARK    8  A    between atoms: C16_26  and  C17_27 
REMARK    9  A    between atoms: C17_27  and  C18_28 
REMARK   10  A    between atoms: C18_28  and  N4_29 
REMARK   11  A    between atoms: N4_29  and  C20_31 
REMARK   12  A    between atoms: C20_31  and  C21_32 
REMARK   13  A    between atoms: C21_32  and  N5_33 
ROOT
HETATM    1  C11 UNL     1      21.867  30.236  13.402  1.00  0.00     0.273 C 
HETATM    2  O3  UNL     1      21.638  30.549  12.192  1.00  0.00    -0.266 OA
HETATM    3  N2  UNL     1      22.365  28.957  13.648  1.00  0.00    -0.320 N 
ATOM      4  H2  UNL     1      22.531  28.687  14.618  1.00  0.00     0.169 HD
ENDROOT
BRANCH   1   5
HETATM    5  C10 UNL     1      21.597  31.205  14.437  1.00  0.00     0.105 A 
HETATM    6  C9  UNL     1      20.308  31.390  15.018  1.00  0.00     0.067 A 
HETATM    7  C8  UNL     1      20.368  32.399  15.906  1.00  0.00     0.059 A 
HETATM    8  C27 UNL     1      21.697  32.847  15.880  1.00  0.00     0.035 A 
HETATM    9  N7  UNL     1      22.409  32.110  14.990  1.00  0.00    -0.349 N 
HETATM   10  C28 UNL     1      22.198  33.948  16.718  1.00  0.00     0.070 C 
HETATM   11  C26 UNL     1      23.813  32.374  14.742  1.00  0.00     0.156 C 
BRANCH   7  12
HETATM   12  N1  UNL     1      19.335  32.956  16.687  1.00  0.00    -0.321 N 
HETATM   13  C7  UNL     1      18.274  33.680  16.152  1.00  0.00     0.256 C 
HETATM   14  O2  UNL     1      18.205  33.834  14.891  1.00  0.00    -0.267 OA
ATOM     15  H1  UNL     1      19.366  32.821  17.697  1.00  0.00     0.169 HD
BRANCH  13  16
HETATM   16  C6  UNL     1      17.220  34.272  16.994  1.00  0.00     0.038 A 
HETATM   17  C4  UNL     1      15.965  33.759  17.141  1.00  0.00    -0.044 A 
HETATM   18  C3  UNL     1      15.024  34.457  17.927  1.00  0.00     0.045 A 
HETATM   19  C5  UNL     1      15.536  32.472  16.550  1.00  0.00     0.049 C 
HETATM   20  C2  UNL     1      15.292  35.632  18.563  1.00  0.00     0.074 A 
HETATM   21  C30 UNL     1      16.581  36.155  18.411  1.00  0.00    -0.028 A 
HETATM   22  C29 UNL     1      17.502  35.482  17.649  1.00  0.00     0.027 A 
HETATM   23  C31 UNL     1      16.899  37.462  19.082  1.00  0.00     0.051 C 
BRANCH  20  24
HETATM   24  O1  UNL     1      14.384  36.337  19.343  1.00  0.00    -0.355 OA
HETATM   25  C1  UNL     1      13.466  37.214  18.720  1.00  0.00     0.210 C 
ENDBRANCH  20  24
ENDBRANCH  13  16
ENDBRANCH   7  12
ENDBRANCH   1   5
BRANCH   3  26
HETATM   26  C12 UNL     1      22.662  27.993  12.620  1.00  0.00     0.053 A 
HETATM   27  C13 UNL     1      21.719  27.194  12.034  1.00  0.00     0.066 A 
HETATM   28  C14 UNL     1      22.359  26.370  11.141  1.00  0.00     0.104 A 
HETATM   29  N6  UNL     1      23.669  26.648  11.170  1.00  0.00    -0.354 N 
HETATM   30  C24 UNL     1      24.659  25.976  10.353  1.00  0.00     0.156 C 
HETATM   31  C25 UNL     1      23.849  27.644  12.077  1.00  0.00     0.120 A 
BRANCH  28  32
HETATM   32  C15 UNL     1      21.695  25.370  10.279  1.00  0.00     0.268 C 
HETATM   33  O4  UNL     1      21.101  24.417  10.829  1.00  0.00    -0.266 OA
HETATM   34  N3  UNL     1      21.739  25.491   8.865  1.00  0.00    -0.355 N 
ATOM     35  H3  UNL     1      22.246  26.284   8.470  1.00  0.00     0.162 HD
BRANCH  34  36
HETATM   36  C16 UNL     1      21.121  24.576   7.959  1.00  0.00     0.128 C 
BRANCH  36  37
HETATM   37  C17 UNL     1      19.897  25.143   7.250  1.00  0.00     0.064 C 
BRANCH  37  38
HETATM   38  C18 UNL     1      18.715  25.117   8.140  1.00  0.00     0.064 C 
BRANCH  38  39
HETATM   39  N4  UNL     1      18.365  26.232   8.899  1.00  0.00    -0.377 N 
HETATM   40  C19 UNL     1      18.322  27.422   8.089  1.00  0.00     0.154 C 
BRANCH  39  41
HETATM   41  C20 UNL     1      17.553  26.213  10.023  1.00  0.00     0.082 C 
BRANCH  41  42
HETATM   42  C21 UNL     1      18.231  26.396  11.321  1.00  0.00     0.160 C 
BRANCH  42  43
HETATM   43  N5  UNL     1      17.800  27.596  12.026  1.00  0.00    -0.416 N 
HETATM   44  C22 UNL     1      18.451  28.797  11.633  1.00  0.00     0.143 C 
HETATM   45  C23 UNL     1      17.571  27.417  13.418  1.00  0.00     0.143 C 
ENDBRANCH  42  43
ENDBRANCH  41  42
ENDBRANCH  39  41
ENDBRANCH  38  39
ENDBRANCH  37  38
ENDBRANCH  36  37
ENDBRANCH  34  36
ENDBRANCH  28  32
ENDBRANCH   3  26
TORSDOF 13
ENDMDL
MODEL 2
REMARK VINA RESULT: -8.684647761      1.291      2.092
REMARK  13 active torsions:
REMARK  status: ('A' for Active; 'I' for Inactive)
REMARK    1  A    between atoms: O1_2  and  C2_3 
REMARK    2  A    between atoms: C6_7  and  C7_8 
REMARK       I    between atoms: C7_8  and  N1_10 
REMARK    3  A    between atoms: N1_10  and  C8_12 
REMARK    4  A    between atoms: C10_14  and  C11_15 
REMARK       I    between atoms: C11_15  and  N2_17 
REMARK    5  A    between atoms: N2_17  and  C12_19 
REMARK    6  A    between atoms: C14_21  and  C15_22 
REMARK       I    between atoms: C15_22  and  N3_24 
REMARK    7  A    between atoms: N3_24  and  C16_26 
REMARK    8  A    between atoms: C16_26  and  C17_27 
REMARK    9  A    between atoms: C17_27  and  C18_28 
REMARK   10  A    between atoms: C18_28  and  N4_29 
REMARK   11  A    between atoms: N4_29  and  C20_31 
REMARK   12  A    between atoms: C20_31  and  C21_32 
REMARK   13  A    between atoms: C21_32  and  N5_33 
ROOT
HETATM    1  C11 UNL     1      21.740  30.870  13.290  1.00  0.00     0.273 C 
HETATM    2  O3  UNL     1      21.356  31.016  12.087  1.00  0.00    -0.266 OA
HETATM    3  N2  UNL     1      22.263  29.628  13.647  1.00  0.00    -0.320 N 
ATOM      4  H2  UNL     1      22.554  29.492  14.616  1.00  0.00     0.169 HD
ENDROOT
BRANCH   1   5
HETATM    5  C10 UNL     1      21.610  31.979  14.205  1.00  0.00     0.105 A 
HETATM    6  C9  UNL     1      20.361  32.585  14.527  1.00  0.00     0.067 A 
HETATM    7  C8  UNL     1      20.577  33.623  15.356  1.00  0.00     0.059 A 
HETATM    8  C27 UNL     1      21.965  33.666  15.552  1.00  0.00     0.035 A 
HETATM    9  N7  UNL     1      22.557  32.668  14.849  1.00  0.00    -0.349 N 
HETATM   10  C28 UNL     1      22.631  34.660  16.408  1.00  0.00     0.070 C 
HETATM   11  C26 UNL     1      23.996  32.491  14.851  1.00  0.00     0.156 C 
BRANCH   7  12
HETATM   12  N1  UNL     1      19.647  34.530  15.902  1.00  0.00    -0.321 N 
HETATM   13  C7  UNL     1      18.712  34.182  16.871  1.00  0.00     0.256 C 
HETATM   14  O2  UNL     1      18.702  32.991  17.319  1.00  0.00    -0.267 OA
ATOM     15  H1  UNL     1      19.659  35.494  15.567  1.00  0.00     0.169 HD
BRANCH  13  16
HETATM   16  C6  UNL     1      17.735  35.146  17.407  1.00  0.00     0.038 A 
HETATM   17  C4  UNL     1      18.060  36.310  18.038  1.00  0.00    -0.044 A 
HETATM   18  C3  UNL     1      17.030  37.119  18.564  1.00  0.00     0.045 A 
HETATM   19  C5  UNL     1      19.448  36.807  18.169  1.00  0.00     0.049 C 
HETATM   20  C2  UNL     1      15.705  36.807  18.481  1.00  0.00     0.074 A 
HETATM   21  C30 UNL     1      15.376  35.610  17.832  1.00  0.00    -0.028 A 
HETATM   22  C29 UNL     1      16.372  34.820  17.317  1.00  0.00     0.027 A 
HETATM   23  C31 UNL     1      13.924  35.229  17.745  1.00  0.00     0.051 C 
BRANCH  20  24
HETATM   24  O1  UNL     1      14.674  37.585  18.989  1.00  0.00    -0.355 OA
HETATM   25  C1  UNL     1      14.955  38.550  19.983  1.00  0.00     0.210 C 
ENDBRANCH  20  24
ENDBRANCH  13  16
ENDBRANCH   7  12
ENDBRANCH   1   5
BRANCH   3  26
HETATM   26  C12 UNL     1      22.420  28.524  12.735  1.00  0.00     0.053 A 
HETATM   27  C13 UNL     1      21.372  27.829  12.198  1.00  0.00     0.066 A 
HETATM   28  C14 UNL     1      21.888  26.822  11.418  1.00  0.00     0.104 A 
HETATM   29  N6  UNL     1      23.224  26.888  11.470  1.00  0.00    -0.354 N 
HETATM   30  C24 UNL     1      24.109  25.982  10.766  1.00  0.00     0.156 C 
HETATM   31  C25 UNL     1      23.545  27.933  12.277  1.00  0.00     0.120 A 
BRANCH  28  32
HETATM   32  C15 UNL     1      21.088  25.855  10.638  1.00  0.00     0.268 C 
HETATM   33  O4  UNL     1      20.961  24.695  11.088  1.00  0.00    -0.266 OA
HETATM   34  N3  UNL     1      20.486  26.238   9.410  1.00  0.00    -0.355 N 
ATOM     35  H3  UNL     1      20.630  27.195   9.088  1.00  0.00     0.162 HD
BRANCH  34  36
HETATM   36  C16 UNL     1      19.693  25.372   8.597  1.00  0.00     0.128 C 
BRANCH  36  37
HETATM   37  C17 UNL     1      18.212  25.380   8.952  1.00  0.00     0.064 C 
BRANCH  37  38
HETATM   38  C18 UNL     1      17.745  26.756   9.232  1.00  0.00     0.064 C 
BRANCH  38  39
HETATM   39  N4  UNL     1      17.613  27.214  10.541  1.00  0.00    -0.377 N 
HETATM   40  C19 UNL     1      17.616  26.122  11.480  1.00  0.00     0.154 C 
BRANCH  39  41
HETATM   41  C20 UNL     1      18.061  28.440  11.009  1.00  0.00     0.082 C 
BRANCH  41  42
HETATM   42  C21 UNL     1      17.210  29.106  12.015  1.00  0.00     0.160 C 
BRANCH  42  43
HETATM   43  N5  UNL     1      17.968  29.644  13.137  1.00  0.00    -0.416 N 
HETATM   44  C22 UNL     1      18.442  28.679  14.067  1.00  0.00     0.143 C 
HETATM   45  C23 UNL     1      17.450  30.854  13.677  1.00  0.00     0.143 C 
ENDBRANCH  42  43
ENDBRANCH  41  42
ENDBRANCH  39  41
ENDBRANCH  38  39
ENDBRANCH  37  38
ENDBRANCH  36  37
ENDBRANCH  34  36
ENDBRANCH  28  32
ENDBRANCH   3  26
TORSDOF 13
ENDMDL
MODEL 3
REMARK VINA RESULT: -8.449583462      1.662      3.701
REMARK  13 active torsions:
REMARK  status: ('A' for Active; 'I' for Inactive)
REMARK    1  A    between atoms: O1_2  and  C2_3 
REMARK    2  A    between atoms: C6_7  and  C7_8 
REMARK       I    between atoms: C7_8  and  N1_10 
REMARK    3  A    between atoms: N1_10  and  C8_12 
REMARK    4  A    between atoms: C10_14  and  C11_15 
REMARK       I    between atoms: C11_15  and  N2_17 
REMARK    5  A    between atoms: N2_17  and  C12_19 
REMARK    6  A    between atoms: C14_21  and  C15_22 
REMARK       I    between atoms: C15_22  and  N3_24 
REMARK    7  A    between atoms: N3_24  and  C16_26 
REMARK    8  A    between atoms: C16_26  and  C17_27 
REMARK    9  A    between atoms: C17_27  and  C18_28 
REMARK   10  A    between atoms: C18_28  and  N4_29 
REMARK   11  A    between atoms: N4_29  and  C20_31 
REMARK   12  A    between atoms: C20_31  and  C21_32 
REMARK   13  A    between atoms: C21_32  and  N5_33 
ROOT
HETATM    1  C11 UNL     1      19.334  31.095  13.095  1.00  0.00     0.273 C 
HETATM    2  O3  UNL     1      19.797  31.306  11.930  1.00  0.00    -0.266 OA
HETATM    3  N2  UNL     1      18.656  29.895  13.306  1.00  0.00    -0.320 N 
ATOM      4  H2  UNL     1      18.261  29.725  14.231  1.00  0.00     0.169 HD
ENDROOT
BRANCH   1   5
HETATM    5  C10 UNL     1      19.530  32.096  14.116  1.00  0.00     0.105 A 
HETATM    6  C9  UNL     1      18.456  32.708  14.827  1.00  0.00     0.067 A 
HETATM    7  C8  UNL     1      18.956  33.635  15.665  1.00  0.00     0.059 A 
HETATM    8  C27 UNL     1      20.346  33.604  15.477  1.00  0.00     0.035 A 
HETATM    9  N7  UNL     1      20.658  32.670  14.542  1.00  0.00    -0.349 N 
HETATM   10  C28 UNL     1      21.282  34.467  16.213  1.00  0.00     0.070 C 
HETATM   11  C26 UNL     1      22.030  32.441  14.132  1.00  0.00     0.156 C 
BRANCH   7  12
HETATM   12  N1  UNL     1      18.270  34.508  16.533  1.00  0.00    -0.321 N 
HETATM   13  C7  UNL     1      17.132  35.219  16.164  1.00  0.00     0.256 C 
HETATM   14  O2  UNL     1      16.659  35.063  14.994  1.00  0.00    -0.267 OA
ATOM     15  H1  UNL     1      18.626  34.626  17.481  1.00  0.00     0.169 HD
BRANCH  13  16
HETATM   16  C6  UNL     1      16.448  36.144  17.084  1.00  0.00     0.038 A 
HETATM   17  C4  UNL     1      15.402  35.805  17.890  1.00  0.00    -0.044 A 
HETATM   18  C3  UNL     1      14.791  36.801  18.681  1.00  0.00     0.045 A 
HETATM   19  C5  UNL     1      14.888  34.423  18.020  1.00  0.00     0.049 C 
HETATM   20  C2  UNL     1      15.185  38.106  18.693  1.00  0.00     0.074 A 
HETATM   21  C30 UNL     1      16.260  38.451  17.864  1.00  0.00    -0.028 A 
HETATM   22  C29 UNL     1      16.860  37.488  17.094  1.00  0.00     0.027 A 
HETATM   23  C31 UNL     1      16.702  39.887  17.839  1.00  0.00     0.051 C 
BRANCH  20  24
HETATM   24  O1  UNL     1      14.601  39.104  19.461  1.00  0.00    -0.355 OA
HETATM   25  C1  UNL     1      14.935  39.213  20.831  1.00  0.00     0.210 C 
ENDBRANCH  20  24
ENDBRANCH  13  16
ENDBRANCH   7  12
ENDBRANCH   1   5
BRANCH   3  26
HETATM   26  C12 UNL     1      18.479  28.880  12.300  1.00  0.00     0.053 A 
HETATM   27  C13 UNL     1      19.314  27.808  12.148  1.00  0.00     0.066 A 
HETATM   28  C14 UNL     1      18.874  27.078  11.070  1.00  0.00     0.104 A 
HETATM   29  N6  UNL     1      17.792  27.682  10.562  1.00  0.00    -0.354 N 
HETATM   30  C24 UNL     1      17.053  27.193   9.416  1.00  0.00     0.156 C 
HETATM   31  C25 UNL     1      17.553  28.784  11.321  1.00  0.00     0.120 A 
BRANCH  28  32
HETATM   32  C15 UNL     1      19.487  25.826  10.583  1.00  0.00     0.268 C 
HETATM   33  O4  UNL     1      19.133  24.749  11.112  1.00  0.00    -0.266 OA
HETATM   34  N3  UNL     1      20.455  25.850   9.543  1.00  0.00    -0.355 N 
ATOM     35  H3  UNL     1      20.712  26.757   9.153  1.00  0.00     0.162 HD
BRANCH  34  36
HETATM   36  C16 UNL     1      21.091  24.689   9.007  1.00  0.00     0.128 C 
BRANCH  36  37
HETATM   37  C17 UNL     1      22.589  24.852   8.790  1.00  0.00     0.064 C 
BRANCH  37  38
HETATM   38  C18 UNL     1      23.326  24.692  10.064  1.00  0.00     0.064 C 
BRANCH  38  39
HETATM   39  N4  UNL     1      24.177  25.692  10.530  1.00  0.00    -0.377 N 
HETATM   40  C19 UNL     1      24.645  26.524   9.451  1.00  0.00     0.154 C 
BRANCH  39  41
HETATM   41  C20 UNL     1      24.113  26.277  11.786  1.00  0.00     0.082 C 
BRANCH  41  42
HETATM   42  C21 UNL     1      22.827  26.900  12.152  1.00  0.00     0.160 C 
BRANCH  42  43
HETATM   43  N5  UNL     1      22.908  28.351  12.267  1.00  0.00    -0.416 N 
HETATM   44  C22 UNL     1      22.438  28.888  13.496  1.00  0.00     0.143 C 
HETATM   45  C23 UNL     1      22.564  29.061  11.084  1.00  0.00     0.143 C 
ENDBRANCH  42  43
ENDBRANCH  41  42
ENDBRANCH  39  41
ENDBRANCH  38  39
ENDBRANCH  37  38
ENDBRANCH  36  37
ENDBRANCH  34  36
ENDBRANCH  28  32
ENDBRANCH   3  26
TORSDOF 13
ENDMDL
MODEL 4
REMARK VINA RESULT: -8.408897676      1.630      3.061
REMARK  13 active torsions:
REMARK  status: ('A' for Active; 'I' for Inactive)
REMARK    1  A    between atoms: O1_2  and  C2_3 
REMARK    2  A    between atoms: C6_7  and  C7_8 
REMARK       I    between atoms: C7_8  and  N1_10 
REMARK    3  A    between atoms: N1_10  and  C8_12 
REMARK    4  A    between atoms: C10_14  and  C11_15 
REMARK       I    between atoms: C11_15  and  N2_17 
REMARK    5  A    between atoms: N2_17  and  C12_19 
REMARK    6  A    between atoms: C14_21  and  C15_22 
REMARK       I    between atoms: C15_22  and  N3_24 
REMARK    7  A    between atoms: N3_24  and  C16_26 
REMARK    8  A    between atoms: C16_26  and  C17_27 
REMARK    9  A    between atoms: C17_27  and  C18_28 
REMARK   10  A    between atoms: C18_28  and  N4_29 
REMARK   11  A    between atoms: N4_29  and  C20_31 
REMARK   12  A    between atoms: C20_31  and  C21_32 
REMARK   13  A    between atoms: C21_32  and  N5_33 
ROOT
HETATM    1  C11 UNL     1      21.103  30.730  13.344  1.00  0.00     0.273 C 
HETATM    2  O3  UNL     1      20.955  30.941  12.100  1.00  0.00    -0.266 OA
HETATM    3  N2  UNL     1      21.274  29.407  13.752  1.00  0.00    -0.320 N 
ATOM      4  H2  UNL     1      21.372  29.223  14.751  1.00  0.00     0.169 HD
ENDROOT
BRANCH   1   5
HETATM    5  C10 UNL     1      21.082  31.852  14.251  1.00  0.00     0.105 A 
HETATM    6  C9  UNL     1      19.889  32.544  14.611  1.00  0.00     0.067 A 
HETATM    7  C8  UNL     1      20.204  33.572  15.421  1.00  0.00     0.059 A 
HETATM    8  C27 UNL     1      21.599  33.523  15.567  1.00  0.00     0.035 A 
HETATM    9  N7  UNL     1      22.096  32.480  14.853  1.00  0.00    -0.349 N 
HETATM   10  C28 UNL     1      22.361  34.476  16.388  1.00  0.00     0.070 C 
HETATM   11  C26 UNL     1      23.519  32.207  14.805  1.00  0.00     0.156 C 
BRANCH   7  12
HETATM   12  N1  UNL     1      19.358  34.545  15.990  1.00  0.00    -0.321 N 
HETATM   13  C7  UNL     1      18.437  34.268  16.995  1.00  0.00     0.256 C 
HETATM   14  O2  UNL     1      18.362  33.084  17.454  1.00  0.00    -0.267 OA
ATOM     15  H1  UNL     1      19.424  35.503  15.646  1.00  0.00     0.169 HD
BRANCH  13  16
HETATM   16  C6  UNL     1      17.548  35.300  17.555  1.00  0.00     0.038 A 
HETATM   17  C4  UNL     1      17.973  36.445  18.162  1.00  0.00    -0.044 A 
HETATM   18  C3  UNL     1      17.020  37.326  18.715  1.00  0.00     0.045 A 
HETATM   19  C5  UNL     1      19.395  36.848  18.238  1.00  0.00     0.049 C 
HETATM   20  C2  UNL     1      15.675  37.104  18.683  1.00  0.00     0.074 A 
HETATM   21  C30 UNL     1      15.242  35.927  18.059  1.00  0.00    -0.028 A 
HETATM   22  C29 UNL     1      16.163  35.067  17.518  1.00  0.00     0.027 A 
HETATM   23  C31 UNL     1      13.766  35.644  18.029  1.00  0.00     0.051 C 
BRANCH  20  24
HETATM   24  O1  UNL     1      14.718  37.954  19.220  1.00  0.00    -0.355 OA
HETATM   25  C1  UNL     1      15.074  38.826  20.275  1.00  0.00     0.210 C 
ENDBRANCH  20  24
ENDBRANCH  13  16
ENDBRANCH   7  12
ENDBRANCH   1   5
BRANCH   3  26
HETATM   26  C12 UNL     1      21.322  28.284  12.852  1.00  0.00     0.053 A 
HETATM   27  C13 UNL     1      22.476  27.802  12.299  1.00  0.00     0.066 A 
HETATM   28  C14 UNL     1      22.144  26.766  11.461  1.00  0.00     0.104 A 
HETATM   29  N6  UNL     1      20.815  26.606  11.491  1.00  0.00    -0.354 N 
HETATM   30  C24 UNL     1      20.102  25.600  10.730  1.00  0.00     0.156 C 
HETATM   31  C25 UNL     1      20.316  27.537  12.346  1.00  0.00     0.120 A 
BRANCH  28  32
HETATM   32  C15 UNL     1      23.106  25.956  10.686  1.00  0.00     0.268 C 
HETATM   33  O4  UNL     1      23.779  25.095  11.295  1.00  0.00    -0.266 OA
HETATM   34  N3  UNL     1      23.261  26.157   9.289  1.00  0.00    -0.355 N 
ATOM     35  H3  UNL     1      22.692  26.878   8.845  1.00  0.00     0.162 HD
BRANCH  34  36
HETATM   36  C16 UNL     1      24.160  25.415   8.463  1.00  0.00     0.128 C 
BRANCH  36  37
HETATM   37  C17 UNL     1      23.568  25.006   7.121  1.00  0.00     0.064 C 
BRANCH  37  38
HETATM   38  C18 UNL     1      22.183  24.509   7.285  1.00  0.00     0.064 C 
BRANCH  38  39
HETATM   39  N4  UNL     1      21.119  25.127   6.631  1.00  0.00    -0.377 N 
HETATM   40  C19 UNL     1      21.318  25.137   5.204  1.00  0.00     0.154 C 
BRANCH  39  41
HETATM   41  C20 UNL     1      19.807  25.144   7.078  1.00  0.00     0.082 C 
BRANCH  41  42
HETATM   42  C21 UNL     1      18.789  25.570   6.097  1.00  0.00     0.160 C 
BRANCH  42  43
HETATM   43  N5  UNL     1      18.224  26.879   6.393  1.00  0.00    -0.416 N 
HETATM   44  C22 UNL     1      18.456  27.877   5.407  1.00  0.00     0.143 C 
HETATM   45  C23 UNL     1      18.340  27.283   7.752  1.00  0.00     0.143 C 
ENDBRANCH  42  43
ENDBRANCH  41  42
ENDBRANCH  39  41
ENDBRANCH  38  39
ENDBRANCH  37  38
ENDBRANCH  36  37
ENDBRANCH  34  36
ENDBRANCH  28  32
ENDBRANCH   3  26
TORSDOF 13
ENDMDL
MODEL 5
REMARK VINA RESULT: -8.391566216      3.021     12.362
REMARK  13 active torsions:
REMARK  status: ('A' for Active; 'I' for Inactive)
REMARK    1  A    between atoms: O1_2  and  C2_3 
REMARK    2  A    between atoms: C6_7  and  C7_8 
REMARK       I    between atoms: C7_8  and  N1_10 
REMARK    3  A    between atoms: N1_10  and  C8_12 
REMARK    4  A    between atoms: C10_14  and  C11_15 
REMARK       I    between atoms: C11_15  and  N2_17 
REMARK    5  A    between atoms: N2_17  and  C12_19 
REMARK    6  A    between atoms: C14_21  and  C15_22 
REMARK       I    between atoms: C15_22  and  N3_24 
REMARK    7  A    between atoms: N3_24  and  C16_26 
REMARK    8  A    between atoms: C16_26  and  C17_27 
REMARK    9  A    between atoms: C17_27  and  C18_28 
REMARK   10  A    between atoms: C18_28  and  N4_29 
REMARK   11  A    between atoms: N4_29  and  C20_31 
REMARK   12  A    between atoms: C20_31  and  C21_32 
REMARK   13  A    between atoms: C21_32  and  N5_33 
ROOT
HETATM    1  C11 UNL     1      19.126  33.947  16.741  1.00  0.00     0.273 C 
HETATM    2  O3  UNL     1      19.171  34.092  18.003  1.00  0.00    -0.266 OA
HETATM    3  N2  UNL     1      18.031  34.496  16.074  1.00  0.00    -0.320 N 
ATOM      4  H2  UNL     1      17.973  34.366  15.063  1.00  0.00     0.169 HD
ENDROOT
BRANCH   1   5
HETATM    5  C10 UNL     1      20.191  33.231  16.081  1.00  0.00     0.105 A 
HETATM    6  C9  UNL     1      20.042  31.911  15.563  1.00  0.00     0.067 A 
HETATM    7  C8  UNL     1      21.222  31.499  15.063  1.00  0.00     0.059 A 
HETATM    8  C27 UNL     1      22.111  32.564  15.270  1.00  0.00     0.035 A 
HETATM    9  N7  UNL     1      21.463  33.588  15.882  1.00  0.00    -0.349 N 
HETATM   10  C28 UNL     1      23.523  32.531  14.859  1.00  0.00     0.070 C 
HETATM   11  C26 UNL     1      22.151  34.812  16.239  1.00  0.00     0.156 C 
BRANCH   7  12
HETATM   12  N1  UNL     1      21.556  30.257  14.487  1.00  0.00    -0.321 N 
HETATM   13  C7  UNL     1      21.559  30.023  13.115  1.00  0.00     0.256 C 
HETATM   14  O2  UNL     1      21.274  30.979  12.326  1.00  0.00    -0.267 OA
ATOM     15  H1  UNL     1      21.808  29.489  15.108  1.00  0.00     0.169 HD
BRANCH  13  16
HETATM   16  C6  UNL     1      21.890  28.708  12.541  1.00  0.00     0.038 A 
HETATM   17  C4  UNL     1      20.971  27.777  12.154  1.00  0.00    -0.044 A 
HETATM   18  C3  UNL     1      21.417  26.527  11.677  1.00  0.00     0.045 A 
HETATM   19  C5  UNL     1      19.511  28.020  12.166  1.00  0.00     0.049 C 
HETATM   20  C2  UNL     1      22.731  26.181  11.573  1.00  0.00     0.074 A 
HETATM   21  C30 UNL     1      23.671  27.139  11.970  1.00  0.00    -0.028 A 
HETATM   22  C29 UNL     1      23.246  28.357  12.435  1.00  0.00     0.027 A 
HETATM   23  C31 UNL     1      25.128  26.776  11.889  1.00  0.00     0.051 C 
BRANCH  20  24
HETATM   24  O1  UNL     1      23.195  24.958  11.106  1.00  0.00    -0.355 OA
HETATM   25  C1  UNL     1      23.097  24.657   9.728  1.00  0.00     0.210 C 
ENDBRANCH  20  24
ENDBRANCH  13  16
ENDBRANCH   7  12
ENDBRANCH   1   5
BRANCH   3  26
HETATM   26  C12 UNL     1      16.977  35.234  16.720  1.00  0.00     0.053 A 
HETATM   27  C13 UNL     1      17.126  36.505  17.202  1.00  0.00     0.066 A 
HETATM   28  C14 UNL     1      15.942  36.875  17.793  1.00  0.00     0.104 A 
HETATM   29  N6  UNL     1      15.077  35.858  17.682  1.00  0.00    -0.354 N 
HETATM   30  C24 UNL     1      13.720  35.889  18.190  1.00  0.00     0.156 C 
HETATM   31  C25 UNL     1      15.716  34.856  17.022  1.00  0.00     0.120 A 
BRANCH  28  32
HETATM   32  C15 UNL     1      15.675  38.187  18.416  1.00  0.00     0.268 C 
HETATM   33  O4  UNL     1      15.549  38.236  19.660  1.00  0.00    -0.266 OA
HETATM   34  N3  UNL     1      15.562  39.357  17.619  1.00  0.00    -0.355 N 
ATOM     35  H3  UNL     1      15.665  39.257  16.609  1.00  0.00     0.162 HD
BRANCH  34  36
HETATM   36  C16 UNL     1      15.313  40.664  18.138  1.00  0.00     0.128 C 
BRANCH  36  37
HETATM   37  C17 UNL     1      16.275  41.726  17.621  1.00  0.00     0.064 C 
BRANCH  37  38
HETATM   38  C18 UNL     1      17.057  41.214  16.473  1.00  0.00     0.064 C 
BRANCH  38  39
HETATM   39  N4  UNL     1      18.420  40.953  16.596  1.00  0.00    -0.377 N 
HETATM   40  C19 UNL     1      19.104  42.041  17.246  1.00  0.00     0.154 C 
BRANCH  39  41
HETATM   41  C20 UNL     1      18.986  39.693  16.728  1.00  0.00     0.082 C 
BRANCH  41  42
HETATM   42  C21 UNL     1      19.322  39.269  18.101  1.00  0.00     0.160 C 
BRANCH  42  43
HETATM   43  N5  UNL     1      20.548  38.485  18.172  1.00  0.00    -0.416 N 
HETATM   44  C22 UNL     1      21.282  38.398  16.958  1.00  0.00     0.143 C 
HETATM   45  C23 UNL     1      20.450  37.298  18.949  1.00  0.00     0.143 C 
ENDBRANCH  42  43
ENDBRANCH  41  42
ENDBRANCH  39  41
ENDBRANCH  38  39
ENDBRANCH  37  38
ENDBRANCH  36  37
ENDBRANCH  34  36
ENDBRANCH  28  32
ENDBRANCH   3  26
TORSDOF 13
ENDMDL
