MODEL 1
REMARK VINA RESULT: -9.340406125      0.000      0.000
REMARK  13 active torsions:
REMARK  status: ('A' for Active; 'I' for Inactive)
REMARK    1  A    between atoms: C2_3  and  N2_4 
REMARK       I    between atoms: N2_4  and  C3_6 
REMARK    2  A    between atoms: C3_6  and  C4_8 
REMARK    3  A    between atoms: C4_8  and  N3_9 
REMARK    4  A    between atoms: N4_12  and  C7_13 
REMARK    5  A    between atoms: C7_13  and  C8_14 
REMARK    6  A    between atoms: C8_14  and  C9_15 
REMARK    7  A    between atoms: C9_15  and  C10_16 
REMARK    8  A    between atoms: C10_16  and  C11_17 
REMARK    9  A    between atoms: C11_17  and  C12_18 
REMARK       I    between atoms: C12_18  and  N5_20 
REMARK   10  A    between atoms: N5_20  and  C13_22 
REMARK   11  A    between atoms: C20_30  and  O4_31 
REMARK   12  A    between atoms: O4_31  and  C21_32 
REMARK   13  A    between atoms: C21_32  and  C22_33 
ROOT
HETATM    1  N1  UNL     1      21.050  24.877   5.932  1.00  0.00    -0.195 NA
HETATM    2  C1  UNL     1      20.149  25.552   6.142  1.00  0.00     0.091 C 
HETATM    3  C2  UNL     1      18.977  26.409   6.413  1.00  0.00     0.122 A 
HETATM    4  C30 UNL     1      17.813  26.178   5.500  1.00  0.00     0.050 A 
HETATM    5  C31 UNL     1      18.590  27.479   5.463  1.00  0.00     0.050 A 
ENDROOT
BRANCH   3   6
HETATM    6  N2  UNL     1      18.727  26.579   7.830  1.00  0.00    -0.338 N 
HETATM    7  C3  UNL     1      18.364  25.445   8.594  1.00  0.00     0.247 C 
HETATM    8  O1  UNL     1      18.260  24.304   8.052  1.00  0.00    -0.272 OA
ATOM      9  H2  UNL     1      18.811  27.496   8.267  1.00  0.00     0.164 HD
BRANCH   7  10
HETATM   10  C4  UNL     1      18.107  25.615  10.049  1.00  0.00     0.375 C 
BRANCH  10  11
HETATM   11  N3  UNL     1      19.300  25.648  10.832  1.00  0.00     0.106 N 
HETATM   12  C5  UNL     1      20.511  25.566  10.088  1.00  0.00     0.318 C 
HETATM   13  C6  UNL     1      21.658  26.321  10.688  1.00  0.00     0.093 C 
HETATM   14  N4  UNL     1      21.288  27.625  11.002  1.00  0.00    -0.370 N 
HETATM   15  C28 UNL     1      19.999  27.921  11.448  1.00  0.00     0.093 C 
HETATM   16  C29 UNL     1      19.256  26.689  11.807  1.00  0.00     0.318 C 
BRANCH  14  17
HETATM   17  C7  UNL     1      22.343  28.485  11.492  1.00  0.00     0.127 C 
BRANCH  17  18
HETATM   18  C8  UNL     1      22.597  28.350  12.936  1.00  0.00     0.020 C 
BRANCH  18  19
HETATM   19  C9  UNL     1      22.008  29.422  13.765  1.00  0.00     0.002 C 
BRANCH  19  20
HETATM   20  C10 UNL     1      22.235  30.833  13.458  1.00  0.00     0.009 C 
BRANCH  20  21
HETATM   21  C11 UNL     1      22.438  31.862  14.472  1.00  0.00     0.103 C 
BRANCH  21  22
HETATM   22  C12 UNL     1      21.226  32.080  15.331  1.00  0.00     0.222 C 
HETATM   23  O2  UNL     1      21.400  31.990  16.544  1.00  0.00    -0.273 OA
HETATM   24  N5  UNL     1      20.012  32.366  14.688  1.00  0.00    -0.325 N 
ATOM     25  H5  UNL     1      20.036  32.412  13.670  1.00  0.00     0.169 HD
BRANCH  24  26
HETATM   26  C13 UNL     1      18.755  32.597  15.300  1.00  0.00     0.069 A 
HETATM   27  C14 UNL     1      18.296  33.831  15.679  1.00  0.00     0.047 A 
HETATM   28  C15 UNL     1      17.057  34.031  16.293  1.00  0.00     0.009 A 
HETATM   29  C16 UNL     1      16.368  35.121  16.764  1.00  0.00    -0.015 A 
HETATM   30  C18 UNL     1      16.291  32.912  16.510  1.00  0.00     0.089 A 
HETATM   31  C17 UNL     1      15.190  34.634  17.258  1.00  0.00     0.061 A 
HETATM   32  C27 UNL     1      16.881  36.493  16.706  1.00  0.00     0.042 C 
HETATM   33  O3  UNL     1      15.178  33.341  17.093  1.00  0.00    -0.314 OA
HETATM   34  C23 UNL     1      14.029  35.328  17.899  1.00  0.00     0.066 C 
HETATM   35  C24 UNL     1      14.591  36.269  18.969  1.00  0.00     0.006 C 
HETATM   36  C25 UNL     1      15.167  37.461  18.251  1.00  0.00     0.001 C 
HETATM   37  C26 UNL     1      16.623  37.260  17.987  1.00  0.00     0.005 C 
HETATM   38  C19 UNL     1      16.723  31.659  16.140  1.00  0.00     0.077 A 
HETATM   39  C20 UNL     1      17.931  31.488  15.545  1.00  0.00     0.099 A 
BRANCH  39  40
HETATM   40  O4  UNL     1      18.396  30.217  15.157  1.00  0.00    -0.338 OA
BRANCH  40  41
HETATM   41  C21 UNL     1      17.857  29.413  14.169  1.00  0.00     0.288 C 
BRANCH  41  42
HETATM   42  C22 UNL     1      17.857  29.954  12.811  1.00  0.00     0.198 C 
HETATM   43  O5  UNL     1      16.917  29.610  12.029  1.00  0.00    -0.646 OA
HETATM   44  O6  UNL     1      18.821  30.822  12.330  1.00  0.00    -0.646 OA
ENDBRANCH  41  42
ENDBRANCH  40  41
ENDBRANCH  39  40
ENDBRANCH  24  26
ENDBRANCH  21  22
ENDBRANCH  20  21
ENDBRANCH  19  20
ENDBRANCH  18  19
ENDBRANCH  17  18
ENDBRANCH  14  17
ENDBRANCH  10  11
ENDBRANCH   7  10
ENDBRANCH   3   6
TORSDOF 13
ENDMDL
MODEL 2
REMARK VINA RESULT: -9.268189064      2.339      3.973
REMARK  13 active torsions:
REMARK  status: ('A' for Active; 'I' for Inactive)
REMARK    1  A    between atoms: C2_3  and  N2_4 
REMARK       I    between atoms: N2_4  and  C3_6 
REMARK    2  A    between atoms: C3_6  and  C4_8 
REMARK    3  A    between atoms: C4_8  and  N3_9 
REMARK    4  A    between atoms: N4_12  and  C7_13 
REMARK    5  A    between atoms: C7_13  and  C8_14 
REMARK    6  A    between atoms: C8_14  and  C9_15 
REMARK    7  A    between atoms: C9_15  and  C10_16 
REMARK    8  A    between atoms: C10_16  and  C11_17 
REMARK    9  A    between atoms: C11_17  and  C12_18 
REMARK       I    between atoms: C12_18  and  N5_20 
REMARK   10  A    between atoms: N5_20  and  C13_22 
REMARK   11  A    between atoms: C20_30  and  O4_31 
REMARK   12  A    between atoms: O4_31  and  C21_32 
REMARK   13  A    between atoms: C21_32  and  C22_33 
ROOT
HETATM    1  N1  UNL     1      21.159  24.792   6.715  1.00  0.00    -0.195 NA
HETATM    2  C1  UNL     1      22.127  24.356   7.144  1.00  0.00     0.091 C 
HETATM    3  C2  UNL     1      23.383  23.809   7.696  1.00  0.00     0.122 A 
HETATM    4  C30 UNL     1      24.588  24.028   6.833  1.00  0.00     0.050 A 
HETATM    5  C31 UNL     1      24.035  22.636   7.066  1.00  0.00     0.050 A 
ENDROOT
BRANCH   3   6
HETATM    6  N2  UNL     1      23.503  24.020   9.124  1.00  0.00    -0.338 N 
HETATM    7  C3  UNL     1      23.766  25.327   9.596  1.00  0.00     0.247 C 
HETATM    8  O1  UNL     1      23.896  26.294   8.788  1.00  0.00    -0.272 OA
ATOM      9  H2  UNL     1      23.399  23.242   9.775  1.00  0.00     0.164 HD
BRANCH   7  10
HETATM   10  C4  UNL     1      23.890  25.546  11.062  1.00  0.00     0.375 C 
BRANCH  10  11
HETATM   11  N3  UNL     1      22.728  26.142  11.641  1.00  0.00     0.106 N 
HETATM   12  C5  UNL     1      22.529  27.514  11.317  1.00  0.00     0.318 C 
HETATM   13  C6  UNL     1      21.091  27.926  11.228  1.00  0.00     0.093 C 
HETATM   14  N4  UNL     1      20.372  27.055  10.417  1.00  0.00    -0.370 N 
HETATM   15  C28 UNL     1      20.669  25.692  10.379  1.00  0.00     0.093 C 
HETATM   16  C29 UNL     1      21.581  25.308  11.485  1.00  0.00     0.318 C 
BRANCH  14  17
HETATM   17  C7  UNL     1      18.991  27.410  10.170  1.00  0.00     0.127 C 
BRANCH  17  18
HETATM   18  C8  UNL     1      18.400  28.260  11.217  1.00  0.00     0.020 C 
BRANCH  18  19
HETATM   19  C9  UNL     1      17.767  27.516  12.326  1.00  0.00     0.002 C 
BRANCH  19  20
HETATM   20  C10 UNL     1      17.893  27.963  13.712  1.00  0.00     0.009 C 
BRANCH  20  21
HETATM   21  C11 UNL     1      19.060  28.665  14.235  1.00  0.00     0.103 C 
BRANCH  21  22
HETATM   22  C12 UNL     1      18.771  30.097  14.581  1.00  0.00     0.222 C 
HETATM   23  O2  UNL     1      18.075  30.717  13.780  1.00  0.00    -0.273 OA
HETATM   24  N5  UNL     1      19.311  30.604  15.773  1.00  0.00    -0.325 N 
ATOM     25  H5  UNL     1      19.865  29.957  16.333  1.00  0.00     0.169 HD
BRANCH  24  26
HETATM   26  C13 UNL     1      19.171  31.918  16.284  1.00  0.00     0.069 A 
HETATM   27  C14 UNL     1      18.002  32.433  16.781  1.00  0.00     0.047 A 
HETATM   28  C15 UNL     1      17.886  33.737  17.267  1.00  0.00     0.009 A 
HETATM   29  C16 UNL     1      16.872  34.491  17.804  1.00  0.00    -0.015 A 
HETATM   30  C18 UNL     1      19.021  34.510  17.229  1.00  0.00     0.089 A 
HETATM   31  C17 UNL     1      17.420  35.711  18.082  1.00  0.00     0.061 A 
HETATM   32  C27 UNL     1      15.506  33.994  17.995  1.00  0.00     0.042 C 
HETATM   33  O3  UNL     1      18.676  35.688  17.734  1.00  0.00    -0.314 OA
HETATM   34  C23 UNL     1      16.820  36.948  18.676  1.00  0.00     0.066 C 
HETATM   35  C24 UNL     1      15.506  37.220  17.937  1.00  0.00     0.006 C 
HETATM   36  C25 UNL     1      14.493  36.235  18.458  1.00  0.00     0.001 C 
HETATM   37  C26 UNL     1      14.460  35.015  17.597  1.00  0.00     0.005 C 
HETATM   38  C19 UNL     1      20.210  34.022  16.737  1.00  0.00     0.077 A 
HETATM   39  C20 UNL     1      20.299  32.752  16.269  1.00  0.00     0.099 A 
BRANCH  39  40
HETATM   40  O4  UNL     1      21.504  32.229  15.761  1.00  0.00    -0.338 OA
BRANCH  40  41
HETATM   41  C21 UNL     1      22.050  32.484  14.516  1.00  0.00     0.288 C 
BRANCH  41  42
HETATM   42  C22 UNL     1      21.937  31.418  13.521  1.00  0.00     0.198 C 
HETATM   43  O5  UNL     1      21.241  31.639  12.483  1.00  0.00    -0.646 OA
HETATM   44  O6  UNL     1      22.548  30.183  13.646  1.00  0.00    -0.646 OA
ENDBRANCH  41  42
ENDBRANCH  40  41
ENDBRANCH  39  40
ENDBRANCH  24  26
ENDBRANCH  21  22
ENDBRANCH  20  21
ENDBRANCH  19  20
ENDBRANCH  18  19
ENDBRANCH  17  18
ENDBRANCH  14  17
ENDBRANCH  10  11
ENDBRANCH   7  10
ENDBRANCH   3   6
TORSDOF 13
ENDMDL
MODEL 3
REMARK VINA RESULT: -9.249867582      4.154      9.745
REMARK  13 active torsions:
REMARK  status: ('A' for Active; 'I' for Inactive)
REMARK    1  A    between atoms: C2_3  and  N2_4 
REMARK       I    between atoms: N2_4  and  C3_6 
REMARK    2  A    between atoms: C3_6  and  C4_8 
REMARK    3  A    between atoms: C4_8  and  N3_9 
REMARK    4  A    between atoms: N4_12  and  C7_13 
REMARK    5  A    between atoms: C7_13  and  C8_14 
REMARK    6  A    between atoms: C8_14  and  C9_15 
REMARK    7  A    between atoms: C9_15  and  C10_16 
REMARK    8  A    between atoms: C10_16  and  C11_17 
REMARK    9  A    between atoms: C11_17  and  C12_18 
REMARK       I    between atoms: C12_18  and  N5_20 
REMARK   10  A    between atoms: N5_20  and  C13_22 
REMARK   11  A    between atoms: C20_30  and  O4_31 
REMARK   12  A    between atoms: O4_31  and  C21_32 
REMARK   13  A    between atoms: C21_32  and  C22_33 
ROOT
HETATM    1  N1  UNL     1      17.132  40.486  16.336  1.00  0.00    -0.195 NA
HETATM    2  C1  UNL     1      17.491  40.454  17.424  1.00  0.00     0.091 C 
HETATM    3  C2  UNL     1      17.941  40.403  18.829  1.00  0.00     0.122 A 
HETATM    4  C30 UNL     1      16.925  40.873  19.824  1.00  0.00     0.050 A 
HETATM    5  C31 UNL     1      18.202  41.654  19.583  1.00  0.00     0.050 A 
ENDROOT
BRANCH   3   6
HETATM    6  N2  UNL     1      18.707  39.210  19.127  1.00  0.00    -0.338 N 
HETATM    7  C3  UNL     1      20.026  39.109  18.627  1.00  0.00     0.247 C 
HETATM    8  O1  UNL     1      20.529  40.043  17.932  1.00  0.00    -0.272 OA
ATOM      9  H2  UNL     1      18.303  38.458  19.685  1.00  0.00     0.164 HD
BRANCH   7  10
HETATM   10  C4  UNL     1      20.815  37.886  18.930  1.00  0.00     0.375 C 
BRANCH  10  11
HETATM   11  N3  UNL     1      20.500  36.787  18.074  1.00  0.00     0.106 N 
HETATM   12  C5  UNL     1      21.264  36.720  16.874  1.00  0.00     0.318 C 
HETATM   13  C6  UNL     1      21.528  35.328  16.386  1.00  0.00     0.093 C 
HETATM   14  N4  UNL     1      22.031  34.528  17.407  1.00  0.00    -0.370 N 
HETATM   15  C28 UNL     1      21.609  34.694  18.727  1.00  0.00     0.093 C 
HETATM   16  C29 UNL     1      20.410  35.565  18.805  1.00  0.00     0.318 C 
BRANCH  14  17
HETATM   17  C7  UNL     1      22.424  33.188  17.030  1.00  0.00     0.127 C 
BRANCH  17  18
HETATM   18  C8  UNL     1      23.590  33.142  16.132  1.00  0.00     0.020 C 
BRANCH  18  19
HETATM   19  C9  UNL     1      23.481  32.157  15.035  1.00  0.00     0.002 C 
BRANCH  19  20
HETATM   20  C10 UNL     1      22.739  32.460  13.812  1.00  0.00     0.009 C 
BRANCH  20  21
HETATM   21  C11 UNL     1      21.762  31.558  13.211  1.00  0.00     0.103 C 
BRANCH  21  22
HETATM   22  C12 UNL     1      20.345  31.961  13.496  1.00  0.00     0.222 C 
HETATM   23  O2  UNL     1      19.674  32.305  12.526  1.00  0.00    -0.273 OA
HETATM   24  N5  UNL     1      19.906  31.913  14.829  1.00  0.00    -0.325 N 
ATOM     25  H5  UNL     1      20.587  31.598  15.520  1.00  0.00     0.169 HD
BRANCH  24  26
HETATM   26  C13 UNL     1      18.621  32.254  15.319  1.00  0.00     0.069 A 
HETATM   27  C14 UNL     1      18.271  33.500  15.767  1.00  0.00     0.047 A 
HETATM   28  C15 UNL     1      17.000  33.807  16.258  1.00  0.00     0.009 A 
HETATM   29  C16 UNL     1      16.394  34.934  16.757  1.00  0.00    -0.015 A 
HETATM   30  C18 UNL     1      16.084  32.784  16.274  1.00  0.00     0.089 A 
HETATM   31  C17 UNL     1      15.115  34.564  17.066  1.00  0.00     0.061 A 
HETATM   32  C27 UNL     1      17.071  36.226  16.895  1.00  0.00     0.042 C 
HETATM   33  O3  UNL     1      14.968  33.303  16.772  1.00  0.00    -0.314 OA
HETATM   34  C23 UNL     1      13.976  35.346  17.642  1.00  0.00     0.066 C 
HETATM   35  C24 UNL     1      14.511  36.110  18.856  1.00  0.00     0.006 C 
HETATM   36  C25 UNL     1      15.309  37.274  18.330  1.00  0.00     0.001 C 
HETATM   37  C26 UNL     1      16.752  36.907  18.210  1.00  0.00     0.005 C 
HETATM   38  C19 UNL     1      16.404  31.522  15.830  1.00  0.00     0.077 A 
HETATM   39  C20 UNL     1      17.647  31.245  15.358  1.00  0.00     0.099 A 
BRANCH  39  40
HETATM   40  O4  UNL     1      17.999  29.963  14.897  1.00  0.00    -0.338 OA
BRANCH  40  41
HETATM   41  C21 UNL     1      17.595  29.377  13.711  1.00  0.00     0.288 C 
BRANCH  41  42
HETATM   42  C22 UNL     1      18.654  28.964  12.791  1.00  0.00     0.198 C 
HETATM   43  O5  UNL     1      19.617  28.278  13.255  1.00  0.00    -0.646 OA
HETATM   44  O6  UNL     1      18.665  29.275  11.443  1.00  0.00    -0.646 OA
ENDBRANCH  41  42
ENDBRANCH  40  41
ENDBRANCH  39  40
ENDBRANCH  24  26
ENDBRANCH  21  22
ENDBRANCH  20  21
ENDBRANCH  19  20
ENDBRANCH  18  19
ENDBRANCH  17  18
ENDBRANCH  14  17
ENDBRANCH  10  11
ENDBRANCH   7  10
ENDBRANCH   3   6
TORSDOF 13
ENDMDL
MODEL 4
REMARK VINA RESULT: -8.951150184      4.044      9.796
REMARK  13 active torsions:
REMARK  status: ('A' for Active; 'I' for Inactive)
REMARK    1  A    between atoms: C2_3  and  N2_4 
REMARK       I    between atoms: N2_4  and  C3_6 
REMARK    2  A    between atoms: C3_6  and  C4_8 
REMARK    3  A    between atoms: C4_8  and  N3_9 
REMARK    4  A    between atoms: N4_12  and  C7_13 
REMARK    5  A    between atoms: C7_13  and  C8_14 
REMARK    6  A    between atoms: C8_14  and  C9_15 
REMARK    7  A    between atoms: C9_15  and  C10_16 
REMARK    8  A    between atoms: C10_16  and  C11_17 
REMARK    9  A    between atoms: C11_17  and  C12_18 
REMARK       I    between atoms: C12_18  and  N5_20 
REMARK   10  A    between atoms: N5_20  and  C13_22 
REMARK   11  A    between atoms: C20_30  and  O4_31 
REMARK   12  A    between atoms: O4_31  and  C21_32 
REMARK   13  A    between atoms: C21_32  and  C22_33 
ROOT
HETATM    1  N1  UNL     1      24.398  40.157  21.160  1.00  0.00    -0.195 NA
HETATM    2  C1  UNL     1      23.864  40.137  20.146  1.00  0.00     0.091 C 
HETATM    3  C2  UNL     1      23.183  40.097  18.837  1.00  0.00     0.122 A 
HETATM    4  C30 UNL     1      24.082  39.796  17.677  1.00  0.00     0.050 A 
HETATM    5  C31 UNL     1      23.428  41.156  17.827  1.00  0.00     0.050 A 
ENDROOT
BRANCH   3   6
HETATM    6  N2  UNL     1      21.890  39.448  18.901  1.00  0.00    -0.338 N 
HETATM    7  C3  UNL     1      21.840  38.064  19.189  1.00  0.00     0.247 C 
HETATM    8  O1  UNL     1      22.905  37.405  19.387  1.00  0.00    -0.272 OA
ATOM      9  H2  UNL     1      21.033  39.977  18.742  1.00  0.00     0.164 HD
BRANCH   7  10
HETATM   10  C4  UNL     1      20.515  37.394  19.256  1.00  0.00     0.375 C 
BRANCH  10  11
HETATM   11  N3  UNL     1      20.326  36.417  18.232  1.00  0.00     0.106 N 
HETATM   12  C5  UNL     1      21.111  36.612  17.061  1.00  0.00     0.318 C 
HETATM   13  C6  UNL     1      21.522  35.345  16.373  1.00  0.00     0.093 C 
HETATM   14  N4  UNL     1      22.085  34.448  17.275  1.00  0.00    -0.370 N 
HETATM   15  C28 UNL     1      21.627  34.364  18.591  1.00  0.00     0.093 C 
HETATM   16  C29 UNL     1      20.346  35.093  18.763  1.00  0.00     0.318 C 
BRANCH  14  17
HETATM   17  C7  UNL     1      22.616  33.227  16.709  1.00  0.00     0.127 C 
BRANCH  17  18
HETATM   18  C8  UNL     1      23.712  33.444  15.750  1.00  0.00     0.020 C 
BRANCH  18  19
HETATM   19  C9  UNL     1      23.733  32.495  14.617  1.00  0.00     0.002 C 
BRANCH  19  20
HETATM   20  C10 UNL     1      22.631  31.564  14.384  1.00  0.00     0.009 C 
BRANCH  20  21
HETATM   21  C11 UNL     1      21.832  31.541  13.163  1.00  0.00     0.103 C 
BRANCH  21  22
HETATM   22  C12 UNL     1      20.407  31.953  13.393  1.00  0.00     0.222 C 
HETATM   23  O2  UNL     1      19.761  32.250  12.390  1.00  0.00    -0.273 OA
HETATM   24  N5  UNL     1      19.934  31.964  14.714  1.00  0.00    -0.325 N 
ATOM     25  H5  UNL     1      20.596  31.682  15.436  1.00  0.00     0.169 HD
BRANCH  24  26
HETATM   26  C13 UNL     1      18.635  32.322  15.154  1.00  0.00     0.069 A 
HETATM   27  C14 UNL     1      18.320  33.523  15.732  1.00  0.00     0.047 A 
HETATM   28  C15 UNL     1      17.034  33.848  16.170  1.00  0.00     0.009 A 
HETATM   29  C16 UNL     1      16.454  34.940  16.765  1.00  0.00    -0.015 A 
HETATM   30  C18 UNL     1      16.065  32.890  15.993  1.00  0.00     0.089 A 
HETATM   31  C17 UNL     1      15.137  34.617  16.936  1.00  0.00     0.061 A 
HETATM   32  C27 UNL     1      17.188  36.161  17.112  1.00  0.00     0.042 C 
HETATM   33  O3  UNL     1      14.944  33.413  16.475  1.00  0.00    -0.314 OA
HETATM   34  C23 UNL     1      14.002  35.393  17.528  1.00  0.00     0.066 C 
HETATM   35  C24 UNL     1      14.484  35.967  18.863  1.00  0.00     0.006 C 
HETATM   36  C25 UNL     1      15.381  37.134  18.545  1.00  0.00     0.001 C 
HETATM   37  C26 UNL     1      16.807  36.694  18.478  1.00  0.00     0.005 C 
HETATM   38  C19 UNL     1      16.350  31.674  15.415  1.00  0.00     0.077 A 
HETATM   39  C20 UNL     1      17.608  31.380  14.998  1.00  0.00     0.099 A 
BRANCH  39  40
HETATM   40  O4  UNL     1      17.924  30.144  14.403  1.00  0.00    -0.338 OA
BRANCH  40  41
HETATM   41  C21 UNL     1      17.529  29.710  13.151  1.00  0.00     0.288 C 
BRANCH  41  42
HETATM   42  C22 UNL     1      18.522  28.975  12.368  1.00  0.00     0.198 C 
HETATM   43  O5  UNL     1      18.392  28.953  11.106  1.00  0.00    -0.646 OA
HETATM   44  O6  UNL     1      19.596  28.305  12.926  1.00  0.00    -0.646 OA
ENDBRANCH  41  42
ENDBRANCH  40  41
ENDBRANCH  39  40
ENDBRANCH  24  26
ENDBRANCH  21  22
ENDBRANCH  20  21
ENDBRANCH  19  20
ENDBRANCH  18  19
ENDBRANCH  17  18
ENDBRANCH  14  17
ENDBRANCH  10  11
ENDBRANCH   7  10
ENDBRANCH   3   6
TORSDOF 13
ENDMDL
MODEL 5
REMARK VINA RESULT: -8.946809745      3.702     12.003
REMARK  13 active torsions:
REMARK  status: ('A' for Active; 'I' for Inactive)
REMARK    1  A    between atoms: C2_3  and  N2_4 
REMARK       I    between atoms: N2_4  and  C3_6 
REMARK    2  A    between atoms: C3_6  and  C4_8 
REMARK    3  A    between atoms: C4_8  and  N3_9 
REMARK    4  A    between atoms: N4_12  and  C7_13 
REMARK    5  A    between atoms: C7_13  and  C8_14 
REMARK    6  A    between atoms: C8_14  and  C9_15 
REMARK    7  A    between atoms: C9_15  and  C10_16 
REMARK    8  A    between atoms: C10_16  and  C11_17 
REMARK    9  A    between atoms: C11_17  and  C12_18 
REMARK       I    between atoms: C12_18  and  N5_20 
REMARK   10  A    between atoms: N5_20  and  C13_22 
REMARK   11  A    between atoms: C20_30  and  O4_31 
REMARK   12  A    between atoms: O4_31  and  C21_32 
REMARK   13  A    between atoms: C21_32  and  C22_33 
ROOT
HETATM    1  N1  UNL     1      23.384  36.427  21.005  1.00  0.00    -0.195 NA
HETATM    2  C1  UNL     1      23.042  36.981  20.063  1.00  0.00     0.091 C 
HETATM    3  C2  UNL     1      22.601  37.682  18.839  1.00  0.00     0.122 A 
HETATM    4  C30 UNL     1      23.518  37.521  17.667  1.00  0.00     0.050 A 
HETATM    5  C31 UNL     1      23.341  38.866  18.341  1.00  0.00     0.050 A 
ENDROOT
BRANCH   3   6
HETATM    6  N2  UNL     1      21.172  37.582  18.624  1.00  0.00    -0.338 N 
HETATM    7  C3  UNL     1      20.343  38.632  19.083  1.00  0.00     0.247 C 
HETATM    8  O1  UNL     1      20.839  39.640  19.670  1.00  0.00    -0.272 OA
ATOM      9  H2  UNL     1      20.772  36.771  18.152  1.00  0.00     0.164 HD
BRANCH   7  10
HETATM   10  C4  UNL     1      18.876  38.533  18.864  1.00  0.00     0.375 C 
BRANCH  10  11
HETATM   11  N3  UNL     1      18.493  37.364  18.138  1.00  0.00     0.106 N 
HETATM   12  C5  UNL     1      18.504  36.156  18.891  1.00  0.00     0.318 C 
HETATM   13  C6  UNL     1      17.466  35.159  18.476  1.00  0.00     0.093 C 
HETATM   14  N4  UNL     1      16.209  35.750  18.399  1.00  0.00    -0.370 N 
HETATM   15  C28 UNL     1      16.059  37.072  17.975  1.00  0.00     0.093 C 
HETATM   16  C29 UNL     1      17.310  37.590  17.371  1.00  0.00     0.318 C 
BRANCH  14  17
HETATM   17  C7  UNL     1      15.104  34.861  18.109  1.00  0.00     0.127 C 
BRANCH  17  18
HETATM   18  C8  UNL     1      15.101  34.350  16.729  1.00  0.00     0.020 C 
BRANCH  18  19
HETATM   19  C9  UNL     1      15.180  32.878  16.620  1.00  0.00     0.002 C 
BRANCH  19  20
HETATM   20  C10 UNL     1      16.022  32.233  15.613  1.00  0.00     0.009 C 
BRANCH  20  21
HETATM   21  C11 UNL     1      16.765  30.999  15.846  1.00  0.00     0.103 C 
BRANCH  21  22
HETATM   22  C12 UNL     1      17.913  30.823  14.895  1.00  0.00     0.222 C 
HETATM   23  O2  UNL     1      17.853  31.464  13.849  1.00  0.00    -0.273 OA
HETATM   24  N5  UNL     1      18.948  29.953  15.274  1.00  0.00    -0.325 N 
ATOM     25  H5  UNL     1      18.851  29.499  16.181  1.00  0.00     0.169 HD
BRANCH  24  26
HETATM   26  C13 UNL     1      20.113  29.637  14.532  1.00  0.00     0.069 A 
HETATM   27  C14 UNL     1      20.200  28.610  13.630  1.00  0.00     0.047 A 
HETATM   28  C15 UNL     1      21.365  28.311  12.921  1.00  0.00     0.009 A 
HETATM   29  C16 UNL     1      21.724  27.370  11.987  1.00  0.00    -0.015 A 
HETATM   30  C18 UNL     1      22.456  29.110  13.165  1.00  0.00     0.089 A 
HETATM   31  C17 UNL     1      23.032  27.623  11.685  1.00  0.00     0.061 A 
HETATM   32  C27 UNL     1      20.812  26.338  11.484  1.00  0.00     0.042 C 
HETATM   33  O3  UNL     1      23.428  28.645  12.390  1.00  0.00    -0.314 OA
HETATM   34  C23 UNL     1      23.974  26.943  10.741  1.00  0.00     0.066 C 
HETATM   35  C24 UNL     1      23.872  25.436  10.997  1.00  0.00     0.006 C 
HETATM   36  C25 UNL     1      22.586  24.967  10.371  1.00  0.00     0.001 C 
HETATM   37  C26 UNL     1      21.480  24.983  11.375  1.00  0.00     0.005 C 
HETATM   38  C19 UNL     1      22.400  30.151  14.063  1.00  0.00     0.077 A 
HETATM   39  C20 UNL     1      21.257  30.422  14.743  1.00  0.00     0.099 A 
BRANCH  39  40
HETATM   40  O4  UNL     1      21.174  31.481  15.667  1.00  0.00    -0.338 OA
BRANCH  40  41
HETATM   41  C21 UNL     1      21.537  32.797  15.442  1.00  0.00     0.288 C 
BRANCH  41  42
HETATM   42  C22 UNL     1      20.673  33.823  16.025  1.00  0.00     0.198 C 
HETATM   43  O5  UNL     1      19.422  33.735  15.830  1.00  0.00    -0.646 OA
HETATM   44  O6  UNL     1      21.143  34.883  16.780  1.00  0.00    -0.646 OA
ENDBRANCH  41  42
ENDBRANCH  40  41
ENDBRANCH  39  40
ENDBRANCH  24  26
ENDBRANCH  21  22
ENDBRANCH  20  21
ENDBRANCH  19  20
ENDBRANCH  18  19
ENDBRANCH  17  18
ENDBRANCH  14  17
ENDBRANCH  10  11
ENDBRANCH   7  10
ENDBRANCH   3   6
TORSDOF 13
ENDMDL
