MODEL 1
REMARK VINA RESULT: -9.186869518      0.000      0.000
REMARK  14 active torsions:
REMARK  status: ('A' for Active; 'I' for Inactive)
REMARK    1  A    between atoms: C4_4  and  C5_5 
REMARK    2  A    between atoms: C5_5  and  C6_6 
REMARK       I    between atoms: C6_6  and  N1_8 
REMARK    3  A    between atoms: N1_8  and  C7_10 
REMARK    4  A    between atoms: C8_15  and  C9_16 
REMARK    5  A    between atoms: C9_16  and  C10_17 
REMARK    6  A    between atoms: C10_17  and  C11_18 
REMARK    7  A    between atoms: C11_18  and  C12_19 
REMARK    8  A    between atoms: C12_19  and  C13_20 
REMARK       I    between atoms: N6_26  and  C15_28 
REMARK    9  A    between atoms: C15_28  and  C16_30 
REMARK   10  A    between atoms: C20_36  and  C21_37 
REMARK       I    between atoms: C21_37  and  N7_39 
REMARK   11  A    between atoms: N7_39  and  C22_41 
REMARK   12  A    between atoms: C22_41  and  C23_42 
REMARK   13  A    between atoms: C23_42  and  C24_43 
REMARK   14  A    between atoms: C24_43  and  C25_44 
ROOT
HETATM    1  C25 UNL     1      17.902  30.384  14.651  1.00  0.00     0.124 C 
HETATM    2  C26 UNL     1      18.896  30.363  15.712  1.00  0.00     0.059 C 
HETATM    3  N8  UNL     1      19.689  30.365  16.561  1.00  0.00    -0.197 NA
ENDROOT
BRANCH   1   4
HETATM    4  C24 UNL     1      17.239  31.789  14.579  1.00  0.00     0.019 C 
BRANCH   4   5
HETATM    5  C23 UNL     1      16.495  32.052  15.822  1.00  0.00     0.045 C 
BRANCH   5   6
HETATM    6  C22 UNL     1      15.569  33.189  15.833  1.00  0.00     0.064 C 
BRANCH   6   7
HETATM    7  N7  UNL     1      15.865  34.423  16.432  1.00  0.00    -0.337 N 
HETATM    8  C21 UNL     1      15.724  34.894  17.741  1.00  0.00     0.255 C 
HETATM    9  O3  UNL     1      15.230  34.141  18.632  1.00  0.00    -0.267 OA
ATOM     10  H7  UNL     1      16.258  35.110  15.788  1.00  0.00     0.168 HD
BRANCH   8  11
HETATM   11  C20 UNL     1      16.135  36.266  18.152  1.00  0.00     0.033 A 
HETATM   12  C19 UNL     1      17.321  36.779  17.649  1.00  0.00     0.024 A 
HETATM   13  C4  UNL     1      17.743  38.030  18.019  1.00  0.00    -0.048 A 
HETATM   14  C3  UNL     1      16.975  38.767  18.894  1.00  0.00     0.014 A 
HETATM   15  C2  UNL     1      15.801  38.279  19.403  1.00  0.00    -0.060 A 
HETATM   16  C1  UNL     1      14.981  39.097  20.352  1.00  0.00     0.048 C 
HETATM   17  C27 UNL     1      15.393  37.006  19.011  1.00  0.00     0.023 A 
BRANCH  13  18
HETATM   18  C5  UNL     1      19.038  38.534  17.471  1.00  0.00     0.141 C 
BRANCH  18  19
HETATM   19  C6  UNL     1      20.040  38.808  18.503  1.00  0.00     0.227 C 
HETATM   20  O1  UNL     1      20.251  40.020  18.811  1.00  0.00    -0.273 OA
HETATM   21  N1  UNL     1      20.746  37.821  19.145  1.00  0.00    -0.306 N 
ATOM     22  H1  UNL     1      21.090  38.046  20.078  1.00  0.00     0.171 HD
BRANCH  21  23
HETATM   23  C7  UNL     1      21.025  36.640  18.701  1.00  0.00     0.167 A 
HETATM   24  N2  UNL     1      20.525  35.471  19.185  1.00  0.00    -0.279 N 
HETATM   25  N3  UNL     1      20.896  34.397  18.642  1.00  0.00    -0.296 N 
ATOM     26  H2  UNL     1      19.868  35.465  19.966  1.00  0.00     0.189 HD
HETATM   27  C8  UNL     1      21.747  34.393  17.631  1.00  0.00     0.069 A 
ATOM     28  H3  UNL     1      20.531  33.510  18.990  1.00  0.00     0.187 HD
HETATM   29  S2  UNL     1      22.035  36.060  17.446  1.00  0.00    -0.038 SA
BRANCH  27  30
HETATM   30  C9  UNL     1      22.268  33.192  16.879  1.00  0.00     0.066 C 
BRANCH  30  31
HETATM   31  C10 UNL     1      23.395  33.632  16.010  1.00  0.00     0.007 C 
BRANCH  31  32
HETATM   32  C11 UNL     1      23.618  32.586  14.936  1.00  0.00     0.007 C 
BRANCH  32  33
HETATM   33  C12 UNL     1      22.477  32.499  13.950  1.00  0.00     0.066 C 
BRANCH  33  34
HETATM   34  C13 UNL     1      22.090  31.048  13.864  1.00  0.00     0.069 A 
HETATM   35  N4  UNL     1      22.308  30.056  14.688  1.00  0.00    -0.296 N 
HETATM   36  N5  UNL     1      21.896  28.885  14.450  1.00  0.00    -0.279 N 
ATOM     37  H4  UNL     1      22.827  30.233  15.549  1.00  0.00     0.187 HD
HETATM   38  C14 UNL     1      21.215  28.663  13.318  1.00  0.00     0.167 A 
ATOM     39  H5  UNL     1      22.078  28.126  15.106  1.00  0.00     0.189 HD
HETATM   40  N6  UNL     1      20.712  27.543  12.891  1.00  0.00    -0.306 N 
HETATM   41  S1  UNL     1      21.202  30.234  12.616  1.00  0.00    -0.038 SA
HETATM   42  C15 UNL     1      20.014  27.483  11.667  1.00  0.00     0.227 C 
ATOM     43  H6  UNL     1      20.824  26.696  13.449  1.00  0.00     0.171 HD
HETATM   44  O2  UNL     1      20.555  26.960  10.674  1.00  0.00    -0.273 OA
BRANCH  42  45
HETATM   45  C16 UNL     1      18.660  28.035  11.561  1.00  0.00     0.070 C 
HETATM   46  C17 UNL     1      17.729  27.318  12.550  1.00  0.00     0.019 C 
HETATM   47  C18 UNL     1      18.068  27.837  10.178  1.00  0.00     0.019 C 
ENDBRANCH  42  45
ENDBRANCH  33  34
ENDBRANCH  32  33
ENDBRANCH  31  32
ENDBRANCH  30  31
ENDBRANCH  27  30
ENDBRANCH  21  23
ENDBRANCH  18  19
ENDBRANCH  13  18
ENDBRANCH   8  11
ENDBRANCH   6   7
ENDBRANCH   5   6
ENDBRANCH   4   5
ENDBRANCH   1   4
TORSDOF 14
ENDMDL
MODEL 2
REMARK VINA RESULT: -8.996645335      1.357      1.629
REMARK  14 active torsions:
REMARK  status: ('A' for Active; 'I' for Inactive)
REMARK    1  A    between atoms: C4_4  and  C5_5 
REMARK    2  A    between atoms: C5_5  and  C6_6 
REMARK       I    between atoms: C6_6  and  N1_8 
REMARK    3  A    between atoms: N1_8  and  C7_10 
REMARK    4  A    between atoms: C8_15  and  C9_16 
REMARK    5  A    between atoms: C9_16  and  C10_17 
REMARK    6  A    between atoms: C10_17  and  C11_18 
REMARK    7  A    between atoms: C11_18  and  C12_19 
REMARK    8  A    between atoms: C12_19  and  C13_20 
REMARK       I    between atoms: N6_26  and  C15_28 
REMARK    9  A    between atoms: C15_28  and  C16_30 
REMARK   10  A    between atoms: C20_36  and  C21_37 
REMARK       I    between atoms: C21_37  and  N7_39 
REMARK   11  A    between atoms: N7_39  and  C22_41 
REMARK   12  A    between atoms: C22_41  and  C23_42 
REMARK   13  A    between atoms: C23_42  and  C24_43 
REMARK   14  A    between atoms: C24_43  and  C25_44 
ROOT
HETATM    1  C25 UNL     1      17.504  30.482  13.432  1.00  0.00     0.124 C 
HETATM    2  C26 UNL     1      17.931  29.157  13.850  1.00  0.00     0.059 C 
HETATM    3  N8  UNL     1      18.287  28.104  14.188  1.00  0.00    -0.197 NA
ENDROOT
BRANCH   1   4
HETATM    4  C24 UNL     1      18.514  31.546  13.948  1.00  0.00     0.019 C 
BRANCH   4   5
HETATM    5  C23 UNL     1      18.822  31.294  15.366  1.00  0.00     0.045 C 
BRANCH   5   6
HETATM    6  C22 UNL     1      17.772  31.573  16.350  1.00  0.00     0.064 C 
BRANCH   6   7
HETATM    7  N7  UNL     1      17.444  32.866  16.788  1.00  0.00    -0.337 N 
HETATM    8  C21 UNL     1      16.387  33.727  16.479  1.00  0.00     0.255 C 
HETATM    9  O3  UNL     1      15.508  33.370  15.639  1.00  0.00    -0.267 OA
ATOM     10  H7  UNL     1      18.105  33.251  17.463  1.00  0.00     0.168 HD
BRANCH   8  11
HETATM   11  C20 UNL     1      16.236  35.072  17.100  1.00  0.00     0.033 A 
HETATM   12  C19 UNL     1      17.322  35.936  17.078  1.00  0.00     0.024 A 
HETATM   13  C4  UNL     1      17.228  37.175  17.656  1.00  0.00    -0.048 A 
HETATM   14  C3  UNL     1      16.047  37.550  18.259  1.00  0.00     0.014 A 
HETATM   15  C2  UNL     1      14.964  36.712  18.293  1.00  0.00    -0.060 A 
HETATM   16  C1  UNL     1      13.688  37.138  18.951  1.00  0.00     0.048 C 
HETATM   17  C27 UNL     1      15.083  35.459  17.697  1.00  0.00     0.023 A 
BRANCH  13  18
HETATM   18  C5  UNL     1      18.428  38.065  17.629  1.00  0.00     0.141 C 
BRANCH  18  19
HETATM   19  C6  UNL     1      19.136  38.128  18.910  1.00  0.00     0.227 C 
HETATM   20  O1  UNL     1      18.992  39.176  19.608  1.00  0.00    -0.273 OA
HETATM   21  N1  UNL     1      19.931  37.113  19.379  1.00  0.00    -0.306 N 
ATOM     22  H1  UNL     1      20.040  37.056  20.391  1.00  0.00     0.171 HD
BRANCH  21  23
HETATM   23  C7  UNL     1      20.558  36.222  18.685  1.00  0.00     0.167 A 
HETATM   24  N2  UNL     1      20.367  34.878  18.759  1.00  0.00    -0.279 N 
HETATM   25  N3  UNL     1      21.060  34.137  18.012  1.00  0.00    -0.296 N 
ATOM     26  H2  UNL     1      19.680  34.480  19.401  1.00  0.00     0.189 HD
HETATM   27  C8  UNL     1      21.953  34.640  17.178  1.00  0.00     0.069 A 
ATOM     28  H3  UNL     1      20.929  33.126  18.052  1.00  0.00     0.187 HD
HETATM   29  S2  UNL     1      21.782  36.305  17.489  1.00  0.00    -0.038 SA
BRANCH  27  30
HETATM   30  C9  UNL     1      22.841  33.881  16.222  1.00  0.00     0.066 C 
BRANCH  30  31
HETATM   31  C10 UNL     1      22.309  32.496  16.083  1.00  0.00     0.007 C 
BRANCH  31  32
HETATM   32  C11 UNL     1      23.054  31.799  14.962  1.00  0.00     0.007 C 
BRANCH  32  33
HETATM   33  C12 UNL     1      22.248  31.701  13.688  1.00  0.00     0.066 C 
BRANCH  33  34
HETATM   34  C13 UNL     1      21.874  30.253  13.523  1.00  0.00     0.069 A 
HETATM   35  N4  UNL     1      21.883  29.267  14.381  1.00  0.00    -0.296 N 
HETATM   36  N5  UNL     1      21.522  28.098  14.061  1.00  0.00    -0.279 N 
ATOM     37  H4  UNL     1      22.190  29.445  15.338  1.00  0.00     0.187 HD
HETATM   38  C14 UNL     1      21.119  27.874  12.804  1.00  0.00     0.167 A 
ATOM     39  H5  UNL     1      21.538  27.342  14.746  1.00  0.00     0.189 HD
HETATM   40  N6  UNL     1      20.715  26.756  12.278  1.00  0.00    -0.306 N 
HETATM   41  S1  UNL     1      21.288  29.438  12.109  1.00  0.00    -0.038 SA
HETATM   42  C15 UNL     1      20.318  26.693  10.926  1.00  0.00     0.227 C 
ATOM     43  H6  UNL     1      20.683  25.913  12.852  1.00  0.00     0.171 HD
HETATM   44  O2  UNL     1      21.067  26.156  10.089  1.00  0.00    -0.273 OA
BRANCH  42  45
HETATM   45  C16 UNL     1      19.032  27.258  10.507  1.00  0.00     0.070 C 
HETATM   46  C17 UNL     1      17.883  26.483  11.170  1.00  0.00     0.019 C 
HETATM   47  C18 UNL     1      18.824  27.156   9.007  1.00  0.00     0.019 C 
ENDBRANCH  42  45
ENDBRANCH  33  34
ENDBRANCH  32  33
ENDBRANCH  31  32
ENDBRANCH  30  31
ENDBRANCH  27  30
ENDBRANCH  21  23
ENDBRANCH  18  19
ENDBRANCH  13  18
ENDBRANCH   8  11
ENDBRANCH   6   7
ENDBRANCH   5   6
ENDBRANCH   4   5
ENDBRANCH   1   4
TORSDOF 14
ENDMDL
MODEL 3
REMARK VINA RESULT: -8.979471309      2.724      5.463
REMARK  14 active torsions:
REMARK  status: ('A' for Active; 'I' for Inactive)
REMARK    1  A    between atoms: C4_4  and  C5_5 
REMARK    2  A    between atoms: C5_5  and  C6_6 
REMARK       I    between atoms: C6_6  and  N1_8 
REMARK    3  A    between atoms: N1_8  and  C7_10 
REMARK    4  A    between atoms: C8_15  and  C9_16 
REMARK    5  A    between atoms: C9_16  and  C10_17 
REMARK    6  A    between atoms: C10_17  and  C11_18 
REMARK    7  A    between atoms: C11_18  and  C12_19 
REMARK    8  A    between atoms: C12_19  and  C13_20 
REMARK       I    between atoms: N6_26  and  C15_28 
REMARK    9  A    between atoms: C15_28  and  C16_30 
REMARK   10  A    between atoms: C20_36  and  C21_37 
REMARK       I    between atoms: C21_37  and  N7_39 
REMARK   11  A    between atoms: N7_39  and  C22_41 
REMARK   12  A    between atoms: C22_41  and  C23_42 
REMARK   13  A    between atoms: C23_42  and  C24_43 
REMARK   14  A    between atoms: C24_43  and  C25_44 
ROOT
HETATM    1  C25 UNL     1      15.635  32.285  15.928  1.00  0.00     0.124 C 
HETATM    2  C26 UNL     1      16.756  32.827  15.177  1.00  0.00     0.059 C 
HETATM    3  N8  UNL     1      17.649  33.276  14.585  1.00  0.00    -0.197 NA
ENDROOT
BRANCH   1   4
HETATM    4  C24 UNL     1      15.247  33.263  17.072  1.00  0.00     0.019 C 
BRANCH   4   5
HETATM    5  C23 UNL     1      15.019  34.609  16.521  1.00  0.00     0.045 C 
BRANCH   5   6
HETATM    6  C22 UNL     1      15.827  35.709  17.055  1.00  0.00     0.064 C 
BRANCH   6   7
HETATM    7  N7  UNL     1      17.230  35.732  17.012  1.00  0.00    -0.337 N 
HETATM    8  C21 UNL     1      18.208  35.222  17.870  1.00  0.00     0.255 C 
HETATM    9  O3  UNL     1      17.865  34.616  18.928  1.00  0.00    -0.267 OA
ATOM     10  H7  UNL     1      17.609  36.214  16.196  1.00  0.00     0.168 HD
BRANCH   8  11
HETATM   11  C20 UNL     1      19.666  35.355  17.598  1.00  0.00     0.033 A 
HETATM   12  C19 UNL     1      20.199  34.693  16.501  1.00  0.00     0.024 A 
HETATM   13  C4  UNL     1      21.540  34.776  16.229  1.00  0.00    -0.048 A 
HETATM   14  C3  UNL     1      22.349  35.523  17.058  1.00  0.00     0.014 A 
HETATM   15  C2  UNL     1      21.845  36.184  18.146  1.00  0.00    -0.060 A 
HETATM   16  C1  UNL     1      22.741  36.992  19.032  1.00  0.00     0.048 C 
HETATM   17  C27 UNL     1      20.479  36.086  18.401  1.00  0.00     0.023 A 
BRANCH  13  18
HETATM   18  C5  UNL     1      22.074  34.028  15.052  1.00  0.00     0.141 C 
BRANCH  18  19
HETATM   19  C6  UNL     1      22.998  32.951  15.415  1.00  0.00     0.227 C 
HETATM   20  O1  UNL     1      24.237  33.162  15.256  1.00  0.00    -0.273 OA
HETATM   21  N1  UNL     1      22.582  31.744  15.919  1.00  0.00    -0.306 N 
ATOM     22  H1  UNL     1      23.252  31.244  16.502  1.00  0.00     0.171 HD
BRANCH  21  23
HETATM   23  C7  UNL     1      21.440  31.168  15.737  1.00  0.00     0.167 A 
HETATM   24  N2  UNL     1      20.542  30.859  16.711  1.00  0.00    -0.279 N 
HETATM   25  N3  UNL     1      19.467  30.296  16.371  1.00  0.00    -0.296 N 
ATOM     26  H2  UNL     1      20.734  31.076  17.690  1.00  0.00     0.189 HD
HETATM   27  C8  UNL     1      19.209  30.009  15.107  1.00  0.00     0.069 A 
ATOM     28  H3  UNL     1      18.781  30.058  17.088  1.00  0.00     0.187 HD
HETATM   29  S2  UNL     1      20.617  30.592  14.349  1.00  0.00    -0.038 SA
BRANCH  27  30
HETATM   30  C9  UNL     1      17.967  29.351  14.555  1.00  0.00     0.066 C 
BRANCH  30  31
HETATM   31  C10 UNL     1      17.785  29.796  13.145  1.00  0.00     0.007 C 
BRANCH  31  32
HETATM   32  C11 UNL     1      17.056  28.708  12.382  1.00  0.00     0.007 C 
BRANCH  32  33
HETATM   33  C12 UNL     1      17.133  28.884  10.884  1.00  0.00     0.066 C 
BRANCH  33  34
HETATM   34  C13 UNL     1      18.273  28.027  10.406  1.00  0.00     0.069 A 
HETATM   35  N4  UNL     1      18.417  27.333   9.307  1.00  0.00    -0.296 N 
HETATM   36  N5  UNL     1      19.465  26.667   9.068  1.00  0.00    -0.279 N 
ATOM     37  H4  UNL     1      17.661  27.329   8.621  1.00  0.00     0.187 HD
HETATM   38  C14 UNL     1      20.452  26.680   9.974  1.00  0.00     0.167 A 
ATOM     39  H5  UNL     1      19.557  26.132   8.205  1.00  0.00     0.189 HD
HETATM   40  N6  UNL     1      21.597  26.068   9.920  1.00  0.00    -0.306 N 
HETATM   41  S1  UNL     1      19.788  27.703  11.187  1.00  0.00    -0.038 SA
HETATM   42  C15 UNL     1      22.534  26.191  10.968  1.00  0.00     0.227 C 
ATOM     43  H6  UNL     1      21.822  25.490   9.109  1.00  0.00     0.171 HD
HETATM   44  O2  UNL     1      22.707  25.242  11.755  1.00  0.00    -0.273 OA
BRANCH  42  45
HETATM   45  C16 UNL     1      23.299  27.431  11.131  1.00  0.00     0.070 C 
HETATM   46  C17 UNL     1      24.800  27.139  10.981  1.00  0.00     0.019 C 
HETATM   47  C18 UNL     1      23.107  28.045  12.506  1.00  0.00     0.019 C 
ENDBRANCH  42  45
ENDBRANCH  33  34
ENDBRANCH  32  33
ENDBRANCH  31  32
ENDBRANCH  30  31
ENDBRANCH  27  30
ENDBRANCH  21  23
ENDBRANCH  18  19
ENDBRANCH  13  18
ENDBRANCH   8  11
ENDBRANCH   6   7
ENDBRANCH   5   6
ENDBRANCH   4   5
ENDBRANCH   1   4
TORSDOF 14
ENDMDL
MODEL 4
REMARK VINA RESULT: -8.968546280      2.935      5.566
REMARK  14 active torsions:
REMARK  status: ('A' for Active; 'I' for Inactive)
REMARK    1  A    between atoms: C4_4  and  C5_5 
REMARK    2  A    between atoms: C5_5  and  C6_6 
REMARK       I    between atoms: C6_6  and  N1_8 
REMARK    3  A    between atoms: N1_8  and  C7_10 
REMARK    4  A    between atoms: C8_15  and  C9_16 
REMARK    5  A    between atoms: C9_16  and  C10_17 
REMARK    6  A    between atoms: C10_17  and  C11_18 
REMARK    7  A    between atoms: C11_18  and  C12_19 
REMARK    8  A    between atoms: C12_19  and  C13_20 
REMARK       I    between atoms: N6_26  and  C15_28 
REMARK    9  A    between atoms: C15_28  and  C16_30 
REMARK   10  A    between atoms: C20_36  and  C21_37 
REMARK       I    between atoms: C21_37  and  N7_39 
REMARK   11  A    between atoms: N7_39  and  C22_41 
REMARK   12  A    between atoms: C22_41  and  C23_42 
REMARK   13  A    between atoms: C23_42  and  C24_43 
REMARK   14  A    between atoms: C24_43  and  C25_44 
ROOT
HETATM    1  C25 UNL     1      21.912  30.503  13.042  1.00  0.00     0.124 C 
HETATM    2  C26 UNL     1      20.888  31.312  12.401  1.00  0.00     0.059 C 
HETATM    3  N8  UNL     1      20.065  31.964  11.904  1.00  0.00    -0.197 NA
ENDROOT
BRANCH   1   4
HETATM    4  C24 UNL     1      22.053  30.920  14.534  1.00  0.00     0.019 C 
BRANCH   4   5
HETATM    5  C23 UNL     1      23.432  31.364  14.798  1.00  0.00     0.045 C 
BRANCH   5   6
HETATM    6  C22 UNL     1      23.687  32.806  14.835  1.00  0.00     0.064 C 
BRANCH   6   7
HETATM    7  N7  UNL     1      22.812  33.733  15.423  1.00  0.00    -0.337 N 
HETATM    8  C21 UNL     1      22.204  33.789  16.681  1.00  0.00     0.255 C 
HETATM    9  O3  UNL     1      22.406  32.863  17.521  1.00  0.00    -0.267 OA
ATOM     10  H7  UNL     1      22.574  34.518  14.816  1.00  0.00     0.168 HD
BRANCH   8  11
HETATM   11  C20 UNL     1      21.310  34.907  17.094  1.00  0.00     0.033 A 
HETATM   12  C19 UNL     1      20.006  34.609  17.463  1.00  0.00     0.024 A 
HETATM   13  C4  UNL     1      19.148  35.613  17.831  1.00  0.00    -0.048 A 
HETATM   14  C3  UNL     1      19.596  36.917  17.828  1.00  0.00     0.014 A 
HETATM   15  C2  UNL     1      20.879  37.232  17.466  1.00  0.00    -0.060 A 
HETATM   16  C1  UNL     1      21.346  38.654  17.471  1.00  0.00     0.048 C 
HETATM   17  C27 UNL     1      21.732  36.195  17.098  1.00  0.00     0.023 A 
BRANCH  13  18
HETATM   18  C5  UNL     1      17.746  35.251  18.199  1.00  0.00     0.141 C 
BRANCH  18  19
HETATM   19  C6  UNL     1      16.740  35.839  17.312  1.00  0.00     0.227 C 
HETATM   20  O1  UNL     1      15.962  36.711  17.803  1.00  0.00    -0.273 OA
HETATM   21  N1  UNL     1      16.611  35.493  15.990  1.00  0.00    -0.306 N 
ATOM     22  H1  UNL     1      16.202  36.198  15.377  1.00  0.00     0.171 HD
BRANCH  21  23
HETATM   23  C7  UNL     1      16.948  34.377  15.434  1.00  0.00     0.167 A 
HETATM   24  N2  UNL     1      17.959  34.208  14.540  1.00  0.00    -0.279 N 
HETATM   25  N3  UNL     1      18.163  33.050  14.086  1.00  0.00    -0.296 N 
ATOM     26  H2  UNL     1      18.536  34.996  14.246  1.00  0.00     0.189 HD
HETATM   27  C8  UNL     1      17.421  32.022  14.459  1.00  0.00     0.069 A 
ATOM     28  H3  UNL     1      18.918  32.903  13.416  1.00  0.00     0.187 HD
HETATM   29  S2  UNL     1      16.349  32.776  15.546  1.00  0.00    -0.038 SA
BRANCH  27  30
HETATM   30  C9  UNL     1      17.556  30.587  14.010  1.00  0.00     0.066 C 
BRANCH  30  31
HETATM   31  C10 UNL     1      18.436  29.872  14.975  1.00  0.00     0.007 C 
BRANCH  31  32
HETATM   32  C11 UNL     1      18.991  28.632  14.302  1.00  0.00     0.007 C 
BRANCH  32  33
HETATM   33  C12 UNL     1      18.539  28.487  12.868  1.00  0.00     0.066 C 
BRANCH  33  34
HETATM   34  C13 UNL     1      19.268  27.298  12.304  1.00  0.00     0.069 A 
HETATM   35  N4  UNL     1      18.846  26.092  12.025  1.00  0.00    -0.296 N 
HETATM   36  N5  UNL     1      19.612  25.210  11.542  1.00  0.00    -0.279 N 
ATOM     37  H4  UNL     1      17.869  25.856  12.202  1.00  0.00     0.187 HD
HETATM   38  C14 UNL     1      20.892  25.530  11.312  1.00  0.00     0.167 A 
ATOM     39  H5  UNL     1      19.263  24.275  11.333  1.00  0.00     0.189 HD
HETATM   40  N6  UNL     1      21.832  24.775  10.826  1.00  0.00    -0.306 N 
HETATM   41  S1  UNL     1      20.931  27.170  11.829  1.00  0.00    -0.038 SA
HETATM   42  C15 UNL     1      23.139  25.274  10.643  1.00  0.00     0.227 C 
ATOM     43  H6  UNL     1      21.623  23.808  10.575  1.00  0.00     0.171 HD
HETATM   44  O2  UNL     1      24.046  24.927  11.422  1.00  0.00    -0.273 OA
BRANCH  42  45
HETATM   45  C16 UNL     1      23.428  26.199   9.542  1.00  0.00     0.070 C 
HETATM   46  C17 UNL     1      23.864  25.406   8.300  1.00  0.00     0.019 C 
HETATM   47  C18 UNL     1      24.562  27.150   9.877  1.00  0.00     0.019 C 
ENDBRANCH  42  45
ENDBRANCH  33  34
ENDBRANCH  32  33
ENDBRANCH  31  32
ENDBRANCH  30  31
ENDBRANCH  27  30
ENDBRANCH  21  23
ENDBRANCH  18  19
ENDBRANCH  13  18
ENDBRANCH   8  11
ENDBRANCH   6   7
ENDBRANCH   5   6
ENDBRANCH   4   5
ENDBRANCH   1   4
TORSDOF 14
ENDMDL
MODEL 5
REMARK VINA RESULT: -8.884067478      1.997      2.585
REMARK  14 active torsions:
REMARK  status: ('A' for Active; 'I' for Inactive)
REMARK    1  A    between atoms: C4_4  and  C5_5 
REMARK    2  A    between atoms: C5_5  and  C6_6 
REMARK       I    between atoms: C6_6  and  N1_8 
REMARK    3  A    between atoms: N1_8  and  C7_10 
REMARK    4  A    between atoms: C8_15  and  C9_16 
REMARK    5  A    between atoms: C9_16  and  C10_17 
REMARK    6  A    between atoms: C10_17  and  C11_18 
REMARK    7  A    between atoms: C11_18  and  C12_19 
REMARK    8  A    between atoms: C12_19  and  C13_20 
REMARK       I    between atoms: N6_26  and  C15_28 
REMARK    9  A    between atoms: C15_28  and  C16_30 
REMARK   10  A    between atoms: C20_36  and  C21_37 
REMARK       I    between atoms: C21_37  and  N7_39 
REMARK   11  A    between atoms: N7_39  and  C22_41 
REMARK   12  A    between atoms: C22_41  and  C23_42 
REMARK   13  A    between atoms: C23_42  and  C24_43 
REMARK   14  A    between atoms: C24_43  and  C25_44 
ROOT
HETATM    1  C25 UNL     1      17.373  30.705  13.363  1.00  0.00     0.124 C 
HETATM    2  C26 UNL     1      17.729  29.296  13.322  1.00  0.00     0.059 C 
HETATM    3  N8  UNL     1      18.030  28.174  13.293  1.00  0.00    -0.197 NA
ENDROOT
BRANCH   1   4
HETATM    4  C24 UNL     1      18.527  31.520  14.013  1.00  0.00     0.019 C 
BRANCH   4   5
HETATM    5  C23 UNL     1      18.812  30.995  15.359  1.00  0.00     0.045 C 
BRANCH   5   6
HETATM    6  C22 UNL     1      17.872  31.330  16.432  1.00  0.00     0.064 C 
BRANCH   6   7
HETATM    7  N7  UNL     1      17.582  32.646  16.826  1.00  0.00    -0.337 N 
HETATM    8  C21 UNL     1      16.413  33.410  16.775  1.00  0.00     0.255 C 
HETATM    9  O3  UNL     1      15.357  32.915  16.281  1.00  0.00    -0.267 OA
ATOM     10  H7  UNL     1      18.380  33.140  17.228  1.00  0.00     0.168 HD
BRANCH   8  11
HETATM   11  C20 UNL     1      16.342  34.808  17.283  1.00  0.00     0.033 A 
HETATM   12  C19 UNL     1      17.481  35.598  17.208  1.00  0.00     0.024 A 
HETATM   13  C4  UNL     1      17.461  36.884  17.683  1.00  0.00    -0.048 A 
HETATM   14  C3  UNL     1      16.299  37.379  18.236  1.00  0.00     0.014 A 
HETATM   15  C2  UNL     1      15.165  36.616  18.321  1.00  0.00    -0.060 A 
HETATM   16  C1  UNL     1      13.913  37.174  18.924  1.00  0.00     0.048 C 
HETATM   17  C27 UNL     1      15.210  35.314  17.830  1.00  0.00     0.023 A 
BRANCH  13  18
HETATM   18  C5  UNL     1      18.715  37.691  17.602  1.00  0.00     0.141 C 
BRANCH  18  19
HETATM   19  C6  UNL     1      19.490  37.690  18.845  1.00  0.00     0.227 C 
HETATM   20  O1  UNL     1      19.406  38.712  19.590  1.00  0.00    -0.273 OA
HETATM   21  N1  UNL     1      20.287  36.642  19.231  1.00  0.00    -0.306 N 
ATOM     22  H1  UNL     1      20.447  36.542  20.233  1.00  0.00     0.171 HD
BRANCH  21  23
HETATM   23  C7  UNL     1      20.857  35.766  18.471  1.00  0.00     0.167 A 
HETATM   24  N2  UNL     1      20.677  34.420  18.536  1.00  0.00    -0.279 N 
HETATM   25  N3  UNL     1      21.308  33.696  17.720  1.00  0.00    -0.296 N 
ATOM     26  H2  UNL     1      20.048  34.007  19.225  1.00  0.00     0.189 HD
HETATM   27  C8  UNL     1      22.126  34.220  16.824  1.00  0.00     0.069 A 
ATOM     28  H3  UNL     1      21.184  32.684  17.752  1.00  0.00     0.187 HD
HETATM   29  S2  UNL     1      21.976  35.878  17.179  1.00  0.00    -0.038 SA
BRANCH  27  30
HETATM   30  C9  UNL     1      22.934  33.482  15.783  1.00  0.00     0.066 C 
BRANCH  30  31
HETATM   31  C10 UNL     1      22.315  32.144  15.566  1.00  0.00     0.007 C 
BRANCH  31  32
HETATM   32  C11 UNL     1      22.971  31.494  14.365  1.00  0.00     0.007 C 
BRANCH  32  33
HETATM   33  C12 UNL     1      22.011  31.262  13.221  1.00  0.00     0.066 C 
BRANCH  33  34
HETATM   34  C13 UNL     1      21.851  29.772  13.086  1.00  0.00     0.069 A 
HETATM   35  N4  UNL     1      21.015  28.949  13.662  1.00  0.00    -0.296 N 
HETATM   36  N5  UNL     1      21.022  27.708  13.418  1.00  0.00    -0.279 N 
ATOM     37  H4  UNL     1      20.335  29.318  14.328  1.00  0.00     0.187 HD
HETATM   38  C14 UNL     1      21.916  27.233  12.540  1.00  0.00     0.167 A 
ATOM     39  H5  UNL     1      20.361  27.083  13.879  1.00  0.00     0.189 HD
HETATM   40  N6  UNL     1      22.087  26.003  12.156  1.00  0.00    -0.306 N 
HETATM   41  S1  UNL     1      22.745  28.671  12.087  1.00  0.00    -0.038 SA
HETATM   42  C15 UNL     1      23.083  25.672  11.213  1.00  0.00     0.227 C 
ATOM     43  H6  UNL     1      21.494  25.268  12.542  1.00  0.00     0.171 HD
HETATM   44  O2  UNL     1      24.122  25.099  11.590  1.00  0.00    -0.273 OA
BRANCH  42  45
HETATM   45  C16 UNL     1      22.895  26.000   9.796  1.00  0.00     0.070 C 
HETATM   46  C17 UNL     1      22.295  24.793   9.059  1.00  0.00     0.019 C 
HETATM   47  C18 UNL     1      24.207  26.328   9.107  1.00  0.00     0.019 C 
ENDBRANCH  42  45
ENDBRANCH  33  34
ENDBRANCH  32  33
ENDBRANCH  31  32
ENDBRANCH  30  31
ENDBRANCH  27  30
ENDBRANCH  21  23
ENDBRANCH  18  19
ENDBRANCH  13  18
ENDBRANCH   8  11
ENDBRANCH   6   7
ENDBRANCH   5   6
ENDBRANCH   4   5
ENDBRANCH   1   4
TORSDOF 14
ENDMDL
