MODEL 1
REMARK VINA RESULT: -9.076058923      0.000      0.000
REMARK  16 active torsions:
REMARK  status: ('A' for Active; 'I' for Inactive)
REMARK    1  A    between atoms: C2_2  and  N1_3 
REMARK    2  A    between atoms: C2_2  and  C12_17 
REMARK       I    between atoms: N1_3  and  C3_5 
REMARK    3  A    between atoms: C3_5  and  O2_7 
REMARK    4  A    between atoms: O2_7  and  C4_8 
REMARK    5  A    between atoms: C4_8  and  C5_9 
REMARK    6  A    between atoms: C5_9  and  S1_10 
REMARK    7  A    between atoms: S1_10  and  C6_11 
REMARK       I    between atoms: C12_17  and  N2_19 
REMARK    8  A    between atoms: C16_23  and  C17_24 
REMARK       I    between atoms: C17_24  and  N3_26 
REMARK    9  A    between atoms: C21_30  and  C22_31 
REMARK       I    between atoms: C22_31  and  N4_33 
REMARK   10  A    between atoms: N4_33  and  C23_35 
REMARK   11  A    between atoms: C23_35  and  C24_36 
REMARK   12  A    between atoms: C24_36  and  C25_37 
REMARK   13  A    between atoms: C25_37  and  C26_38 
REMARK   14  A    between atoms: C26_38  and  C27_39 
REMARK   15  A    between atoms: C27_39  and  O6_40 
REMARK   16  A    between atoms: N5_42  and  O7_44 
ROOT
HETATM    1  C12 UNL     1      18.677  31.110  14.892  1.00  0.00     0.243 C 
HETATM    2  O3  UNL     1      18.276  29.930  15.206  1.00  0.00    -0.271 OA
HETATM    3  N2  UNL     1      17.868  32.176  15.314  1.00  0.00    -0.337 N 
HETATM    4  C13 UNL     1      16.590  32.048  16.037  1.00  0.00     0.127 C 
HETATM    5  C14 UNL     1      15.749  33.196  15.588  1.00  0.00     0.022 C 
HETATM    6  C15 UNL     1      16.673  34.102  14.850  1.00  0.00     0.037 C 
HETATM    7  C16 UNL     1      18.046  33.621  15.220  1.00  0.00     0.179 C 
ENDROOT
BRANCH   7   8
HETATM    8  C17 UNL     1      18.544  34.096  16.519  1.00  0.00     0.243 C 
HETATM    9  O4  UNL     1      17.693  34.224  17.468  1.00  0.00    -0.271 OA
HETATM   10  N3  UNL     1      19.905  34.428  16.803  1.00  0.00    -0.337 N 
HETATM   11  C18 UNL     1      21.079  34.398  15.992  1.00  0.00     0.127 C 
HETATM   12  C21 UNL     1      20.326  34.899  18.131  1.00  0.00     0.179 C 
HETATM   13  C19 UNL     1      22.187  33.990  16.948  1.00  0.00     0.022 C 
HETATM   14  C20 UNL     1      21.813  34.792  18.186  1.00  0.00     0.037 C 
BRANCH  12  15
HETATM   15  C22 UNL     1      19.864  36.292  18.395  1.00  0.00     0.240 C 
HETATM   16  O5  UNL     1      20.110  36.754  19.534  1.00  0.00    -0.271 OA
HETATM   17  N4  UNL     1      19.187  37.012  17.382  1.00  0.00    -0.359 N 
ATOM     18  H4  UNL     1      19.036  36.563  16.479  1.00  0.00     0.162 HD
BRANCH  17  19
HETATM   19  C23 UNL     1      18.708  38.338  17.574  1.00  0.00     0.122 C 
BRANCH  19  20
HETATM   20  C24 UNL     1      17.256  38.527  17.331  1.00  0.00     0.020 C 
BRANCH  20  21
HETATM   21  C25 UNL     1      16.369  37.364  17.503  1.00  0.00     0.010 C 
BRANCH  21  22
HETATM   22  C26 UNL     1      15.962  37.028  18.890  1.00  0.00     0.086 C 
BRANCH  22  23
HETATM   23  C27 UNL     1      14.515  36.568  18.908  1.00  0.00     0.135 C 
HETATM   24  N5  UNL     1      14.162  35.361  18.799  1.00  0.00    -0.251 N 
ATOM     25  H5  UNL     1      13.161  35.168  18.824  1.00  0.00     0.196 HD
BRANCH  23  26
HETATM   26  O6  UNL     1      13.527  37.534  19.052  1.00  0.00    -0.348 OA
ATOM     27  H6  UNL     1      12.682  37.369  18.651  1.00  0.00     0.219 HD
ENDBRANCH  23  26
BRANCH  24  28
HETATM   28  O7  UNL     1      15.006  34.277  18.650  1.00  0.00    -0.288 OA
ATOM     29  H7  UNL     1      15.144  33.781  17.852  1.00  0.00     0.244 HD
ENDBRANCH  24  28
ENDBRANCH  22  23
ENDBRANCH  21  22
ENDBRANCH  20  21
ENDBRANCH  19  20
ENDBRANCH  17  19
ENDBRANCH  12  15
ENDBRANCH   7   8
BRANCH   1  30
HETATM   30  C2  UNL     1      19.925  31.263  14.128  1.00  0.00     0.175 C 
HETATM   31  C1  UNL     1      19.681  32.015  12.816  1.00  0.00     0.042 C 
BRANCH  30  32
HETATM   32  N1  UNL     1      20.429  29.923  13.785  1.00  0.00    -0.324 N 
HETATM   33  C3  UNL     1      21.872  29.777  13.769  1.00  0.00     0.361 C 
HETATM   34  O1  UNL     1      22.599  30.759  14.018  1.00  0.00    -0.238 OA
ATOM     35  H1  UNL     1      19.802  29.147  13.572  1.00  0.00     0.165 HD
BRANCH  33  36
HETATM   36  O2  UNL     1      22.470  28.589  13.493  1.00  0.00    -0.303 OA
BRANCH  36  37
HETATM   37  C4  UNL     1      22.694  27.888  12.333  1.00  0.00     0.191 C 
BRANCH  37  38
HETATM   38  C5  UNL     1      21.709  26.875  11.894  1.00  0.00     0.101 C 
BRANCH  38  39
HETATM   39  S1  UNL     1      20.157  27.369  11.232  1.00  0.00    -0.162 SA
BRANCH  39  40
HETATM   40  C6  UNL     1      18.702  26.559  11.906  1.00  0.00     0.047 C 
HETATM   41  C7  UNL     1      17.772  27.511  12.643  1.00  0.00     0.015 C 
HETATM   42  C8  UNL     1      17.695  28.780  11.860  1.00  0.00     0.001 C 
HETATM   43  C9  UNL     1      17.227  28.523  10.464  1.00  0.00     0.000 C 
HETATM   44  C10 UNL     1      17.825  27.334   9.792  1.00  0.00     0.001 C 
HETATM   45  C11 UNL     1      17.876  26.113  10.684  1.00  0.00     0.015 C 
ENDBRANCH  39  40
ENDBRANCH  38  39
ENDBRANCH  37  38
ENDBRANCH  36  37
ENDBRANCH  33  36
ENDBRANCH  30  32
ENDBRANCH   1  30
TORSDOF 16
ENDMDL
MODEL 2
REMARK VINA RESULT: -8.854241006      1.994      4.740
REMARK  16 active torsions:
REMARK  status: ('A' for Active; 'I' for Inactive)
REMARK    1  A    between atoms: C2_2  and  N1_3 
REMARK    2  A    between atoms: C2_2  and  C12_17 
REMARK       I    between atoms: N1_3  and  C3_5 
REMARK    3  A    between atoms: C3_5  and  O2_7 
REMARK    4  A    between atoms: O2_7  and  C4_8 
REMARK    5  A    between atoms: C4_8  and  C5_9 
REMARK    6  A    between atoms: C5_9  and  S1_10 
REMARK    7  A    between atoms: S1_10  and  C6_11 
REMARK       I    between atoms: C12_17  and  N2_19 
REMARK    8  A    between atoms: C16_23  and  C17_24 
REMARK       I    between atoms: C17_24  and  N3_26 
REMARK    9  A    between atoms: C21_30  and  C22_31 
REMARK       I    between atoms: C22_31  and  N4_33 
REMARK   10  A    between atoms: N4_33  and  C23_35 
REMARK   11  A    between atoms: C23_35  and  C24_36 
REMARK   12  A    between atoms: C24_36  and  C25_37 
REMARK   13  A    between atoms: C25_37  and  C26_38 
REMARK   14  A    between atoms: C26_38  and  C27_39 
REMARK   15  A    between atoms: C27_39  and  O6_40 
REMARK   16  A    between atoms: N5_42  and  O7_44 
ROOT
HETATM    1  C12 UNL     1      21.025  31.150  13.731  1.00  0.00     0.243 C 
HETATM    2  O3  UNL     1      21.641  31.329  12.618  1.00  0.00    -0.271 OA
HETATM    3  N2  UNL     1      21.318  32.060  14.758  1.00  0.00    -0.337 N 
HETATM    4  C13 UNL     1      22.298  33.159  14.677  1.00  0.00     0.127 C 
HETATM    5  C14 UNL     1      22.858  33.310  16.052  1.00  0.00     0.022 C 
HETATM    6  C15 UNL     1      21.975  32.495  16.933  1.00  0.00     0.037 C 
HETATM    7  C16 UNL     1      20.760  32.219  16.097  1.00  0.00     0.179 C 
ENDROOT
BRANCH   7   8
HETATM    8  C17 UNL     1      19.778  33.311  16.045  1.00  0.00     0.243 C 
HETATM    9  O4  UNL     1      20.225  34.504  15.909  1.00  0.00    -0.271 OA
HETATM   10  N3  UNL     1      18.361  33.144  16.138  1.00  0.00    -0.337 N 
HETATM   11  C18 UNL     1      17.550  31.980  16.289  1.00  0.00     0.127 C 
HETATM   12  C21 UNL     1      17.441  34.290  16.078  1.00  0.00     0.179 C 
HETATM   13  C19 UNL     1      16.301  32.283  15.479  1.00  0.00     0.022 C 
HETATM   14  C20 UNL     1      16.074  33.746  15.830  1.00  0.00     0.037 C 
BRANCH  12  15
HETATM   15  C22 UNL     1      17.491  35.103  17.328  1.00  0.00     0.240 C 
HETATM   16  O5  UNL     1      16.862  34.650  18.313  1.00  0.00    -0.271 OA
HETATM   17  N4  UNL     1      18.220  36.316  17.348  1.00  0.00    -0.359 N 
ATOM     18  H4  UNL     1      18.711  36.607  16.503  1.00  0.00     0.162 HD
BRANCH  17  19
HETATM   19  C23 UNL     1      18.296  37.145  18.502  1.00  0.00     0.122 C 
BRANCH  19  20
HETATM   20  C24 UNL     1      19.424  38.108  18.516  1.00  0.00     0.020 C 
BRANCH  20  21
HETATM   21  C25 UNL     1      20.653  37.725  19.233  1.00  0.00     0.010 C 
BRANCH  21  22
HETATM   22  C26 UNL     1      21.177  36.359  18.986  1.00  0.00     0.086 C 
BRANCH  22  23
HETATM   23  C27 UNL     1      21.274  35.596  20.296  1.00  0.00     0.135 C 
HETATM   24  N5  UNL     1      20.366  34.838  20.733  1.00  0.00    -0.251 N 
ATOM     25  H5  UNL     1      20.539  34.376  21.626  1.00  0.00     0.196 HD
BRANCH  23  26
HETATM   26  O6  UNL     1      22.430  35.746  21.051  1.00  0.00    -0.348 OA
ATOM     27  H6  UNL     1      22.352  35.705  21.997  1.00  0.00     0.219 HD
ENDBRANCH  23  26
BRANCH  24  28
HETATM   28  O7  UNL     1      19.158  34.574  20.116  1.00  0.00    -0.288 OA
ATOM     29  H7  UNL     1      18.595  33.828  20.284  1.00  0.00     0.244 HD
ENDBRANCH  24  28
ENDBRANCH  22  23
ENDBRANCH  21  22
ENDBRANCH  20  21
ENDBRANCH  19  20
ENDBRANCH  17  19
ENDBRANCH  12  15
ENDBRANCH   7   8
BRANCH   1  30
HETATM   30  C2  UNL     1      20.078  30.032  13.854  1.00  0.00     0.175 C 
HETATM   31  C1  UNL     1      20.627  28.942  14.780  1.00  0.00     0.042 C 
BRANCH  30  32
HETATM   32  N1  UNL     1      19.891  29.430  12.523  1.00  0.00    -0.324 N 
HETATM   33  C3  UNL     1      18.515  29.262  12.095  1.00  0.00     0.361 C 
HETATM   34  O1  UNL     1      17.583  29.603  12.849  1.00  0.00    -0.238 OA
ATOM     35  H1  UNL     1      20.679  29.150  11.940  1.00  0.00     0.165 HD
BRANCH  33  36
HETATM   36  O2  UNL     1      18.201  28.744  10.879  1.00  0.00    -0.303 OA
BRANCH  36  37
HETATM   37  C4  UNL     1      18.701  27.702  10.136  1.00  0.00     0.191 C 
BRANCH  37  38
HETATM   38  C5  UNL     1      19.474  26.635  10.809  1.00  0.00     0.101 C 
BRANCH  38  39
HETATM   39  S1  UNL     1      21.102  26.241  10.274  1.00  0.00    -0.162 SA
BRANCH  39  40
HETATM   40  C6  UNL     1      22.313  25.916  11.561  1.00  0.00     0.047 C 
HETATM   41  C7  UNL     1      23.654  25.444  11.019  1.00  0.00     0.015 C 
HETATM   42  C8  UNL     1      23.970  26.249   9.803  1.00  0.00     0.001 C 
HETATM   43  C9  UNL     1      23.987  27.711  10.115  1.00  0.00     0.000 C 
HETATM   44  C10 UNL     1      22.885  28.195  10.995  1.00  0.00     0.001 C 
HETATM   45  C11 UNL     1      22.633  27.291  12.181  1.00  0.00     0.015 C 
ENDBRANCH  39  40
ENDBRANCH  38  39
ENDBRANCH  37  38
ENDBRANCH  36  37
ENDBRANCH  33  36
ENDBRANCH  30  32
ENDBRANCH   1  30
TORSDOF 16
ENDMDL
MODEL 3
REMARK VINA RESULT: -8.853967335      2.098      4.859
REMARK  16 active torsions:
REMARK  status: ('A' for Active; 'I' for Inactive)
REMARK    1  A    between atoms: C2_2  and  N1_3 
REMARK    2  A    between atoms: C2_2  and  C12_17 
REMARK       I    between atoms: N1_3  and  C3_5 
REMARK    3  A    between atoms: C3_5  and  O2_7 
REMARK    4  A    between atoms: O2_7  and  C4_8 
REMARK    5  A    between atoms: C4_8  and  C5_9 
REMARK    6  A    between atoms: C5_9  and  S1_10 
REMARK    7  A    between atoms: S1_10  and  C6_11 
REMARK       I    between atoms: C12_17  and  N2_19 
REMARK    8  A    between atoms: C16_23  and  C17_24 
REMARK       I    between atoms: C17_24  and  N3_26 
REMARK    9  A    between atoms: C21_30  and  C22_31 
REMARK       I    between atoms: C22_31  and  N4_33 
REMARK   10  A    between atoms: N4_33  and  C23_35 
REMARK   11  A    between atoms: C23_35  and  C24_36 
REMARK   12  A    between atoms: C24_36  and  C25_37 
REMARK   13  A    between atoms: C25_37  and  C26_38 
REMARK   14  A    between atoms: C26_38  and  C27_39 
REMARK   15  A    between atoms: C27_39  and  O6_40 
REMARK   16  A    between atoms: N5_42  and  O7_44 
ROOT
HETATM    1  C12 UNL     1      21.066  30.837  13.618  1.00  0.00     0.243 C 
HETATM    2  O3  UNL     1      21.610  30.978  12.462  1.00  0.00    -0.271 OA
HETATM    3  N2  UNL     1      21.397  31.802  14.582  1.00  0.00    -0.337 N 
HETATM    4  C13 UNL     1      22.341  32.918  14.390  1.00  0.00     0.127 C 
HETATM    5  C14 UNL     1      22.978  33.148  15.720  1.00  0.00     0.022 C 
HETATM    6  C15 UNL     1      22.172  32.356  16.690  1.00  0.00     0.037 C 
HETATM    7  C16 UNL     1      20.916  32.012  15.944  1.00  0.00     0.179 C 
ENDROOT
BRANCH   7   8
HETATM    8  C17 UNL     1      19.904  33.077  15.901  1.00  0.00     0.243 C 
HETATM    9  O4  UNL     1      20.311  34.273  15.686  1.00  0.00    -0.271 OA
HETATM   10  N3  UNL     1      18.500  32.880  16.084  1.00  0.00    -0.337 N 
HETATM   11  C18 UNL     1      17.729  31.706  16.334  1.00  0.00     0.127 C 
HETATM   12  C21 UNL     1      17.548  34.000  16.028  1.00  0.00     0.179 C 
HETATM   13  C19 UNL     1      16.428  31.942  15.585  1.00  0.00     0.022 C 
HETATM   14  C20 UNL     1      16.184  33.413  15.885  1.00  0.00     0.037 C 
BRANCH  12  15
HETATM   15  C22 UNL     1      17.648  34.871  17.236  1.00  0.00     0.240 C 
HETATM   16  O5  UNL     1      17.129  34.427  18.287  1.00  0.00    -0.271 OA
HETATM   17  N4  UNL     1      18.303  36.122  17.148  1.00  0.00    -0.359 N 
ATOM     18  H4  UNL     1      18.706  36.402  16.253  1.00  0.00     0.162 HD
BRANCH  17  19
HETATM   19  C23 UNL     1      18.420  37.006  18.257  1.00  0.00     0.122 C 
BRANCH  19  20
HETATM   20  C24 UNL     1      19.637  37.853  18.264  1.00  0.00     0.020 C 
BRANCH  20  21
HETATM   21  C25 UNL     1      20.698  37.532  19.235  1.00  0.00     0.010 C 
BRANCH  21  22
HETATM   22  C26 UNL     1      21.368  36.216  19.087  1.00  0.00     0.086 C 
BRANCH  22  23
HETATM   23  C27 UNL     1      21.453  35.523  20.436  1.00  0.00     0.135 C 
HETATM   24  N5  UNL     1      20.528  34.813  20.918  1.00  0.00    -0.251 N 
ATOM     25  H5  UNL     1      20.695  34.397  21.834  1.00  0.00     0.196 HD
BRANCH  23  26
HETATM   26  O6  UNL     1      22.617  35.684  21.177  1.00  0.00    -0.348 OA
ATOM     27  H6  UNL     1      22.585  35.482  22.104  1.00  0.00     0.219 HD
ENDBRANCH  23  26
BRANCH  24  28
HETATM   28  O7  UNL     1      19.311  34.548  20.320  1.00  0.00    -0.288 OA
ATOM     29  H7  UNL     1      19.055  33.730  19.910  1.00  0.00     0.244 HD
ENDBRANCH  24  28
ENDBRANCH  22  23
ENDBRANCH  21  22
ENDBRANCH  20  21
ENDBRANCH  19  20
ENDBRANCH  17  19
ENDBRANCH  12  15
ENDBRANCH   7   8
BRANCH   1  30
HETATM   30  C2  UNL     1      20.158  29.704  13.850  1.00  0.00     0.175 C 
HETATM   31  C1  UNL     1      20.724  28.751  14.908  1.00  0.00     0.042 C 
BRANCH  30  32
HETATM   32  N1  UNL     1      20.027  28.947  12.595  1.00  0.00    -0.324 N 
HETATM   33  C3  UNL     1      18.773  28.240  12.413  1.00  0.00     0.361 C 
HETATM   34  O1  UNL     1      17.899  28.285  13.301  1.00  0.00    -0.238 OA
ATOM     35  H1  UNL     1      20.770  28.921  11.898  1.00  0.00     0.165 HD
BRANCH  33  36
HETATM   36  O2  UNL     1      18.510  27.523  11.289  1.00  0.00    -0.303 OA
BRANCH  36  37
HETATM   37  C4  UNL     1      19.243  26.634  10.540  1.00  0.00     0.191 C 
BRANCH  37  38
HETATM   38  C5  UNL     1      20.039  25.592  11.224  1.00  0.00     0.101 C 
BRANCH  38  39
HETATM   39  S1  UNL     1      21.775  25.786  11.425  1.00  0.00    -0.162 SA
BRANCH  39  40
HETATM   40  C6  UNL     1      22.598  26.887  10.267  1.00  0.00     0.047 C 
HETATM   41  C7  UNL     1      23.005  28.216  10.886  1.00  0.00     0.015 C 
HETATM   42  C8  UNL     1      23.537  27.944  12.254  1.00  0.00     0.001 C 
HETATM   43  C9  UNL     1      24.684  26.986  12.205  1.00  0.00     0.000 C 
HETATM   44  C10 UNL     1      24.513  25.823  11.288  1.00  0.00     0.001 C 
HETATM   45  C11 UNL     1      23.944  26.208   9.941  1.00  0.00     0.015 C 
ENDBRANCH  39  40
ENDBRANCH  38  39
ENDBRANCH  37  38
ENDBRANCH  36  37
ENDBRANCH  33  36
ENDBRANCH  30  32
ENDBRANCH   1  30
TORSDOF 16
ENDMDL
MODEL 4
REMARK VINA RESULT: -8.718745215      1.875      4.174
REMARK  16 active torsions:
REMARK  status: ('A' for Active; 'I' for Inactive)
REMARK    1  A    between atoms: C2_2  and  N1_3 
REMARK    2  A    between atoms: C2_2  and  C12_17 
REMARK       I    between atoms: N1_3  and  C3_5 
REMARK    3  A    between atoms: C3_5  and  O2_7 
REMARK    4  A    between atoms: O2_7  and  C4_8 
REMARK    5  A    between atoms: C4_8  and  C5_9 
REMARK    6  A    between atoms: C5_9  and  S1_10 
REMARK    7  A    between atoms: S1_10  and  C6_11 
REMARK       I    between atoms: C12_17  and  N2_19 
REMARK    8  A    between atoms: C16_23  and  C17_24 
REMARK       I    between atoms: C17_24  and  N3_26 
REMARK    9  A    between atoms: C21_30  and  C22_31 
REMARK       I    between atoms: C22_31  and  N4_33 
REMARK   10  A    between atoms: N4_33  and  C23_35 
REMARK   11  A    between atoms: C23_35  and  C24_36 
REMARK   12  A    between atoms: C24_36  and  C25_37 
REMARK   13  A    between atoms: C25_37  and  C26_38 
REMARK   14  A    between atoms: C26_38  and  C27_39 
REMARK   15  A    between atoms: C27_39  and  O6_40 
REMARK   16  A    between atoms: N5_42  and  O7_44 
ROOT
HETATM    1  C12 UNL     1      21.175  30.914  13.564  1.00  0.00     0.243 C 
HETATM    2  O3  UNL     1      21.690  31.075  12.398  1.00  0.00    -0.271 OA
HETATM    3  N2  UNL     1      21.520  31.868  14.534  1.00  0.00    -0.337 N 
HETATM    4  C13 UNL     1      22.450  32.994  14.337  1.00  0.00     0.127 C 
HETATM    5  C14 UNL     1      23.116  33.211  15.654  1.00  0.00     0.022 C 
HETATM    6  C15 UNL     1      22.339  32.399  16.631  1.00  0.00     0.037 C 
HETATM    7  C16 UNL     1      21.069  32.055  15.909  1.00  0.00     0.179 C 
ENDROOT
BRANCH   7   8
HETATM    8  C17 UNL     1      20.048  33.112  15.906  1.00  0.00     0.243 C 
HETATM    9  O4  UNL     1      20.452  34.326  15.834  1.00  0.00    -0.271 OA
HETATM   10  N3  UNL     1      18.638  32.889  15.977  1.00  0.00    -0.337 N 
HETATM   11  C18 UNL     1      17.868  31.691  16.061  1.00  0.00     0.127 C 
HETATM   12  C21 UNL     1      17.677  34.003  15.969  1.00  0.00     0.179 C 
HETATM   13  C19 UNL     1      16.615  31.990  15.257  1.00  0.00     0.022 C 
HETATM   14  C20 UNL     1      16.332  33.423  15.682  1.00  0.00     0.037 C 
BRANCH  12  15
HETATM   15  C22 UNL     1      17.689  34.751  17.259  1.00  0.00     0.240 C 
HETATM   16  O5  UNL     1      16.959  34.299  18.173  1.00  0.00    -0.271 OA
HETATM   17  N4  UNL     1      18.496  35.906  17.394  1.00  0.00    -0.359 N 
ATOM     18  H4  UNL     1      19.067  36.200  16.602  1.00  0.00     0.162 HD
BRANCH  17  19
HETATM   19  C23 UNL     1      18.541  36.674  18.592  1.00  0.00     0.122 C 
BRANCH  19  20
HETATM   20  C24 UNL     1      18.228  38.115  18.431  1.00  0.00     0.020 C 
BRANCH  20  21
HETATM   21  C25 UNL     1      16.868  38.570  18.768  1.00  0.00     0.010 C 
BRANCH  21  22
HETATM   22  C26 UNL     1      15.739  37.793  18.196  1.00  0.00     0.086 C 
BRANCH  22  23
HETATM   23  C27 UNL     1      14.704  37.517  19.272  1.00  0.00     0.135 C 
HETATM   24  N5  UNL     1      14.102  36.415  19.398  1.00  0.00    -0.251 N 
ATOM     25  H5  UNL     1      13.425  36.342  20.157  1.00  0.00     0.196 HD
BRANCH  23  26
HETATM   26  O6  UNL     1      14.406  38.538  20.166  1.00  0.00    -0.348 OA
ATOM     27  H6  UNL     1      13.922  38.314  20.951  1.00  0.00     0.219 HD
ENDBRANCH  23  26
BRANCH  24  28
HETATM   28  O7  UNL     1      14.274  35.298  18.602  1.00  0.00    -0.288 OA
ATOM     29  H7  UNL     1      14.969  34.655  18.684  1.00  0.00     0.244 HD
ENDBRANCH  24  28
ENDBRANCH  22  23
ENDBRANCH  21  22
ENDBRANCH  20  21
ENDBRANCH  19  20
ENDBRANCH  17  19
ENDBRANCH  12  15
ENDBRANCH   7   8
BRANCH   1  30
HETATM   30  C2  UNL     1      20.281  29.771  13.801  1.00  0.00     0.175 C 
HETATM   31  C1  UNL     1      20.895  28.789  14.804  1.00  0.00     0.042 C 
BRANCH  30  32
HETATM   32  N1  UNL     1      20.099  29.050  12.530  1.00  0.00    -0.324 N 
HETATM   33  C3  UNL     1      18.812  28.404  12.351  1.00  0.00     0.361 C 
HETATM   34  O1  UNL     1      17.954  28.466  13.253  1.00  0.00    -0.238 OA
ATOM     35  H1  UNL     1      20.830  29.008  11.822  1.00  0.00     0.165 HD
BRANCH  33  36
HETATM   36  O2  UNL     1      18.502  27.727  11.214  1.00  0.00    -0.303 OA
BRANCH  36  37
HETATM   37  C4  UNL     1      19.174  26.807  10.448  1.00  0.00     0.191 C 
BRANCH  37  38
HETATM   38  C5  UNL     1      19.933  25.724  11.111  1.00  0.00     0.101 C 
BRANCH  38  39
HETATM   39  S1  UNL     1      21.666  25.882  11.372  1.00  0.00    -0.162 SA
BRANCH  39  40
HETATM   40  C6  UNL     1      22.552  26.962  10.243  1.00  0.00     0.047 C 
HETATM   41  C7  UNL     1      23.095  28.215  10.912  1.00  0.00     0.015 C 
HETATM   42  C8  UNL     1      23.640  27.827  12.246  1.00  0.00     0.001 C 
HETATM   43  C9  UNL     1      24.693  26.774  12.112  1.00  0.00     0.000 C 
HETATM   44  C10 UNL     1      24.390  25.680  11.145  1.00  0.00     0.001 C 
HETATM   45  C11 UNL     1      23.819  26.183   9.838  1.00  0.00     0.015 C 
ENDBRANCH  39  40
ENDBRANCH  38  39
ENDBRANCH  37  38
ENDBRANCH  36  37
ENDBRANCH  33  36
ENDBRANCH  30  32
ENDBRANCH   1  30
TORSDOF 16
ENDMDL
MODEL 5
REMARK VINA RESULT: -8.681646856      1.852      4.126
REMARK  16 active torsions:
REMARK  status: ('A' for Active; 'I' for Inactive)
REMARK    1  A    between atoms: C2_2  and  N1_3 
REMARK    2  A    between atoms: C2_2  and  C12_17 
REMARK       I    between atoms: N1_3  and  C3_5 
REMARK    3  A    between atoms: C3_5  and  O2_7 
REMARK    4  A    between atoms: O2_7  and  C4_8 
REMARK    5  A    between atoms: C4_8  and  C5_9 
REMARK    6  A    between atoms: C5_9  and  S1_10 
REMARK    7  A    between atoms: S1_10  and  C6_11 
REMARK       I    between atoms: C12_17  and  N2_19 
REMARK    8  A    between atoms: C16_23  and  C17_24 
REMARK       I    between atoms: C17_24  and  N3_26 
REMARK    9  A    between atoms: C21_30  and  C22_31 
REMARK       I    between atoms: C22_31  and  N4_33 
REMARK   10  A    between atoms: N4_33  and  C23_35 
REMARK   11  A    between atoms: C23_35  and  C24_36 
REMARK   12  A    between atoms: C24_36  and  C25_37 
REMARK   13  A    between atoms: C25_37  and  C26_38 
REMARK   14  A    between atoms: C26_38  and  C27_39 
REMARK   15  A    between atoms: C27_39  and  O6_40 
REMARK   16  A    between atoms: N5_42  and  O7_44 
ROOT
HETATM    1  C12 UNL     1      21.146  30.896  13.436  1.00  0.00     0.243 C 
HETATM    2  O3  UNL     1      21.653  31.043  12.265  1.00  0.00    -0.271 OA
HETATM    3  N2  UNL     1      21.522  31.844  14.401  1.00  0.00    -0.337 N 
HETATM    4  C13 UNL     1      22.476  32.948  14.191  1.00  0.00     0.127 C 
HETATM    5  C14 UNL     1      23.160  33.152  15.502  1.00  0.00     0.022 C 
HETATM    6  C15 UNL     1      22.374  32.361  16.488  1.00  0.00     0.037 C 
HETATM    7  C16 UNL     1      21.090  32.044  15.780  1.00  0.00     0.179 C 
ENDROOT
BRANCH   7   8
HETATM    8  C17 UNL     1      20.093  33.124  15.783  1.00  0.00     0.243 C 
HETATM    9  O4  UNL     1      20.525  34.330  15.742  1.00  0.00    -0.271 OA
HETATM   10  N3  UNL     1      18.677  32.932  15.832  1.00  0.00    -0.337 N 
HETATM   11  C18 UNL     1      17.880  31.750  15.882  1.00  0.00     0.127 C 
HETATM   12  C21 UNL     1      17.742  34.067  15.833  1.00  0.00     0.179 C 
HETATM   13  C19 UNL     1      16.644  32.094  15.067  1.00  0.00     0.022 C 
HETATM   14  C20 UNL     1      16.389  33.525  15.516  1.00  0.00     0.037 C 
BRANCH  12  15
HETATM   15  C22 UNL     1      17.753  34.790  17.138  1.00  0.00     0.240 C 
HETATM   16  O5  UNL     1      17.299  34.165  18.125  1.00  0.00    -0.271 OA
HETATM   17  N4  UNL     1      18.256  36.111  17.205  1.00  0.00    -0.359 N 
ATOM     18  H4  UNL     1      18.615  36.543  16.354  1.00  0.00     0.162 HD
BRANCH  17  19
HETATM   19  C23 UNL     1      18.282  36.861  18.415  1.00  0.00     0.122 C 
BRANCH  19  20
HETATM   20  C24 UNL     1      17.518  38.132  18.386  1.00  0.00     0.020 C 
BRANCH  20  21
HETATM   21  C25 UNL     1      16.086  38.087  18.732  1.00  0.00     0.010 C 
BRANCH  21  22
HETATM   22  C26 UNL     1      15.574  36.820  19.311  1.00  0.00     0.086 C 
BRANCH  22  23
HETATM   23  C27 UNL     1      14.130  36.607  18.894  1.00  0.00     0.135 C 
HETATM   24  N5  UNL     1      13.684  35.514  18.447  1.00  0.00    -0.251 N 
ATOM     25  H5  UNL     1      12.695  35.486  18.197  1.00  0.00     0.196 HD
BRANCH  23  26
HETATM   26  O6  UNL     1      13.254  37.679  19.012  1.00  0.00    -0.348 OA
ATOM     27  H6  UNL     1      13.001  38.136  18.220  1.00  0.00     0.219 HD
ENDBRANCH  23  26
BRANCH  24  28
HETATM   28  O7  UNL     1      14.410  34.353  18.264  1.00  0.00    -0.288 OA
ATOM     29  H7  UNL     1      14.076  33.532  17.922  1.00  0.00     0.244 HD
ENDBRANCH  24  28
ENDBRANCH  22  23
ENDBRANCH  21  22
ENDBRANCH  20  21
ENDBRANCH  19  20
ENDBRANCH  17  19
ENDBRANCH  12  15
ENDBRANCH   7   8
BRANCH   1  30
HETATM   30  C2  UNL     1      20.229  29.774  13.686  1.00  0.00     0.175 C 
HETATM   31  C1  UNL     1      20.805  28.810  14.728  1.00  0.00     0.042 C 
BRANCH  30  32
HETATM   32  N1  UNL     1      20.062  29.022  12.431  1.00  0.00    -0.324 N 
HETATM   33  C3  UNL     1      18.719  29.006  11.879  1.00  0.00     0.361 C 
HETATM   34  O1  UNL     1      17.795  29.590  12.477  1.00  0.00    -0.238 OA
ATOM     35  H1  UNL     1      20.840  28.542  11.979  1.00  0.00     0.165 HD
BRANCH  33  36
HETATM   36  O2  UNL     1      18.431  28.371  10.714  1.00  0.00    -0.303 OA
BRANCH  36  37
HETATM   37  C4  UNL     1      18.417  27.051  10.333  1.00  0.00     0.191 C 
BRANCH  37  38
HETATM   38  C5  UNL     1      19.446  26.130  10.863  1.00  0.00     0.101 C 
BRANCH  38  39
HETATM   39  S1  UNL     1      21.095  26.194  10.256  1.00  0.00    -0.162 SA
BRANCH  39  40
HETATM   40  C6  UNL     1      22.390  25.693  11.397  1.00  0.00     0.047 C 
HETATM   41  C7  UNL     1      23.639  25.176  10.700  1.00  0.00     0.015 C 
HETATM   42  C8  UNL     1      23.903  26.048   9.518  1.00  0.00     0.001 C 
HETATM   43  C9  UNL     1      24.053  27.478   9.927  1.00  0.00     0.000 C 
HETATM   44  C10 UNL     1      23.072  27.966  10.938  1.00  0.00     0.001 C 
HETATM   45  C11 UNL     1      22.862  26.993  12.078  1.00  0.00     0.015 C 
ENDBRANCH  39  40
ENDBRANCH  38  39
ENDBRANCH  37  38
ENDBRANCH  36  37
ENDBRANCH  33  36
ENDBRANCH  30  32
ENDBRANCH   1  30
TORSDOF 16
ENDMDL
