MODEL 1
REMARK VINA RESULT: -8.821288463      0.000      0.000
REMARK  16 active torsions:
REMARK  status: ('A' for Active; 'I' for Inactive)
REMARK    1  A    between atoms: C6_6  and  N1_7 
REMARK       I    between atoms: N1_7  and  C7_9 
REMARK       I    between atoms: C7_9  and  N2_11 
REMARK    2  A    between atoms: N2_11  and  C9_13 
REMARK    3  A    between atoms: C9_13  and  C10_14 
REMARK    4  A    between atoms: C10_14  and  C11_15 
REMARK    5  A    between atoms: C11_15  and  N3_16 
REMARK    6  A    between atoms: N3_16  and  C12_18 
REMARK    7  A    between atoms: C12_18  and  C13_19 
REMARK    8  A    between atoms: C13_19  and  S1_20 
REMARK    9  A    between atoms: S1_20  and  C14_21 
REMARK   10  A    between atoms: C14_21  and  C15_22 
REMARK   11  A    between atoms: N5_28  and  O3_29 
REMARK   12  A    between atoms: N6_31  and  C18_33 
REMARK   13  A    between atoms: C18_33  and  C19_34 
REMARK   14  A    between atoms: C19_34  and  C20_35 
REMARK   15  A    between atoms: C20_35  and  N7_36 
REMARK   16  A    between atoms: C25_41  and  O4_42 
ROOT
HETATM    1  C12 UNL     1      20.331  34.495  16.706  1.00  0.00     0.082 C 
HETATM    2  N6  UNL     1      19.377  34.459  15.943  1.00  0.00    -0.379 N 
ATOM      3  H6  UNL     1      19.339  35.354  15.455  1.00  0.00     0.160 HD
ENDROOT
BRANCH   1   4
HETATM    4  N3  UNL     1      20.780  33.486  17.591  1.00  0.00    -0.379 N 
ATOM      5  H3  UNL     1      20.101  32.913  18.093  1.00  0.00     0.160 HD
BRANCH   4   6
HETATM    6  C11 UNL     1      22.188  33.262  17.787  1.00  0.00     0.122 C 
BRANCH   6   7
HETATM    7  C10 UNL     1      22.778  32.332  16.749  1.00  0.00     0.039 C 
BRANCH   7   8
HETATM    8  C9  UNL     1      21.751  31.625  15.906  1.00  0.00     0.128 C 
BRANCH   8   9
HETATM    9  N2  UNL     1      21.806  31.955  14.508  1.00  0.00    -0.338 N 
HETATM   10  C7  UNL     1      21.118  31.190  13.549  1.00  0.00     0.322 C 
HETATM   11  N1  UNL     1      20.315  30.087  13.913  1.00  0.00    -0.308 N 
HETATM   12  O1  UNL     1      21.219  31.495  12.329  1.00  0.00    -0.247 OA
ATOM     13  H1  UNL     1      20.221  29.830  14.895  1.00  0.00     0.170 HD
HETATM   14  C8  UNL     1      22.620  33.096  14.105  1.00  0.00     0.154 C 
BRANCH  11  15
HETATM   15  C6  UNL     1      19.621  29.317  12.898  1.00  0.00     0.048 A 
HETATM   16  C4  UNL     1      18.297  29.653  12.651  1.00  0.00    -0.034 A 
HETATM   17  C3  UNL     1      17.605  28.952  11.686  1.00  0.00     0.015 A 
HETATM   18  C5  UNL     1      17.628  30.750  13.413  1.00  0.00     0.050 C 
HETATM   19  C2  UNL     1      18.201  27.935  10.971  1.00  0.00    -0.061 A 
HETATM   20  C1  UNL     1      17.457  27.180   9.927  1.00  0.00     0.048 C 
HETATM   21  C28 UNL     1      19.528  27.617  11.237  1.00  0.00     0.015 A 
HETATM   22  C26 UNL     1      20.240  28.306  12.200  1.00  0.00    -0.034 A 
HETATM   23  C27 UNL     1      21.663  27.970  12.494  1.00  0.00     0.050 C 
ENDBRANCH  11  15
ENDBRANCH   8   9
ENDBRANCH   7   8
ENDBRANCH   6   7
ENDBRANCH   4   6
ENDBRANCH   1   4
BRANCH   1  24
HETATM   24  C13 UNL     1      21.152  35.783  16.724  1.00  0.00     0.150 C 
BRANCH  24  25
HETATM   25  S1  UNL     1      20.135  37.022  17.522  1.00  0.00    -0.155 SA
BRANCH  25  26
HETATM   26  C14 UNL     1      20.722  37.614  19.085  1.00  0.00     0.138 C 
BRANCH  26  27
HETATM   27  C15 UNL     1      21.551  36.699  19.871  1.00  0.00     0.101 A 
HETATM   28  C16 UNL     1      22.885  36.999  20.154  1.00  0.00     0.058 A 
HETATM   29  C17 UNL     1      23.662  38.189  19.721  1.00  0.00     0.072 C 
HETATM   30  N4  UNL     1      23.327  35.983  20.903  1.00  0.00    -0.242 N 
HETATM   31  O2  UNL     1      22.384  35.111  21.091  1.00  0.00    -0.128 OA
ATOM     32  H4  UNL     1      24.273  35.904  21.274  1.00  0.00     0.196 HD
HETATM   33  N5  UNL     1      21.319  35.544  20.471  1.00  0.00    -0.104 N 
BRANCH  33  34
HETATM   34  O3  UNL     1      20.139  34.862  20.496  1.00  0.00    -0.261 OA
ATOM     35  H3  UNL     1      20.017  33.949  20.727  1.00  0.00     0.247 HD
ENDBRANCH  33  34
ENDBRANCH  26  27
ENDBRANCH  25  26
ENDBRANCH  24  25
ENDBRANCH   1  24
BRANCH   2  36
HETATM   36  C18 UNL     1      18.332  33.686  15.482  1.00  0.00     0.122 C 
BRANCH  36  37
HETATM   37  C19 UNL     1      17.122  34.605  15.216  1.00  0.00     0.050 C 
BRANCH  37  38
HETATM   38  C20 UNL     1      16.013  34.095  16.089  1.00  0.00     0.277 C 
BRANCH  38  39
HETATM   39  N7  UNL     1      15.388  35.167  16.785  1.00  0.00     0.117 N 
HETATM   40  C21 UNL     1      16.439  36.041  17.293  1.00  0.00     0.276 C 
HETATM   41  C22 UNL     1      15.943  37.222  18.046  1.00  0.00     0.030 C 
HETATM   42  C23 UNL     1      14.817  36.900  18.995  1.00  0.00     0.006 C 
HETATM   43  C24 UNL     1      13.762  36.112  18.250  1.00  0.00     0.064 C 
HETATM   44  C25 UNL     1      14.452  34.808  17.803  1.00  0.00     0.356 C 
BRANCH  44  45
HETATM   45  O4  UNL     1      15.068  34.253  18.926  1.00  0.00    -0.368 OA
ATOM     46  H4  UNL     1      15.368  34.911  19.541  1.00  0.00     0.212 HD
ENDBRANCH  44  45
ENDBRANCH  38  39
ENDBRANCH  37  38
ENDBRANCH  36  37
ENDBRANCH   2  36
TORSDOF 16
ENDMDL
MODEL 2
REMARK VINA RESULT: -8.750988608      3.951     11.038
REMARK  16 active torsions:
REMARK  status: ('A' for Active; 'I' for Inactive)
REMARK    1  A    between atoms: C6_6  and  N1_7 
REMARK       I    between atoms: N1_7  and  C7_9 
REMARK       I    between atoms: C7_9  and  N2_11 
REMARK    2  A    between atoms: N2_11  and  C9_13 
REMARK    3  A    between atoms: C9_13  and  C10_14 
REMARK    4  A    between atoms: C10_14  and  C11_15 
REMARK    5  A    between atoms: C11_15  and  N3_16 
REMARK    6  A    between atoms: N3_16  and  C12_18 
REMARK    7  A    between atoms: C12_18  and  C13_19 
REMARK    8  A    between atoms: C13_19  and  S1_20 
REMARK    9  A    between atoms: S1_20  and  C14_21 
REMARK   10  A    between atoms: C14_21  and  C15_22 
REMARK   11  A    between atoms: N5_28  and  O3_29 
REMARK   12  A    between atoms: N6_31  and  C18_33 
REMARK   13  A    between atoms: C18_33  and  C19_34 
REMARK   14  A    between atoms: C19_34  and  C20_35 
REMARK   15  A    between atoms: C20_35  and  N7_36 
REMARK   16  A    between atoms: C25_41  and  O4_42 
ROOT
HETATM    1  C12 UNL     1      20.787  28.335  12.119  1.00  0.00     0.082 C 
HETATM    2  N6  UNL     1      19.740  28.536  11.523  1.00  0.00    -0.379 N 
ATOM      3  H6  UNL     1      19.976  28.902  10.600  1.00  0.00     0.160 HD
ENDROOT
BRANCH   1   4
HETATM    4  N3  UNL     1      20.963  27.830  13.430  1.00  0.00    -0.379 N 
ATOM      5  H3  UNL     1      21.447  26.944  13.570  1.00  0.00     0.160 HD
BRANCH   4   6
HETATM    6  C11 UNL     1      20.464  28.560  14.566  1.00  0.00     0.122 C 
BRANCH   6   7
HETATM    7  C10 UNL     1      20.987  29.979  14.619  1.00  0.00     0.039 C 
BRANCH   7   8
HETATM    8  C9  UNL     1      20.120  30.922  15.409  1.00  0.00     0.128 C 
BRANCH   8   9
HETATM    9  N2  UNL     1      19.511  31.962  14.626  1.00  0.00    -0.338 N 
HETATM   10  C7  UNL     1      18.539  32.816  15.175  1.00  0.00     0.322 C 
HETATM   11  N1  UNL     1      18.138  32.719  16.526  1.00  0.00    -0.308 N 
HETATM   12  O1  UNL     1      18.006  33.695  14.443  1.00  0.00    -0.247 OA
ATOM     13  H1  UNL     1      18.561  32.015  17.130  1.00  0.00     0.170 HD
HETATM   14  C8  UNL     1      19.914  32.093  13.230  1.00  0.00     0.154 C 
BRANCH  11  15
HETATM   15  C6  UNL     1      17.130  33.614  17.059  1.00  0.00     0.048 A 
HETATM   16  C4  UNL     1      17.581  34.709  17.783  1.00  0.00    -0.034 A 
HETATM   17  C3  UNL     1      16.655  35.591  18.298  1.00  0.00     0.015 A 
HETATM   18  C5  UNL     1      19.041  34.934  18.004  1.00  0.00     0.050 C 
HETATM   19  C2  UNL     1      15.302  35.403  18.108  1.00  0.00    -0.061 A 
HETATM   20  C1  UNL     1      14.300  36.354  18.660  1.00  0.00     0.048 C 
HETATM   21  C28 UNL     1      14.874  34.298  17.380  1.00  0.00     0.015 A 
HETATM   22  C26 UNL     1      15.786  33.402  16.855  1.00  0.00    -0.034 A 
HETATM   23  C27 UNL     1      15.336  32.213  16.075  1.00  0.00     0.050 C 
ENDBRANCH  11  15
ENDBRANCH   8   9
ENDBRANCH   7   8
ENDBRANCH   6   7
ENDBRANCH   4   6
ENDBRANCH   1   4
BRANCH   1  24
HETATM   24  C13 UNL     1      22.080  28.667  11.375  1.00  0.00     0.150 C 
BRANCH  24  25
HETATM   25  S1  UNL     1      23.381  27.736  12.179  1.00  0.00    -0.155 SA
BRANCH  25  26
HETATM   26  C14 UNL     1      23.628  26.085  11.588  1.00  0.00     0.138 C 
BRANCH  26  27
HETATM   27  C15 UNL     1      22.638  25.564  10.645  1.00  0.00     0.101 A 
HETATM   28  C16 UNL     1      22.915  25.491   9.278  1.00  0.00     0.058 A 
HETATM   29  C17 UNL     1      24.152  25.919   8.576  1.00  0.00     0.072 C 
HETATM   30  N4  UNL     1      21.826  24.949   8.723  1.00  0.00    -0.242 N 
HETATM   31  O2  UNL     1      20.931  24.695   9.627  1.00  0.00    -0.128 OA
ATOM     32  H4  UNL     1      21.714  24.763   7.726  1.00  0.00     0.196 HD
HETATM   33  N5  UNL     1      21.421  25.064  10.780  1.00  0.00    -0.104 N 
BRANCH  33  34
HETATM   34  O3  UNL     1      20.731  24.907  11.945  1.00  0.00    -0.261 OA
ATOM     35  H3  UNL     1      20.294  25.589  12.441  1.00  0.00     0.247 HD
ENDBRANCH  33  34
ENDBRANCH  26  27
ENDBRANCH  25  26
ENDBRANCH  24  25
ENDBRANCH   1  24
BRANCH   2  36
HETATM   36  C18 UNL     1      18.365  28.462  11.605  1.00  0.00     0.122 C 
BRANCH  36  37
HETATM   37  C19 UNL     1      17.881  27.304  10.708  1.00  0.00     0.050 C 
BRANCH  37  38
HETATM   38  C20 UNL     1      18.661  27.417   9.430  1.00  0.00     0.277 C 
BRANCH  38  39
HETATM   39  N7  UNL     1      17.966  26.786   8.360  1.00  0.00     0.117 N 
HETATM   40  C21 UNL     1      17.653  25.423   8.776  1.00  0.00     0.276 C 
HETATM   41  C22 UNL     1      16.915  24.627   7.760  1.00  0.00     0.030 C 
HETATM   42  C23 UNL     1      17.445  24.800   6.360  1.00  0.00     0.006 C 
HETATM   43  C24 UNL     1      17.569  26.280   6.065  1.00  0.00     0.064 C 
HETATM   44  C25 UNL     1      18.595  26.823   7.079  1.00  0.00     0.356 C 
BRANCH  44  45
HETATM   45  O4  UNL     1      19.725  26.007   7.012  1.00  0.00    -0.368 OA
ATOM     46  H4  UNL     1      20.432  26.316   7.565  1.00  0.00     0.212 HD
ENDBRANCH  44  45
ENDBRANCH  38  39
ENDBRANCH  37  38
ENDBRANCH  36  37
ENDBRANCH   2  36
TORSDOF 16
ENDMDL
MODEL 3
REMARK VINA RESULT: -8.650421153      3.718     11.118
REMARK  16 active torsions:
REMARK  status: ('A' for Active; 'I' for Inactive)
REMARK    1  A    between atoms: C6_6  and  N1_7 
REMARK       I    between atoms: N1_7  and  C7_9 
REMARK       I    between atoms: C7_9  and  N2_11 
REMARK    2  A    between atoms: N2_11  and  C9_13 
REMARK    3  A    between atoms: C9_13  and  C10_14 
REMARK    4  A    between atoms: C10_14  and  C11_15 
REMARK    5  A    between atoms: C11_15  and  N3_16 
REMARK    6  A    between atoms: N3_16  and  C12_18 
REMARK    7  A    between atoms: C12_18  and  C13_19 
REMARK    8  A    between atoms: C13_19  and  S1_20 
REMARK    9  A    between atoms: S1_20  and  C14_21 
REMARK   10  A    between atoms: C14_21  and  C15_22 
REMARK   11  A    between atoms: N5_28  and  O3_29 
REMARK   12  A    between atoms: N6_31  and  C18_33 
REMARK   13  A    between atoms: C18_33  and  C19_34 
REMARK   14  A    between atoms: C19_34  and  C20_35 
REMARK   15  A    between atoms: C20_35  and  N7_36 
REMARK   16  A    between atoms: C25_41  and  O4_42 
ROOT
HETATM    1  C12 UNL     1      20.748  28.854  12.778  1.00  0.00     0.082 C 
HETATM    2  N6  UNL     1      21.928  28.741  12.485  1.00  0.00    -0.379 N 
ATOM      3  H6  UNL     1      22.093  29.303  11.649  1.00  0.00     0.160 HD
ENDROOT
BRANCH   1   4
HETATM    4  N3  UNL     1      20.056  28.257  13.860  1.00  0.00    -0.379 N 
ATOM      5  H3  UNL     1      19.326  27.569  13.675  1.00  0.00     0.160 HD
BRANCH   4   6
HETATM    6  C11 UNL     1      20.374  28.615  15.217  1.00  0.00     0.122 C 
BRANCH   6   7
HETATM    7  C10 UNL     1      19.491  29.724  15.747  1.00  0.00     0.039 C 
BRANCH   7   8
HETATM    8  C9  UNL     1      20.245  30.951  16.185  1.00  0.00     0.128 C 
BRANCH   8   9
HETATM    9  N2  UNL     1      19.937  32.135  15.429  1.00  0.00    -0.338 N 
HETATM   10  C7  UNL     1      18.906  33.005  15.823  1.00  0.00     0.322 C 
HETATM   11  N1  UNL     1      18.147  32.781  16.993  1.00  0.00    -0.308 N 
HETATM   12  O1  UNL     1      18.648  34.016  15.113  1.00  0.00    -0.247 OA
ATOM     13  H1  UNL     1      18.346  31.970  17.578  1.00  0.00     0.170 HD
HETATM   14  C8  UNL     1      20.712  32.397  14.222  1.00  0.00     0.154 C 
BRANCH  11  15
HETATM   15  C6  UNL     1      17.088  33.697  17.368  1.00  0.00     0.048 A 
HETATM   16  C4  UNL     1      17.438  34.759  18.191  1.00  0.00    -0.034 A 
HETATM   17  C3  UNL     1      16.462  35.660  18.562  1.00  0.00     0.015 A 
HETATM   18  C5  UNL     1      18.843  34.929  18.670  1.00  0.00     0.050 C 
HETATM   19  C2  UNL     1      15.159  35.523  18.134  1.00  0.00    -0.061 A 
HETATM   20  C1  UNL     1      14.105  36.496  18.530  1.00  0.00     0.048 C 
HETATM   21  C28 UNL     1      14.832  34.452  17.311  1.00  0.00     0.015 A 
HETATM   22  C26 UNL     1      15.795  33.537  16.926  1.00  0.00    -0.034 A 
HETATM   23  C27 UNL     1      15.453  32.383  16.046  1.00  0.00     0.050 C 
ENDBRANCH  11  15
ENDBRANCH   8   9
ENDBRANCH   7   8
ENDBRANCH   6   7
ENDBRANCH   4   6
ENDBRANCH   1   4
BRANCH   1  24
HETATM   24  C13 UNL     1      19.893  29.742  11.875  1.00  0.00     0.150 C 
BRANCH  24  25
HETATM   25  S1  UNL     1      18.194  29.239  12.131  1.00  0.00    -0.155 SA
BRANCH  25  26
HETATM   26  C14 UNL     1      17.452  28.324  10.809  1.00  0.00     0.138 C 
BRANCH  26  27
HETATM   27  C15 UNL     1      18.022  27.010  10.511  1.00  0.00     0.101 A 
HETATM   28  C16 UNL     1      18.357  26.650   9.204  1.00  0.00     0.058 A 
HETATM   29  C17 UNL     1      18.185  27.453   7.966  1.00  0.00     0.072 C 
HETATM   30  N4  UNL     1      18.872  25.419   9.295  1.00  0.00    -0.242 N 
HETATM   31  O2  UNL     1      18.874  25.015  10.528  1.00  0.00    -0.128 OA
ATOM     32  H4  UNL     1      19.214  24.873   8.504  1.00  0.00     0.196 HD
HETATM   33  N5  UNL     1      18.364  25.972  11.256  1.00  0.00    -0.104 N 
BRANCH  33  34
HETATM   34  O3  UNL     1      18.248  25.869  12.610  1.00  0.00    -0.261 OA
ATOM     35  H3  UNL     1      17.450  25.702  13.099  1.00  0.00     0.247 HD
ENDBRANCH  33  34
ENDBRANCH  26  27
ENDBRANCH  25  26
ENDBRANCH  24  25
ENDBRANCH   1  24
BRANCH   2  36
HETATM   36  C18 UNL     1      23.126  28.154  12.838  1.00  0.00     0.122 C 
BRANCH  36  37
HETATM   37  C19 UNL     1      23.868  27.743  11.550  1.00  0.00     0.050 C 
BRANCH  37  38
HETATM   38  C20 UNL     1      24.198  26.287  11.709  1.00  0.00     0.277 C 
BRANCH  38  39
HETATM   39  N7  UNL     1      23.804  25.553  10.555  1.00  0.00     0.117 N 
HETATM   40  C21 UNL     1      24.300  26.267   9.384  1.00  0.00     0.276 C 
HETATM   41  C22 UNL     1      23.972  25.619   8.087  1.00  0.00     0.030 C 
HETATM   42  C23 UNL     1      22.557  25.104   8.013  1.00  0.00     0.006 C 
HETATM   43  C24 UNL     1      22.277  24.273   9.248  1.00  0.00     0.064 C 
HETATM   44  C25 UNL     1      22.416  25.238  10.441  1.00  0.00     0.356 C 
BRANCH  44  45
HETATM   45  O4  UNL     1      21.631  26.360  10.168  1.00  0.00    -0.368 OA
ATOM     46  H4  UNL     1      21.022  26.214   9.453  1.00  0.00     0.212 HD
ENDBRANCH  44  45
ENDBRANCH  38  39
ENDBRANCH  37  38
ENDBRANCH  36  37
ENDBRANCH   2  36
TORSDOF 16
ENDMDL
MODEL 4
REMARK VINA RESULT: -8.642539896      1.746      2.504
REMARK  16 active torsions:
REMARK  status: ('A' for Active; 'I' for Inactive)
REMARK    1  A    between atoms: C6_6  and  N1_7 
REMARK       I    between atoms: N1_7  and  C7_9 
REMARK       I    between atoms: C7_9  and  N2_11 
REMARK    2  A    between atoms: N2_11  and  C9_13 
REMARK    3  A    between atoms: C9_13  and  C10_14 
REMARK    4  A    between atoms: C10_14  and  C11_15 
REMARK    5  A    between atoms: C11_15  and  N3_16 
REMARK    6  A    between atoms: N3_16  and  C12_18 
REMARK    7  A    between atoms: C12_18  and  C13_19 
REMARK    8  A    between atoms: C13_19  and  S1_20 
REMARK    9  A    between atoms: S1_20  and  C14_21 
REMARK   10  A    between atoms: C14_21  and  C15_22 
REMARK   11  A    between atoms: N5_28  and  O3_29 
REMARK   12  A    between atoms: N6_31  and  C18_33 
REMARK   13  A    between atoms: C18_33  and  C19_34 
REMARK   14  A    between atoms: C19_34  and  C20_35 
REMARK   15  A    between atoms: C20_35  and  N7_36 
REMARK   16  A    between atoms: C25_41  and  O4_42 
ROOT
HETATM    1  C12 UNL     1      19.606  32.534  15.484  1.00  0.00     0.082 C 
HETATM    2  N6  UNL     1      18.756  32.948  14.712  1.00  0.00    -0.379 N 
ATOM      3  H6  UNL     1      19.231  33.495  13.994  1.00  0.00     0.160 HD
ENDROOT
BRANCH   1   4
HETATM    4  N3  UNL     1      19.425  31.732  16.637  1.00  0.00    -0.379 N 
ATOM      5  H3  UNL     1      18.948  32.117  17.452  1.00  0.00     0.160 HD
BRANCH   4   6
HETATM    6  C11 UNL     1      19.909  30.377  16.667  1.00  0.00     0.122 C 
BRANCH   6   7
HETATM    7  C10 UNL     1      19.521  29.595  15.430  1.00  0.00     0.039 C 
BRANCH   7   8
HETATM    8  C9  UNL     1      20.567  28.613  14.974  1.00  0.00     0.128 C 
BRANCH   8   9
HETATM    9  N2  UNL     1      21.111  28.891  13.673  1.00  0.00    -0.338 N 
HETATM   10  C7  UNL     1      20.553  28.328  12.512  1.00  0.00     0.322 C 
HETATM   11  N1  UNL     1      19.414  27.493  12.561  1.00  0.00    -0.308 N 
HETATM   12  O1  UNL     1      21.081  28.572  11.393  1.00  0.00    -0.247 OA
ATOM     13  H1  UNL     1      18.974  27.288  13.458  1.00  0.00     0.170 HD
HETATM   14  C8  UNL     1      22.281  29.758  13.591  1.00  0.00     0.154 C 
BRANCH  11  15
HETATM   15  C6  UNL     1      18.866  26.926  11.345  1.00  0.00     0.048 A 
HETATM   16  C4  UNL     1      17.782  27.582  10.779  1.00  0.00    -0.034 A 
HETATM   17  C3  UNL     1      17.237  27.081   9.615  1.00  0.00     0.015 A 
HETATM   18  C5  UNL     1      17.209  28.807  11.413  1.00  0.00     0.050 C 
HETATM   19  C2  UNL     1      17.748  25.951   9.012  1.00  0.00    -0.061 A 
HETATM   20  C1  UNL     1      17.165  25.411   7.755  1.00  0.00     0.048 C 
HETATM   21  C28 UNL     1      18.834  25.311   9.598  1.00  0.00     0.015 A 
HETATM   22  C26 UNL     1      19.395  25.796  10.764  1.00  0.00    -0.034 A 
HETATM   23  C27 UNL     1      20.559  25.115  11.401  1.00  0.00     0.050 C 
ENDBRANCH  11  15
ENDBRANCH   8   9
ENDBRANCH   7   8
ENDBRANCH   6   7
ENDBRANCH   4   6
ENDBRANCH   1   4
BRANCH   1  24
HETATM   24  C13 UNL     1      21.055  32.922  15.189  1.00  0.00     0.150 C 
BRANCH  24  25
HETATM   25  S1  UNL     1      21.623  33.869  16.598  1.00  0.00    -0.155 SA
BRANCH  25  26
HETATM   26  C14 UNL     1      20.533  35.146  17.162  1.00  0.00     0.138 C 
BRANCH  26  27
HETATM   27  C15 UNL     1      20.755  35.656  18.515  1.00  0.00     0.101 A 
HETATM   28  C16 UNL     1      21.761  36.590  18.776  1.00  0.00     0.058 A 
HETATM   29  C17 UNL     1      22.735  37.171  17.817  1.00  0.00     0.072 C 
HETATM   30  N4  UNL     1      21.667  36.857  20.083  1.00  0.00    -0.242 N 
HETATM   31  O2  UNL     1      20.705  36.173  20.621  1.00  0.00    -0.128 OA
ATOM     32  H4  UNL     1      22.269  37.508  20.587  1.00  0.00     0.196 HD
HETATM   33  N5  UNL     1      20.159  35.454  19.678  1.00  0.00    -0.104 N 
BRANCH  33  34
HETATM   34  O3  UNL     1      19.095  34.636  19.914  1.00  0.00    -0.261 OA
ATOM     35  H3  UNL     1      18.332  34.837  20.444  1.00  0.00     0.247 HD
ENDBRANCH  33  34
ENDBRANCH  26  27
ENDBRANCH  25  26
ENDBRANCH  24  25
ENDBRANCH   1  24
BRANCH   2  36
HETATM   36  C18 UNL     1      17.406  32.968  14.429  1.00  0.00     0.122 C 
BRANCH  36  37
HETATM   37  C19 UNL     1      16.824  34.313  14.909  1.00  0.00     0.050 C 
BRANCH  37  38
HETATM   38  C20 UNL     1      15.774  33.971  15.927  1.00  0.00     0.277 C 
BRANCH  38  39
HETATM   39  N7  UNL     1      15.455  35.108  16.721  1.00  0.00     0.117 N 
HETATM   40  C21 UNL     1      16.704  35.648  17.246  1.00  0.00     0.276 C 
HETATM   41  C22 UNL     1      16.540  36.854  18.099  1.00  0.00     0.030 C 
HETATM   42  C23 UNL     1      15.390  36.751  19.068  1.00  0.00     0.006 C 
HETATM   43  C24 UNL     1      14.154  36.313  18.313  1.00  0.00     0.064 C 
HETATM   44  C25 UNL     1      14.482  34.917  17.749  1.00  0.00     0.356 C 
BRANCH  44  45
HETATM   45  O4  UNL     1      14.961  34.139  18.803  1.00  0.00    -0.368 OA
ATOM     46  H4  UNL     1      14.538  34.344  19.629  1.00  0.00     0.212 HD
ENDBRANCH  44  45
ENDBRANCH  38  39
ENDBRANCH  37  38
ENDBRANCH  36  37
ENDBRANCH   2  36
TORSDOF 16
ENDMDL
MODEL 5
REMARK VINA RESULT: -8.542295359      2.355      3.301
REMARK  16 active torsions:
REMARK  status: ('A' for Active; 'I' for Inactive)
REMARK    1  A    between atoms: C6_6  and  N1_7 
REMARK       I    between atoms: N1_7  and  C7_9 
REMARK       I    between atoms: C7_9  and  N2_11 
REMARK    2  A    between atoms: N2_11  and  C9_13 
REMARK    3  A    between atoms: C9_13  and  C10_14 
REMARK    4  A    between atoms: C10_14  and  C11_15 
REMARK    5  A    between atoms: C11_15  and  N3_16 
REMARK    6  A    between atoms: N3_16  and  C12_18 
REMARK    7  A    between atoms: C12_18  and  C13_19 
REMARK    8  A    between atoms: C13_19  and  S1_20 
REMARK    9  A    between atoms: S1_20  and  C14_21 
REMARK   10  A    between atoms: C14_21  and  C15_22 
REMARK   11  A    between atoms: N5_28  and  O3_29 
REMARK   12  A    between atoms: N6_31  and  C18_33 
REMARK   13  A    between atoms: C18_33  and  C19_34 
REMARK   14  A    between atoms: C19_34  and  C20_35 
REMARK   15  A    between atoms: C20_35  and  N7_36 
REMARK   16  A    between atoms: C25_41  and  O4_42 
ROOT
HETATM    1  C12 UNL     1      19.528  32.722  16.199  1.00  0.00     0.082 C 
HETATM    2  N6  UNL     1      18.331  32.940  16.095  1.00  0.00    -0.379 N 
ATOM      3  H6  UNL     1      18.221  33.855  15.657  1.00  0.00     0.160 HD
ENDROOT
BRANCH   1   4
HETATM    4  N3  UNL     1      20.164  31.582  16.746  1.00  0.00    -0.379 N 
ATOM      5  H3  UNL     1      21.048  31.685  17.245  1.00  0.00     0.160 HD
BRANCH   4   6
HETATM    6  C11 UNL     1      19.573  30.277  16.602  1.00  0.00     0.122 C 
BRANCH   6   7
HETATM    7  C10 UNL     1      19.604  29.781  15.173  1.00  0.00     0.039 C 
BRANCH   7   8
HETATM    8  C9  UNL     1      20.954  29.293  14.723  1.00  0.00     0.128 C 
BRANCH   8   9
HETATM    9  N2  UNL     1      21.338  29.741  13.412  1.00  0.00    -0.338 N 
HETATM   10  C7  UNL     1      21.762  28.835  12.425  1.00  0.00     0.322 C 
HETATM   11  N1  UNL     1      21.798  27.442  12.658  1.00  0.00    -0.308 N 
HETATM   12  O1  UNL     1      22.121  29.274  11.298  1.00  0.00    -0.247 OA
ATOM     13  H1  UNL     1      21.509  27.072  13.563  1.00  0.00     0.170 HD
HETATM   14  C8  UNL     1      21.300  31.174  13.140  1.00  0.00     0.154 C 
BRANCH  11  15
HETATM   15  C6  UNL     1      22.244  26.535  11.618  1.00  0.00     0.048 A 
HETATM   16  C4  UNL     1      21.259  25.915  10.861  1.00  0.00    -0.034 A 
HETATM   17  C3  UNL     1      21.641  25.053   9.854  1.00  0.00     0.015 A 
HETATM   18  C5  UNL     1      19.812  26.171  11.125  1.00  0.00     0.050 C 
HETATM   19  C2  UNL     1      22.971  24.800   9.592  1.00  0.00    -0.061 A 
HETATM   20  C1  UNL     1      23.386  23.874   8.505  1.00  0.00     0.048 C 
HETATM   21  C28 UNL     1      23.939  25.433  10.364  1.00  0.00     0.015 A 
HETATM   22  C26 UNL     1      23.578  26.300  11.378  1.00  0.00    -0.034 A 
HETATM   23  C27 UNL     1      24.609  26.981  12.213  1.00  0.00     0.050 C 
ENDBRANCH  11  15
ENDBRANCH   8   9
ENDBRANCH   7   8
ENDBRANCH   6   7
ENDBRANCH   4   6
ENDBRANCH   1   4
BRANCH   1  24
HETATM   24  C13 UNL     1      20.476  33.806  15.686  1.00  0.00     0.150 C 
BRANCH  24  25
HETATM   25  S1  UNL     1      21.929  33.745  16.729  1.00  0.00    -0.155 SA
BRANCH  25  26
HETATM   26  C14 UNL     1      21.708  34.302  18.396  1.00  0.00     0.138 C 
BRANCH  26  27
HETATM   27  C15 UNL     1      20.789  35.421  18.603  1.00  0.00     0.101 A 
HETATM   28  C16 UNL     1      21.227  36.743  18.495  1.00  0.00     0.058 A 
HETATM   29  C17 UNL     1      22.602  37.225  18.204  1.00  0.00     0.072 C 
HETATM   30  N4  UNL     1      20.144  37.496  18.711  1.00  0.00    -0.242 N 
HETATM   31  O2  UNL     1      19.106  36.750  18.937  1.00  0.00    -0.128 OA
ATOM     32  H4  UNL     1      20.134  38.516  18.701  1.00  0.00     0.196 HD
HETATM   33  N5  UNL     1      19.496  35.505  18.871  1.00  0.00    -0.104 N 
BRANCH  33  34
HETATM   34  O3  UNL     1      18.631  34.465  19.039  1.00  0.00    -0.261 OA
ATOM     35  H3  UNL     1      18.579  33.888  19.792  1.00  0.00     0.247 HD
ENDBRANCH  33  34
ENDBRANCH  26  27
ENDBRANCH  25  26
ENDBRANCH  24  25
ENDBRANCH   1  24
BRANCH   2  36
HETATM   36  C18 UNL     1      17.070  32.437  16.334  1.00  0.00     0.122 C 
BRANCH  36  37
HETATM   37  C19 UNL     1      16.031  33.423  15.760  1.00  0.00     0.050 C 
BRANCH  37  38
HETATM   38  C20 UNL     1      16.563  34.798  16.046  1.00  0.00     0.277 C 
BRANCH  38  39
HETATM   39  N7  UNL     1      15.612  35.563  16.777  1.00  0.00     0.117 N 
HETATM   40  C21 UNL     1      16.308  36.711  17.347  1.00  0.00     0.276 C 
HETATM   41  C22 UNL     1      15.441  37.620  18.142  1.00  0.00     0.030 C 
HETATM   42  C23 UNL     1      14.482  36.893  19.051  1.00  0.00     0.006 C 
HETATM   43  C24 UNL     1      13.756  35.836  18.247  1.00  0.00     0.064 C 
HETATM   44  C25 UNL     1      14.845  34.862  17.757  1.00  0.00     0.356 C 
BRANCH  44  45
HETATM   45  O4  UNL     1      15.604  34.488  18.866  1.00  0.00    -0.368 OA
ATOM     46  H4  UNL     1      15.370  34.972  19.649  1.00  0.00     0.212 HD
ENDBRANCH  44  45
ENDBRANCH  38  39
ENDBRANCH  37  38
ENDBRANCH  36  37
ENDBRANCH   2  36
TORSDOF 16
ENDMDL
