MODEL 1
REMARK VINA RESULT: -7.068959984      0.000      0.000
REMARK  14 active torsions:
REMARK  status: ('A' for Active; 'I' for Inactive)
REMARK    1  A    between atoms: C4_4  and  O1_5 
REMARK    2  A    between atoms: O1_5  and  S1_6 
REMARK    3  A    between atoms: C11_16  and  C12_17 
REMARK    4  A    between atoms: C12_17  and  O5_18 
REMARK    5  A    between atoms: O5_18  and  C13_19 
REMARK    6  A    between atoms: C13_19  and  C14_20 
REMARK    7  A    between atoms: C14_20  and  O6_21 
REMARK    8  A    between atoms: O6_21  and  C15_22 
REMARK    9  A    between atoms: C15_22  and  C16_23 
REMARK   10  A    between atoms: C16_23  and  O7_24 
REMARK   11  A    between atoms: O7_24  and  C17_25 
REMARK   12  A    between atoms: C17_25  and  C18_26 
REMARK   13  A    between atoms: C18_26  and  N1_27 
REMARK   14  A    between atoms: C29_38  and  O8_39 
ROOT
HETATM    1  C1  UNL     1      22.764  29.372  10.834  1.00  0.00     0.018 C 
HETATM    2  C2  UNL     1      22.231  28.363  11.861  1.00  0.00    -0.012 C 
HETATM    3  C3  UNL     1      22.813  28.695  13.184  1.00  0.00     0.046 C 
HETATM    4  C4  UNL     1      21.998  29.700  13.968  1.00  0.00     0.153 C 
HETATM    5  C5  UNL     1      20.581  29.282  14.063  1.00  0.00    -0.008 C 
HETATM    6  C6  UNL     1      20.564  27.954  14.845  1.00  0.00     0.018 C 
HETATM    7  C7  UNL     1      19.708  30.196  14.853  1.00  0.00     0.002 C 
HETATM    8  C8  UNL     1      20.209  30.602  16.189  1.00  0.00     0.013 C 
HETATM    9  C9  UNL     1      18.988  30.766  17.111  1.00  0.00     0.079 C 
HETATM   10  C10 UNL     1      17.927  31.337  16.201  1.00  0.00     0.133 C 
HETATM   11  O4  UNL     1      16.746  31.075  16.359  1.00  0.00    -0.297 OA
HETATM   12  C11 UNL     1      18.402  32.239  15.100  1.00  0.00     0.083 C 
HETATM   13  C22 UNL     1      19.240  31.429  14.130  1.00  0.00     0.004 C 
HETATM   14  C23 UNL     1      18.409  30.952  12.946  1.00  0.00     0.006 C 
HETATM   15  C24 UNL     1      19.346  30.184  12.071  1.00  0.00     0.006 C 
HETATM   16  C25 UNL     1      19.936  28.969  12.740  1.00  0.00     0.001 C 
HETATM   17  C26 UNL     1      20.759  28.209  11.785  1.00  0.00     0.001 C 
HETATM   18  C27 UNL     1      20.459  26.721  11.765  1.00  0.00     0.008 C 
HETATM   19  C28 UNL     1      21.757  26.003  11.620  1.00  0.00     0.033 C 
HETATM   20  C29 UNL     1      22.834  27.018  11.427  1.00  0.00     0.126 C 
ENDROOT
BRANCH  12  21
HETATM   21  C12 UNL     1      17.274  32.944  14.430  1.00  0.00     0.180 C 
BRANCH  21  22
HETATM   22  O5  UNL     1      17.406  34.302  14.539  1.00  0.00    -0.388 OA
BRANCH  22  23
HETATM   23  C13 UNL     1      16.374  34.976  15.144  1.00  0.00     0.193 C 
BRANCH  23  24
HETATM   24  C14 UNL     1      15.515  34.141  16.045  1.00  0.00     0.193 C 
BRANCH  24  25
HETATM   25  O6  UNL     1      15.884  34.176  17.379  1.00  0.00    -0.387 OA
BRANCH  25  26
HETATM   26  C15 UNL     1      15.564  35.342  18.030  1.00  0.00     0.193 C 
BRANCH  26  27
HETATM   27  C16 UNL     1      16.817  35.914  18.674  1.00  0.00     0.193 C 
BRANCH  27  28
HETATM   28  O7  UNL     1      17.726  34.956  19.048  1.00  0.00    -0.387 OA
BRANCH  28  29
HETATM   29  C17 UNL     1      19.036  35.308  18.856  1.00  0.00     0.195 C 
BRANCH  29  30
HETATM   30  C18 UNL     1      19.566  34.898  17.501  1.00  0.00     0.263 C 
BRANCH  30  31
HETATM   31  N1  UNL     1      20.991  34.969  17.515  1.00  0.00    -0.066 N 
HETATM   32  C19 UNL     1      21.567  35.990  16.657  1.00  0.00     0.272 C 
HETATM   33  C20 UNL     1      21.833  33.841  17.751  1.00  0.00     0.265 A 
HETATM   34  C21 UNL     1      21.630  34.839  18.843  1.00  0.00     0.265 A 
ENDBRANCH  30  31
ENDBRANCH  29  30
ENDBRANCH  28  29
ENDBRANCH  27  28
ENDBRANCH  26  27
ENDBRANCH  25  26
ENDBRANCH  24  25
ENDBRANCH  23  24
ENDBRANCH  22  23
ENDBRANCH  21  22
ENDBRANCH  12  21
BRANCH   4  35
HETATM   35  O1  UNL     1      22.233  30.931  13.381  1.00  0.00    -0.256 OA
BRANCH  35  36
HETATM   36  S1  UNL     1      22.827  32.109  14.417  1.00  0.00     0.401 S 
HETATM   37  O2  UNL     1      22.125  33.421  14.098  1.00  0.00    -0.179 OA
HETATM   38  O3  UNL     1      24.500  32.244  14.413  1.00  0.00    -0.179 OA
ENDBRANCH  35  36
ENDBRANCH   4  35
BRANCH  20  39
HETATM   39  O8  UNL     1      23.997  26.737  12.121  1.00  0.00    -0.395 OA
ATOM     40  H8  UNL     1      24.727  26.586  11.531  1.00  0.00     0.210 HD
ENDBRANCH  20  39
TORSDOF 14
ENDMDL
MODEL 2
REMARK VINA RESULT: -6.938193547      3.413      8.166
REMARK  14 active torsions:
REMARK  status: ('A' for Active; 'I' for Inactive)
REMARK    1  A    between atoms: C4_4  and  O1_5 
REMARK    2  A    between atoms: O1_5  and  S1_6 
REMARK    3  A    between atoms: C11_16  and  C12_17 
REMARK    4  A    between atoms: C12_17  and  O5_18 
REMARK    5  A    between atoms: O5_18  and  C13_19 
REMARK    6  A    between atoms: C13_19  and  C14_20 
REMARK    7  A    between atoms: C14_20  and  O6_21 
REMARK    8  A    between atoms: O6_21  and  C15_22 
REMARK    9  A    between atoms: C15_22  and  C16_23 
REMARK   10  A    between atoms: C16_23  and  O7_24 
REMARK   11  A    between atoms: O7_24  and  C17_25 
REMARK   12  A    between atoms: C17_25  and  C18_26 
REMARK   13  A    between atoms: C18_26  and  N1_27 
REMARK   14  A    between atoms: C29_38  and  O8_39 
ROOT
HETATM    1  C1  UNL     1      19.988  34.060  14.896  1.00  0.00     0.018 C 
HETATM    2  C2  UNL     1      20.526  32.784  15.560  1.00  0.00    -0.012 C 
HETATM    3  C3  UNL     1      19.418  32.148  16.312  1.00  0.00     0.046 C 
HETATM    4  C4  UNL     1      18.594  31.191  15.480  1.00  0.00     0.153 C 
HETATM    5  C5  UNL     1      19.454  30.199  14.797  1.00  0.00    -0.008 C 
HETATM    6  C6  UNL     1      20.148  29.380  15.902  1.00  0.00     0.018 C 
HETATM    7  C7  UNL     1      18.723  29.188  13.982  1.00  0.00     0.002 C 
HETATM    8  C8  UNL     1      17.583  28.504  14.640  1.00  0.00     0.013 C 
HETATM    9  C9  UNL     1      17.523  27.068  14.088  1.00  0.00     0.079 C 
HETATM   10  C10 UNL     1      17.923  27.225  12.640  1.00  0.00     0.133 C 
HETATM   11  O4  UNL     1      18.536  26.349  12.052  1.00  0.00    -0.297 OA
HETATM   12  C11 UNL     1      17.527  28.507  11.970  1.00  0.00     0.083 C 
HETATM   13  C22 UNL     1      18.274  29.654  12.624  1.00  0.00     0.004 C 
HETATM   14  C23 UNL     1      19.534  30.009  11.845  1.00  0.00     0.006 C 
HETATM   15  C24 UNL     1      20.163  31.147  12.582  1.00  0.00     0.006 C 
HETATM   16  C25 UNL     1      20.574  30.800  13.991  1.00  0.00     0.001 C 
HETATM   17  C26 UNL     1      21.280  31.933  14.611  1.00  0.00     0.001 C 
HETATM   18  C27 UNL     1      22.585  31.547  15.284  1.00  0.00     0.008 C 
HETATM   19  C28 UNL     1      22.692  32.338  16.542  1.00  0.00     0.033 C 
HETATM   20  C29 UNL     1      21.543  33.289  16.596  1.00  0.00     0.126 C 
ENDROOT
BRANCH  12  21
HETATM   21  C12 UNL     1      17.738  28.455  10.497  1.00  0.00     0.180 C 
BRANCH  21  22
HETATM   22  O5  UNL     1      17.022  27.433   9.932  1.00  0.00    -0.388 OA
BRANCH  22  23
HETATM   23  C13 UNL     1      17.565  26.843   8.818  1.00  0.00     0.193 C 
BRANCH  23  24
HETATM   24  C14 UNL     1      17.559  25.343   8.829  1.00  0.00     0.193 C 
BRANCH  24  25
HETATM   25  O6  UNL     1      18.809  24.769   8.991  1.00  0.00    -0.387 OA
BRANCH  25  26
HETATM   26  C15 UNL     1      19.847  25.506   8.473  1.00  0.00     0.193 C 
BRANCH  26  27
HETATM   27  C16 UNL     1      21.135  25.116   9.179  1.00  0.00     0.193 C 
BRANCH  27  28
HETATM   28  O7  UNL     1      20.936  24.573  10.423  1.00  0.00    -0.387 OA
BRANCH  28  29
HETATM   29  C17 UNL     1      21.719  25.107  11.411  1.00  0.00     0.195 C 
BRANCH  29  30
HETATM   30  C18 UNL     1      23.040  25.635  10.898  1.00  0.00     0.263 C 
BRANCH  30  31
HETATM   31  N1  UNL     1      23.362  26.840  11.591  1.00  0.00    -0.066 N 
HETATM   32  C19 UNL     1      24.739  26.946  12.038  1.00  0.00     0.272 C 
HETATM   33  C20 UNL     1      22.420  27.572  12.376  1.00  0.00     0.265 A 
HETATM   34  C21 UNL     1      22.794  28.083  11.022  1.00  0.00     0.265 A 
ENDBRANCH  30  31
ENDBRANCH  29  30
ENDBRANCH  28  29
ENDBRANCH  27  28
ENDBRANCH  26  27
ENDBRANCH  25  26
ENDBRANCH  24  25
ENDBRANCH  23  24
ENDBRANCH  22  23
ENDBRANCH  21  22
ENDBRANCH  12  21
BRANCH   4  35
HETATM   35  O1  UNL     1      17.798  31.974  14.663  1.00  0.00    -0.256 OA
BRANCH  35  36
HETATM   36  S1  UNL     1      16.644  32.891  15.463  1.00  0.00     0.401 S 
HETATM   37  O2  UNL     1      15.366  32.071  15.556  1.00  0.00    -0.179 OA
HETATM   38  O3  UNL     1      16.398  34.414  14.800  1.00  0.00    -0.179 OA
ENDBRANCH  35  36
ENDBRANCH   4  35
BRANCH  20  39
HETATM   39  O8  UNL     1      20.972  33.407  17.851  1.00  0.00    -0.395 OA
ATOM     40  H8  UNL     1      20.513  32.612  18.100  1.00  0.00     0.210 HD
ENDBRANCH  20  39
TORSDOF 14
ENDMDL
MODEL 3
REMARK VINA RESULT: -6.788071879      2.732      9.005
REMARK  14 active torsions:
REMARK  status: ('A' for Active; 'I' for Inactive)
REMARK    1  A    between atoms: C4_4  and  O1_5 
REMARK    2  A    between atoms: O1_5  and  S1_6 
REMARK    3  A    between atoms: C11_16  and  C12_17 
REMARK    4  A    between atoms: C12_17  and  O5_18 
REMARK    5  A    between atoms: O5_18  and  C13_19 
REMARK    6  A    between atoms: C13_19  and  C14_20 
REMARK    7  A    between atoms: C14_20  and  O6_21 
REMARK    8  A    between atoms: O6_21  and  C15_22 
REMARK    9  A    between atoms: C15_22  and  C16_23 
REMARK   10  A    between atoms: C16_23  and  O7_24 
REMARK   11  A    between atoms: O7_24  and  C17_25 
REMARK   12  A    between atoms: C17_25  and  C18_26 
REMARK   13  A    between atoms: C18_26  and  N1_27 
REMARK   14  A    between atoms: C29_38  and  O8_39 
ROOT
HETATM    1  C1  UNL     1      18.244  34.548  18.864  1.00  0.00     0.018 C 
HETATM    2  C2  UNL     1      17.471  34.699  17.545  1.00  0.00    -0.012 C 
HETATM    3  C3  UNL     1      18.383  35.290  16.537  1.00  0.00     0.046 C 
HETATM    4  C4  UNL     1      19.190  34.262  15.775  1.00  0.00     0.153 C 
HETATM    5  C5  UNL     1      18.316  33.214  15.201  1.00  0.00    -0.008 C 
HETATM    6  C6  UNL     1      17.386  33.918  14.194  1.00  0.00     0.018 C 
HETATM    7  C7  UNL     1      19.023  32.176  14.399  1.00  0.00     0.002 C 
HETATM    8  C8  UNL     1      19.973  32.666  13.370  1.00  0.00     0.013 C 
HETATM    9  C9  UNL     1      19.933  31.674  12.193  1.00  0.00     0.079 C 
HETATM   10  C10 UNL     1      19.754  30.332  12.863  1.00  0.00     0.133 C 
HETATM   11  O4  UNL     1      19.125  29.434  12.328  1.00  0.00    -0.297 OA
HETATM   12  C11 UNL     1      20.388  30.166  14.212  1.00  0.00     0.083 C 
HETATM   13  C22 UNL     1      19.704  31.096  15.194  1.00  0.00     0.004 C 
HETATM   14  C23 UNL     1      18.613  30.373  15.973  1.00  0.00     0.006 C 
HETATM   15  C24 UNL     1      18.032  31.389  16.902  1.00  0.00     0.006 C 
HETATM   16  C25 UNL     1      17.397  32.559  16.196  1.00  0.00     0.001 C 
HETATM   17  C26 UNL     1      16.755  33.457  17.170  1.00  0.00     0.001 C 
HETATM   18  C27 UNL     1      15.334  33.846  16.803  1.00  0.00     0.008 C 
HETATM   19  C28 UNL     1      15.154  35.282  17.160  1.00  0.00     0.033 C 
HETATM   20  C29 UNL     1      16.392  35.750  17.850  1.00  0.00     0.126 C 
ENDROOT
BRANCH  12  21
HETATM   21  C12 UNL     1      20.373  28.747  14.664  1.00  0.00     0.180 C 
BRANCH  21  22
HETATM   22  O5  UNL     1      21.565  28.129  14.390  1.00  0.00    -0.388 OA
BRANCH  22  23
HETATM   23  C13 UNL     1      22.449  28.818  13.598  1.00  0.00     0.193 C 
BRANCH  23  24
HETATM   24  C14 UNL     1      22.824  28.129  12.320  1.00  0.00     0.193 C 
BRANCH  24  25
HETATM   25  O6  UNL     1      24.139  27.699  12.269  1.00  0.00    -0.387 OA
BRANCH  25  26
HETATM   26  C15 UNL     1      24.299  26.396  11.865  1.00  0.00     0.193 C 
BRANCH  26  27
HETATM   27  C16 UNL     1      23.140  26.008  10.962  1.00  0.00     0.193 C 
BRANCH  27  28
HETATM   28  O7  UNL     1      22.516  24.846  11.339  1.00  0.00    -0.387 OA
BRANCH  28  29
HETATM   29  C17 UNL     1      21.152  24.867  11.220  1.00  0.00     0.195 C 
BRANCH  29  30
HETATM   30  C18 UNL     1      20.655  25.957  10.298  1.00  0.00     0.263 C 
BRANCH  30  31
HETATM   31  N1  UNL     1      19.230  25.906  10.239  1.00  0.00    -0.066 N 
HETATM   32  C19 UNL     1      18.574  25.543  11.483  1.00  0.00     0.272 C 
HETATM   33  C20 UNL     1      18.503  25.568   9.058  1.00  0.00     0.265 A 
HETATM   34  C21 UNL     1      18.575  26.997   9.485  1.00  0.00     0.265 A 
ENDBRANCH  30  31
ENDBRANCH  29  30
ENDBRANCH  28  29
ENDBRANCH  27  28
ENDBRANCH  26  27
ENDBRANCH  25  26
ENDBRANCH  24  25
ENDBRANCH  23  24
ENDBRANCH  22  23
ENDBRANCH  21  22
ENDBRANCH  12  21
BRANCH   4  35
HETATM   35  O1  UNL     1      20.177  33.826  16.641  1.00  0.00    -0.256 OA
BRANCH  35  36
HETATM   36  S1  UNL     1      21.733  34.312  16.246  1.00  0.00     0.401 S 
HETATM   37  O2  UNL     1      22.669  33.131  16.456  1.00  0.00    -0.179 OA
HETATM   38  O3  UNL     1      22.241  35.700  17.044  1.00  0.00    -0.179 OA
ENDBRANCH  35  36
ENDBRANCH   4  35
BRANCH  20  39
HETATM   39  O8  UNL     1      16.799  37.017  17.471  1.00  0.00    -0.395 OA
ATOM     40  H8  UNL     1      16.110  37.658  17.607  1.00  0.00     0.210 HD
ENDBRANCH  20  39
TORSDOF 14
ENDMDL
MODEL 4
REMARK VINA RESULT: -6.715171136      2.755      4.525
REMARK  14 active torsions:
REMARK  status: ('A' for Active; 'I' for Inactive)
REMARK    1  A    between atoms: C4_4  and  O1_5 
REMARK    2  A    between atoms: O1_5  and  S1_6 
REMARK    3  A    between atoms: C11_16  and  C12_17 
REMARK    4  A    between atoms: C12_17  and  O5_18 
REMARK    5  A    between atoms: O5_18  and  C13_19 
REMARK    6  A    between atoms: C13_19  and  C14_20 
REMARK    7  A    between atoms: C14_20  and  O6_21 
REMARK    8  A    between atoms: O6_21  and  C15_22 
REMARK    9  A    between atoms: C15_22  and  C16_23 
REMARK   10  A    between atoms: C16_23  and  O7_24 
REMARK   11  A    between atoms: O7_24  and  C17_25 
REMARK   12  A    between atoms: C17_25  and  C18_26 
REMARK   13  A    between atoms: C18_26  and  N1_27 
REMARK   14  A    between atoms: C29_38  and  O8_39 
ROOT
HETATM    1  C1  UNL     1      21.572  25.055  11.805  1.00  0.00     0.018 C 
HETATM    2  C2  UNL     1      22.166  26.313  11.153  1.00  0.00    -0.012 C 
HETATM    3  C3  UNL     1      21.082  27.013  10.424  1.00  0.00     0.046 C 
HETATM    4  C4  UNL     1      20.316  27.998  11.279  1.00  0.00     0.153 C 
HETATM    5  C5  UNL     1      21.232  28.935  11.967  1.00  0.00    -0.008 C 
HETATM    6  C6  UNL     1      21.953  29.736  10.866  1.00  0.00     0.018 C 
HETATM    7  C7  UNL     1      20.560  29.969  12.805  1.00  0.00     0.002 C 
HETATM    8  C8  UNL     1      19.449  30.718  12.171  1.00  0.00     0.013 C 
HETATM    9  C9  UNL     1      19.466  32.146  12.744  1.00  0.00     0.079 C 
HETATM   10  C10 UNL     1      19.873  31.948  14.185  1.00  0.00     0.133 C 
HETATM   11  O4  UNL     1      20.535  32.784  14.779  1.00  0.00    -0.297 OA
HETATM   12  C11 UNL     1      19.422  30.677  14.841  1.00  0.00     0.083 C 
HETATM   13  C22 UNL     1      20.104  29.505  14.162  1.00  0.00     0.004 C 
HETATM   14  C23 UNL     1      21.353  29.077  14.920  1.00  0.00     0.006 C 
HETATM   15  C24 UNL     1      21.917  27.920  14.159  1.00  0.00     0.006 C 
HETATM   16  C25 UNL     1      22.328  28.268  12.752  1.00  0.00     0.001 C 
HETATM   17  C26 UNL     1      22.971  27.111  12.107  1.00  0.00     0.001 C 
HETATM   18  C27 UNL     1      24.286  27.442  11.424  1.00  0.00     0.008 C 
HETATM   19  C28 UNL     1      24.340  26.666  10.153  1.00  0.00     0.033 C 
HETATM   20  C29 UNL     1      23.145  25.774  10.099  1.00  0.00     0.126 C 
ENDROOT
BRANCH  12  21
HETATM   21  C12 UNL     1      19.651  30.697  16.312  1.00  0.00     0.180 C 
BRANCH  21  22
HETATM   22  O5  UNL     1      18.491  30.965  16.989  1.00  0.00    -0.388 OA
BRANCH  22  23
HETATM   23  C13 UNL     1      17.365  31.162  16.229  1.00  0.00     0.193 C 
BRANCH  23  24
HETATM   24  C14 UNL     1      16.793  32.547  16.291  1.00  0.00     0.193 C 
BRANCH  24  25
HETATM   25  O6  UNL     1      17.674  33.507  16.757  1.00  0.00    -0.387 OA
BRANCH  25  26
HETATM   26  C15 UNL     1      17.210  34.240  17.823  1.00  0.00     0.193 C 
BRANCH  26  27
HETATM   27  C16 UNL     1      15.691  34.188  17.839  1.00  0.00     0.193 C 
BRANCH  27  28
HETATM   28  O7  UNL     1      15.130  34.894  18.873  1.00  0.00    -0.387 OA
BRANCH  28  29
HETATM   29  C17 UNL     1      14.537  36.072  18.504  1.00  0.00     0.195 C 
BRANCH  29  30
HETATM   30  C18 UNL     1      14.971  37.245  19.353  1.00  0.00     0.263 C 
BRANCH  30  31
HETATM   31  N1  UNL     1      15.740  38.142  18.552  1.00  0.00    -0.066 N 
HETATM   32  C19 UNL     1      15.297  39.525  18.577  1.00  0.00     0.272 C 
HETATM   33  C20 UNL     1      16.411  37.750  17.355  1.00  0.00     0.265 A 
HETATM   34  C21 UNL     1      17.207  37.957  18.602  1.00  0.00     0.265 A 
ENDBRANCH  30  31
ENDBRANCH  29  30
ENDBRANCH  28  29
ENDBRANCH  27  28
ENDBRANCH  26  27
ENDBRANCH  25  26
ENDBRANCH  24  25
ENDBRANCH  23  24
ENDBRANCH  22  23
ENDBRANCH  21  22
ENDBRANCH  12  21
BRANCH   4  35
HETATM   35  O1  UNL     1      19.491  27.243  12.095  1.00  0.00    -0.256 OA
BRANCH  35  36
HETATM   36  S1  UNL     1      18.041  26.771  11.396  1.00  0.00     0.401 S 
HETATM   37  O2  UNL     1      18.089  25.267  11.171  1.00  0.00    -0.179 OA
HETATM   38  O3  UNL     1      17.637  27.628  10.010  1.00  0.00    -0.179 OA
ENDBRANCH  35  36
ENDBRANCH   4  35
BRANCH  20  39
HETATM   39  O8  UNL     1      22.555  25.704   8.849  1.00  0.00    -0.395 OA
ATOM     40  H8  UNL     1      22.257  26.558   8.557  1.00  0.00     0.210 HD
ENDBRANCH  20  39
TORSDOF 14
ENDMDL
MODEL 5
REMARK VINA RESULT: -6.705495924      2.373      3.774
REMARK  14 active torsions:
REMARK  status: ('A' for Active; 'I' for Inactive)
REMARK    1  A    between atoms: C4_4  and  O1_5 
REMARK    2  A    between atoms: O1_5  and  S1_6 
REMARK    3  A    between atoms: C11_16  and  C12_17 
REMARK    4  A    between atoms: C12_17  and  O5_18 
REMARK    5  A    between atoms: O5_18  and  C13_19 
REMARK    6  A    between atoms: C13_19  and  C14_20 
REMARK    7  A    between atoms: C14_20  and  O6_21 
REMARK    8  A    between atoms: O6_21  and  C15_22 
REMARK    9  A    between atoms: C15_22  and  C16_23 
REMARK   10  A    between atoms: C16_23  and  O7_24 
REMARK   11  A    between atoms: O7_24  and  C17_25 
REMARK   12  A    between atoms: C17_25  and  C18_26 
REMARK   13  A    between atoms: C18_26  and  N1_27 
REMARK   14  A    between atoms: C29_38  and  O8_39 
ROOT
HETATM    1  C1  UNL     1      21.237  25.045  11.719  1.00  0.00     0.018 C 
HETATM    2  C2  UNL     1      21.980  26.266  11.159  1.00  0.00    -0.012 C 
HETATM    3  C3  UNL     1      21.020  27.070  10.365  1.00  0.00     0.046 C 
HETATM    4  C4  UNL     1      20.263  28.091  11.184  1.00  0.00     0.153 C 
HETATM    5  C5  UNL     1      21.187  28.934  11.975  1.00  0.00    -0.008 C 
HETATM    6  C6  UNL     1      22.060  29.702  10.964  1.00  0.00     0.018 C 
HETATM    7  C7  UNL     1      20.528  29.997  12.786  1.00  0.00     0.002 C 
HETATM    8  C8  UNL     1      19.537  30.848  12.086  1.00  0.00     0.013 C 
HETATM    9  C9  UNL     1      19.616  32.256  12.703  1.00  0.00     0.079 C 
HETATM   10  C10 UNL     1      19.882  31.990  14.166  1.00  0.00     0.133 C 
HETATM   11  O4  UNL     1      20.554  32.755  14.839  1.00  0.00    -0.297 OA
HETATM   12  C11 UNL     1      19.278  30.743  14.742  1.00  0.00     0.083 C 
HETATM   13  C22 UNL     1      19.923  29.538  14.085  1.00  0.00     0.004 C 
HETATM   14  C23 UNL     1      21.065  28.992  14.931  1.00  0.00     0.006 C 
HETATM   15  C24 UNL     1      21.601  27.813  14.183  1.00  0.00     0.006 C 
HETATM   16  C25 UNL     1      22.157  28.162  12.827  1.00  0.00     0.001 C 
HETATM   17  C26 UNL     1      22.760  26.973  12.201  1.00  0.00     0.001 C 
HETATM   18  C27 UNL     1      24.151  27.215  11.642  1.00  0.00     0.008 C 
HETATM   19  C28 UNL     1      24.253  26.468  10.356  1.00  0.00     0.033 C 
HETATM   20  C29 UNL     1      23.001  25.677  10.174  1.00  0.00     0.126 C 
ENDROOT
BRANCH  12  21
HETATM   21  C12 UNL     1      19.382  30.708  16.227  1.00  0.00     0.180 C 
BRANCH  21  22
HETATM   22  O5  UNL     1      18.214  31.118  16.813  1.00  0.00    -0.388 OA
BRANCH  22  23
HETATM   23  C13 UNL     1      17.071  30.992  16.064  1.00  0.00     0.193 C 
BRANCH  23  24
HETATM   24  C14 UNL     1      16.183  32.200  16.055  1.00  0.00     0.193 C 
BRANCH  24  25
HETATM   25  O6  UNL     1      16.701  33.294  16.727  1.00  0.00    -0.387 OA
BRANCH  25  26
HETATM   26  C15 UNL     1      15.789  33.980  17.491  1.00  0.00     0.193 C 
BRANCH  26  27
HETATM   27  C16 UNL     1      16.489  35.136  18.187  1.00  0.00     0.193 C 
BRANCH  27  28
HETATM   28  O7  UNL     1      17.537  34.743  18.981  1.00  0.00    -0.387 OA
BRANCH  28  29
HETATM   29  C17 UNL     1      18.688  35.463  18.805  1.00  0.00     0.195 C 
BRANCH  29  30
HETATM   30  C18 UNL     1      19.616  34.854  17.778  1.00  0.00     0.263 C 
BRANCH  30  31
HETATM   31  N1  UNL     1      20.967  35.092  18.170  1.00  0.00    -0.066 N 
HETATM   32  C19 UNL     1      21.135  35.650  19.500  1.00  0.00     0.272 C 
HETATM   33  C20 UNL     1      22.008  35.419  17.249  1.00  0.00     0.265 A 
HETATM   34  C21 UNL     1      21.939  34.036  17.811  1.00  0.00     0.265 A 
ENDBRANCH  30  31
ENDBRANCH  29  30
ENDBRANCH  28  29
ENDBRANCH  27  28
ENDBRANCH  26  27
ENDBRANCH  25  26
ENDBRANCH  24  25
ENDBRANCH  23  24
ENDBRANCH  22  23
ENDBRANCH  21  22
ENDBRANCH  12  21
BRANCH   4  35
HETATM   35  O1  UNL     1      19.315  27.384  11.904  1.00  0.00    -0.256 OA
BRANCH  35  36
HETATM   36  S1  UNL     1      17.778  27.372  11.232  1.00  0.00     0.401 S 
HETATM   37  O2  UNL     1      17.635  26.108  10.395  1.00  0.00    -0.179 OA
HETATM   38  O3  UNL     1      17.390  28.767  10.383  1.00  0.00    -0.179 OA
ENDBRANCH  35  36
ENDBRANCH   4  35
BRANCH  20  39
HETATM   39  O8  UNL     1      22.516  25.685   8.878  1.00  0.00    -0.395 OA
ATOM     40  H8  UNL     1      21.744  25.138   8.791  1.00  0.00     0.210 HD
ENDBRANCH  20  39
TORSDOF 14
ENDMDL
