MODEL 1
REMARK VINA RESULT: -5.246802952      0.000      0.000
REMARK  17 active torsions:
REMARK  status: ('A' for Active; 'I' for Inactive)
REMARK    1  A    between atoms: C2_2  and  C3_3 
REMARK    2  A    between atoms: C3_3  and  O1_4 
REMARK    3  A    between atoms: O1_4  and  C4_5 
REMARK    4  A    between atoms: C4_5  and  C5_6 
REMARK    5  A    between atoms: C6_7  and  O2_8 
REMARK    6  A    between atoms: C9_12  and  C10_13 
REMARK    7  A    between atoms: C10_13  and  O3_14 
REMARK    8  A    between atoms: C15_19  and  O4_20 
REMARK    9  A    between atoms: O4_20  and  C16_21 
REMARK   10  A    between atoms: C18_24  and  O6_25 
REMARK   11  A    between atoms: O6_25  and  C19_26 
REMARK   12  A    between atoms: C22_30  and  O8_32 
REMARK   13  A    between atoms: C26_36  and  C27_37 
REMARK   14  A    between atoms: C27_37  and  O10_39 
REMARK   15  A    between atoms: O10_39  and  C28_40 
REMARK   16  A    between atoms: C28_40  and  C29_41 
REMARK   17  A    between atoms: C29_41  and  C31_43 
ROOT
HETATM    1  C5  UNL     1      19.241  39.283  18.248  1.00  0.00     0.069 C 
HETATM    2  C6  UNL     1      19.137  37.894  17.833  1.00  0.00     0.132 C 
HETATM    3  C7  UNL     1      20.185  36.996  17.502  1.00  0.00     0.035 C 
HETATM    4  C8  UNL     1      21.131  37.059  16.389  1.00  0.00     0.013 C 
HETATM    5  C9  UNL     1      21.764  38.357  16.001  1.00  0.00     0.016 C 
HETATM    6  C12 UNL     1      21.813  39.381  17.036  1.00  0.00     0.021 C 
HETATM    7  C13 UNL     1      21.739  39.125  18.465  1.00  0.00     0.011 C 
HETATM    8  C14 UNL     1      22.836  40.017  19.112  1.00  0.00     0.020 C 
HETATM    9  C15 UNL     1      20.453  39.722  19.008  1.00  0.00     0.151 C 
HETATM   10  C18 UNL     1      21.943  37.799  19.115  1.00  0.00     0.155 C 
HETATM   11  C21 UNL     1      21.288  36.617  18.419  1.00  0.00     0.036 C 
HETATM   12  C22 UNL     1      20.946  35.516  19.355  1.00  0.00     0.066 C 
HETATM   13  C23 UNL     1      19.619  34.829  19.235  1.00  0.00     0.047 C 
HETATM   14  C24 UNL     1      21.977  34.400  19.339  1.00  0.00     0.043 C 
HETATM   15  C25 UNL     1      21.870  33.772  17.996  1.00  0.00     0.044 C 
HETATM   16  C26 UNL     1      22.109  34.737  16.854  1.00  0.00     0.005 C 
HETATM   17  C33 UNL     1      22.091  36.173  17.191  1.00  0.00     0.003 C 
HETATM   18  C34 UNL     1      23.532  36.653  17.151  1.00  0.00     0.021 C 
ENDROOT
BRANCH  16  19
HETATM   19  C27 UNL     1      21.376  34.292  15.632  1.00  0.00     0.286 C 
HETATM   20  O9  UNL     1      22.080  34.047  14.623  1.00  0.00    -0.260 OA
BRANCH  19  21
HETATM   21  O10 UNL     1      20.033  34.126  15.507  1.00  0.00    -0.314 OA
BRANCH  21  22
HETATM   22  C28 UNL     1      19.231  33.063  15.188  1.00  0.00     0.212 C 
BRANCH  22  23
HETATM   23  C29 UNL     1      18.018  32.911  16.013  1.00  0.00    -0.066 C 
HETATM   24  C30 UNL     1      17.604  31.656  16.316  1.00  0.00     0.016 C 
BRANCH  23  25
HETATM   25  C31 UNL     1      17.181  34.016  16.520  1.00  0.00     0.031 C 
HETATM   26  C32 UNL     1      16.429  34.718  15.395  1.00  0.00     0.010 C 
ENDBRANCH  23  25
ENDBRANCH  22  23
ENDBRANCH  21  22
ENDBRANCH  19  21
ENDBRANCH  16  19
BRANCH  12  27
HETATM   27  O8  UNL     1      20.876  35.900  20.710  1.00  0.00    -0.389 OA
ATOM     28  H8  UNL     1      20.062  36.321  20.958  1.00  0.00     0.210 HD
ENDBRANCH  12  27
BRANCH   5  29
HETATM   29  C10 UNL     1      21.115  38.829  14.715  1.00  0.00     0.172 C 
BRANCH  29  30
HETATM   30  O3  UNL     1      21.694  39.654  13.887  1.00  0.00    -0.396 OA
HETATM   31  C11 UNL     1      22.072  39.546  12.634  1.00  0.00     0.201 C 
ENDBRANCH  29  30
ENDBRANCH   5  29
BRANCH  10  32
HETATM   32  O6  UNL     1      23.277  37.578  19.487  1.00  0.00    -0.315 OA
BRANCH  32  33
HETATM   33  C19 UNL     1      23.875  37.340  20.662  1.00  0.00     0.255 C 
HETATM   34  C20 UNL     1      25.058  38.203  21.063  1.00  0.00     0.126 C 
HETATM   35  O7  UNL     1      23.465  36.434  21.398  1.00  0.00    -0.266 OA
ENDBRANCH  32  33
ENDBRANCH  10  32
BRANCH   2  36
HETATM   36  O2  UNL     1      18.184  37.793  16.798  1.00  0.00    -0.395 OA
ATOM     37  H2  UNL     1      18.627  37.870  15.961  1.00  0.00     0.210 HD
ENDBRANCH   2  36
BRANCH   1  38
HETATM   38  C4  UNL     1      18.094  39.721  19.174  1.00  0.00     0.177 C 
BRANCH  38  39
HETATM   39  O1  UNL     1      16.864  39.597  18.529  1.00  0.00    -0.387 OA
BRANCH  39  40
HETATM   40  C3  UNL     1      15.969  38.837  19.281  1.00  0.00     0.194 C 
BRANCH  40  41
HETATM   41  C2  UNL     1      15.472  37.658  18.569  1.00  0.00    -0.011 C 
HETATM   42  C1  UNL     1      15.829  36.436  18.922  1.00  0.00     0.009 C 
ENDBRANCH  40  41
ENDBRANCH  39  40
ENDBRANCH  38  39
ENDBRANCH   1  38
BRANCH   9  43
HETATM   43  O4  UNL     1      20.590  41.125  18.859  1.00  0.00    -0.315 OA
BRANCH  43  44
HETATM   44  C16 UNL     1      20.097  42.073  19.686  1.00  0.00     0.255 C 
HETATM   45  C17 UNL     1      20.565  42.152  21.085  1.00  0.00     0.126 C 
HETATM   46  O5  UNL     1      19.246  42.886  19.275  1.00  0.00    -0.266 OA
ENDBRANCH  43  44
ENDBRANCH   9  43
TORSDOF 17
ENDMDL
MODEL 2
REMARK VINA RESULT: -5.159441055      0.824      1.110
REMARK  17 active torsions:
REMARK  status: ('A' for Active; 'I' for Inactive)
REMARK    1  A    between atoms: C2_2  and  C3_3 
REMARK    2  A    between atoms: C3_3  and  O1_4 
REMARK    3  A    between atoms: O1_4  and  C4_5 
REMARK    4  A    between atoms: C4_5  and  C5_6 
REMARK    5  A    between atoms: C6_7  and  O2_8 
REMARK    6  A    between atoms: C9_12  and  C10_13 
REMARK    7  A    between atoms: C10_13  and  O3_14 
REMARK    8  A    between atoms: C15_19  and  O4_20 
REMARK    9  A    between atoms: O4_20  and  C16_21 
REMARK   10  A    between atoms: C18_24  and  O6_25 
REMARK   11  A    between atoms: O6_25  and  C19_26 
REMARK   12  A    between atoms: C22_30  and  O8_32 
REMARK   13  A    between atoms: C26_36  and  C27_37 
REMARK   14  A    between atoms: C27_37  and  O10_39 
REMARK   15  A    between atoms: O10_39  and  C28_40 
REMARK   16  A    between atoms: C28_40  and  C29_41 
REMARK   17  A    between atoms: C29_41  and  C31_43 
ROOT
HETATM    1  C5  UNL     1      19.250  39.349  18.476  1.00  0.00     0.069 C 
HETATM    2  C6  UNL     1      19.113  37.973  18.030  1.00  0.00     0.132 C 
HETATM    3  C7  UNL     1      20.139  37.070  17.645  1.00  0.00     0.035 C 
HETATM    4  C8  UNL     1      21.052  37.148  16.506  1.00  0.00     0.013 C 
HETATM    5  C9  UNL     1      21.692  38.446  16.133  1.00  0.00     0.016 C 
HETATM    6  C12 UNL     1      21.786  39.443  17.192  1.00  0.00     0.021 C 
HETATM    7  C13 UNL     1      21.751  39.152  18.615  1.00  0.00     0.011 C 
HETATM    8  C14 UNL     1      22.879  40.011  19.251  1.00  0.00     0.020 C 
HETATM    9  C15 UNL     1      20.490  39.752  19.210  1.00  0.00     0.151 C 
HETATM   10  C18 UNL     1      21.955  37.806  19.225  1.00  0.00     0.155 C 
HETATM   11  C21 UNL     1      21.262  36.652  18.519  1.00  0.00     0.036 C 
HETATM   12  C22 UNL     1      20.932  35.532  19.436  1.00  0.00     0.066 C 
HETATM   13  C23 UNL     1      19.591  34.867  19.338  1.00  0.00     0.047 C 
HETATM   14  C24 UNL     1      21.945  34.402  19.361  1.00  0.00     0.043 C 
HETATM   15  C25 UNL     1      21.790  33.811  18.007  1.00  0.00     0.044 C 
HETATM   16  C26 UNL     1      22.009  34.802  16.883  1.00  0.00     0.005 C 
HETATM   17  C33 UNL     1      22.022  36.229  17.257  1.00  0.00     0.003 C 
HETATM   18  C34 UNL     1      23.468  36.689  17.186  1.00  0.00     0.021 C 
ENDROOT
BRANCH  16  19
HETATM   19  C27 UNL     1      21.234  34.398  15.672  1.00  0.00     0.286 C 
HETATM   20  O9  UNL     1      21.893  34.256  14.615  1.00  0.00    -0.260 OA
BRANCH  19  21
HETATM   21  O10 UNL     1      19.896  34.171  15.604  1.00  0.00    -0.314 OA
BRANCH  21  22
HETATM   22  C28 UNL     1      19.131  33.089  15.257  1.00  0.00     0.212 C 
BRANCH  22  23
HETATM   23  C29 UNL     1      17.696  33.196  15.577  1.00  0.00    -0.066 C 
HETATM   24  C30 UNL     1      17.147  32.245  16.374  1.00  0.00     0.016 C 
BRANCH  23  25
HETATM   25  C31 UNL     1      16.780  34.239  15.077  1.00  0.00     0.031 C 
HETATM   26  C32 UNL     1      16.194  35.069  16.213  1.00  0.00     0.010 C 
ENDBRANCH  23  25
ENDBRANCH  22  23
ENDBRANCH  21  22
ENDBRANCH  19  21
ENDBRANCH  16  19
BRANCH  12  27
HETATM   27  O8  UNL     1      20.907  35.882  20.802  1.00  0.00    -0.389 OA
ATOM     28  H8  UNL     1      20.880  35.143  21.398  1.00  0.00     0.210 HD
ENDBRANCH  12  27
BRANCH   5  29
HETATM   29  C10 UNL     1      21.013  38.961  14.879  1.00  0.00     0.172 C 
BRANCH  29  30
HETATM   30  O3  UNL     1      21.666  39.487  13.880  1.00  0.00    -0.396 OA
HETATM   31  C11 UNL     1      22.393  40.573  13.758  1.00  0.00     0.201 C 
ENDBRANCH  29  30
ENDBRANCH   5  29
BRANCH  10  32
HETATM   32  O6  UNL     1      23.296  37.558  19.551  1.00  0.00    -0.315 OA
BRANCH  32  33
HETATM   33  C19 UNL     1      23.923  37.275  20.700  1.00  0.00     0.255 C 
HETATM   34  C20 UNL     1      25.146  38.092  21.080  1.00  0.00     0.126 C 
HETATM   35  O7  UNL     1      23.509  36.367  21.431  1.00  0.00    -0.266 OA
ENDBRANCH  32  33
ENDBRANCH  10  32
BRANCH   2  36
HETATM   36  O2  UNL     1      18.129  37.912  17.022  1.00  0.00    -0.395 OA
ATOM     37  H2  UNL     1      17.837  37.012  16.928  1.00  0.00     0.210 HD
ENDBRANCH   2  36
BRANCH   1  38
HETATM   38  C4  UNL     1      18.137  39.779  19.447  1.00  0.00     0.177 C 
BRANCH  38  39
HETATM   39  O1  UNL     1      16.885  39.416  18.954  1.00  0.00    -0.387 OA
BRANCH  39  40
HETATM   40  C3  UNL     1      16.150  40.533  18.557  1.00  0.00     0.194 C 
BRANCH  40  41
HETATM   41  C2  UNL     1      15.966  40.619  17.108  1.00  0.00    -0.011 C 
HETATM   42  C1  UNL     1      16.761  41.354  16.352  1.00  0.00     0.009 C 
ENDBRANCH  40  41
ENDBRANCH  39  40
ENDBRANCH  38  39
ENDBRANCH   1  38
BRANCH   9  43
HETATM   43  O4  UNL     1      20.643  41.157  19.093  1.00  0.00    -0.315 OA
BRANCH  43  44
HETATM   44  C16 UNL     1      20.206  42.088  19.969  1.00  0.00     0.255 C 
HETATM   45  C17 UNL     1      20.792  42.168  21.322  1.00  0.00     0.126 C 
HETATM   46  O5  UNL     1      19.305  42.886  19.640  1.00  0.00    -0.266 OA
ENDBRANCH  43  44
ENDBRANCH   9  43
TORSDOF 17
ENDMDL
MODEL 3
REMARK VINA RESULT: -5.098532522      0.976      1.469
REMARK  17 active torsions:
REMARK  status: ('A' for Active; 'I' for Inactive)
REMARK    1  A    between atoms: C2_2  and  C3_3 
REMARK    2  A    between atoms: C3_3  and  O1_4 
REMARK    3  A    between atoms: O1_4  and  C4_5 
REMARK    4  A    between atoms: C4_5  and  C5_6 
REMARK    5  A    between atoms: C6_7  and  O2_8 
REMARK    6  A    between atoms: C9_12  and  C10_13 
REMARK    7  A    between atoms: C10_13  and  O3_14 
REMARK    8  A    between atoms: C15_19  and  O4_20 
REMARK    9  A    between atoms: O4_20  and  C16_21 
REMARK   10  A    between atoms: C18_24  and  O6_25 
REMARK   11  A    between atoms: O6_25  and  C19_26 
REMARK   12  A    between atoms: C22_30  and  O8_32 
REMARK   13  A    between atoms: C26_36  and  C27_37 
REMARK   14  A    between atoms: C27_37  and  O10_39 
REMARK   15  A    between atoms: O10_39  and  C28_40 
REMARK   16  A    between atoms: C28_40  and  C29_41 
REMARK   17  A    between atoms: C29_41  and  C31_43 
ROOT
HETATM    1  C5  UNL     1      19.333  39.393  18.492  1.00  0.00     0.069 C 
HETATM    2  C6  UNL     1      19.182  38.016  18.052  1.00  0.00     0.132 C 
HETATM    3  C7  UNL     1      20.197  37.101  17.669  1.00  0.00     0.035 C 
HETATM    4  C8  UNL     1      21.108  37.164  16.528  1.00  0.00     0.013 C 
HETATM    5  C9  UNL     1      21.762  38.454  16.148  1.00  0.00     0.016 C 
HETATM    6  C12 UNL     1      21.868  39.454  17.202  1.00  0.00     0.021 C 
HETATM    7  C13 UNL     1      21.832  39.170  18.627  1.00  0.00     0.011 C 
HETATM    8  C14 UNL     1      22.971  40.020  19.258  1.00  0.00     0.020 C 
HETATM    9  C15 UNL     1      20.579  39.785  19.222  1.00  0.00     0.151 C 
HETATM   10  C18 UNL     1      22.023  37.825  19.243  1.00  0.00     0.155 C 
HETATM   11  C21 UNL     1      21.318  36.675  18.543  1.00  0.00     0.036 C 
HETATM   12  C22 UNL     1      20.978  35.562  19.466  1.00  0.00     0.066 C 
HETATM   13  C23 UNL     1      19.630  34.911  19.373  1.00  0.00     0.047 C 
HETATM   14  C24 UNL     1      21.979  34.422  19.393  1.00  0.00     0.043 C 
HETATM   15  C25 UNL     1      21.815  33.827  18.042  1.00  0.00     0.044 C 
HETATM   16  C26 UNL     1      22.041  34.810  16.914  1.00  0.00     0.005 C 
HETATM   17  C33 UNL     1      22.071  36.238  17.281  1.00  0.00     0.003 C 
HETATM   18  C34 UNL     1      23.521  36.683  17.205  1.00  0.00     0.021 C 
ENDROOT
BRANCH  16  19
HETATM   19  C27 UNL     1      21.260  34.409  15.706  1.00  0.00     0.286 C 
HETATM   20  O9  UNL     1      21.918  34.243  14.651  1.00  0.00    -0.260 OA
BRANCH  19  21
HETATM   21  O10 UNL     1      19.918  34.207  15.639  1.00  0.00    -0.314 OA
BRANCH  21  22
HETATM   22  C28 UNL     1      19.132  33.168  15.218  1.00  0.00     0.212 C 
BRANCH  22  23
HETATM   23  C29 UNL     1      18.360  32.486  16.272  1.00  0.00    -0.066 C 
HETATM   24  C30 UNL     1      17.401  33.193  16.920  1.00  0.00     0.016 C 
BRANCH  23  25
HETATM   25  C31 UNL     1      18.558  31.094  16.717  1.00  0.00     0.031 C 
HETATM   26  C32 UNL     1      20.015  30.661  16.590  1.00  0.00     0.010 C 
ENDBRANCH  23  25
ENDBRANCH  22  23
ENDBRANCH  21  22
ENDBRANCH  19  21
ENDBRANCH  16  19
BRANCH  12  27
HETATM   27  O8  UNL     1      20.959  35.919  20.830  1.00  0.00    -0.389 OA
ATOM     28  H8  UNL     1      21.800  35.851  21.266  1.00  0.00     0.210 HD
ENDBRANCH  12  27
BRANCH   5  29
HETATM   29  C10 UNL     1      21.085  38.971  14.894  1.00  0.00     0.172 C 
BRANCH  29  30
HETATM   30  O3  UNL     1      21.745  39.417  13.860  1.00  0.00    -0.396 OA
HETATM   31  C11 UNL     1      22.384  40.539  13.623  1.00  0.00     0.201 C 
ENDBRANCH  29  30
ENDBRANCH   5  29
BRANCH  10  32
HETATM   32  O6  UNL     1      23.362  37.563  19.567  1.00  0.00    -0.315 OA
BRANCH  32  33
HETATM   33  C19 UNL     1      23.992  37.300  20.719  1.00  0.00     0.255 C 
HETATM   34  C20 UNL     1      25.196  38.144  21.099  1.00  0.00     0.126 C 
HETATM   35  O7  UNL     1      23.596  36.386  21.453  1.00  0.00    -0.266 OA
ENDBRANCH  32  33
ENDBRANCH  10  32
BRANCH   2  36
HETATM   36  O2  UNL     1      18.195  37.961  17.046  1.00  0.00    -0.395 OA
ATOM     37  H2  UNL     1      17.471  37.426  17.351  1.00  0.00     0.210 HD
ENDBRANCH   2  36
BRANCH   1  38
HETATM   38  C4  UNL     1      18.227  39.838  19.463  1.00  0.00     0.177 C 
BRANCH  38  39
HETATM   39  O1  UNL     1      16.968  39.653  18.895  1.00  0.00    -0.387 OA
BRANCH  39  40
HETATM   40  C3  UNL     1      16.277  40.860  18.784  1.00  0.00     0.194 C 
BRANCH  40  41
HETATM   41  C2  UNL     1      15.852  41.159  17.416  1.00  0.00    -0.011 C 
HETATM   42  C1  UNL     1      16.685  41.061  16.396  1.00  0.00     0.009 C 
ENDBRANCH  40  41
ENDBRANCH  39  40
ENDBRANCH  38  39
ENDBRANCH   1  38
BRANCH   9  43
HETATM   43  O4  UNL     1      20.746  41.188  19.099  1.00  0.00    -0.315 OA
BRANCH  43  44
HETATM   44  C16 UNL     1      20.317  42.128  19.969  1.00  0.00     0.255 C 
HETATM   45  C17 UNL     1      20.962  42.265  21.291  1.00  0.00     0.126 C 
HETATM   46  O5  UNL     1      19.375  42.886  19.662  1.00  0.00    -0.266 OA
ENDBRANCH  43  44
ENDBRANCH   9  43
TORSDOF 17
ENDMDL
MODEL 4
REMARK VINA RESULT: -4.898843660      0.887      1.015
REMARK  17 active torsions:
REMARK  status: ('A' for Active; 'I' for Inactive)
REMARK    1  A    between atoms: C2_2  and  C3_3 
REMARK    2  A    between atoms: C3_3  and  O1_4 
REMARK    3  A    between atoms: O1_4  and  C4_5 
REMARK    4  A    between atoms: C4_5  and  C5_6 
REMARK    5  A    between atoms: C6_7  and  O2_8 
REMARK    6  A    between atoms: C9_12  and  C10_13 
REMARK    7  A    between atoms: C10_13  and  O3_14 
REMARK    8  A    between atoms: C15_19  and  O4_20 
REMARK    9  A    between atoms: O4_20  and  C16_21 
REMARK   10  A    between atoms: C18_24  and  O6_25 
REMARK   11  A    between atoms: O6_25  and  C19_26 
REMARK   12  A    between atoms: C22_30  and  O8_32 
REMARK   13  A    between atoms: C26_36  and  C27_37 
REMARK   14  A    between atoms: C27_37  and  O10_39 
REMARK   15  A    between atoms: O10_39  and  C28_40 
REMARK   16  A    between atoms: C28_40  and  C29_41 
REMARK   17  A    between atoms: C29_41  and  C31_43 
ROOT
HETATM    1  C5  UNL     1      19.358  39.376  18.422  1.00  0.00     0.069 C 
HETATM    2  C6  UNL     1      19.182  38.002  17.983  1.00  0.00     0.132 C 
HETATM    3  C7  UNL     1      20.183  37.062  17.621  1.00  0.00     0.035 C 
HETATM    4  C8  UNL     1      21.116  37.101  16.497  1.00  0.00     0.013 C 
HETATM    5  C9  UNL     1      21.805  38.375  16.124  1.00  0.00     0.016 C 
HETATM    6  C12 UNL     1      21.916  39.375  17.177  1.00  0.00     0.021 C 
HETATM    7  C13 UNL     1      21.848  39.096  18.602  1.00  0.00     0.011 C 
HETATM    8  C14 UNL     1      22.994  39.922  19.250  1.00  0.00     0.020 C 
HETATM    9  C15 UNL     1      20.599  39.743  19.173  1.00  0.00     0.151 C 
HETATM   10  C18 UNL     1      21.997  37.750  19.225  1.00  0.00     0.155 C 
HETATM   11  C21 UNL     1      21.278  36.614  18.516  1.00  0.00     0.036 C 
HETATM   12  C22 UNL     1      20.896  35.512  19.436  1.00  0.00     0.066 C 
HETATM   13  C23 UNL     1      19.535  34.892  19.321  1.00  0.00     0.047 C 
HETATM   14  C24 UNL     1      21.871  34.349  19.385  1.00  0.00     0.043 C 
HETATM   15  C25 UNL     1      21.718  33.753  18.032  1.00  0.00     0.044 C 
HETATM   16  C26 UNL     1      21.987  34.727  16.905  1.00  0.00     0.005 C 
HETATM   17  C33 UNL     1      22.043  36.156  17.269  1.00  0.00     0.003 C 
HETATM   18  C34 UNL     1      23.504  36.567  17.218  1.00  0.00     0.021 C 
ENDROOT
BRANCH  16  19
HETATM   19  C27 UNL     1      21.218  34.340  15.685  1.00  0.00     0.286 C 
HETATM   20  O9  UNL     1      21.890  34.163  14.641  1.00  0.00    -0.260 OA
BRANCH  19  21
HETATM   21  O10 UNL     1      19.875  34.163  15.596  1.00  0.00    -0.314 OA
BRANCH  21  22
HETATM   22  C28 UNL     1      19.077  33.137  15.165  1.00  0.00     0.212 C 
BRANCH  22  23
HETATM   23  C29 UNL     1      18.270  32.477  16.207  1.00  0.00    -0.066 C 
HETATM   24  C30 UNL     1      18.724  31.306  16.720  1.00  0.00     0.016 C 
BRANCH  23  25
HETATM   25  C31 UNL     1      16.979  32.963  16.730  1.00  0.00     0.031 C 
HETATM   26  C32 UNL     1      15.806  32.165  16.171  1.00  0.00     0.010 C 
ENDBRANCH  23  25
ENDBRANCH  22  23
ENDBRANCH  21  22
ENDBRANCH  19  21
ENDBRANCH  16  19
BRANCH  12  27
HETATM   27  O8  UNL     1      20.861  35.874  20.798  1.00  0.00    -0.389 OA
ATOM     28  H8  UNL     1      21.199  36.742  20.984  1.00  0.00     0.210 HD
ENDBRANCH  12  27
BRANCH   5  29
HETATM   29  C10 UNL     1      21.163  38.902  14.856  1.00  0.00     0.172 C 
BRANCH  29  30
HETATM   30  O3  UNL     1      21.464  40.059  14.333  1.00  0.00    -0.396 OA
HETATM   31  C11 UNL     1      22.364  40.437  13.456  1.00  0.00     0.201 C 
ENDBRANCH  29  30
ENDBRANCH   5  29
BRANCH  10  32
HETATM   32  O6  UNL     1      23.324  37.459  19.574  1.00  0.00    -0.315 OA
BRANCH  32  33
HETATM   33  C19 UNL     1      23.927  37.187  20.738  1.00  0.00     0.255 C 
HETATM   34  C20 UNL     1      25.111  38.040  21.160  1.00  0.00     0.126 C 
HETATM   35  O7  UNL     1      23.523  36.259  21.449  1.00  0.00    -0.266 OA
ENDBRANCH  32  33
ENDBRANCH  10  32
BRANCH   2  36
HETATM   36  O2  UNL     1      18.213  37.966  16.959  1.00  0.00    -0.395 OA
ATOM     37  H2  UNL     1      17.367  37.759  17.341  1.00  0.00     0.210 HD
ENDBRANCH   2  36
BRANCH   1  38
HETATM   38  C4  UNL     1      18.245  39.850  19.371  1.00  0.00     0.177 C 
BRANCH  38  39
HETATM   39  O1  UNL     1      17.090  40.168  18.659  1.00  0.00    -0.387 OA
BRANCH  39  40
HETATM   40  C3  UNL     1      15.962  40.139  19.478  1.00  0.00     0.194 C 
BRANCH  40  41
HETATM   41  C2  UNL     1      16.284  40.043  20.903  1.00  0.00    -0.011 C 
HETATM   42  C1  UNL     1      15.459  39.472  21.761  1.00  0.00     0.009 C 
ENDBRANCH  40  41
ENDBRANCH  39  40
ENDBRANCH  38  39
ENDBRANCH   1  38
BRANCH   9  43
HETATM   43  O4  UNL     1      20.801  41.141  19.048  1.00  0.00    -0.315 OA
BRANCH  43  44
HETATM   44  C16 UNL     1      20.392  42.092  19.916  1.00  0.00     0.255 C 
HETATM   45  C17 UNL     1      21.019  42.199  21.249  1.00  0.00     0.126 C 
HETATM   46  O5  UNL     1      19.484  42.886  19.598  1.00  0.00    -0.266 OA
ENDBRANCH  43  44
ENDBRANCH   9  43
TORSDOF 17
ENDMDL
MODEL 5
REMARK VINA RESULT: -4.834477491      2.105      5.568
REMARK  17 active torsions:
REMARK  status: ('A' for Active; 'I' for Inactive)
REMARK    1  A    between atoms: C2_2  and  C3_3 
REMARK    2  A    between atoms: C3_3  and  O1_4 
REMARK    3  A    between atoms: O1_4  and  C4_5 
REMARK    4  A    between atoms: C4_5  and  C5_6 
REMARK    5  A    between atoms: C6_7  and  O2_8 
REMARK    6  A    between atoms: C9_12  and  C10_13 
REMARK    7  A    between atoms: C10_13  and  O3_14 
REMARK    8  A    between atoms: C15_19  and  O4_20 
REMARK    9  A    between atoms: O4_20  and  C16_21 
REMARK   10  A    between atoms: C18_24  and  O6_25 
REMARK   11  A    between atoms: O6_25  and  C19_26 
REMARK   12  A    between atoms: C22_30  and  O8_32 
REMARK   13  A    between atoms: C26_36  and  C27_37 
REMARK   14  A    between atoms: C27_37  and  O10_39 
REMARK   15  A    between atoms: O10_39  and  C28_40 
REMARK   16  A    between atoms: C28_40  and  C29_41 
REMARK   17  A    between atoms: C29_41  and  C31_43 
ROOT
HETATM    1  C5  UNL     1      22.421  40.222  15.526  1.00  0.00     0.069 C 
HETATM    2  C6  UNL     1      21.032  39.814  15.401  1.00  0.00     0.132 C 
HETATM    3  C7  UNL     1      20.190  39.255  16.398  1.00  0.00     0.035 C 
HETATM    4  C8  UNL     1      20.306  37.971  17.086  1.00  0.00     0.013 C 
HETATM    5  C9  UNL     1      21.636  37.483  17.564  1.00  0.00     0.016 C 
HETATM    6  C12 UNL     1      22.653  38.503  17.781  1.00  0.00     0.021 C 
HETATM    7  C13 UNL     1      22.384  39.911  18.019  1.00  0.00     0.011 C 
HETATM    8  C14 UNL     1      23.323  40.331  19.185  1.00  0.00     0.020 C 
HETATM    9  C15 UNL     1      22.913  40.720  16.849  1.00  0.00     0.151 C 
HETATM   10  C18 UNL     1      21.064  40.481  18.415  1.00  0.00     0.155 C 
HETATM   11  C21 UNL     1      19.857  39.916  17.684  1.00  0.00     0.036 C 
HETATM   12  C22 UNL     1      18.733  40.883  17.596  1.00  0.00     0.066 C 
HETATM   13  C23 UNL     1      17.984  41.030  16.305  1.00  0.00     0.047 C 
HETATM   14  C24 UNL     1      17.669  40.632  18.650  1.00  0.00     0.043 C 
HETATM   15  C25 UNL     1      17.047  39.331  18.295  1.00  0.00     0.044 C 
HETATM   16  C26 UNL     1      18.031  38.181  18.245  1.00  0.00     0.005 C 
HETATM   17  C33 UNL     1      19.462  38.540  18.232  1.00  0.00     0.003 C 
HETATM   18  C34 UNL     1      20.011  38.209  19.609  1.00  0.00     0.021 C 
ENDROOT
BRANCH  16  19
HETATM   19  C27 UNL     1      17.560  37.131  17.294  1.00  0.00     0.286 C 
HETATM   20  O9  UNL     1      16.932  37.538  16.286  1.00  0.00    -0.260 OA
BRANCH  19  21
HETATM   21  O10 UNL     1      17.743  35.790  17.411  1.00  0.00    -0.314 OA
BRANCH  21  22
HETATM   22  C28 UNL     1      16.990  34.769  17.926  1.00  0.00     0.212 C 
BRANCH  22  23
HETATM   23  C29 UNL     1      15.737  34.476  17.206  1.00  0.00    -0.066 C 
HETATM   24  C30 UNL     1      14.574  34.928  17.739  1.00  0.00     0.016 C 
BRANCH  23  25
HETATM   25  C31 UNL     1      15.625  33.697  15.958  1.00  0.00     0.031 C 
HETATM   26  C32 UNL     1      15.612  32.197  16.227  1.00  0.00     0.010 C 
ENDBRANCH  23  25
ENDBRANCH  22  23
ENDBRANCH  21  22
ENDBRANCH  19  21
ENDBRANCH  16  19
BRANCH  12  27
HETATM   27  O8  UNL     1      19.104  42.229  17.793  1.00  0.00    -0.389 OA
ATOM     28  H8  UNL     1      19.681  42.374  18.533  1.00  0.00     0.210 HD
ENDBRANCH  12  27
BRANCH   5  29
HETATM   29  C10 UNL     1      22.087  36.369  16.640  1.00  0.00     0.172 C 
BRANCH  29  30
HETATM   30  O3  UNL     1      21.665  35.139  16.748  1.00  0.00    -0.396 OA
HETATM   31  C11 UNL     1      21.630  34.290  17.749  1.00  0.00     0.201 C 
ENDBRANCH  29  30
ENDBRANCH   5  29
BRANCH  10  32
HETATM   32  O6  UNL     1      20.905  40.563  19.806  1.00  0.00    -0.315 OA
BRANCH  32  33
HETATM   33  C19 UNL     1      20.558  41.557  20.633  1.00  0.00     0.255 C 
HETATM   34  C20 UNL     1      21.285  42.885  20.517  1.00  0.00     0.126 C 
HETATM   35  O7  UNL     1      19.662  41.389  21.470  1.00  0.00    -0.266 OA
ENDBRANCH  32  33
ENDBRANCH  10  32
BRANCH   2  36
HETATM   36  O2  UNL     1      20.893  38.998  14.259  1.00  0.00    -0.395 OA
ATOM     37  H2  UNL     1      20.268  38.307  14.446  1.00  0.00     0.210 HD
ENDBRANCH   2  36
BRANCH   1  38
HETATM   38  C4  UNL     1      22.796  41.374  14.579  1.00  0.00     0.177 C 
BRANCH  38  39
HETATM   39  O1  UNL     1      22.606  41.002  13.249  1.00  0.00    -0.387 OA
BRANCH  39  40
HETATM   40  C3  UNL     1      23.807  40.623  12.650  1.00  0.00     0.194 C 
BRANCH  40  41
HETATM   41  C2  UNL     1      23.625  39.717  11.514  1.00  0.00    -0.011 C 
HETATM   42  C1  UNL     1      22.438  39.516  10.972  1.00  0.00     0.009 C 
ENDBRANCH  40  41
ENDBRANCH  39  40
ENDBRANCH  38  39
ENDBRANCH   1  38
BRANCH   9  43
HETATM   43  O4  UNL     1      24.323  40.571  16.887  1.00  0.00    -0.315 OA
BRANCH  43  44
HETATM   44  C16 UNL     1      25.239  41.531  16.639  1.00  0.00     0.255 C 
HETATM   45  C17 UNL     1      25.243  42.776  17.434  1.00  0.00     0.126 C 
HETATM   46  O5  UNL     1      26.088  41.374  15.738  1.00  0.00    -0.266 OA
ENDBRANCH  43  44
ENDBRANCH   9  43
TORSDOF 17
ENDMDL
