MODEL 1
REMARK VINA RESULT: -9.071347405      0.000      0.000
REMARK  16 active torsions:
REMARK  status: ('A' for Active; 'I' for Inactive)
REMARK    1  A    between atoms: O1_2  and  C2_3 
REMARK    2  A    between atoms: C6_7  and  C7_8 
REMARK    3  A    between atoms: C7_8  and  C8_9 
REMARK    4  A    between atoms: N1_11  and  C10_12 
REMARK    5  A    between atoms: C10_12  and  C11_13 
REMARK    6  A    between atoms: C11_13  and  C14_16 
REMARK    7  A    between atoms: C14_16  and  O2_17 
REMARK    8  A    between atoms: C18_26  and  O5_27 
REMARK    9  A    between atoms: O5_27  and  C19_28 
REMARK   10  A    between atoms: C19_28  and  C20_29 
REMARK   11  A    between atoms: C20_29  and  O7_31 
REMARK   12  A    between atoms: O7_31  and  C21_32 
REMARK   13  A    between atoms: C21_32  and  C22_33 
REMARK   14  A    between atoms: C22_33  and  O8_34 
REMARK   15  A    between atoms: O8_34  and  C23_35 
REMARK   16  A    between atoms: C23_35  and  C26_38 
ROOT
HETATM    1  C2  UNL     1      21.212  38.832  17.484  1.00  0.00     0.107 A 
HETATM    2  C3  UNL     1      20.689  39.532  16.419  1.00  0.00    -0.025 A 
HETATM    3  C4  UNL     1      21.593  40.327  15.516  1.00  0.00     0.051 C 
HETATM    4  C5  UNL     1      19.337  39.488  16.202  1.00  0.00     0.017 A 
HETATM    5  C6  UNL     1      18.515  38.761  17.030  1.00  0.00    -0.050 A 
HETATM    6  C17 UNL     1      19.063  38.073  18.085  1.00  0.00     0.047 A 
HETATM    7  C18 UNL     1      20.422  38.088  18.342  1.00  0.00     0.103 A 
ENDROOT
BRANCH   7   8
HETATM    8  O5  UNL     1      20.987  37.392  19.414  1.00  0.00    -0.339 OA
BRANCH   8   9
HETATM    9  C19 UNL     1      20.537  36.099  19.743  1.00  0.00     0.286 C 
BRANCH   9  10
HETATM   10  C20 UNL     1      21.708  35.235  20.068  1.00  0.00     0.283 C 
HETATM   11  O6  UNL     1      22.021  35.063  21.268  1.00  0.00    -0.263 OA
BRANCH  10  12
HETATM   12  O7  UNL     1      22.447  34.626  19.084  1.00  0.00    -0.318 OA
BRANCH  12  13
HETATM   13  C21 UNL     1      21.898  34.132  17.925  1.00  0.00     0.205 C 
BRANCH  13  14
HETATM   14  C22 UNL     1      22.344  32.687  17.587  1.00  0.00     0.195 C 
BRANCH  14  15
HETATM   15  O8  UNL     1      22.290  32.389  16.386  1.00  0.00    -0.378 OA
BRANCH  15  16
HETATM   16  C23 UNL     1      22.238  32.124  15.175  1.00  0.00     0.057 C 
HETATM   17  C24 UNL     1      23.651  32.209  14.534  1.00  0.00     0.046 C 
HETATM   18  C25 UNL     1      21.357  32.950  14.250  1.00  0.00     0.046 C 
BRANCH  16  19
HETATM   19  C26 UNL     1      21.832  30.644  14.955  1.00  0.00     0.020 C 
HETATM   20  C27 UNL     1      22.460  30.033  13.761  1.00  0.00     0.008 C 
HETATM   21  C28 UNL     1      21.361  29.424  12.917  1.00  0.00     0.010 C 
HETATM   22  C29 UNL     1      20.079  29.620  13.672  1.00  0.00    -0.040 C 
HETATM   23  C30 UNL     1      19.046  30.190  12.703  1.00  0.00     0.009 C 
HETATM   24  C34 UNL     1      19.597  28.291  14.217  1.00  0.00     0.009 C 
HETATM   25  C35 UNL     1      20.346  30.566  14.798  1.00  0.00     0.017 C 
HETATM   26  C31 UNL     1      18.493  29.022  11.909  1.00  0.00     0.001 C 
HETATM   27  C32 UNL     1      17.541  28.213  12.773  1.00  0.00     0.000 C 
HETATM   28  C33 UNL     1      18.082  28.195  14.188  1.00  0.00     0.001 C 
ENDBRANCH  16  19
ENDBRANCH  15  16
ENDBRANCH  14  15
ENDBRANCH  13  14
ENDBRANCH  12  13
ENDBRANCH  10  12
ENDBRANCH   9  10
ENDBRANCH   8   9
ENDBRANCH   7   8
BRANCH   1  29
HETATM   29  O1  UNL     1      22.587  38.867  17.717  1.00  0.00    -0.353 OA
HETATM   30  C1  UNL     1      23.384  37.705  17.608  1.00  0.00     0.210 C 
ENDBRANCH   1  29
BRANCH   5  31
HETATM   31  C7  UNL     1      17.037  38.715  16.818  1.00  0.00     0.084 C 
BRANCH  31  32
HETATM   32  C8  UNL     1      16.465  37.401  17.320  1.00  0.00     0.030 A 
HETATM   33  C9  UNL     1      16.459  36.309  16.477  1.00  0.00     0.108 A 
HETATM   34  N1  UNL     1      15.970  35.140  16.885  1.00  0.00    -0.308 N 
HETATM   35  C15 UNL     1      15.481  35.040  18.128  1.00  0.00     0.329 A 
HETATM   36  O3  UNL     1      15.000  33.956  18.582  1.00  0.00    -0.246 OA
HETATM   37  N2  UNL     1      15.464  36.072  18.986  1.00  0.00    -0.275 N 
HETATM   38  C16 UNL     1      15.957  37.272  18.591  1.00  0.00     0.257 A 
ATOM     39  H2  UNL     1      15.084  35.954  19.925  1.00  0.00     0.173 HD
HETATM   40  O4  UNL     1      15.949  38.261  19.385  1.00  0.00    -0.267 OA
BRANCH  34  41
HETATM   41  C10 UNL     1      15.944  33.989  16.039  1.00  0.00     0.144 C 
BRANCH  41  42
HETATM   42  C11 UNL     1      17.198  33.198  15.959  1.00  0.00    -0.010 C 
HETATM   43  C12 UNL     1      17.788  33.454  14.562  1.00  0.00     0.018 C 
HETATM   44  C13 UNL     1      16.888  31.701  15.965  1.00  0.00     0.018 C 
BRANCH  42  45
HETATM   45  C14 UNL     1      18.264  33.543  16.940  1.00  0.00     0.174 C 
BRANCH  45  46
HETATM   46  O2  UNL     1      18.894  32.322  17.284  1.00  0.00    -0.400 OA
ATOM     47  H2  UNL     1      19.429  32.082  16.537  1.00  0.00     0.209 HD
ENDBRANCH  45  46
ENDBRANCH  42  45
ENDBRANCH  41  42
ENDBRANCH  34  41
ENDBRANCH  31  32
ENDBRANCH   5  31
TORSDOF 16
ENDMDL
MODEL 2
REMARK VINA RESULT: -8.725606355      3.973      9.348
REMARK  16 active torsions:
REMARK  status: ('A' for Active; 'I' for Inactive)
REMARK    1  A    between atoms: O1_2  and  C2_3 
REMARK    2  A    between atoms: C6_7  and  C7_8 
REMARK    3  A    between atoms: C7_8  and  C8_9 
REMARK    4  A    between atoms: N1_11  and  C10_12 
REMARK    5  A    between atoms: C10_12  and  C11_13 
REMARK    6  A    between atoms: C11_13  and  C14_16 
REMARK    7  A    between atoms: C14_16  and  O2_17 
REMARK    8  A    between atoms: C18_26  and  O5_27 
REMARK    9  A    between atoms: O5_27  and  C19_28 
REMARK   10  A    between atoms: C19_28  and  C20_29 
REMARK   11  A    between atoms: C20_29  and  O7_31 
REMARK   12  A    between atoms: O7_31  and  C21_32 
REMARK   13  A    between atoms: C21_32  and  C22_33 
REMARK   14  A    between atoms: C22_33  and  O8_34 
REMARK   15  A    between atoms: O8_34  and  C23_35 
REMARK   16  A    between atoms: C23_35  and  C26_38 
ROOT
HETATM    1  C2  UNL     1      19.071  31.243  14.248  1.00  0.00     0.107 A 
HETATM    2  C3  UNL     1      17.829  30.649  14.224  1.00  0.00    -0.025 A 
HETATM    3  C4  UNL     1      16.810  30.976  15.282  1.00  0.00     0.051 C 
HETATM    4  C5  UNL     1      17.543  29.758  13.222  1.00  0.00     0.017 A 
HETATM    5  C6  UNL     1      18.476  29.462  12.257  1.00  0.00    -0.050 A 
HETATM    6  C17 UNL     1      19.707  30.069  12.305  1.00  0.00     0.047 A 
HETATM    7  C18 UNL     1      20.039  30.975  13.297  1.00  0.00     0.103 A 
ENDROOT
BRANCH   7   8
HETATM    8  O5  UNL     1      21.290  31.596  13.352  1.00  0.00    -0.339 OA
BRANCH   8   9
HETATM    9  C19 UNL     1      22.407  30.910  13.867  1.00  0.00     0.286 C 
BRANCH   9  10
HETATM   10  C20 UNL     1      23.224  31.844  14.693  1.00  0.00     0.283 C 
HETATM   11  O6  UNL     1      24.268  32.331  14.202  1.00  0.00    -0.263 OA
BRANCH  10  12
HETATM   12  O7  UNL     1      22.858  32.181  15.972  1.00  0.00    -0.318 OA
BRANCH  12  13
HETATM   13  C21 UNL     1      22.710  33.479  16.398  1.00  0.00     0.205 C 
BRANCH  13  14
HETATM   14  C22 UNL     1      22.247  33.606  17.871  1.00  0.00     0.195 C 
BRANCH  14  15
HETATM   15  O8  UNL     1      21.692  34.675  18.155  1.00  0.00    -0.378 OA
BRANCH  15  16
HETATM   16  C23 UNL     1      21.109  35.738  18.420  1.00  0.00     0.057 C 
HETATM   17  C24 UNL     1      22.055  36.951  18.207  1.00  0.00     0.046 C 
HETATM   18  C25 UNL     1      20.521  35.960  19.806  1.00  0.00     0.046 C 
BRANCH  16  19
HETATM   19  C26 UNL     1      19.958  35.998  17.415  1.00  0.00     0.020 C 
HETATM   20  C27 UNL     1      19.432  37.382  17.468  1.00  0.00     0.008 C 
HETATM   21  C28 UNL     1      17.931  37.304  17.640  1.00  0.00     0.010 C 
HETATM   22  C29 UNL     1      17.569  35.847  17.613  1.00  0.00    -0.040 C 
HETATM   23  C30 UNL     1      16.651  35.570  18.801  1.00  0.00     0.009 C 
HETATM   24  C34 UNL     1      16.852  35.522  16.319  1.00  0.00     0.009 C 
HETATM   25  C35 UNL     1      18.833  35.055  17.708  1.00  0.00     0.017 C 
HETATM   26  C31 UNL     1      15.257  36.006  18.393  1.00  0.00     0.001 C 
HETATM   27  C32 UNL     1      14.660  34.995  17.429  1.00  0.00     0.000 C 
HETATM   28  C33 UNL     1      15.766  34.482  16.532  1.00  0.00     0.001 C 
ENDBRANCH  16  19
ENDBRANCH  15  16
ENDBRANCH  14  15
ENDBRANCH  13  14
ENDBRANCH  12  13
ENDBRANCH  10  12
ENDBRANCH   9  10
ENDBRANCH   8   9
ENDBRANCH   7   8
BRANCH   1  29
HETATM   29  O1  UNL     1      19.375  32.152  15.260  1.00  0.00    -0.353 OA
HETATM   30  C1  UNL     1      19.596  31.730  16.590  1.00  0.00     0.210 C 
ENDBRANCH   1  29
BRANCH   5  31
HETATM   31  C7  UNL     1      18.188  28.482  11.168  1.00  0.00     0.084 C 
BRANCH  31  32
HETATM   32  C8  UNL     1      19.060  27.247  11.313  1.00  0.00     0.030 A 
HETATM   33  C9  UNL     1      20.328  27.258  10.770  1.00  0.00     0.108 A 
HETATM   34  N1  UNL     1      21.123  26.195  10.883  1.00  0.00    -0.308 N 
HETATM   35  C15 UNL     1      20.671  25.114  11.532  1.00  0.00     0.329 A 
HETATM   36  O3  UNL     1      21.375  24.067  11.677  1.00  0.00    -0.246 OA
HETATM   37  N2  UNL     1      19.446  25.054  12.077  1.00  0.00    -0.275 N 
HETATM   38  C16 UNL     1      18.621  26.125  11.973  1.00  0.00     0.257 A 
ATOM     39  H2  UNL     1      19.140  24.212  12.564  1.00  0.00     0.173 HD
HETATM   40  O4  UNL     1      17.458  26.089  12.480  1.00  0.00    -0.267 OA
BRANCH  34  41
HETATM   41  C10 UNL     1      22.441  26.168  10.332  1.00  0.00     0.144 C 
BRANCH  41  42
HETATM   42  C11 UNL     1      23.486  26.914  11.078  1.00  0.00    -0.010 C 
HETATM   43  C12 UNL     1      22.819  27.440  12.359  1.00  0.00     0.018 C 
HETATM   44  C13 UNL     1      23.887  28.178  10.317  1.00  0.00     0.018 C 
BRANCH  42  45
HETATM   45  C14 UNL     1      24.677  26.130  11.510  1.00  0.00     0.174 C 
BRANCH  45  46
HETATM   46  O2  UNL     1      24.316  24.766  11.392  1.00  0.00    -0.400 OA
ATOM     47  H2  UNL     1      24.632  24.340  12.180  1.00  0.00     0.209 HD
ENDBRANCH  45  46
ENDBRANCH  42  45
ENDBRANCH  41  42
ENDBRANCH  34  41
ENDBRANCH  31  32
ENDBRANCH   5  31
TORSDOF 16
ENDMDL
MODEL 3
REMARK VINA RESULT: -8.702866791      2.497      6.258
REMARK  16 active torsions:
REMARK  status: ('A' for Active; 'I' for Inactive)
REMARK    1  A    between atoms: O1_2  and  C2_3 
REMARK    2  A    between atoms: C6_7  and  C7_8 
REMARK    3  A    between atoms: C7_8  and  C8_9 
REMARK    4  A    between atoms: N1_11  and  C10_12 
REMARK    5  A    between atoms: C10_12  and  C11_13 
REMARK    6  A    between atoms: C11_13  and  C14_16 
REMARK    7  A    between atoms: C14_16  and  O2_17 
REMARK    8  A    between atoms: C18_26  and  O5_27 
REMARK    9  A    between atoms: O5_27  and  C19_28 
REMARK   10  A    between atoms: C19_28  and  C20_29 
REMARK   11  A    between atoms: C20_29  and  O7_31 
REMARK   12  A    between atoms: O7_31  and  C21_32 
REMARK   13  A    between atoms: C21_32  and  C22_33 
REMARK   14  A    between atoms: C22_33  and  O8_34 
REMARK   15  A    between atoms: O8_34  and  C23_35 
REMARK   16  A    between atoms: C23_35  and  C26_38 
ROOT
HETATM    1  C2  UNL     1      21.428  32.150  14.999  1.00  0.00     0.107 A 
HETATM    2  C3  UNL     1      20.734  32.631  16.087  1.00  0.00    -0.025 A 
HETATM    3  C4  UNL     1      21.409  32.747  17.427  1.00  0.00     0.051 C 
HETATM    4  C5  UNL     1      19.424  32.999  15.924  1.00  0.00     0.017 A 
HETATM    5  C6  UNL     1      18.811  32.892  14.698  1.00  0.00    -0.050 A 
HETATM    6  C17 UNL     1      19.527  32.409  13.630  1.00  0.00     0.047 A 
HETATM    7  C18 UNL     1      20.851  32.026  13.748  1.00  0.00     0.103 A 
ENDROOT
BRANCH   7   8
HETATM    8  O5  UNL     1      21.585  31.532  12.666  1.00  0.00    -0.339 OA
BRANCH   8   9
HETATM    9  C19 UNL     1      21.082  30.476  11.883  1.00  0.00     0.286 C 
BRANCH   9  10
HETATM   10  C20 UNL     1      21.998  29.304  11.986  1.00  0.00     0.283 C 
HETATM   11  O6  UNL     1      22.368  28.729  10.937  1.00  0.00    -0.263 OA
BRANCH  10  12
HETATM   12  O7  UNL     1      22.444  28.845  13.200  1.00  0.00    -0.318 OA
BRANCH  12  13
HETATM   13  C21 UNL     1      21.778  27.895  13.939  1.00  0.00     0.205 C 
BRANCH  13  14
HETATM   14  C22 UNL     1      20.649  28.472  14.830  1.00  0.00     0.195 C 
BRANCH  14  15
HETATM   15  O8  UNL     1      19.509  28.372  14.359  1.00  0.00    -0.378 OA
BRANCH  15  16
HETATM   16  C23 UNL     1      18.374  28.294  13.864  1.00  0.00     0.057 C 
HETATM   17  C24 UNL     1      17.515  29.527  14.260  1.00  0.00     0.046 C 
HETATM   18  C25 UNL     1      17.484  27.100  14.181  1.00  0.00     0.046 C 
BRANCH  16  19
HETATM   19  C26 UNL     1      18.442  28.385  12.318  1.00  0.00     0.020 C 
HETATM   20  C27 UNL     1      17.186  28.869  11.701  1.00  0.00     0.008 C 
HETATM   21  C28 UNL     1      16.780  27.878  10.632  1.00  0.00     0.010 C 
HETATM   22  C29 UNL     1      17.860  26.837  10.576  1.00  0.00    -0.040 C 
HETATM   23  C30 UNL     1      17.191  25.465  10.602  1.00  0.00     0.009 C 
HETATM   24  C34 UNL     1      18.660  26.998   9.301  1.00  0.00     0.009 C 
HETATM   25  C35 UNL     1      18.748  27.029  11.763  1.00  0.00     0.017 C 
HETATM   26  C31 UNL     1      16.726  25.174   9.187  1.00  0.00     0.001 C 
HETATM   27  C32 UNL     1      17.917  24.808   8.317  1.00  0.00     0.000 C 
HETATM   28  C33 UNL     1      19.097  25.653   8.746  1.00  0.00     0.001 C 
ENDBRANCH  16  19
ENDBRANCH  15  16
ENDBRANCH  14  15
ENDBRANCH  13  14
ENDBRANCH  12  13
ENDBRANCH  10  12
ENDBRANCH   9  10
ENDBRANCH   8   9
ENDBRANCH   7   8
BRANCH   1  29
HETATM   29  O1  UNL     1      22.761  31.773  15.151  1.00  0.00    -0.353 OA
HETATM   30  C1  UNL     1      23.819  32.636  14.788  1.00  0.00     0.210 C 
ENDBRANCH   1  29
BRANCH   5  31
HETATM   31  C7  UNL     1      17.380  33.273  14.505  1.00  0.00     0.084 C 
BRANCH  31  32
HETATM   32  C8  UNL     1      16.804  33.855  15.785  1.00  0.00     0.030 A 
HETATM   33  C9  UNL     1      16.871  35.219  15.987  1.00  0.00     0.108 A 
HETATM   34  N1  UNL     1      16.372  35.764  17.094  1.00  0.00    -0.308 N 
HETATM   35  C15 UNL     1      15.805  34.969  18.011  1.00  0.00     0.329 A 
HETATM   36  O3  UNL     1      15.309  35.422  19.089  1.00  0.00    -0.246 OA
HETATM   37  N2  UNL     1      15.716  33.638  17.861  1.00  0.00    -0.275 N 
HETATM   38  C16 UNL     1      16.218  33.061  16.741  1.00  0.00     0.257 A 
ATOM     39  H2  UNL     1      15.275  33.067  18.582  1.00  0.00     0.173 HD
HETATM   40  O4  UNL     1      16.146  31.805  16.580  1.00  0.00    -0.267 OA
BRANCH  34  41
HETATM   41  C10 UNL     1      16.424  37.171  17.340  1.00  0.00     0.144 C 
BRANCH  41  42
HETATM   42  C11 UNL     1      17.688  37.696  17.916  1.00  0.00    -0.010 C 
HETATM   43  C12 UNL     1      17.285  38.658  19.047  1.00  0.00     0.018 C 
HETATM   44  C13 UNL     1      18.408  38.588  16.905  1.00  0.00     0.018 C 
BRANCH  42  45
HETATM   45  C14 UNL     1      18.609  36.693  18.519  1.00  0.00     0.174 C 
BRANCH  45  46
HETATM   46  O2  UNL     1      19.574  37.432  19.247  1.00  0.00    -0.400 OA
ATOM     47  H2  UNL     1      20.403  36.990  19.110  1.00  0.00     0.209 HD
ENDBRANCH  45  46
ENDBRANCH  42  45
ENDBRANCH  41  42
ENDBRANCH  34  41
ENDBRANCH  31  32
ENDBRANCH   5  31
TORSDOF 16
ENDMDL
MODEL 4
REMARK VINA RESULT: -8.505900345      2.613      5.786
REMARK  16 active torsions:
REMARK  status: ('A' for Active; 'I' for Inactive)
REMARK    1  A    between atoms: O1_2  and  C2_3 
REMARK    2  A    between atoms: C6_7  and  C7_8 
REMARK    3  A    between atoms: C7_8  and  C8_9 
REMARK    4  A    between atoms: N1_11  and  C10_12 
REMARK    5  A    between atoms: C10_12  and  C11_13 
REMARK    6  A    between atoms: C11_13  and  C14_16 
REMARK    7  A    between atoms: C14_16  and  O2_17 
REMARK    8  A    between atoms: C18_26  and  O5_27 
REMARK    9  A    between atoms: O5_27  and  C19_28 
REMARK   10  A    between atoms: C19_28  and  C20_29 
REMARK   11  A    between atoms: C20_29  and  O7_31 
REMARK   12  A    between atoms: O7_31  and  C21_32 
REMARK   13  A    between atoms: C21_32  and  C22_33 
REMARK   14  A    between atoms: C22_33  and  O8_34 
REMARK   15  A    between atoms: O8_34  and  C23_35 
REMARK   16  A    between atoms: C23_35  and  C26_38 
ROOT
HETATM    1  C2  UNL     1      20.106  32.855  15.516  1.00  0.00     0.107 A 
HETATM    2  C3  UNL     1      19.829  33.736  16.539  1.00  0.00    -0.025 A 
HETATM    3  C4  UNL     1      20.915  34.157  17.492  1.00  0.00     0.051 C 
HETATM    4  C5  UNL     1      18.552  34.215  16.668  1.00  0.00     0.017 A 
HETATM    5  C6  UNL     1      17.563  33.827  15.796  1.00  0.00    -0.050 A 
HETATM    6  C17 UNL     1      17.866  32.948  14.786  1.00  0.00     0.047 A 
HETATM    7  C18 UNL     1      19.141  32.439  14.616  1.00  0.00     0.103 A 
ENDROOT
BRANCH   7   8
HETATM    8  O5  UNL     1      19.457  31.543  13.591  1.00  0.00    -0.339 OA
BRANCH   8   9
HETATM    9  C19 UNL     1      18.584  30.485  13.272  1.00  0.00     0.286 C 
BRANCH   9  10
HETATM   10  C20 UNL     1      18.866  29.324  14.163  1.00  0.00     0.283 C 
HETATM   11  O6  UNL     1      18.117  28.322  14.109  1.00  0.00    -0.263 OA
BRANCH  10  12
HETATM   12  O7  UNL     1      19.925  29.329  15.036  1.00  0.00    -0.318 OA
BRANCH  12  13
HETATM   13  C21 UNL     1      21.036  28.533  14.880  1.00  0.00     0.205 C 
BRANCH  13  14
HETATM   14  C22 UNL     1      22.111  29.135  13.940  1.00  0.00     0.195 C 
BRANCH  14  15
HETATM   15  O8  UNL     1      22.429  28.419  12.983  1.00  0.00    -0.378 OA
BRANCH  15  16
HETATM   16  C23 UNL     1      22.780  27.702  12.032  1.00  0.00     0.057 C 
HETATM   17  C24 UNL     1      24.231  27.186  12.240  1.00  0.00     0.046 C 
HETATM   18  C25 UNL     1      22.780  28.260  10.616  1.00  0.00     0.046 C 
BRANCH  16  19
HETATM   19  C26 UNL     1      21.939  26.401  11.986  1.00  0.00     0.020 C 
HETATM   20  C27 UNL     1      22.351  25.473  10.908  1.00  0.00     0.008 C 
HETATM   21  C28 UNL     1      21.120  25.118  10.103  1.00  0.00     0.010 C 
HETATM   22  C29 UNL     1      19.958  25.795  10.770  1.00  0.00    -0.040 C 
HETATM   23  C30 UNL     1      19.153  26.516   9.693  1.00  0.00     0.009 C 
HETATM   24  C34 UNL     1      19.091  24.762  11.460  1.00  0.00     0.009 C 
HETATM   25  C35 UNL     1      20.501  26.758  11.776  1.00  0.00     0.017 C 
HETATM   26  C31 UNL     1      18.269  25.476   9.031  1.00  0.00     0.001 C 
HETATM   27  C32 UNL     1      17.113  25.120   9.951  1.00  0.00     0.000 C 
HETATM   28  C33 UNL     1      17.619  25.129  11.377  1.00  0.00     0.001 C 
ENDBRANCH  16  19
ENDBRANCH  15  16
ENDBRANCH  14  15
ENDBRANCH  13  14
ENDBRANCH  12  13
ENDBRANCH  10  12
ENDBRANCH   9  10
ENDBRANCH   8   9
ENDBRANCH   7   8
BRANCH   1  29
HETATM   29  O1  UNL     1      21.401  32.360  15.371  1.00  0.00    -0.353 OA
HETATM   30  C1  UNL     1      22.310  32.926  14.451  1.00  0.00     0.210 C 
ENDBRANCH   1  29
BRANCH   5  31
HETATM   31  C7  UNL     1      16.162  34.328  15.933  1.00  0.00     0.084 C 
BRANCH  31  32
HETATM   32  C8  UNL     1      16.092  35.449  16.955  1.00  0.00     0.030 A 
HETATM   33  C9  UNL     1      16.548  36.703  16.604  1.00  0.00     0.108 A 
HETATM   34  N1  UNL     1      16.497  37.710  17.473  1.00  0.00    -0.308 N 
HETATM   35  C15 UNL     1      15.996  37.488  18.695  1.00  0.00     0.329 A 
HETATM   36  O3  UNL     1      15.917  38.403  19.572  1.00  0.00    -0.246 OA
HETATM   37  N2  UNL     1      15.540  36.288  19.084  1.00  0.00    -0.275 N 
HETATM   38  C16 UNL     1      15.583  35.247  18.216  1.00  0.00     0.257 A 
ATOM     39  H2  UNL     1      15.165  36.160  20.025  1.00  0.00     0.173 HD
HETATM   40  O4  UNL     1      15.159  34.103  18.564  1.00  0.00    -0.267 OA
BRANCH  34  41
HETATM   41  C10 UNL     1      16.962  39.021  17.146  1.00  0.00     0.144 C 
BRANCH  41  42
HETATM   42  C11 UNL     1      18.387  39.312  17.444  1.00  0.00    -0.010 C 
HETATM   43  C12 UNL     1      18.397  40.526  18.389  1.00  0.00     0.018 C 
HETATM   44  C13 UNL     1      19.106  39.809  16.190  1.00  0.00     0.018 C 
BRANCH  42  45
HETATM   45  C14 UNL     1      19.155  38.235  18.128  1.00  0.00     0.174 C 
BRANCH  45  46
HETATM   46  O2  UNL     1      19.101  38.530  19.512  1.00  0.00    -0.400 OA
ATOM     47  H2  UNL     1      19.984  38.774  19.764  1.00  0.00     0.209 HD
ENDBRANCH  45  46
ENDBRANCH  42  45
ENDBRANCH  41  42
ENDBRANCH  34  41
ENDBRANCH  31  32
ENDBRANCH   5  31
TORSDOF 16
ENDMDL
MODEL 5
REMARK VINA RESULT: -8.451319027      2.979      6.544
REMARK  16 active torsions:
REMARK  status: ('A' for Active; 'I' for Inactive)
REMARK    1  A    between atoms: O1_2  and  C2_3 
REMARK    2  A    between atoms: C6_7  and  C7_8 
REMARK    3  A    between atoms: C7_8  and  C8_9 
REMARK    4  A    between atoms: N1_11  and  C10_12 
REMARK    5  A    between atoms: C10_12  and  C11_13 
REMARK    6  A    between atoms: C11_13  and  C14_16 
REMARK    7  A    between atoms: C14_16  and  O2_17 
REMARK    8  A    between atoms: C18_26  and  O5_27 
REMARK    9  A    between atoms: O5_27  and  C19_28 
REMARK   10  A    between atoms: C19_28  and  C20_29 
REMARK   11  A    between atoms: C20_29  and  O7_31 
REMARK   12  A    between atoms: O7_31  and  C21_32 
REMARK   13  A    between atoms: C21_32  and  C22_33 
REMARK   14  A    between atoms: C22_33  and  O8_34 
REMARK   15  A    between atoms: O8_34  and  C23_35 
REMARK   16  A    between atoms: C23_35  and  C26_38 
ROOT
HETATM    1  C2  UNL     1      21.946  31.456  15.195  1.00  0.00     0.107 A 
HETATM    2  C3  UNL     1      22.951  32.381  15.376  1.00  0.00    -0.025 A 
HETATM    3  C4  UNL     1      24.152  32.383  14.469  1.00  0.00     0.051 C 
HETATM    4  C5  UNL     1      22.833  33.293  16.392  1.00  0.00     0.017 A 
HETATM    5  C6  UNL     1      21.734  33.287  17.218  1.00  0.00    -0.050 A 
HETATM    6  C17 UNL     1      20.747  32.354  17.015  1.00  0.00     0.047 A 
HETATM    7  C18 UNL     1      20.823  31.415  16.002  1.00  0.00     0.103 A 
ENDROOT
BRANCH   7   8
HETATM    8  O5  UNL     1      19.823  30.462  15.791  1.00  0.00    -0.339 OA
BRANCH   8   9
HETATM    9  C19 UNL     1      18.472  30.850  15.705  1.00  0.00     0.286 C 
BRANCH   9  10
HETATM   10  C20 UNL     1      18.110  31.070  14.276  1.00  0.00     0.283 C 
HETATM   11  O6  UNL     1      18.301  32.199  13.769  1.00  0.00    -0.263 OA
BRANCH  10  12
HETATM   12  O7  UNL     1      17.576  30.066  13.508  1.00  0.00    -0.318 OA
BRANCH  12  13
HETATM   13  C21 UNL     1      18.258  29.456  12.481  1.00  0.00     0.205 C 
BRANCH  13  14
HETATM   14  C22 UNL     1      18.869  28.084  12.863  1.00  0.00     0.195 C 
BRANCH  14  15
HETATM   15  O8  UNL     1      18.648  27.171  12.058  1.00  0.00    -0.378 OA
BRANCH  15  16
HETATM   16  C23 UNL     1      18.453  26.238  11.263  1.00  0.00     0.057 C 
HETATM   17  C24 UNL     1      17.665  26.732  10.019  1.00  0.00     0.046 C 
HETATM   18  C25 UNL     1      17.698  24.996  11.716  1.00  0.00     0.046 C 
BRANCH  16  19
HETATM   19  C26 UNL     1      19.793  25.736  10.666  1.00  0.00     0.020 C 
HETATM   20  C27 UNL     1      20.357  24.570  11.383  1.00  0.00     0.008 C 
HETATM   21  C28 UNL     1      21.788  24.896  11.750  1.00  0.00     0.010 C 
HETATM   22  C29 UNL     1      22.084  26.249  11.171  1.00  0.00    -0.040 C 
HETATM   23  C30 UNL     1      22.732  27.096  12.263  1.00  0.00     0.009 C 
HETATM   24  C34 UNL     1      23.031  26.107   9.997  1.00  0.00     0.009 C 
HETATM   25  C35 UNL     1      20.793  26.848  10.713  1.00  0.00     0.017 C 
HETATM   26  C31 UNL     1      24.197  26.709  12.312  1.00  0.00     0.001 C 
HETATM   27  C32 UNL     1      24.931  27.307  11.124  1.00  0.00     0.000 C 
HETATM   28  C33 UNL     1      24.006  27.270   9.926  1.00  0.00     0.001 C 
ENDBRANCH  16  19
ENDBRANCH  15  16
ENDBRANCH  14  15
ENDBRANCH  13  14
ENDBRANCH  12  13
ENDBRANCH  10  12
ENDBRANCH   9  10
ENDBRANCH   8   9
ENDBRANCH   7   8
BRANCH   1  29
HETATM   29  O1  UNL     1      22.052  30.523  14.164  1.00  0.00    -0.353 OA
HETATM   30  C1  UNL     1      21.579  30.804  12.863  1.00  0.00     0.210 C 
ENDBRANCH   1  29
BRANCH   5  31
HETATM   31  C7  UNL     1      21.597  34.263  18.340  1.00  0.00     0.084 C 
BRANCH  31  32
HETATM   32  C8  UNL     1      20.590  35.344  17.989  1.00  0.00     0.030 A 
HETATM   33  C9  UNL     1      19.260  35.144  18.298  1.00  0.00     0.108 A 
HETATM   34  N1  UNL     1      18.350  36.072  18.011  1.00  0.00    -0.308 N 
HETATM   35  C15 UNL     1      18.745  37.204  17.415  1.00  0.00     0.329 A 
HETATM   36  O3  UNL     1      17.931  38.132  17.113  1.00  0.00    -0.246 OA
HETATM   37  N2  UNL     1      20.026  37.447  17.094  1.00  0.00    -0.275 N 
HETATM   38  C16 UNL     1      20.969  36.515  17.378  1.00  0.00     0.257 A 
ATOM     39  H2  UNL     1      20.286  38.324  16.642  1.00  0.00     0.173 HD
HETATM   40  O4  UNL     1      22.185  36.723  17.082  1.00  0.00    -0.267 OA
BRANCH  34  41
HETATM   41  C10 UNL     1      16.964  35.899  18.313  1.00  0.00     0.144 C 
BRANCH  41  42
HETATM   42  C11 UNL     1      16.165  35.118  17.335  1.00  0.00    -0.010 C 
HETATM   43  C12 UNL     1      14.688  35.413  17.643  1.00  0.00     0.018 C 
HETATM   44  C13 UNL     1      16.311  33.619  17.599  1.00  0.00     0.018 C 
BRANCH  42  45
HETATM   45  C14 UNL     1      16.373  35.445  15.897  1.00  0.00     0.174 C 
BRANCH  45  46
HETATM   46  O2  UNL     1      17.189  34.413  15.372  1.00  0.00    -0.400 OA
ATOM     47  H2  UNL     1      17.481  34.715  14.520  1.00  0.00     0.209 HD
ENDBRANCH  45  46
ENDBRANCH  42  45
ENDBRANCH  41  42
ENDBRANCH  34  41
ENDBRANCH  31  32
ENDBRANCH   5  31
TORSDOF 16
ENDMDL
