MODEL 1
REMARK VINA RESULT: -8.469444508      0.000      0.000
REMARK  14 active torsions:
REMARK  status: ('A' for Active; 'I' for Inactive)
REMARK    1  A    between atoms: N3_4  and  C2_6 
REMARK    2  A    between atoms: C2_6  and  C3_7 
REMARK    3  A    between atoms: C3_7  and  C4_8 
REMARK    4  A    between atoms: C4_8  and  N4_9 
REMARK    5  A    between atoms: N4_9  and  C5_10 
REMARK    6  A    between atoms: C5_10  and  C6_12 
REMARK    7  A    between atoms: C6_12  and  O1_13 
REMARK    8  A    between atoms: C6_12  and  C7_15 
REMARK    9  A    between atoms: C7_15  and  C8_16 
REMARK       I    between atoms: C8_16  and  N6_18 
REMARK   10  A    between atoms: N6_18  and  C9_19 
REMARK   11  A    between atoms: N6_18  and  C13_27 
REMARK   12  A    between atoms: C10_20  and  C11_21 
REMARK   13  A    between atoms: C11_21  and  N7_22 
REMARK   14  A    between atoms: C13_27  and  C14_28 
ROOT
HETATM    1  C7  UNL     1      13.631  64.109  38.282  1.00  0.00     0.144 C 
ENDROOT
BRANCH   1   2
HETATM    2  C6  UNL     1      14.655  64.612  37.335  1.00  0.00     0.206 C 
BRANCH   2   3
HETATM    3  C5  UNL     1      14.510  64.223  35.911  1.00  0.00     0.193 C 
HETATM    4  N5  UNL     1      13.391  63.470  35.461  1.00  0.00    -0.069 NA
BRANCH   3   5
HETATM    5  N4  UNL     1      15.349  64.546  35.107  1.00  0.00    -0.409 NA
BRANCH   5   6
HETATM    6  C4  UNL     1      16.370  65.022  34.397  1.00  0.00     0.158 C 
BRANCH   6   7
HETATM    7  C3  UNL     1      16.157  66.334  33.612  1.00  0.00     0.079 C 
BRANCH   7   8
HETATM    8  C2  UNL     1      16.092  67.509  34.530  1.00  0.00     0.128 C 
BRANCH   8   9
HETATM    9  N3  UNL     1      14.767  67.877  34.951  1.00  0.00    -0.367 N 
HETATM   10  C1  UNL     1      14.228  68.936  34.479  1.00  0.00     0.196 C 
HETATM   11  N1  UNL     1      14.944  69.730  33.551  1.00  0.00    -0.067 NA
HETATM   12  N2  UNL     1      12.908  69.355  34.861  1.00  0.00    -0.067 NA
ATOM     13  H3  UNL     1      14.261  67.297  35.621  1.00  0.00     0.161 HD
ENDBRANCH   8   9
ENDBRANCH   7   8
ENDBRANCH   6   7
ENDBRANCH   5   6
ENDBRANCH   3   5
ENDBRANCH   2   3
BRANCH   2  14
HETATM   14  O1  UNL     1      14.525  66.038  37.440  1.00  0.00    -0.387 OA
ATOM     15  H1  UNL     1      14.944  66.324  38.244  1.00  0.00     0.210 HD
ENDBRANCH   2  14
ENDBRANCH   1   2
BRANCH   1  16
HETATM   16  C8  UNL     1      13.618  64.570  39.642  1.00  0.00     0.230 C 
HETATM   17  O2  UNL     1      13.307  65.722  39.975  1.00  0.00    -0.273 OA
HETATM   18  N6  UNL     1      13.986  63.654  40.715  1.00  0.00    -0.307 N 
BRANCH  18  19
HETATM   19  C9  UNL     1      14.394  62.324  40.374  1.00  0.00     0.096 C 
HETATM   20  C10 UNL     1      13.639  61.102  40.538  1.00  0.00     0.010 C 
BRANCH  20  21
HETATM   21  C11 UNL     1      13.264  60.568  41.867  1.00  0.00     0.150 C 
BRANCH  21  22
HETATM   22  N7  UNL     1      12.248  61.424  42.507  1.00  0.00    -0.363 N 
HETATM   23  C12 UNL     1      11.546  60.899  43.433  1.00  0.00     0.197 C 
HETATM   24  N8  UNL     1      11.725  59.564  43.831  1.00  0.00    -0.067 NA
HETATM   25  N9  UNL     1      10.561  61.694  44.070  1.00  0.00    -0.067 NA
ATOM     26  H7  UNL     1      12.113  62.394  42.221  1.00  0.00     0.162 HD
ENDBRANCH  21  22
ENDBRANCH  20  21
ENDBRANCH  18  19
BRANCH  18  27
HETATM   27  C13 UNL     1      14.134  64.100  42.062  1.00  0.00     0.077 C 
BRANCH  27  28
HETATM   28  C14 UNL     1      15.262  64.799  42.634  1.00  0.00     0.025 A 
HETATM   29  C15 UNL     1      16.317  64.186  43.556  1.00  0.00     0.010 A 
HETATM   30  C16 UNL     1      16.677  64.611  42.204  1.00  0.00     0.010 A 
ENDBRANCH  27  28
ENDBRANCH  18  27
ENDBRANCH   1  16
TORSDOF 14
ENDMDL
MODEL 2
REMARK VINA RESULT: -8.381260936      1.206      1.503
REMARK  14 active torsions:
REMARK  status: ('A' for Active; 'I' for Inactive)
REMARK    1  A    between atoms: N3_4  and  C2_6 
REMARK    2  A    between atoms: C2_6  and  C3_7 
REMARK    3  A    between atoms: C3_7  and  C4_8 
REMARK    4  A    between atoms: C4_8  and  N4_9 
REMARK    5  A    between atoms: N4_9  and  C5_10 
REMARK    6  A    between atoms: C5_10  and  C6_12 
REMARK    7  A    between atoms: C6_12  and  O1_13 
REMARK    8  A    between atoms: C6_12  and  C7_15 
REMARK    9  A    between atoms: C7_15  and  C8_16 
REMARK       I    between atoms: C8_16  and  N6_18 
REMARK   10  A    between atoms: N6_18  and  C9_19 
REMARK   11  A    between atoms: N6_18  and  C13_27 
REMARK   12  A    between atoms: C10_20  and  C11_21 
REMARK   13  A    between atoms: C11_21  and  N7_22 
REMARK   14  A    between atoms: C13_27  and  C14_28 
ROOT
HETATM    1  C7  UNL     1      13.643  64.007  38.470  1.00  0.00     0.144 C 
ENDROOT
BRANCH   1   2
HETATM    2  C6  UNL     1      14.577  64.726  37.571  1.00  0.00     0.206 C 
BRANCH   2   3
HETATM    3  C5  UNL     1      14.350  64.596  36.111  1.00  0.00     0.193 C 
HETATM    4  N5  UNL     1      13.777  63.419  35.556  1.00  0.00    -0.069 NA
BRANCH   3   5
HETATM    5  N4  UNL     1      14.652  65.496  35.368  1.00  0.00    -0.409 NA
BRANCH   5   6
HETATM    6  C4  UNL     1      14.919  66.344  34.377  1.00  0.00     0.158 C 
BRANCH   6   7
HETATM    7  C3  UNL     1      15.325  67.787  34.746  1.00  0.00     0.079 C 
BRANCH   7   8
HETATM    8  C2  UNL     1      14.165  68.552  35.290  1.00  0.00     0.128 C 
BRANCH   8   9
HETATM    9  N3  UNL     1      14.098  68.612  36.725  1.00  0.00    -0.367 N 
HETATM   10  C1  UNL     1      13.225  69.361  37.284  1.00  0.00     0.196 C 
HETATM   11  N1  UNL     1      12.338  70.119  36.480  1.00  0.00    -0.067 NA
HETATM   12  N2  UNL     1      13.109  69.463  38.712  1.00  0.00    -0.067 NA
ATOM     13  H3  UNL     1      14.742  68.062  37.294  1.00  0.00     0.161 HD
ENDBRANCH   8   9
ENDBRANCH   7   8
ENDBRANCH   6   7
ENDBRANCH   5   6
ENDBRANCH   3   5
ENDBRANCH   2   3
BRANCH   2  14
HETATM   14  O1  UNL     1      14.397  66.102  37.945  1.00  0.00    -0.387 OA
ATOM     15  H1  UNL     1      13.593  66.179  38.447  1.00  0.00     0.210 HD
ENDBRANCH   2  14
ENDBRANCH   1   2
BRANCH   1  16
HETATM   16  C8  UNL     1      13.527  64.391  39.849  1.00  0.00     0.230 C 
HETATM   17  O2  UNL     1      13.167  65.516  40.222  1.00  0.00    -0.273 OA
HETATM   18  N6  UNL     1      13.846  63.424  40.892  1.00  0.00    -0.307 N 
BRANCH  18  19
HETATM   19  C9  UNL     1      14.307  62.124  40.509  1.00  0.00     0.096 C 
HETATM   20  C10 UNL     1      13.554  60.890  40.495  1.00  0.00     0.010 C 
BRANCH  20  21
HETATM   21  C11 UNL     1      13.032  60.260  41.729  1.00  0.00     0.150 C 
BRANCH  21  22
HETATM   22  N7  UNL     1      12.036  61.130  42.380  1.00  0.00    -0.363 N 
HETATM   23  C12 UNL     1      11.474  60.683  43.433  1.00  0.00     0.197 C 
HETATM   24  N8  UNL     1      11.783  59.417  43.956  1.00  0.00    -0.067 NA
HETATM   25  N9  UNL     1      10.512  61.495  44.085  1.00  0.00    -0.067 NA
ATOM     26  H7  UNL     1      11.806  62.050  42.004  1.00  0.00     0.162 HD
ENDBRANCH  21  22
ENDBRANCH  20  21
ENDBRANCH  18  19
BRANCH  18  27
HETATM   27  C13 UNL     1      13.892  63.798  42.269  1.00  0.00     0.077 C 
BRANCH  27  28
HETATM   28  C14 UNL     1      14.941  64.528  42.943  1.00  0.00     0.025 A 
HETATM   29  C15 UNL     1      16.313  63.971  43.325  1.00  0.00     0.010 A 
HETATM   30  C16 UNL     1      16.197  64.997  42.290  1.00  0.00     0.010 A 
ENDBRANCH  27  28
ENDBRANCH  18  27
ENDBRANCH   1  16
TORSDOF 14
ENDMDL
MODEL 3
REMARK VINA RESULT: -8.331448398      1.536      1.948
REMARK  14 active torsions:
REMARK  status: ('A' for Active; 'I' for Inactive)
REMARK    1  A    between atoms: N3_4  and  C2_6 
REMARK    2  A    between atoms: C2_6  and  C3_7 
REMARK    3  A    between atoms: C3_7  and  C4_8 
REMARK    4  A    between atoms: C4_8  and  N4_9 
REMARK    5  A    between atoms: N4_9  and  C5_10 
REMARK    6  A    between atoms: C5_10  and  C6_12 
REMARK    7  A    between atoms: C6_12  and  O1_13 
REMARK    8  A    between atoms: C6_12  and  C7_15 
REMARK    9  A    between atoms: C7_15  and  C8_16 
REMARK       I    between atoms: C8_16  and  N6_18 
REMARK   10  A    between atoms: N6_18  and  C9_19 
REMARK   11  A    between atoms: N6_18  and  C13_27 
REMARK   12  A    between atoms: C10_20  and  C11_21 
REMARK   13  A    between atoms: C11_21  and  N7_22 
REMARK   14  A    between atoms: C13_27  and  C14_28 
ROOT
HETATM    1  C7  UNL     1      13.946  63.395  37.596  1.00  0.00     0.144 C 
ENDROOT
BRANCH   1   2
HETATM    2  C6  UNL     1      14.095  64.276  36.413  1.00  0.00     0.206 C 
BRANCH   2   3
HETATM    3  C5  UNL     1      15.466  64.727  36.071  1.00  0.00     0.193 C 
HETATM    4  N5  UNL     1      16.487  63.797  35.734  1.00  0.00    -0.069 NA
BRANCH   3   5
HETATM    5  N4  UNL     1      15.736  65.903  36.076  1.00  0.00    -0.409 NA
BRANCH   5   6
HETATM    6  C4  UNL     1      16.096  67.166  35.857  1.00  0.00     0.158 C 
BRANCH   6   7
HETATM    7  C3  UNL     1      15.359  67.949  34.750  1.00  0.00     0.079 C 
BRANCH   7   8
HETATM    8  C2  UNL     1      14.201  68.710  35.306  1.00  0.00     0.128 C 
BRANCH   8   9
HETATM    9  N3  UNL     1      14.097  68.691  36.741  1.00  0.00    -0.367 N 
HETATM   10  C1  UNL     1      13.192  69.388  37.315  1.00  0.00     0.196 C 
HETATM   11  N1  UNL     1      12.307  70.168  36.530  1.00  0.00    -0.067 NA
HETATM   12  N2  UNL     1      13.037  69.410  38.743  1.00  0.00    -0.067 NA
ATOM     13  H3  UNL     1      14.740  68.126  37.296  1.00  0.00     0.161 HD
ENDBRANCH   8   9
ENDBRANCH   7   8
ENDBRANCH   6   7
ENDBRANCH   5   6
ENDBRANCH   3   5
ENDBRANCH   2   3
BRANCH   2  14
HETATM   14  O1  UNL     1      13.594  63.466  35.337  1.00  0.00    -0.387 OA
ATOM     15  H1  UNL     1      12.852  62.964  35.653  1.00  0.00     0.210 HD
ENDBRANCH   2  14
ENDBRANCH   1   2
BRANCH   1  16
HETATM   16  C8  UNL     1      14.069  63.938  38.920  1.00  0.00     0.230 C 
HETATM   17  O2  UNL     1      14.104  65.151  39.166  1.00  0.00    -0.273 OA
HETATM   18  N6  UNL     1      14.162  63.034  40.060  1.00  0.00    -0.307 N 
BRANCH  18  19
HETATM   19  C9  UNL     1      14.169  61.622  39.821  1.00  0.00     0.096 C 
HETATM   20  C10 UNL     1      13.224  60.642  40.305  1.00  0.00     0.010 C 
BRANCH  20  21
HETATM   21  C11 UNL     1      13.070  60.323  41.743  1.00  0.00     0.150 C 
BRANCH  21  22
HETATM   22  N7  UNL     1      12.115  61.245  42.384  1.00  0.00    -0.363 N 
HETATM   23  C12 UNL     1      11.495  60.816  43.412  1.00  0.00     0.197 C 
HETATM   24  N8  UNL     1      11.705  59.523  43.917  1.00  0.00    -0.067 NA
HETATM   25  N9  UNL     1      10.569  61.677  44.053  1.00  0.00    -0.067 NA
ATOM     26  H7  UNL     1      11.957  62.185  42.020  1.00  0.00     0.162 HD
ENDBRANCH  21  22
ENDBRANCH  20  21
ENDBRANCH  18  19
BRANCH  18  27
HETATM   27  C13 UNL     1      14.435  63.515  41.375  1.00  0.00     0.077 C 
BRANCH  27  28
HETATM   28  C14 UNL     1      15.682  63.422  42.101  1.00  0.00     0.025 A 
HETATM   29  C15 UNL     1      16.777  64.488  42.135  1.00  0.00     0.010 A 
HETATM   30  C16 UNL     1      15.998  64.192  43.337  1.00  0.00     0.010 A 
ENDBRANCH  27  28
ENDBRANCH  18  27
ENDBRANCH   1  16
TORSDOF 14
ENDMDL
MODEL 4
REMARK VINA RESULT: -8.267154648      2.177      4.053
REMARK  14 active torsions:
REMARK  status: ('A' for Active; 'I' for Inactive)
REMARK    1  A    between atoms: N3_4  and  C2_6 
REMARK    2  A    between atoms: C2_6  and  C3_7 
REMARK    3  A    between atoms: C3_7  and  C4_8 
REMARK    4  A    between atoms: C4_8  and  N4_9 
REMARK    5  A    between atoms: N4_9  and  C5_10 
REMARK    6  A    between atoms: C5_10  and  C6_12 
REMARK    7  A    between atoms: C6_12  and  O1_13 
REMARK    8  A    between atoms: C6_12  and  C7_15 
REMARK    9  A    between atoms: C7_15  and  C8_16 
REMARK       I    between atoms: C8_16  and  N6_18 
REMARK   10  A    between atoms: N6_18  and  C9_19 
REMARK   11  A    between atoms: N6_18  and  C13_27 
REMARK   12  A    between atoms: C10_20  and  C11_21 
REMARK   13  A    between atoms: C11_21  and  N7_22 
REMARK   14  A    between atoms: C13_27  and  C14_28 
ROOT
HETATM    1  C7  UNL     1      14.827  62.818  38.507  1.00  0.00     0.144 C 
ENDROOT
BRANCH   1   2
HETATM    2  C6  UNL     1      14.342  64.175  38.163  1.00  0.00     0.206 C 
BRANCH   2   3
HETATM    3  C5  UNL     1      14.363  64.560  36.731  1.00  0.00     0.193 C 
HETATM    4  N5  UNL     1      13.813  63.714  35.730  1.00  0.00    -0.069 NA
BRANCH   3   5
HETATM    5  N4  UNL     1      14.854  65.609  36.393  1.00  0.00    -0.409 NA
BRANCH   5   6
HETATM    6  C4  UNL     1      15.515  66.637  35.864  1.00  0.00     0.158 C 
BRANCH   6   7
HETATM    7  C3  UNL     1      14.815  67.461  34.763  1.00  0.00     0.079 C 
BRANCH   7   8
HETATM    8  C2  UNL     1      14.143  68.666  35.335  1.00  0.00     0.128 C 
BRANCH   8   9
HETATM    9  N3  UNL     1      14.122  68.723  36.771  1.00  0.00    -0.367 N 
HETATM   10  C1  UNL     1      13.235  69.432  37.360  1.00  0.00     0.196 C 
HETATM   11  N1  UNL     1      12.288  70.148  36.588  1.00  0.00    -0.067 NA
HETATM   12  N2  UNL     1      13.163  69.529  38.792  1.00  0.00    -0.067 NA
ATOM     13  H3  UNL     1      14.810  68.203  37.317  1.00  0.00     0.161 HD
ENDBRANCH   8   9
ENDBRANCH   7   8
ENDBRANCH   6   7
ENDBRANCH   5   6
ENDBRANCH   3   5
ENDBRANCH   2   3
BRANCH   2  14
HETATM   14  O1  UNL     1      12.980  64.161  38.617  1.00  0.00    -0.387 OA
ATOM     15  H1  UNL     1      12.935  64.592  39.463  1.00  0.00     0.210 HD
ENDBRANCH   2  14
ENDBRANCH   1   2
BRANCH   1  16
HETATM   16  C8  UNL     1      14.001  61.929  39.276  1.00  0.00     0.230 C 
HETATM   17  O2  UNL     1      13.003  61.352  38.824  1.00  0.00    -0.273 OA
HETATM   18  N6  UNL     1      14.331  61.672  40.673  1.00  0.00    -0.307 N 
BRANCH  18  19
HETATM   19  C9  UNL     1      15.451  62.349  41.252  1.00  0.00     0.096 C 
HETATM   20  C10 UNL     1      15.540  62.939  42.569  1.00  0.00     0.010 C 
BRANCH  20  21
HETATM   21  C11 UNL     1      14.719  64.100  42.981  1.00  0.00     0.150 C 
BRANCH  21  22
HETATM   22  N7  UNL     1      14.007  64.674  41.824  1.00  0.00    -0.363 N 
HETATM   23  C12 UNL     1      14.274  65.882  41.519  1.00  0.00     0.197 C 
HETATM   24  N8  UNL     1      15.203  66.642  42.249  1.00  0.00    -0.067 NA
HETATM   25  N9  UNL     1      13.608  66.465  40.411  1.00  0.00    -0.067 NA
ATOM     26  H7  UNL     1      13.330  64.127  41.291  1.00  0.00     0.162 HD
ENDBRANCH  21  22
ENDBRANCH  20  21
ENDBRANCH  18  19
BRANCH  18  27
HETATM   27  C13 UNL     1      13.463  60.920  41.519  1.00  0.00     0.077 C 
BRANCH  27  28
HETATM   28  C14 UNL     1      13.390  59.482  41.644  1.00  0.00     0.025 A 
HETATM   29  C15 UNL     1      12.481  58.713  42.603  1.00  0.00     0.010 A 
HETATM   30  C16 UNL     1      12.253  58.649  41.159  1.00  0.00     0.010 A 
ENDBRANCH  27  28
ENDBRANCH  18  27
ENDBRANCH   1  16
TORSDOF 14
ENDMDL
MODEL 5
REMARK VINA RESULT: -8.156659263      1.098      1.349
REMARK  14 active torsions:
REMARK  status: ('A' for Active; 'I' for Inactive)
REMARK    1  A    between atoms: N3_4  and  C2_6 
REMARK    2  A    between atoms: C2_6  and  C3_7 
REMARK    3  A    between atoms: C3_7  and  C4_8 
REMARK    4  A    between atoms: C4_8  and  N4_9 
REMARK    5  A    between atoms: N4_9  and  C5_10 
REMARK    6  A    between atoms: C5_10  and  C6_12 
REMARK    7  A    between atoms: C6_12  and  O1_13 
REMARK    8  A    between atoms: C6_12  and  C7_15 
REMARK    9  A    between atoms: C7_15  and  C8_16 
REMARK       I    between atoms: C8_16  and  N6_18 
REMARK   10  A    between atoms: N6_18  and  C9_19 
REMARK   11  A    between atoms: N6_18  and  C13_27 
REMARK   12  A    between atoms: C10_20  and  C11_21 
REMARK   13  A    between atoms: C11_21  and  N7_22 
REMARK   14  A    between atoms: C13_27  and  C14_28 
ROOT
HETATM    1  C7  UNL     1      13.801  63.393  37.421  1.00  0.00     0.144 C 
ENDROOT
BRANCH   1   2
HETATM    2  C6  UNL     1      13.944  64.168  36.166  1.00  0.00     0.206 C 
BRANCH   2   3
HETATM    3  C5  UNL     1      15.320  64.394  35.661  1.00  0.00     0.193 C 
HETATM    4  N5  UNL     1      16.024  63.379  34.956  1.00  0.00    -0.069 NA
BRANCH   3   5
HETATM    5  N4  UNL     1      15.867  65.453  35.845  1.00  0.00    -0.409 NA
BRANCH   5   6
HETATM    6  C4  UNL     1      16.310  66.708  35.899  1.00  0.00     0.158 C 
BRANCH   6   7
HETATM    7  C3  UNL     1      16.764  67.373  34.582  1.00  0.00     0.079 C 
BRANCH   7   8
HETATM    8  C2  UNL     1      15.594  67.841  33.782  1.00  0.00     0.128 C 
BRANCH   8   9
HETATM    9  N3  UNL     1      14.408  68.116  34.546  1.00  0.00    -0.367 N 
HETATM   10  C1  UNL     1      13.861  69.270  34.466  1.00  0.00     0.196 C 
HETATM   11  N1  UNL     1      14.432  70.257  33.626  1.00  0.00    -0.067 NA
HETATM   12  N2  UNL     1      12.675  69.605  35.206  1.00  0.00    -0.067 NA
ATOM     13  H3  UNL     1      14.005  67.398  35.149  1.00  0.00     0.161 HD
ENDBRANCH   8   9
ENDBRANCH   7   8
ENDBRANCH   6   7
ENDBRANCH   5   6
ENDBRANCH   3   5
ENDBRANCH   2   3
BRANCH   2  14
HETATM   14  O1  UNL     1      13.225  63.375  35.208  1.00  0.00    -0.387 OA
ATOM     15  H1  UNL     1      12.385  63.787  35.040  1.00  0.00     0.210 HD
ENDBRANCH   2  14
ENDBRANCH   1   2
BRANCH   1  16
HETATM   16  C8  UNL     1      13.989  64.036  38.692  1.00  0.00     0.230 C 
HETATM   17  O2  UNL     1      13.995  65.264  38.848  1.00  0.00    -0.273 OA
HETATM   18  N6  UNL     1      14.187  63.222  39.886  1.00  0.00    -0.307 N 
BRANCH  18  19
HETATM   19  C9  UNL     1      14.230  61.797  39.748  1.00  0.00     0.096 C 
HETATM   20  C10 UNL     1      13.364  60.825  40.376  1.00  0.00     0.010 C 
BRANCH  20  21
HETATM   21  C11 UNL     1      13.335  60.609  41.841  1.00  0.00     0.150 C 
BRANCH  21  22
HETATM   22  N7  UNL     1      12.325  61.474  42.477  1.00  0.00    -0.363 N 
HETATM   23  C12 UNL     1      11.597  60.947  43.381  1.00  0.00     0.197 C 
HETATM   24  N8  UNL     1      11.743  59.602  43.759  1.00  0.00    -0.067 NA
HETATM   25  N9  UNL     1      10.616  61.750  44.015  1.00  0.00    -0.067 NA
ATOM     26  H7  UNL     1      12.214  62.451  42.206  1.00  0.00     0.162 HD
ENDBRANCH  21  22
ENDBRANCH  20  21
ENDBRANCH  18  19
BRANCH  18  27
HETATM   27  C13 UNL     1      14.526  63.807  41.142  1.00  0.00     0.077 C 
BRANCH  27  28
HETATM   28  C14 UNL     1      15.705  63.550  41.938  1.00  0.00     0.025 A 
HETATM   29  C15 UNL     1      16.899  64.494  42.096  1.00  0.00     0.010 A 
HETATM   30  C16 UNL     1      16.014  64.226  43.230  1.00  0.00     0.010 A 
ENDBRANCH  27  28
ENDBRANCH  18  27
ENDBRANCH   1  16
TORSDOF 14
ENDMDL
