MODEL 1
REMARK VINA RESULT: -8.781445078      0.000      0.000
REMARK  12 active torsions:
REMARK  status: ('A' for Active; 'I' for Inactive)
REMARK    1  A    between atoms: N3_4  and  C2_6 
REMARK    2  A    between atoms: C2_6  and  C3_7 
REMARK    3  A    between atoms: C3_7  and  C4_8 
REMARK    4  A    between atoms: C4_8  and  N4_9 
REMARK       I    between atoms: N4_9  and  C5_11 
REMARK       I    between atoms: C5_11  and  N5_13 
REMARK    5  A    between atoms: N5_13  and  C6_15 
REMARK    6  A    between atoms: C6_15  and  C7_16 
REMARK    7  A    between atoms: C7_16  and  C8_17 
REMARK    8  A    between atoms: C8_17  and  N6_18 
REMARK    9  A    between atoms: C10_23  and  C11_24 
REMARK   10  A    between atoms: C11_24  and  C12_25 
REMARK   11  A    between atoms: C12_25  and  C13_26 
REMARK   12  A    between atoms: C13_26  and  N8_27 
ROOT
HETATM    1  C8  UNL     1      13.621  63.587  37.836  1.00  0.00     0.129 C 
ENDROOT
BRANCH   1   2
HETATM    2  C7  UNL     1      14.377  63.561  39.148  1.00  0.00     0.040 C 
BRANCH   2   3
HETATM    3  C6  UNL     1      14.617  62.140  39.603  1.00  0.00     0.126 C 
BRANCH   3   4
HETATM    4  N5  UNL     1      13.358  61.461  39.704  1.00  0.00    -0.343 N 
HETATM    5  C5  UNL     1      13.313  60.075  40.088  1.00  0.00     0.316 C 
HETATM    6  N4  UNL     1      12.059  59.406  40.186  1.00  0.00    -0.343 N 
HETATM    7  O1  UNL     1      14.418  59.534  40.317  1.00  0.00    -0.247 OA
ATOM      8  H4  UNL     1      11.200  59.913  39.974  1.00  0.00     0.164 HD
ATOM      9  H5  UNL     1      12.492  61.961  39.503  1.00  0.00     0.164 HD
BRANCH   6  10
HETATM   10  C4  UNL     1      11.990  58.032  40.578  1.00  0.00     0.126 C 
BRANCH  10  11
HETATM   11  C3  UNL     1      11.411  57.890  41.946  1.00  0.00     0.039 C 
BRANCH  11  12
HETATM   12  C2  UNL     1      12.253  58.743  42.896  1.00  0.00     0.123 C 
BRANCH  12  13
HETATM   13  N3  UNL     1      11.423  59.608  43.690  1.00  0.00    -0.367 N 
HETATM   14  C1  UNL     1      11.394  60.893  43.540  1.00  0.00     0.196 C 
HETATM   15  N1  UNL     1      10.576  61.737  44.323  1.00  0.00    -0.067 NA
HETATM   16  N2  UNL     1      12.226  61.485  42.538  1.00  0.00    -0.067 NA
ATOM     17  H3  UNL     1      10.830  59.189  44.405  1.00  0.00     0.161 HD
ENDBRANCH  12  13
ENDBRANCH  11  12
ENDBRANCH  10  11
ENDBRANCH   6  10
ENDBRANCH   3   4
ENDBRANCH   2   3
ENDBRANCH   1   2
BRANCH   1  18
HETATM   18  N6  UNL     1      14.265  64.379  36.838  1.00  0.00    -0.327 N 
HETATM   19  C9  UNL     1      14.644  63.906  35.499  1.00  0.00     0.360 C 
HETATM   20  N7  UNL     1      15.089  65.094  34.793  1.00  0.00    -0.046 N 
HETATM   21  C10 UNL     1      15.674  65.895  35.805  1.00  0.00     0.279 C 
ATOM     22  H72 UNL     1      15.701  64.905  33.999  1.00  0.00     0.280 HD
ATOM     23  H71 UNL     1      14.357  65.562  34.258  1.00  0.00     0.280 HD
HETATM   24  C15 UNL     1      14.665  65.743  36.915  1.00  0.00     0.252 C 
HETATM   25  O2  UNL     1      14.247  66.579  37.731  1.00  0.00    -0.271 OA
BRANCH  21  26
HETATM   26  C11 UNL     1      15.964  67.306  35.494  1.00  0.00     0.044 C 
BRANCH  26  27
HETATM   27  C12 UNL     1      15.191  67.955  34.412  1.00  0.00     0.022 C 
BRANCH  27  28
HETATM   28  C13 UNL     1      14.047  68.805  34.850  1.00  0.00     0.122 C 
BRANCH  28  29
HETATM   29  N8  UNL     1      14.191  69.285  36.205  1.00  0.00    -0.367 N 
HETATM   30  C14 UNL     1      13.292  69.900  36.854  1.00  0.00     0.196 C 
HETATM   31  N9  UNL     1      12.010  70.221  36.376  1.00  0.00    -0.067 NA
HETATM   32  N10 UNL     1      13.609  70.304  38.195  1.00  0.00    -0.067 NA
ATOM     33  H8  UNL     1      15.081  69.116  36.675  1.00  0.00     0.161 HD
ENDBRANCH  28  29
ENDBRANCH  27  28
ENDBRANCH  26  27
ENDBRANCH  21  26
ENDBRANCH   1  18
TORSDOF 12
ENDMDL
MODEL 2
REMARK VINA RESULT: -8.643270460      1.819      8.809
REMARK  12 active torsions:
REMARK  status: ('A' for Active; 'I' for Inactive)
REMARK    1  A    between atoms: N3_4  and  C2_6 
REMARK    2  A    between atoms: C2_6  and  C3_7 
REMARK    3  A    between atoms: C3_7  and  C4_8 
REMARK    4  A    between atoms: C4_8  and  N4_9 
REMARK       I    between atoms: N4_9  and  C5_11 
REMARK       I    between atoms: C5_11  and  N5_13 
REMARK    5  A    between atoms: N5_13  and  C6_15 
REMARK    6  A    between atoms: C6_15  and  C7_16 
REMARK    7  A    between atoms: C7_16  and  C8_17 
REMARK    8  A    between atoms: C8_17  and  N6_18 
REMARK    9  A    between atoms: C10_23  and  C11_24 
REMARK   10  A    between atoms: C11_24  and  C12_25 
REMARK   11  A    between atoms: C12_25  and  C13_26 
REMARK   12  A    between atoms: C13_26  and  N8_27 
ROOT
HETATM    1  C8  UNL     1      15.509  64.340  37.287  1.00  0.00     0.129 C 
ENDROOT
BRANCH   1   2
HETATM    2  C7  UNL     1      15.379  63.853  35.859  1.00  0.00     0.040 C 
BRANCH   2   3
HETATM    3  C6  UNL     1      16.124  64.762  34.910  1.00  0.00     0.126 C 
BRANCH   3   4
HETATM    4  N5  UNL     1      15.195  65.674  34.307  1.00  0.00    -0.343 N 
HETATM    5  C5  UNL     1      15.094  67.027  34.788  1.00  0.00     0.316 C 
HETATM    6  N4  UNL     1      14.169  67.927  34.185  1.00  0.00    -0.343 N 
HETATM    7  O1  UNL     1      15.851  67.328  35.737  1.00  0.00    -0.247 OA
ATOM      8  H4  UNL     1      13.578  67.603  33.420  1.00  0.00     0.164 HD
ATOM      9  H5  UNL     1      14.605  65.363  33.535  1.00  0.00     0.164 HD
BRANCH   6  10
HETATM   10  C4  UNL     1      14.060  69.279  34.639  1.00  0.00     0.126 C 
BRANCH  10  11
HETATM   11  C3  UNL     1      12.941  69.432  35.614  1.00  0.00     0.039 C 
BRANCH  11  12
HETATM   12  C2  UNL     1      13.549  69.842  36.956  1.00  0.00     0.123 C 
BRANCH  12  13
HETATM   13  N3  UNL     1      13.817  68.693  37.778  1.00  0.00    -0.367 N 
HETATM   14  C1  UNL     1      12.979  68.241  38.654  1.00  0.00     0.196 C 
HETATM   15  N1  UNL     1      13.248  67.110  39.458  1.00  0.00    -0.067 NA
HETATM   16  N2  UNL     1      11.726  68.912  38.816  1.00  0.00    -0.067 NA
ATOM     17  H3  UNL     1      14.709  68.213  37.665  1.00  0.00     0.161 HD
ENDBRANCH  12  13
ENDBRANCH  11  12
ENDBRANCH  10  11
ENDBRANCH   6  10
ENDBRANCH   3   4
ENDBRANCH   2   3
ENDBRANCH   1   2
BRANCH   1  18
HETATM   18  N6  UNL     1      14.928  63.446  38.235  1.00  0.00    -0.327 N 
HETATM   19  C9  UNL     1      13.661  62.723  38.047  1.00  0.00     0.360 C 
HETATM   20  N7  UNL     1      13.577  61.812  39.174  1.00  0.00    -0.046 N 
HETATM   21  C10 UNL     1      14.216  62.512  40.228  1.00  0.00     0.279 C 
ATOM     22  H72 UNL     1      12.631  61.498  39.390  1.00  0.00     0.280 HD
ATOM     23  H71 UNL     1      13.961  60.885  38.992  1.00  0.00     0.280 HD
HETATM   24  C15 UNL     1      15.422  63.071  39.516  1.00  0.00     0.252 C 
HETATM   25  O2  UNL     1      16.592  63.198  39.910  1.00  0.00    -0.271 OA
BRANCH  21  26
HETATM   26  C11 UNL     1      14.576  61.760  41.444  1.00  0.00     0.044 C 
BRANCH  26  27
HETATM   27  C12 UNL     1      14.001  60.408  41.624  1.00  0.00     0.022 C 
BRANCH  27  28
HETATM   28  C13 UNL     1      12.574  60.361  42.053  1.00  0.00     0.122 C 
BRANCH  28  29
HETATM   29  N8  UNL     1      12.106  61.620  42.584  1.00  0.00    -0.367 N 
HETATM   30  C14 UNL     1      11.376  61.744  43.614  1.00  0.00     0.196 C 
HETATM   31  N9  UNL     1      10.898  60.690  44.412  1.00  0.00    -0.067 NA
HETATM   32  N10 UNL     1      11.004  63.076  44.000  1.00  0.00    -0.067 NA
ATOM     33  H8  UNL     1      12.383  62.472  42.096  1.00  0.00     0.161 HD
ENDBRANCH  28  29
ENDBRANCH  27  28
ENDBRANCH  26  27
ENDBRANCH  21  26
ENDBRANCH   1  18
TORSDOF 12
ENDMDL
MODEL 3
REMARK VINA RESULT: -8.495552525      1.367      1.765
REMARK  12 active torsions:
REMARK  status: ('A' for Active; 'I' for Inactive)
REMARK    1  A    between atoms: N3_4  and  C2_6 
REMARK    2  A    between atoms: C2_6  and  C3_7 
REMARK    3  A    between atoms: C3_7  and  C4_8 
REMARK    4  A    between atoms: C4_8  and  N4_9 
REMARK       I    between atoms: N4_9  and  C5_11 
REMARK       I    between atoms: C5_11  and  N5_13 
REMARK    5  A    between atoms: N5_13  and  C6_15 
REMARK    6  A    between atoms: C6_15  and  C7_16 
REMARK    7  A    between atoms: C7_16  and  C8_17 
REMARK    8  A    between atoms: C8_17  and  N6_18 
REMARK    9  A    between atoms: C10_23  and  C11_24 
REMARK   10  A    between atoms: C11_24  and  C12_25 
REMARK   11  A    between atoms: C12_25  and  C13_26 
REMARK   12  A    between atoms: C13_26  and  N8_27 
ROOT
HETATM    1  C8  UNL     1      13.739  63.571  37.774  1.00  0.00     0.129 C 
ENDROOT
BRANCH   1   2
HETATM    2  C7  UNL     1      14.382  63.663  39.142  1.00  0.00     0.040 C 
BRANCH   2   3
HETATM    3  C6  UNL     1      14.651  62.287  39.704  1.00  0.00     0.126 C 
BRANCH   3   4
HETATM    4  N5  UNL     1      13.436  61.757  40.251  1.00  0.00    -0.343 N 
HETATM    5  C5  UNL     1      13.349  60.365  40.605  1.00  0.00     0.316 C 
HETATM    6  N4  UNL     1      12.139  59.846  41.147  1.00  0.00    -0.343 N 
HETATM    7  O1  UNL     1      14.379  59.685  40.405  1.00  0.00    -0.247 OA
ATOM      8  H4  UNL     1      11.337  60.463  41.273  1.00  0.00     0.164 HD
ATOM      9  H5  UNL     1      12.631  62.369  40.388  1.00  0.00     0.164 HD
BRANCH   6  10
HETATM   10  C4  UNL     1      12.034  58.468  41.518  1.00  0.00     0.126 C 
BRANCH  10  11
HETATM   11  C3  UNL     1      12.514  58.247  42.914  1.00  0.00     0.039 C 
BRANCH  11  12
HETATM   12  C2  UNL     1      11.436  57.453  43.654  1.00  0.00     0.123 C 
BRANCH  12  13
HETATM   13  N3  UNL     1      10.186  58.163  43.667  1.00  0.00    -0.367 N 
HETATM   14  C1  UNL     1       9.168  57.789  44.373  1.00  0.00     0.196 C 
HETATM   15  N1  UNL     1       7.942  58.492  44.382  1.00  0.00    -0.067 NA
HETATM   16  N2  UNL     1       9.287  56.613  45.178  1.00  0.00    -0.067 NA
ATOM     17  H3  UNL     1      10.097  59.002  43.094  1.00  0.00     0.161 HD
ENDBRANCH  12  13
ENDBRANCH  11  12
ENDBRANCH  10  11
ENDBRANCH   6  10
ENDBRANCH   3   4
ENDBRANCH   2   3
ENDBRANCH   1   2
BRANCH   1  18
HETATM   18  N6  UNL     1      14.396  64.374  36.794  1.00  0.00    -0.327 N 
HETATM   19  C9  UNL     1      14.863  63.896  35.485  1.00  0.00     0.360 C 
HETATM   20  N7  UNL     1      15.289  65.089  34.779  1.00  0.00    -0.046 N 
HETATM   21  C10 UNL     1      15.788  65.933  35.803  1.00  0.00     0.279 C 
ATOM     22  H72 UNL     1      15.949  64.915  34.020  1.00  0.00     0.280 HD
ATOM     23  H71 UNL     1      14.566  65.515  34.199  1.00  0.00     0.280 HD
HETATM   24  C15 UNL     1      14.732  65.755  36.864  1.00  0.00     0.252 C 
HETATM   25  O2  UNL     1      14.238  66.586  37.642  1.00  0.00    -0.271 OA
BRANCH  21  26
HETATM   26  C11 UNL     1      16.031  67.350  35.479  1.00  0.00     0.044 C 
BRANCH  26  27
HETATM   27  C12 UNL     1      15.253  67.957  34.376  1.00  0.00     0.022 C 
BRANCH  27  28
HETATM   28  C13 UNL     1      14.127  68.843  34.786  1.00  0.00     0.122 C 
BRANCH  28  29
HETATM   29  N8  UNL     1      14.226  69.277  36.160  1.00  0.00    -0.367 N 
HETATM   30  C14 UNL     1      13.295  69.844  36.808  1.00  0.00     0.196 C 
HETATM   31  N9  UNL     1      12.016  70.149  36.311  1.00  0.00    -0.067 NA
HETATM   32  N10 UNL     1      13.569  70.208  38.170  1.00  0.00    -0.067 NA
ATOM     33  H8  UNL     1      15.108  69.114  36.645  1.00  0.00     0.161 HD
ENDBRANCH  28  29
ENDBRANCH  27  28
ENDBRANCH  26  27
ENDBRANCH  21  26
ENDBRANCH   1  18
TORSDOF 12
ENDMDL
MODEL 4
REMARK VINA RESULT: -8.301012491      1.956      9.539
REMARK  12 active torsions:
REMARK  status: ('A' for Active; 'I' for Inactive)
REMARK    1  A    between atoms: N3_4  and  C2_6 
REMARK    2  A    between atoms: C2_6  and  C3_7 
REMARK    3  A    between atoms: C3_7  and  C4_8 
REMARK    4  A    between atoms: C4_8  and  N4_9 
REMARK       I    between atoms: N4_9  and  C5_11 
REMARK       I    between atoms: C5_11  and  N5_13 
REMARK    5  A    between atoms: N5_13  and  C6_15 
REMARK    6  A    between atoms: C6_15  and  C7_16 
REMARK    7  A    between atoms: C7_16  and  C8_17 
REMARK    8  A    between atoms: C8_17  and  N6_18 
REMARK    9  A    between atoms: C10_23  and  C11_24 
REMARK   10  A    between atoms: C11_24  and  C12_25 
REMARK   11  A    between atoms: C12_25  and  C13_26 
REMARK   12  A    between atoms: C13_26  and  N8_27 
ROOT
HETATM    1  C8  UNL     1      14.080  64.435  37.487  1.00  0.00     0.129 C 
ENDROOT
BRANCH   1   2
HETATM    2  C7  UNL     1      14.935  63.821  36.399  1.00  0.00     0.040 C 
BRANCH   2   3
HETATM    3  C6  UNL     1      15.921  64.828  35.857  1.00  0.00     0.126 C 
BRANCH   3   4
HETATM    4  N5  UNL     1      15.265  65.649  34.881  1.00  0.00    -0.343 N 
HETATM    5  C5  UNL     1      15.003  67.036  35.161  1.00  0.00     0.316 C 
HETATM    6  N4  UNL     1      14.351  67.845  34.187  1.00  0.00    -0.343 N 
HETATM    7  O1  UNL     1      15.379  67.448  36.281  1.00  0.00    -0.247 OA
ATOM      8  H4  UNL     1      14.066  67.433  33.299  1.00  0.00     0.164 HD
ATOM      9  H5  UNL     1      14.984  65.249  33.986  1.00  0.00     0.164 HD
BRANCH   6  10
HETATM   10  C4  UNL     1      14.092  69.229  34.440  1.00  0.00     0.126 C 
BRANCH  10  11
HETATM   11  C3  UNL     1      12.672  69.446  34.845  1.00  0.00     0.039 C 
BRANCH  11  12
HETATM   12  C2  UNL     1      12.646  69.624  36.364  1.00  0.00     0.123 C 
BRANCH  12  13
HETATM   13  N3  UNL     1      13.805  70.340  36.822  1.00  0.00    -0.367 N 
HETATM   14  C1  UNL     1      14.178  70.364  38.061  1.00  0.00     0.196 C 
HETATM   15  N1  UNL     1      15.319  71.069  38.504  1.00  0.00    -0.067 NA
HETATM   16  N2  UNL     1      13.404  69.644  39.024  1.00  0.00    -0.067 NA
ATOM     17  H3  UNL     1      14.360  70.855  36.138  1.00  0.00     0.161 HD
ENDBRANCH  12  13
ENDBRANCH  11  12
ENDBRANCH  10  11
ENDBRANCH   6  10
ENDBRANCH   3   4
ENDBRANCH   2   3
ENDBRANCH   1   2
BRANCH   1  18
HETATM   18  N6  UNL     1      14.383  63.928  38.787  1.00  0.00    -0.327 N 
HETATM   19  C9  UNL     1      15.535  63.075  39.112  1.00  0.00     0.360 C 
HETATM   20  N7  UNL     1      15.530  62.972  40.560  1.00  0.00    -0.046 N 
HETATM   21  C10 UNL     1      14.155  63.018  40.901  1.00  0.00     0.279 C 
ATOM     22  H72 UNL     1      16.026  62.158  40.924  1.00  0.00     0.280 HD
ATOM     23  H71 UNL     1      16.104  63.671  41.032  1.00  0.00     0.280 HD
HETATM   24  C15 UNL     1      13.671  64.127  40.003  1.00  0.00     0.252 C 
HETATM   25  O2  UNL     1      12.845  65.028  40.223  1.00  0.00    -0.271 OA
BRANCH  21  26
HETATM   26  C11 UNL     1      13.797  63.237  42.314  1.00  0.00     0.044 C 
BRANCH  26  27
HETATM   27  C12 UNL     1      12.658  62.473  42.871  1.00  0.00     0.022 C 
BRANCH  27  28
HETATM   28  C13 UNL     1      12.480  61.092  42.340  1.00  0.00     0.122 C 
BRANCH  28  29
HETATM   29  N8  UNL     1      11.698  60.250  43.216  1.00  0.00    -0.367 N 
HETATM   30  C14 UNL     1      11.756  58.984  43.243  1.00  0.00     0.196 C 
HETATM   31  N9  UNL     1      12.581  58.183  42.435  1.00  0.00    -0.067 NA
HETATM   32  N10 UNL     1      10.906  58.307  44.182  1.00  0.00    -0.067 NA
ATOM     33  H8  UNL     1      11.053  60.708  43.861  1.00  0.00     0.161 HD
ENDBRANCH  28  29
ENDBRANCH  27  28
ENDBRANCH  26  27
ENDBRANCH  21  26
ENDBRANCH   1  18
TORSDOF 12
ENDMDL
MODEL 5
REMARK VINA RESULT: -8.295799448      2.816      8.573
REMARK  12 active torsions:
REMARK  status: ('A' for Active; 'I' for Inactive)
REMARK    1  A    between atoms: N3_4  and  C2_6 
REMARK    2  A    between atoms: C2_6  and  C3_7 
REMARK    3  A    between atoms: C3_7  and  C4_8 
REMARK    4  A    between atoms: C4_8  and  N4_9 
REMARK       I    between atoms: N4_9  and  C5_11 
REMARK       I    between atoms: C5_11  and  N5_13 
REMARK    5  A    between atoms: N5_13  and  C6_15 
REMARK    6  A    between atoms: C6_15  and  C7_16 
REMARK    7  A    between atoms: C7_16  and  C8_17 
REMARK    8  A    between atoms: C8_17  and  N6_18 
REMARK    9  A    between atoms: C10_23  and  C11_24 
REMARK   10  A    between atoms: C11_24  and  C12_25 
REMARK   11  A    between atoms: C12_25  and  C13_26 
REMARK   12  A    between atoms: C13_26  and  N8_27 
ROOT
HETATM    1  C8  UNL     1      14.738  64.651  37.015  1.00  0.00     0.129 C 
ENDROOT
BRANCH   1   2
HETATM    2  C7  UNL     1      15.518  64.167  35.810  1.00  0.00     0.040 C 
BRANCH   2   3
HETATM    3  C6  UNL     1      16.409  65.262  35.271  1.00  0.00     0.126 C 
BRANCH   3   4
HETATM    4  N5  UNL     1      15.641  66.107  34.403  1.00  0.00    -0.343 N 
HETATM    5  C5  UNL     1      15.206  67.402  34.854  1.00  0.00     0.316 C 
HETATM    6  N4  UNL     1      14.444  68.236  33.986  1.00  0.00    -0.343 N 
HETATM    7  O1  UNL     1      15.539  67.716  36.018  1.00  0.00    -0.247 OA
ATOM      8  H4  UNL     1      14.203  67.905  33.052  1.00  0.00     0.164 HD
ATOM      9  H5  UNL     1      15.404  65.789  33.463  1.00  0.00     0.164 HD
BRANCH   6  10
HETATM   10  C4  UNL     1      14.011  69.532  34.409  1.00  0.00     0.126 C 
BRANCH  10  11
HETATM   11  C3  UNL     1      12.593  69.502  34.875  1.00  0.00     0.039 C 
BRANCH  11  12
HETATM   12  C2  UNL     1      12.601  69.683  36.394  1.00  0.00     0.123 C 
BRANCH  12  13
HETATM   13  N3  UNL     1      13.793  70.358  36.829  1.00  0.00    -0.367 N 
HETATM   14  C1  UNL     1      14.170  70.400  38.067  1.00  0.00     0.196 C 
HETATM   15  N1  UNL     1      15.343  71.065  38.488  1.00  0.00    -0.067 NA
HETATM   16  N2  UNL     1      13.365  69.744  39.051  1.00  0.00    -0.067 NA
ATOM     17  H3  UNL     1      14.369  70.827  36.130  1.00  0.00     0.161 HD
ENDBRANCH  12  13
ENDBRANCH  11  12
ENDBRANCH  10  11
ENDBRANCH   6  10
ENDBRANCH   3   4
ENDBRANCH   2   3
ENDBRANCH   1   2
BRANCH   1  18
HETATM   18  N6  UNL     1      14.427  63.603  37.933  1.00  0.00    -0.327 N 
HETATM   19  C9  UNL     1      13.210  62.779  37.892  1.00  0.00     0.360 C 
HETATM   20  N7  UNL     1      13.422  61.746  38.890  1.00  0.00    -0.046 N 
HETATM   21  C10 UNL     1      14.195  62.389  39.888  1.00  0.00     0.279 C 
ATOM     22  H72 UNL     1      12.564  61.315  39.235  1.00  0.00     0.280 HD
ATOM     23  H71 UNL     1      13.836  60.889  38.525  1.00  0.00     0.280 HD
HETATM   24  C15 UNL     1      15.189  63.144  39.043  1.00  0.00     0.252 C 
HETATM   25  O2  UNL     1      16.400  63.348  39.228  1.00  0.00    -0.271 OA
BRANCH  21  26
HETATM   26  C11 UNL     1      14.845  61.551  40.912  1.00  0.00     0.044 C 
BRANCH  26  27
HETATM   27  C12 UNL     1      15.124  62.155  42.234  1.00  0.00     0.022 C 
BRANCH  27  28
HETATM   28  C13 UNL     1      14.235  63.283  42.634  1.00  0.00     0.122 C 
BRANCH  28  29
HETATM   29  N8  UNL     1      14.939  64.539  42.746  1.00  0.00    -0.367 N 
HETATM   30  C14 UNL     1      14.652  65.589  42.094  1.00  0.00     0.196 C 
HETATM   31  N9  UNL     1      13.611  65.714  41.158  1.00  0.00    -0.067 NA
HETATM   32  N10 UNL     1      15.460  66.752  42.332  1.00  0.00    -0.067 NA
ATOM     33  H8  UNL     1      15.723  64.586  43.397  1.00  0.00     0.161 HD
ENDBRANCH  28  29
ENDBRANCH  27  28
ENDBRANCH  26  27
ENDBRANCH  21  26
ENDBRANCH   1  18
TORSDOF 12
ENDMDL
