MODEL 1
REMARK VINA RESULT: -8.470638390      0.000      0.000
REMARK  13 active torsions:
REMARK  status: ('A' for Active; 'I' for Inactive)
REMARK    1  A    between atoms: N3_4  and  C2_6 
REMARK    2  A    between atoms: C2_6  and  C3_7 
REMARK    3  A    between atoms: C3_7  and  C4_8 
REMARK    4  A    between atoms: C4_8  and  N4_9 
REMARK    5  A    between atoms: C5_11  and  C6_13 
REMARK    6  A    between atoms: C6_13  and  N6_14 
REMARK    7  A    between atoms: N6_14  and  C7_16 
REMARK    8  A    between atoms: C7_16  and  C8_17 
REMARK    9  A    between atoms: C8_17  and  C9_18 
REMARK   10  A    between atoms: C9_18  and  N7_19 
REMARK       I    between atoms: N7_19  and  C10_21 
REMARK       I    between atoms: C10_21  and  N8_23 
REMARK   11  A    between atoms: N8_23  and  C11_25 
REMARK   12  A    between atoms: C11_25  and  C12_26 
REMARK   13  A    between atoms: C12_26  and  N9_27 
ROOT
HETATM    1  C8  UNL     1      13.228  63.436  37.757  1.00  0.00     0.039 C 
ENDROOT
BRANCH   1   2
HETATM    2  C7  UNL     1      13.836  64.669  38.423  1.00  0.00     0.115 C 
BRANCH   2   3
HETATM    3  N6  UNL     1      13.130  64.935  39.622  1.00  0.00    -0.415 N 
ATOM      4  H6  UNL     1      12.119  65.077  39.614  1.00  0.00     0.153 HD
BRANCH   3   5
HETATM    5  C6  UNL     1      13.868  64.998  40.838  1.00  0.00     0.186 C 
BRANCH   5   6
HETATM    6  C5  UNL     1      13.845  63.737  41.601  1.00  0.00     0.106 C 
HETATM    7  N4  UNL     1      14.495  62.716  41.112  1.00  0.00    -0.381 N 
ATOM      8  H4  UNL     1      14.997  62.796  40.227  1.00  0.00     0.160 HD
HETATM    9  N5  UNL     1      13.164  63.570  42.831  1.00  0.00    -0.086 NA
BRANCH   7  10
HETATM   10  C4  UNL     1      14.490  61.483  41.838  1.00  0.00     0.122 C 
BRANCH  10  11
HETATM   11  C3  UNL     1      13.761  60.469  40.957  1.00  0.00     0.039 C 
BRANCH  11  12
HETATM   12  C2  UNL     1      12.735  59.770  41.823  1.00  0.00     0.123 C 
BRANCH  12  13
HETATM   13  N3  UNL     1      11.916  60.782  42.455  1.00  0.00    -0.367 N 
HETATM   14  C1  UNL     1      11.382  60.557  43.590  1.00  0.00     0.196 C 
HETATM   15  N1  UNL     1      11.583  59.322  44.238  1.00  0.00    -0.067 NA
HETATM   16  N2  UNL     1      10.584  61.547  44.205  1.00  0.00    -0.067 NA
ATOM     17  H3  UNL     1      11.765  61.677  41.991  1.00  0.00     0.161 HD
ENDBRANCH  12  13
ENDBRANCH  11  12
ENDBRANCH  10  11
ENDBRANCH   7  10
ENDBRANCH   5   6
ENDBRANCH   3   5
ENDBRANCH   2   3
ENDBRANCH   1   2
BRANCH   1  18
HETATM   18  C9  UNL     1      14.039  63.048  36.536  1.00  0.00     0.126 C 
BRANCH  18  19
HETATM   19  N7  UNL     1      13.939  64.023  35.490  1.00  0.00    -0.343 N 
HETATM   20  C10 UNL     1      15.023  64.813  35.037  1.00  0.00     0.316 C 
HETATM   21  O1  UNL     1      16.141  64.655  35.582  1.00  0.00    -0.247 OA
HETATM   22  N8  UNL     1      14.907  65.769  34.008  1.00  0.00    -0.342 N 
ATOM     23  H8  UNL     1      13.990  65.885  33.575  1.00  0.00     0.164 HD
ATOM     24  H7  UNL     1      13.032  64.155  35.044  1.00  0.00     0.164 HD
BRANCH  22  25
HETATM   25  C11 UNL     1      15.974  66.590  33.521  1.00  0.00     0.144 C 
BRANCH  25  26
HETATM   26  C12 UNL     1      16.114  67.903  34.167  1.00  0.00     0.154 C 
BRANCH  26  27
HETATM   27  N9  UNL     1      14.974  68.545  34.694  1.00  0.00    -0.287 N 
HETATM   28  C13 UNL     1      14.425  68.414  36.025  1.00  0.00     0.226 C 
HETATM   29  O2  UNL     1      14.921  67.610  36.844  1.00  0.00    -0.273 OA
HETATM   30  C14 UNL     1      13.283  69.357  36.128  1.00  0.00     0.112 C 
HETATM   31  C15 UNL     1      12.814  69.396  34.675  1.00  0.00     0.112 C 
HETATM   32  C16 UNL     1      14.161  69.473  33.992  1.00  0.00     0.226 C 
HETATM   33  O3  UNL     1      14.417  70.223  33.023  1.00  0.00    -0.273 OA
ENDBRANCH  26  27
ENDBRANCH  25  26
ENDBRANCH  22  25
ENDBRANCH  18  19
ENDBRANCH   1  18
TORSDOF 13
ENDMDL
MODEL 2
REMARK VINA RESULT: -8.301691925      0.305      1.472
REMARK  13 active torsions:
REMARK  status: ('A' for Active; 'I' for Inactive)
REMARK    1  A    between atoms: N3_4  and  C2_6 
REMARK    2  A    between atoms: C2_6  and  C3_7 
REMARK    3  A    between atoms: C3_7  and  C4_8 
REMARK    4  A    between atoms: C4_8  and  N4_9 
REMARK    5  A    between atoms: C5_11  and  C6_13 
REMARK    6  A    between atoms: C6_13  and  N6_14 
REMARK    7  A    between atoms: N6_14  and  C7_16 
REMARK    8  A    between atoms: C7_16  and  C8_17 
REMARK    9  A    between atoms: C8_17  and  C9_18 
REMARK   10  A    between atoms: C9_18  and  N7_19 
REMARK       I    between atoms: N7_19  and  C10_21 
REMARK       I    between atoms: C10_21  and  N8_23 
REMARK   11  A    between atoms: N8_23  and  C11_25 
REMARK   12  A    between atoms: C11_25  and  C12_26 
REMARK   13  A    between atoms: C12_26  and  N9_27 
ROOT
HETATM    1  C8  UNL     1      13.252  63.404  37.664  1.00  0.00     0.039 C 
ENDROOT
BRANCH   1   2
HETATM    2  C7  UNL     1      13.880  64.583  38.405  1.00  0.00     0.115 C 
BRANCH   2   3
HETATM    3  N6  UNL     1      13.136  64.827  39.586  1.00  0.00    -0.415 N 
ATOM      4  H6  UNL     1      12.121  64.930  39.554  1.00  0.00     0.153 HD
BRANCH   3   5
HETATM    5  C6  UNL     1      13.843  64.926  40.817  1.00  0.00     0.186 C 
BRANCH   5   6
HETATM    6  C5  UNL     1      13.836  63.676  41.597  1.00  0.00     0.106 C 
HETATM    7  N4  UNL     1      14.458  62.642  41.098  1.00  0.00    -0.381 N 
ATOM      8  H4  UNL     1      14.928  62.706  40.195  1.00  0.00     0.160 HD
HETATM    9  N5  UNL     1      13.198  63.531  42.853  1.00  0.00    -0.086 NA
BRANCH   7  10
HETATM   10  C4  UNL     1      14.467  61.418  41.840  1.00  0.00     0.122 C 
BRANCH  10  11
HETATM   11  C3  UNL     1      13.751  60.384  40.971  1.00  0.00     0.039 C 
BRANCH  11  12
HETATM   12  C2  UNL     1      12.706  59.712  41.836  1.00  0.00     0.123 C 
BRANCH  12  13
HETATM   13  N3  UNL     1      11.903  60.744  42.457  1.00  0.00    -0.367 N 
HETATM   14  C1  UNL     1      11.363  60.538  43.592  1.00  0.00     0.196 C 
HETATM   15  N1  UNL     1      11.541  59.306  44.251  1.00  0.00    -0.067 NA
HETATM   16  N2  UNL     1      10.581  61.548  44.196  1.00  0.00    -0.067 NA
ATOM     17  H3  UNL     1      11.769  61.638  41.983  1.00  0.00     0.161 HD
ENDBRANCH  12  13
ENDBRANCH  11  12
ENDBRANCH  10  11
ENDBRANCH   7  10
ENDBRANCH   5   6
ENDBRANCH   3   5
ENDBRANCH   2   3
ENDBRANCH   1   2
BRANCH   1  18
HETATM   18  C9  UNL     1      14.058  63.079  36.421  1.00  0.00     0.126 C 
BRANCH  18  19
HETATM   19  N7  UNL     1      13.922  64.087  35.411  1.00  0.00    -0.343 N 
HETATM   20  C10 UNL     1      14.969  64.949  35.006  1.00  0.00     0.316 C 
HETATM   21  O1  UNL     1      16.086  64.828  35.562  1.00  0.00    -0.247 OA
HETATM   22  N8  UNL     1      14.818  65.937  34.012  1.00  0.00    -0.342 N 
ATOM     23  H8  UNL     1      13.903  66.022  33.569  1.00  0.00     0.164 HD
ATOM     24  H7  UNL     1      13.015  64.189  34.956  1.00  0.00     0.164 HD
BRANCH  22  25
HETATM   25  C11 UNL     1      15.848  66.830  33.574  1.00  0.00     0.144 C 
BRANCH  25  26
HETATM   26  C12 UNL     1      15.923  68.114  34.284  1.00  0.00     0.154 C 
BRANCH  26  27
HETATM   27  N9  UNL     1      14.779  68.614  34.943  1.00  0.00    -0.287 N 
HETATM   28  C13 UNL     1      13.741  69.455  34.392  1.00  0.00     0.226 C 
HETATM   29  O2  UNL     1      13.824  69.886  33.222  1.00  0.00    -0.273 OA
HETATM   30  C14 UNL     1      12.710  69.633  35.445  1.00  0.00     0.112 C 
HETATM   31  C15 UNL     1      13.566  69.517  36.704  1.00  0.00     0.112 C 
HETATM   32  C16 UNL     1      14.435  68.350  36.295  1.00  0.00     0.226 C 
HETATM   33  O3  UNL     1      14.734  67.396  37.049  1.00  0.00    -0.273 OA
ENDBRANCH  26  27
ENDBRANCH  25  26
ENDBRANCH  22  25
ENDBRANCH  18  19
ENDBRANCH   1  18
TORSDOF 13
ENDMDL
MODEL 3
REMARK VINA RESULT: -8.289203767      2.875      8.962
REMARK  13 active torsions:
REMARK  status: ('A' for Active; 'I' for Inactive)
REMARK    1  A    between atoms: N3_4  and  C2_6 
REMARK    2  A    between atoms: C2_6  and  C3_7 
REMARK    3  A    between atoms: C3_7  and  C4_8 
REMARK    4  A    between atoms: C4_8  and  N4_9 
REMARK    5  A    between atoms: C5_11  and  C6_13 
REMARK    6  A    between atoms: C6_13  and  N6_14 
REMARK    7  A    between atoms: N6_14  and  C7_16 
REMARK    8  A    between atoms: C7_16  and  C8_17 
REMARK    9  A    between atoms: C8_17  and  C9_18 
REMARK   10  A    between atoms: C9_18  and  N7_19 
REMARK       I    between atoms: N7_19  and  C10_21 
REMARK       I    between atoms: C10_21  and  N8_23 
REMARK   11  A    between atoms: N8_23  and  C11_25 
REMARK   12  A    between atoms: C11_25  and  C12_26 
REMARK   13  A    between atoms: C12_26  and  N9_27 
ROOT
HETATM    1  C8  UNL     1      14.371  63.926  35.688  1.00  0.00     0.039 C 
ENDROOT
BRANCH   1   2
HETATM    2  C7  UNL     1      15.867  64.016  35.984  1.00  0.00     0.115 C 
BRANCH   2   3
HETATM    3  N6  UNL     1      16.392  65.161  35.337  1.00  0.00    -0.415 N 
ATOM      4  H6  UNL     1      17.349  65.468  35.509  1.00  0.00     0.153 HD
BRANCH   3   5
HETATM    5  C6  UNL     1      15.546  65.873  34.439  1.00  0.00     0.186 C 
BRANCH   5   6
HETATM    6  C5  UNL     1      15.274  67.257  34.865  1.00  0.00     0.106 C 
HETATM    7  N4  UNL     1      14.525  67.997  34.093  1.00  0.00    -0.381 N 
ATOM      8  H4  UNL     1      14.146  67.622  33.223  1.00  0.00     0.160 HD
HETATM    9  N5  UNL     1      15.773  67.828  36.060  1.00  0.00    -0.086 NA
BRANCH   7  10
HETATM   10  C4  UNL     1      14.244  69.343  34.490  1.00  0.00     0.122 C 
BRANCH  10  11
HETATM   11  C3  UNL     1      12.753  69.390  34.821  1.00  0.00     0.039 C 
BRANCH  11  12
HETATM   12  C2  UNL     1      12.627  69.605  36.315  1.00  0.00     0.123 C 
BRANCH  12  13
HETATM   13  N3  UNL     1      13.802  70.317  36.768  1.00  0.00    -0.367 N 
HETATM   14  C1  UNL     1      14.094  70.348  38.008  1.00  0.00     0.196 C 
HETATM   15  N1  UNL     1      13.274  69.692  38.947  1.00  0.00    -0.067 NA
HETATM   16  N2  UNL     1      15.243  71.043  38.446  1.00  0.00    -0.067 NA
ATOM     17  H3  UNL     1      14.399  70.795  36.092  1.00  0.00     0.161 HD
ENDBRANCH  12  13
ENDBRANCH  11  12
ENDBRANCH  10  11
ENDBRANCH   7  10
ENDBRANCH   5   6
ENDBRANCH   3   5
ENDBRANCH   2   3
ENDBRANCH   1   2
BRANCH   1  18
HETATM   18  C9  UNL     1      13.594  63.736  36.977  1.00  0.00     0.126 C 
BRANCH  18  19
HETATM   19  N7  UNL     1      14.413  63.933  38.136  1.00  0.00    -0.343 N 
HETATM   20  C10 UNL     1      13.912  64.300  39.407  1.00  0.00     0.316 C 
HETATM   21  O1  UNL     1      12.675  64.465  39.533  1.00  0.00    -0.247 OA
HETATM   22  N8  UNL     1      14.732  64.491  40.537  1.00  0.00    -0.342 N 
ATOM     23  H8  UNL     1      15.736  64.353  40.418  1.00  0.00     0.164 HD
ATOM     24  H7  UNL     1      15.420  63.800  38.038  1.00  0.00     0.164 HD
BRANCH  22  25
HETATM   25  C11 UNL     1      14.268  64.865  41.840  1.00  0.00     0.144 C 
BRANCH  25  26
HETATM   26  C12 UNL     1      14.152  63.770  42.813  1.00  0.00     0.154 C 
BRANCH  26  27
HETATM   27  N9  UNL     1      13.675  62.510  42.392  1.00  0.00    -0.287 N 
HETATM   28  C13 UNL     1      12.323  62.007  42.472  1.00  0.00     0.226 C 
HETATM   29  O2  UNL     1      11.424  62.678  43.024  1.00  0.00    -0.273 OA
HETATM   30  C14 UNL     1      12.306  60.676  41.817  1.00  0.00     0.112 C 
HETATM   31  C15 UNL     1      13.736  60.211  42.079  1.00  0.00     0.112 C 
HETATM   32  C16 UNL     1      14.465  61.501  41.780  1.00  0.00     0.226 C 
HETATM   33  O3  UNL     1      15.529  61.574  41.123  1.00  0.00    -0.273 OA
ENDBRANCH  26  27
ENDBRANCH  25  26
ENDBRANCH  22  25
ENDBRANCH  18  19
ENDBRANCH   1  18
TORSDOF 13
ENDMDL
MODEL 4
REMARK VINA RESULT: -8.259062198      3.251      9.742
REMARK  13 active torsions:
REMARK  status: ('A' for Active; 'I' for Inactive)
REMARK    1  A    between atoms: N3_4  and  C2_6 
REMARK    2  A    between atoms: C2_6  and  C3_7 
REMARK    3  A    between atoms: C3_7  and  C4_8 
REMARK    4  A    between atoms: C4_8  and  N4_9 
REMARK    5  A    between atoms: C5_11  and  C6_13 
REMARK    6  A    between atoms: C6_13  and  N6_14 
REMARK    7  A    between atoms: N6_14  and  C7_16 
REMARK    8  A    between atoms: C7_16  and  C8_17 
REMARK    9  A    between atoms: C8_17  and  C9_18 
REMARK   10  A    between atoms: C9_18  and  N7_19 
REMARK       I    between atoms: N7_19  and  C10_21 
REMARK       I    between atoms: C10_21  and  N8_23 
REMARK   11  A    between atoms: N8_23  and  C11_25 
REMARK   12  A    between atoms: C11_25  and  C12_26 
REMARK   13  A    between atoms: C12_26  and  N9_27 
ROOT
HETATM    1  C8  UNL     1      13.514  63.757  36.936  1.00  0.00     0.039 C 
ENDROOT
BRANCH   1   2
HETATM    2  C7  UNL     1      14.500  63.660  35.773  1.00  0.00     0.115 C 
BRANCH   2   3
HETATM    3  N6  UNL     1      14.434  64.858  35.019  1.00  0.00    -0.415 N 
ATOM      4  H6  UNL     1      13.543  65.329  34.860  1.00  0.00     0.153 HD
BRANCH   3   5
HETATM    5  C6  UNL     1      15.646  65.387  34.491  1.00  0.00     0.186 C 
BRANCH   5   6
HETATM    6  C5  UNL     1      15.622  66.851  34.328  1.00  0.00     0.106 C 
HETATM    7  N4  UNL     1      14.517  67.481  34.627  1.00  0.00    -0.381 N 
ATOM      8  H4  UNL     1      13.701  66.967  34.960  1.00  0.00     0.160 HD
HETATM    9  N5  UNL     1      16.723  67.614  33.871  1.00  0.00    -0.086 NA
BRANCH   7  10
HETATM   10  C4  UNL     1      14.472  68.903  34.481  1.00  0.00     0.122 C 
BRANCH  10  11
HETATM   11  C3  UNL     1      13.013  69.310  34.682  1.00  0.00     0.039 C 
BRANCH  11  12
HETATM   12  C2  UNL     1      12.791  69.480  36.170  1.00  0.00     0.123 C 
BRANCH  12  13
HETATM   13  N3  UNL     1      13.880  70.272  36.700  1.00  0.00    -0.367 N 
HETATM   14  C1  UNL     1      14.083  70.322  37.957  1.00  0.00     0.196 C 
HETATM   15  N1  UNL     1      13.249  69.608  38.840  1.00  0.00    -0.067 NA
HETATM   16  N2  UNL     1      15.147  71.095  38.470  1.00  0.00    -0.067 NA
ATOM     17  H3  UNL     1      14.486  70.793  36.065  1.00  0.00     0.161 HD
ENDBRANCH  12  13
ENDBRANCH  11  12
ENDBRANCH  10  11
ENDBRANCH   7  10
ENDBRANCH   5   6
ENDBRANCH   3   5
ENDBRANCH   2   3
ENDBRANCH   1   2
BRANCH   1  18
HETATM   18  C9  UNL     1      14.102  64.601  38.050  1.00  0.00     0.126 C 
BRANCH  18  19
HETATM   19  N7  UNL     1      13.398  64.429  39.287  1.00  0.00    -0.343 N 
HETATM   20  C10 UNL     1      13.724  63.449  40.255  1.00  0.00     0.316 C 
HETATM   21  O1  UNL     1      14.687  62.681  40.020  1.00  0.00    -0.247 OA
HETATM   22  N8  UNL     1      13.020  63.293  41.466  1.00  0.00    -0.342 N 
ATOM     23  H8  UNL     1      12.239  63.927  41.640  1.00  0.00     0.164 HD
ATOM     24  H7  UNL     1      12.614  65.052  39.482  1.00  0.00     0.164 HD
BRANCH  22  25
HETATM   25  C11 UNL     1      13.313  62.315  42.470  1.00  0.00     0.144 C 
BRANCH  25  26
HETATM   26  C12 UNL     1      12.201  61.429  42.841  1.00  0.00     0.154 C 
BRANCH  26  27
HETATM   27  N9  UNL     1      12.187  60.096  42.376  1.00  0.00    -0.287 N 
HETATM   28  C13 UNL     1      11.910  58.900  43.138  1.00  0.00     0.226 C 
HETATM   29  O2  UNL     1      11.715  58.959  44.371  1.00  0.00    -0.273 OA
HETATM   30  C14 UNL     1      11.923  57.758  42.189  1.00  0.00     0.112 C 
HETATM   31  C15 UNL     1      12.911  58.268  41.143  1.00  0.00     0.112 C 
HETATM   32  C16 UNL     1      12.428  59.696  41.036  1.00  0.00     0.226 C 
HETATM   33  O3  UNL     1      12.297  60.316  39.955  1.00  0.00    -0.273 OA
ENDBRANCH  26  27
ENDBRANCH  25  26
ENDBRANCH  22  25
ENDBRANCH  18  19
ENDBRANCH   1  18
TORSDOF 13
ENDMDL
MODEL 5
REMARK VINA RESULT: -8.181378077      2.920      8.538
REMARK  13 active torsions:
REMARK  status: ('A' for Active; 'I' for Inactive)
REMARK    1  A    between atoms: N3_4  and  C2_6 
REMARK    2  A    between atoms: C2_6  and  C3_7 
REMARK    3  A    between atoms: C3_7  and  C4_8 
REMARK    4  A    between atoms: C4_8  and  N4_9 
REMARK    5  A    between atoms: C5_11  and  C6_13 
REMARK    6  A    between atoms: C6_13  and  N6_14 
REMARK    7  A    between atoms: N6_14  and  C7_16 
REMARK    8  A    between atoms: C7_16  and  C8_17 
REMARK    9  A    between atoms: C8_17  and  C9_18 
REMARK   10  A    between atoms: C9_18  and  N7_19 
REMARK       I    between atoms: N7_19  and  C10_21 
REMARK       I    between atoms: C10_21  and  N8_23 
REMARK   11  A    between atoms: N8_23  and  C11_25 
REMARK   12  A    between atoms: C11_25  and  C12_26 
REMARK   13  A    between atoms: C12_26  and  N9_27 
ROOT
HETATM    1  C8  UNL     1      16.191  63.794  35.674  1.00  0.00     0.039 C 
ENDROOT
BRANCH   1   2
HETATM    2  C7  UNL     1      16.811  64.287  34.368  1.00  0.00     0.115 C 
BRANCH   2   3
HETATM    3  N6  UNL     1      15.966  65.277  33.808  1.00  0.00    -0.415 N 
ATOM      4  H6  UNL     1      14.992  65.070  33.585  1.00  0.00     0.153 HD
BRANCH   3   5
HETATM    5  C6  UNL     1      16.514  66.568  33.565  1.00  0.00     0.186 C 
BRANCH   5   6
HETATM    6  C5  UNL     1      15.849  67.638  34.329  1.00  0.00     0.106 C 
HETATM    7  N4  UNL     1      15.128  68.504  33.668  1.00  0.00    -0.381 N 
ATOM      8  H4  UNL     1      15.036  68.435  32.654  1.00  0.00     0.160 HD
HETATM    9  N5  UNL     1      15.943  67.780  35.735  1.00  0.00    -0.086 NA
BRANCH   7  10
HETATM   10  C4  UNL     1      14.470  69.548  34.391  1.00  0.00     0.122 C 
BRANCH  10  11
HETATM   11  C3  UNL     1      13.038  69.071  34.627  1.00  0.00     0.039 C 
BRANCH  11  12
HETATM   12  C2  UNL     1      12.653  69.470  36.036  1.00  0.00     0.123 C 
BRANCH  12  13
HETATM   13  N3  UNL     1      13.764  70.193  36.618  1.00  0.00    -0.367 N 
HETATM   14  C1  UNL     1      13.976  70.140  37.873  1.00  0.00     0.196 C 
HETATM   15  N1  UNL     1      13.130  69.378  38.704  1.00  0.00    -0.067 NA
HETATM   16  N2  UNL     1      15.061  70.845  38.438  1.00  0.00    -0.067 NA
ATOM     17  H3  UNL     1      14.379  70.747  36.021  1.00  0.00     0.161 HD
ENDBRANCH  12  13
ENDBRANCH  11  12
ENDBRANCH  10  11
ENDBRANCH   7  10
ENDBRANCH   5   6
ENDBRANCH   3   5
ENDBRANCH   2   3
ENDBRANCH   1   2
BRANCH   1  18
HETATM   18  C9  UNL     1      14.741  64.231  35.763  1.00  0.00     0.126 C 
BRANCH  18  19
HETATM   19  N7  UNL     1      14.550  65.275  36.725  1.00  0.00    -0.343 N 
HETATM   20  C10 UNL     1      13.988  65.076  38.009  1.00  0.00     0.316 C 
HETATM   21  O1  UNL     1      13.635  63.916  38.329  1.00  0.00    -0.247 OA
HETATM   22  N8  UNL     1      13.805  66.115  38.944  1.00  0.00    -0.342 N 
ATOM     23  H8  UNL     1      14.098  67.053  38.667  1.00  0.00     0.164 HD
ATOM     24  H7  UNL     1      14.835  66.220  36.469  1.00  0.00     0.164 HD
BRANCH  22  25
HETATM   25  C11 UNL     1      13.240  65.959  40.251  1.00  0.00     0.144 C 
BRANCH  25  26
HETATM   26  C12 UNL     1      14.191  65.623  41.320  1.00  0.00     0.154 C 
BRANCH  26  27
HETATM   27  N9  UNL     1      14.429  64.270  41.641  1.00  0.00    -0.287 N 
HETATM   28  C13 UNL     1      15.705  63.602  41.754  1.00  0.00     0.226 C 
HETATM   29  O2  UNL     1      16.767  64.206  41.488  1.00  0.00    -0.273 OA
HETATM   30  C14 UNL     1      15.441  62.213  42.203  1.00  0.00     0.112 C 
HETATM   31  C15 UNL     1      14.055  61.979  41.605  1.00  0.00     0.112 C 
HETATM   32  C16 UNL     1      13.424  63.312  41.939  1.00  0.00     0.226 C 
HETATM   33  O3  UNL     1      12.261  63.450  42.380  1.00  0.00    -0.273 OA
ENDBRANCH  26  27
ENDBRANCH  25  26
ENDBRANCH  22  25
ENDBRANCH  18  19
ENDBRANCH   1  18
TORSDOF 13
ENDMDL
