MODEL 1
REMARK VINA RESULT: -7.641373272      0.000      0.000
REMARK  7 active torsions:
REMARK  status: ('A' for Active; 'I' for Inactive)
REMARK    1  A    between atoms: C3_3  and  C4_4 
REMARK    2  A    between atoms: C5_5  and  C6_6 
REMARK    3  A    between atoms: C6_6  and  O2_8 
REMARK    4  A    between atoms: O2_8  and  C7_9 
REMARK    5  A    between atoms: C10_12  and  O3_13 
REMARK    6  A    between atoms: C11_16  and  O5_17 
REMARK    7  A    between atoms: C14_21  and  S1_23 
ROOT
HETATM    1  C7  UNL     1      -2.795 -18.507  -1.944  1.00  0.00     0.158 C 
HETATM    2  C8  UNL     1      -3.693 -18.531  -0.973  1.00  0.00     0.031 C 
HETATM    3  C9  UNL     1      -5.015 -19.134  -1.056  1.00  0.00     0.046 A 
HETATM    4  C10 UNL     1      -5.791 -20.054  -1.755  1.00  0.00     0.197 A 
HETATM    5  O4  UNL     1      -7.001 -20.065  -1.210  1.00  0.00    -0.264 OA
HETATM    6  C11 UNL     1      -7.037 -19.203  -0.204  1.00  0.00     0.193 A 
HETATM    7  C12 UNL     1      -5.806 -18.588  -0.064  1.00  0.00     0.020 A 
HETATM    8  C13 UNL     1      -5.012 -17.596   0.707  1.00  0.00     0.106 C 
HETATM    9  C14 UNL     1      -3.599 -17.975   0.401  1.00  0.00     0.199 C 
HETATM   10  F1  UNL     1      -2.725 -16.910   0.458  1.00  0.00    -0.224 F 
ENDROOT
BRANCH   1  11
HETATM   11  O2  UNL     1      -1.596 -17.886  -1.668  1.00  0.00    -0.287 OA
BRANCH  11  12
HETATM   12  C6  UNL     1      -1.155 -16.862  -2.549  1.00  0.00     0.287 C 
HETATM   13  O1  UNL     1      -0.789 -17.275  -3.659  1.00  0.00    -0.260 OA
BRANCH  12  14
HETATM   14  C5  UNL     1      -1.168 -15.486  -2.095  1.00  0.00     0.082 C 
HETATM   15  C4  UNL     1      -2.126 -14.663  -2.285  1.00  0.00     0.006 C 
BRANCH  15  16
HETATM   16  C3  UNL     1      -3.363 -14.892  -2.965  1.00  0.00    -0.004 C 
HETATM   17  C2  UNL     1      -4.475 -15.183  -2.244  1.00  0.00    -0.031 C 
HETATM   18  C1  UNL     1      -5.747 -15.417  -2.960  1.00  0.00     0.036 C 
ENDBRANCH  15  16
ENDBRANCH  12  14
ENDBRANCH  11  12
ENDBRANCH   1  11
BRANCH   9  19
HETATM   19  S1  UNL     1      -3.000 -19.330   1.471  1.00  0.00    -0.010 SA
HETATM   20 CL1  UNL     1      -3.058 -18.686   3.477  1.00  0.00    -0.040 Cl
ENDBRANCH   9  19
BRANCH   4  21
HETATM   21  O3  UNL     1      -5.341 -20.812  -2.832  1.00  0.00    -0.340 OA
ATOM     22  H3  UNL     1      -5.892 -21.122  -3.542  1.00  0.00     0.220 HD
ENDBRANCH   4  21
BRANCH   6  23
HETATM   23  O5  UNL     1      -8.159 -18.984   0.564  1.00  0.00    -0.340 OA
ATOM     24  H5  UNL     1      -8.400 -18.130   0.903  1.00  0.00     0.220 HD
ENDBRANCH   6  23
TORSDOF 7
ENDMDL
MODEL 2
REMARK VINA RESULT: -7.417040210      3.167      4.368
REMARK  7 active torsions:
REMARK  status: ('A' for Active; 'I' for Inactive)
REMARK    1  A    between atoms: C3_3  and  C4_4 
REMARK    2  A    between atoms: C5_5  and  C6_6 
REMARK    3  A    between atoms: C6_6  and  O2_8 
REMARK    4  A    between atoms: O2_8  and  C7_9 
REMARK    5  A    between atoms: C10_12  and  O3_13 
REMARK    6  A    between atoms: C11_16  and  O5_17 
REMARK    7  A    between atoms: C14_21  and  S1_23 
ROOT
HETATM    1  C7  UNL     1      -3.742 -17.922  -2.092  1.00  0.00     0.158 C 
HETATM    2  C8  UNL     1      -3.644 -17.554  -0.825  1.00  0.00     0.031 C 
HETATM    3  C9  UNL     1      -3.333 -18.435   0.292  1.00  0.00     0.046 A 
HETATM    4  C10 UNL     1      -2.772 -19.661   0.636  1.00  0.00     0.197 A 
HETATM    5  O4  UNL     1      -2.849 -19.789   1.954  1.00  0.00    -0.264 OA
HETATM    6  C11 UNL     1      -3.428 -18.713   2.467  1.00  0.00     0.193 A 
HETATM    7  C12 UNL     1      -3.753 -17.825   1.457  1.00  0.00     0.020 A 
HETATM    8  C13 UNL     1      -4.361 -16.508   1.132  1.00  0.00     0.106 C 
HETATM    9  C14 UNL     1      -3.817 -16.205  -0.226  1.00  0.00     0.199 C 
HETATM   10  F1  UNL     1      -4.657 -15.418  -0.986  1.00  0.00    -0.224 F 
ENDROOT
BRANCH   1  11
HETATM   11  O2  UNL     1      -4.046 -16.935  -3.005  1.00  0.00    -0.287 OA
BRANCH  11  12
HETATM   12  C6  UNL     1      -5.295 -17.007  -3.677  1.00  0.00     0.287 C 
HETATM   13  O1  UNL     1      -5.895 -15.925  -3.744  1.00  0.00    -0.260 OA
BRANCH  12  14
HETATM   14  C5  UNL     1      -5.741 -18.281  -4.202  1.00  0.00     0.082 C 
HETATM   15  C4  UNL     1      -6.469 -19.119  -3.570  1.00  0.00     0.006 C 
BRANCH  15  16
HETATM   16  C3  UNL     1      -6.997 -19.003  -2.245  1.00  0.00    -0.004 C 
HETATM   17  C2  UNL     1      -6.516 -19.806  -1.264  1.00  0.00    -0.031 C 
HETATM   18  C1  UNL     1      -7.071 -19.675   0.100  1.00  0.00     0.036 C 
ENDBRANCH  15  16
ENDBRANCH  12  14
ENDBRANCH  11  12
ENDBRANCH   1  11
BRANCH   9  19
HETATM   19  S1  UNL     1      -2.154 -15.452  -0.152  1.00  0.00    -0.010 SA
HETATM   20 CL1  UNL     1      -1.663 -14.703  -2.060  1.00  0.00    -0.040 Cl
ENDBRANCH   9  19
BRANCH   4  21
HETATM   21  O3  UNL     1      -2.234 -20.567  -0.272  1.00  0.00    -0.340 OA
ATOM     22  H3  UNL     1      -1.793 -20.327  -1.080  1.00  0.00     0.220 HD
ENDBRANCH   4  21
BRANCH   6  23
HETATM   23  O5  UNL     1      -3.653 -18.545   3.815  1.00  0.00    -0.340 OA
ATOM     24  H5  UNL     1      -4.344 -17.995   4.164  1.00  0.00     0.220 HD
ENDBRANCH   6  23
TORSDOF 7
ENDMDL
MODEL 3
REMARK VINA RESULT: -7.379486809      2.689      5.722
REMARK  7 active torsions:
REMARK  status: ('A' for Active; 'I' for Inactive)
REMARK    1  A    between atoms: C3_3  and  C4_4 
REMARK    2  A    between atoms: C5_5  and  C6_6 
REMARK    3  A    between atoms: C6_6  and  O2_8 
REMARK    4  A    between atoms: O2_8  and  C7_9 
REMARK    5  A    between atoms: C10_12  and  O3_13 
REMARK    6  A    between atoms: C11_16  and  O5_17 
REMARK    7  A    between atoms: C14_21  and  S1_23 
ROOT
HETATM    1  C7  UNL     1      -4.563 -17.293  -3.558  1.00  0.00     0.158 C 
HETATM    2  C8  UNL     1      -3.711 -16.564  -2.856  1.00  0.00     0.031 C 
HETATM    3  C9  UNL     1      -3.571 -15.117  -2.931  1.00  0.00     0.046 A 
HETATM    4  C10 UNL     1      -4.210 -13.943  -3.318  1.00  0.00     0.197 A 
HETATM    5  O4  UNL     1      -3.392 -12.930  -3.059  1.00  0.00    -0.264 OA
HETATM    6  C11 UNL     1      -2.270 -13.395  -2.530  1.00  0.00     0.193 A 
HETATM    7  C12 UNL     1      -2.332 -14.773  -2.427  1.00  0.00     0.020 A 
HETATM    8  C13 UNL     1      -1.615 -16.004  -2.002  1.00  0.00     0.106 C 
HETATM    9  C14 UNL     1      -2.713 -17.005  -1.847  1.00  0.00     0.199 C 
HETATM   10  F1  UNL     1      -2.304 -18.302  -2.073  1.00  0.00    -0.224 F 
ENDROOT
BRANCH   1  11
HETATM   11  O2  UNL     1      -4.543 -18.654  -3.343  1.00  0.00    -0.287 OA
BRANCH  11  12
HETATM   12  C6  UNL     1      -5.548 -19.444  -3.962  1.00  0.00     0.287 C 
HETATM   13  O1  UNL     1      -6.023 -18.941  -4.990  1.00  0.00    -0.260 OA
BRANCH  12  14
HETATM   14  C5  UNL     1      -5.916 -20.712  -3.366  1.00  0.00     0.082 C 
HETATM   15  C4  UNL     1      -6.476 -20.849  -2.226  1.00  0.00     0.006 C 
BRANCH  15  16
HETATM   16  C3  UNL     1      -6.859 -19.825  -1.304  1.00  0.00    -0.004 C 
HETATM   17  C2  UNL     1      -6.204 -19.714  -0.122  1.00  0.00    -0.031 C 
HETATM   18  C1  UNL     1      -6.611 -18.651   0.821  1.00  0.00     0.036 C 
ENDBRANCH  15  16
ENDBRANCH  12  14
ENDBRANCH  11  12
ENDBRANCH   1  11
BRANCH   9  19
HETATM   19  S1  UNL     1      -3.532 -16.885  -0.218  1.00  0.00    -0.010 SA
HETATM   20 CL1  UNL     1      -2.339 -15.701   1.054  1.00  0.00    -0.040 Cl
ENDBRANCH   9  19
BRANCH   4  21
HETATM   21  O3  UNL     1      -5.484 -13.881  -3.874  1.00  0.00    -0.340 OA
ATOM     22  H3  UNL     1      -6.029 -13.103  -3.891  1.00  0.00     0.220 HD
ENDBRANCH   4  21
BRANCH   6  23
HETATM   23  O5  UNL     1      -1.221 -12.587  -2.153  1.00  0.00    -0.340 OA
ATOM     24  H5  UNL     1      -0.557 -12.853  -1.527  1.00  0.00     0.220 HD
ENDBRANCH   6  23
TORSDOF 7
ENDMDL
MODEL 4
REMARK VINA RESULT: -7.359501914      3.347      4.155
REMARK  7 active torsions:
REMARK  status: ('A' for Active; 'I' for Inactive)
REMARK    1  A    between atoms: C3_3  and  C4_4 
REMARK    2  A    between atoms: C5_5  and  C6_6 
REMARK    3  A    between atoms: C6_6  and  O2_8 
REMARK    4  A    between atoms: O2_8  and  C7_9 
REMARK    5  A    between atoms: C10_12  and  O3_13 
REMARK    6  A    between atoms: C11_16  and  O5_17 
REMARK    7  A    between atoms: C14_21  and  S1_23 
ROOT
HETATM    1  C7  UNL     1      -4.725 -17.566  -1.608  1.00  0.00     0.158 C 
HETATM    2  C8  UNL     1      -4.168 -17.275  -0.444  1.00  0.00     0.031 C 
HETATM    3  C9  UNL     1      -3.743 -18.243   0.557  1.00  0.00     0.046 A 
HETATM    4  C10 UNL     1      -3.397 -19.576   0.759  1.00  0.00     0.197 A 
HETATM    5  O4  UNL     1      -3.099 -19.730   2.043  1.00  0.00    -0.264 OA
HETATM    6  C11 UNL     1      -3.236 -18.569   2.667  1.00  0.00     0.193 A 
HETATM    7  C12 UNL     1      -3.641 -17.595   1.773  1.00  0.00     0.020 A 
HETATM    8  C13 UNL     1      -4.004 -16.165   1.600  1.00  0.00     0.106 C 
HETATM    9  C14 UNL     1      -3.843 -15.945   0.130  1.00  0.00     0.199 C 
HETATM   10  F1  UNL     1      -4.671 -14.961  -0.368  1.00  0.00    -0.224 F 
ENDROOT
BRANCH   1  11
HETATM   11  O2  UNL     1      -5.059 -16.504  -2.421  1.00  0.00    -0.287 OA
BRANCH  11  12
HETATM   12  C6  UNL     1      -5.784 -16.775  -3.613  1.00  0.00     0.287 C 
HETATM   13  O1  UNL     1      -5.176 -17.492  -4.421  1.00  0.00    -0.260 OA
BRANCH  12  14
HETATM   14  C5  UNL     1      -7.110 -16.216  -3.774  1.00  0.00     0.082 C 
HETATM   15  C4  UNL     1      -7.381 -14.967  -3.787  1.00  0.00     0.006 C 
BRANCH  15  16
HETATM   16  C3  UNL     1      -6.475 -13.868  -3.651  1.00  0.00    -0.004 C 
HETATM   17  C2  UNL     1      -6.897 -12.728  -3.050  1.00  0.00    -0.031 C 
HETATM   18  C1  UNL     1      -5.950 -11.601  -2.916  1.00  0.00     0.036 C 
ENDBRANCH  15  16
ENDBRANCH  12  14
ENDBRANCH  11  12
ENDBRANCH   1  11
BRANCH   9  19
HETATM   19  S1  UNL     1      -2.109 -15.591  -0.328  1.00  0.00    -0.010 SA
HETATM   20 CL1  UNL     1      -2.095 -14.481  -2.119  1.00  0.00    -0.040 Cl
ENDBRANCH   9  19
BRANCH   4  21
HETATM   21  O3  UNL     1      -3.378 -20.548  -0.237  1.00  0.00    -0.340 OA
ATOM     22  H3  UNL     1      -2.598 -20.833  -0.699  1.00  0.00     0.220 HD
ENDBRANCH   4  21
BRANCH   6  23
HETATM   23  O5  UNL     1      -2.999 -18.403   4.014  1.00  0.00    -0.340 OA
ATOM     24  H5  UNL     1      -2.166 -18.109   4.364  1.00  0.00     0.220 HD
ENDBRANCH   6  23
TORSDOF 7
ENDMDL
MODEL 5
REMARK VINA RESULT: -7.291779581      3.599      4.573
REMARK  7 active torsions:
REMARK  status: ('A' for Active; 'I' for Inactive)
REMARK    1  A    between atoms: C3_3  and  C4_4 
REMARK    2  A    between atoms: C5_5  and  C6_6 
REMARK    3  A    between atoms: C6_6  and  O2_8 
REMARK    4  A    between atoms: O2_8  and  C7_9 
REMARK    5  A    between atoms: C10_12  and  O3_13 
REMARK    6  A    between atoms: C11_16  and  O5_17 
REMARK    7  A    between atoms: C14_21  and  S1_23 
ROOT
HETATM    1  C7  UNL     1      -4.195 -17.797  -1.875  1.00  0.00     0.158 C 
HETATM    2  C8  UNL     1      -3.883 -17.454  -0.636  1.00  0.00     0.031 C 
HETATM    3  C9  UNL     1      -3.474 -18.369   0.420  1.00  0.00     0.046 A 
HETATM    4  C10 UNL     1      -2.958 -19.636   0.673  1.00  0.00     0.197 A 
HETATM    5  O4  UNL     1      -2.848 -19.775   1.988  1.00  0.00    -0.264 OA
HETATM    6  C11 UNL     1      -3.264 -18.667   2.584  1.00  0.00     0.193 A 
HETATM    7  C12 UNL     1      -3.671 -17.746   1.636  1.00  0.00     0.020 A 
HETATM    8  C13 UNL     1      -4.224 -16.385   1.408  1.00  0.00     0.106 C 
HETATM    9  C14 UNL     1      -3.868 -16.104  -0.016  1.00  0.00     0.199 C 
HETATM   10  F1  UNL     1      -4.752 -15.249  -0.641  1.00  0.00    -0.224 F 
ENDROOT
BRANCH   1  11
HETATM   11  O2  UNL     1      -4.559 -16.780  -2.731  1.00  0.00    -0.287 OA
BRANCH  11  12
HETATM   12  C6  UNL     1      -5.896 -16.755  -3.211  1.00  0.00     0.287 C 
HETATM   13  O1  UNL     1      -6.221 -15.685  -3.745  1.00  0.00    -0.260 OA
BRANCH  12  14
HETATM   14  C5  UNL     1      -6.728 -17.929  -3.041  1.00  0.00     0.082 C 
HETATM   15  C4  UNL     1      -7.154 -18.668  -3.992  1.00  0.00     0.006 C 
BRANCH  15  16
HETATM   16  C3  UNL     1      -6.920 -18.518  -5.396  1.00  0.00    -0.004 C 
HETATM   17  C2  UNL     1      -7.921 -18.067  -6.193  1.00  0.00    -0.031 C 
HETATM   18  C1  UNL     1      -7.665 -17.917  -7.641  1.00  0.00     0.036 C 
ENDBRANCH  15  16
ENDBRANCH  12  14
ENDBRANCH  11  12
ENDBRANCH   1  11
BRANCH   9  19
HETATM   19  S1  UNL     1      -2.162 -15.472  -0.189  1.00  0.00    -0.010 SA
HETATM   20 CL1  UNL     1      -2.044 -14.313  -1.945  1.00  0.00    -0.040 Cl
ENDBRANCH   9  19
BRANCH   4  21
HETATM   21  O3  UNL     1      -2.628 -20.567  -0.307  1.00  0.00    -0.340 OA
ATOM     22  H3  UNL     1      -3.240 -20.927  -0.939  1.00  0.00     0.220 HD
ENDBRANCH   4  21
BRANCH   6  23
HETATM   23  O5  UNL     1      -3.273 -18.501   3.951  1.00  0.00    -0.340 OA
ATOM     24  H5  UNL     1      -3.742 -17.800   4.388  1.00  0.00     0.220 HD
ENDBRANCH   6  23
TORSDOF 7
ENDMDL
