MODEL 1
REMARK VINA RESULT: -7.389905868      0.000      0.000
REMARK  6 active torsions:
REMARK  status: ('A' for Active; 'I' for Inactive)
REMARK    1  A    between atoms: C2_3  and  O1_4 
REMARK    2  A    between atoms: C3_6  and  C4_7 
REMARK    3  A    between atoms: C4_7  and  C5_8 
REMARK    4  A    between atoms: C5_8  and  N2_9 
REMARK    5  A    between atoms: C6_12  and  C7_13 
REMARK    6  A    between atoms: C9_17  and  O2_18 
ROOT
HETATM    1  N2  UNL     1      -5.728 -19.766  -0.473  1.00  0.00    -0.269 N 
HETATM    2  N3  UNL     1      -5.970 -18.711   0.281  1.00  0.00    -0.293 N 
ATOM      3  H3  UNL     1      -6.810 -18.161   0.463  1.00  0.00     0.187 HD
HETATM    4  C6  UNL     1      -4.717 -18.627   0.715  1.00  0.00     0.116 A 
HETATM    5  C9  UNL     1      -4.434 -19.723  -0.060  1.00  0.00     0.185 A 
ENDROOT
BRANCH   1   6
HETATM    6  C5  UNL     1      -6.460 -20.617  -1.354  1.00  0.00     0.156 C 
BRANCH   6   7
HETATM    7  C4  UNL     1      -6.186 -20.539  -2.798  1.00  0.00     0.072 C 
BRANCH   7   8
HETATM    8  C3  UNL     1      -7.030 -19.586  -3.568  1.00  0.00     0.038 A 
HETATM    9  C2  UNL     1      -7.037 -18.212  -3.589  1.00  0.00     0.157 A 
HETATM   10  N1  UNL     1      -7.867 -17.615  -4.395  1.00  0.00    -0.317 N 
HETATM   11  C1  UNL     1      -7.943 -16.131  -4.491  1.00  0.00     0.160 C 
HETATM   12  C10 UNL     1      -8.670 -18.354  -5.158  1.00  0.00     0.147 A 
HETATM   13  S1  UNL     1      -8.256 -19.946  -4.741  1.00  0.00    -0.060 SA
HETATM   14  S2  UNL     1      -9.805 -17.849  -6.253  1.00  0.00    -0.052 SA
BRANCH   9  15
HETATM   15  O1  UNL     1      -6.134 -17.518  -2.719  1.00  0.00    -0.345 OA
ATOM     16  H1  UNL     1      -5.195 -17.477  -2.859  1.00  0.00     0.219 HD
ENDBRANCH   9  15
ENDBRANCH   7   8
ENDBRANCH   6   7
ENDBRANCH   1   6
BRANCH   5  17
HETATM   17  O2  UNL     1      -3.290 -20.479  -0.316  1.00  0.00    -0.344 OA
ATOM     18  H2  UNL     1      -2.691 -20.564  -1.047  1.00  0.00     0.219 HD
ENDBRANCH   5  17
BRANCH   4  19
HETATM   19  C7  UNL     1      -3.926 -17.742   1.639  1.00  0.00     0.157 C 
HETATM   20  C8  UNL     1      -3.353 -18.599   2.734  1.00  0.00     0.057 C 
HETATM   21 CL1  UNL     1      -2.671 -16.964   0.658  1.00  0.00    -0.095 Cl
HETATM   22 CL2  UNL     1      -5.048 -16.543   2.304  1.00  0.00    -0.095 Cl
ENDBRANCH   4  19
TORSDOF 6
ENDMDL
MODEL 2
REMARK VINA RESULT: -7.346718774      0.757      1.119
REMARK  6 active torsions:
REMARK  status: ('A' for Active; 'I' for Inactive)
REMARK    1  A    between atoms: C2_3  and  O1_4 
REMARK    2  A    between atoms: C3_6  and  C4_7 
REMARK    3  A    between atoms: C4_7  and  C5_8 
REMARK    4  A    between atoms: C5_8  and  N2_9 
REMARK    5  A    between atoms: C6_12  and  C7_13 
REMARK    6  A    between atoms: C9_17  and  O2_18 
ROOT
HETATM    1  N2  UNL     1      -5.736 -19.744  -0.524  1.00  0.00    -0.269 N 
HETATM    2  N3  UNL     1      -5.979 -18.678   0.213  1.00  0.00    -0.293 N 
ATOM      3  H3  UNL     1      -6.814 -18.113   0.369  1.00  0.00     0.187 HD
HETATM    4  C6  UNL     1      -4.736 -18.609   0.677  1.00  0.00     0.116 A 
HETATM    5  C9  UNL     1      -4.452 -19.717  -0.079  1.00  0.00     0.185 A 
ENDROOT
BRANCH   1   6
HETATM    6  C5  UNL     1      -6.459 -20.593  -1.415  1.00  0.00     0.156 C 
BRANCH   6   7
HETATM    7  C4  UNL     1      -6.176 -20.506  -2.856  1.00  0.00     0.072 C 
BRANCH   7   8
HETATM    8  C3  UNL     1      -7.034 -19.572  -3.631  1.00  0.00     0.038 A 
HETATM    9  C2  UNL     1      -7.071 -18.198  -3.652  1.00  0.00     0.157 A 
HETATM   10  N1  UNL     1      -7.908 -17.618  -4.463  1.00  0.00    -0.317 N 
HETATM   11  C1  UNL     1      -8.015 -16.136  -4.558  1.00  0.00     0.160 C 
HETATM   12  C10 UNL     1      -8.689 -18.373  -5.232  1.00  0.00     0.147 A 
HETATM   13  S1  UNL     1      -8.244 -19.957  -4.813  1.00  0.00    -0.060 SA
HETATM   14  S2  UNL     1      -9.827 -17.892  -6.335  1.00  0.00    -0.052 SA
BRANCH   9  15
HETATM   15  O1  UNL     1      -6.189 -17.485  -2.775  1.00  0.00    -0.345 OA
ATOM     16  H1  UNL     1      -6.324 -17.410  -1.838  1.00  0.00     0.219 HD
ENDBRANCH   9  15
ENDBRANCH   7   8
ENDBRANCH   6   7
ENDBRANCH   1   6
BRANCH   5  17
HETATM   17  O2  UNL     1      -3.314 -20.494  -0.298  1.00  0.00    -0.344 OA
ATOM     18  H2  UNL     1      -2.972 -21.302   0.065  1.00  0.00     0.219 HD
ENDBRANCH   5  17
BRANCH   4  19
HETATM   19  C7  UNL     1      -3.954 -17.727   1.612  1.00  0.00     0.157 C 
HETATM   20  C8  UNL     1      -2.879 -17.038   0.818  1.00  0.00     0.057 C 
HETATM   21 CL1  UNL     1      -5.107 -16.585   2.327  1.00  0.00    -0.095 Cl
HETATM   22 CL2  UNL     1      -3.245 -18.775   2.851  1.00  0.00    -0.095 Cl
ENDBRANCH   4  19
TORSDOF 6
ENDMDL
MODEL 3
REMARK VINA RESULT: -7.083906578      1.178      1.244
REMARK  6 active torsions:
REMARK  status: ('A' for Active; 'I' for Inactive)
REMARK    1  A    between atoms: C2_3  and  O1_4 
REMARK    2  A    between atoms: C3_6  and  C4_7 
REMARK    3  A    between atoms: C4_7  and  C5_8 
REMARK    4  A    between atoms: C5_8  and  N2_9 
REMARK    5  A    between atoms: C6_12  and  C7_13 
REMARK    6  A    between atoms: C9_17  and  O2_18 
ROOT
HETATM    1  N2  UNL     1      -5.645 -20.150  -0.979  1.00  0.00    -0.269 N 
HETATM    2  N3  UNL     1      -4.382 -19.778  -0.898  1.00  0.00    -0.293 N 
ATOM      3  H3  UNL     1      -3.565 -19.949  -1.484  1.00  0.00     0.187 HD
HETATM    4  C6  UNL     1      -4.565 -19.098   0.229  1.00  0.00     0.116 A 
HETATM    5  C9  UNL     1      -5.884 -19.470   0.173  1.00  0.00     0.185 A 
ENDROOT
BRANCH   1   6
HETATM    6  C5  UNL     1      -6.458 -20.925  -1.860  1.00  0.00     0.156 C 
BRANCH   6   7
HETATM    7  C4  UNL     1      -6.250 -20.790  -3.310  1.00  0.00     0.072 C 
BRANCH   7   8
HETATM    8  C3  UNL     1      -7.113 -19.794  -4.000  1.00  0.00     0.038 A 
HETATM    9  C2  UNL     1      -7.123 -18.421  -3.936  1.00  0.00     0.157 A 
HETATM   10  N1  UNL     1      -7.972 -17.778  -4.684  1.00  0.00    -0.317 N 
HETATM   11  C1  UNL     1      -8.053 -16.291  -4.686  1.00  0.00     0.160 C 
HETATM   12  C10 UNL     1      -8.792 -18.471  -5.472  1.00  0.00     0.147 A 
HETATM   13  S1  UNL     1      -8.366 -20.084  -5.164  1.00  0.00    -0.060 SA
HETATM   14  S2  UNL     1      -9.953 -17.902  -6.507  1.00  0.00    -0.052 SA
BRANCH   9  15
HETATM   15  O1  UNL     1      -6.200 -17.779  -3.047  1.00  0.00    -0.345 OA
ATOM     16  H1  UNL     1      -6.428 -17.483  -2.174  1.00  0.00     0.219 HD
ENDBRANCH   9  15
ENDBRANCH   7   8
ENDBRANCH   6   7
ENDBRANCH   1   6
BRANCH   5  17
HETATM   17  O2  UNL     1      -7.006 -19.242   0.971  1.00  0.00    -0.344 OA
ATOM     18  H2  UNL     1      -7.774 -19.746   1.209  1.00  0.00     0.219 HD
ENDBRANCH   5  17
BRANCH   4  19
HETATM   19  C7  UNL     1      -3.727 -18.278   1.173  1.00  0.00     0.157 C 
HETATM   20  C8  UNL     1      -3.028 -19.218   2.116  1.00  0.00     0.057 C 
HETATM   21 CL1  UNL     1      -2.595 -17.346   0.177  1.00  0.00    -0.095 Cl
HETATM   22 CL2  UNL     1      -4.828 -17.208   2.055  1.00  0.00    -0.095 Cl
ENDBRANCH   4  19
TORSDOF 6
ENDMDL
MODEL 4
REMARK VINA RESULT: -7.082165620      1.712      1.808
REMARK  6 active torsions:
REMARK  status: ('A' for Active; 'I' for Inactive)
REMARK    1  A    between atoms: C2_3  and  O1_4 
REMARK    2  A    between atoms: C3_6  and  C4_7 
REMARK    3  A    between atoms: C4_7  and  C5_8 
REMARK    4  A    between atoms: C5_8  and  N2_9 
REMARK    5  A    between atoms: C6_12  and  C7_13 
REMARK    6  A    between atoms: C9_17  and  O2_18 
ROOT
HETATM    1  N2  UNL     1      -5.691 -19.754  -0.427  1.00  0.00    -0.269 N 
HETATM    2  N3  UNL     1      -5.953 -18.794   0.439  1.00  0.00    -0.293 N 
ATOM      3  H3  UNL     1      -6.813 -18.324   0.720  1.00  0.00     0.187 HD
HETATM    4  C6  UNL     1      -4.684 -18.665   0.810  1.00  0.00     0.116 A 
HETATM    5  C9  UNL     1      -4.380 -19.661  -0.083  1.00  0.00     0.185 A 
ENDROOT
BRANCH   1   6
HETATM    6  C5  UNL     1      -6.420 -20.568  -1.346  1.00  0.00     0.156 C 
BRANCH   6   7
HETATM    7  C4  UNL     1      -6.269 -20.310  -2.787  1.00  0.00     0.072 C 
BRANCH   7   8
HETATM    8  C3  UNL     1      -6.735 -18.980  -3.261  1.00  0.00     0.038 A 
HETATM    9  C2  UNL     1      -7.842 -18.629  -3.996  1.00  0.00     0.157 A 
HETATM   10  N1  UNL     1      -8.037 -17.367  -4.247  1.00  0.00    -0.317 N 
HETATM   11  C1  UNL     1      -9.210 -16.891  -5.031  1.00  0.00     0.160 C 
HETATM   12  C10 UNL     1      -7.162 -16.475  -3.788  1.00  0.00     0.147 A 
HETATM   13  S1  UNL     1      -6.019 -17.427  -2.971  1.00  0.00    -0.060 SA
HETATM   14  S2  UNL     1      -7.176 -14.829  -3.968  1.00  0.00    -0.052 SA
BRANCH   9  15
HETATM   15  O1  UNL     1      -8.714 -19.674  -4.446  1.00  0.00    -0.345 OA
ATOM     16  H1  UNL     1      -8.746 -20.539  -4.054  1.00  0.00     0.219 HD
ENDBRANCH   9  15
ENDBRANCH   7   8
ENDBRANCH   6   7
ENDBRANCH   1   6
BRANCH   5  17
HETATM   17  O2  UNL     1      -3.208 -20.309  -0.474  1.00  0.00    -0.344 OA
ATOM     18  H2  UNL     1      -2.290 -20.238  -0.239  1.00  0.00     0.219 HD
ENDBRANCH   5  17
BRANCH   4  19
HETATM   19  C7  UNL     1      -3.895 -17.819   1.772  1.00  0.00     0.157 C 
HETATM   20  C8  UNL     1      -3.297 -18.724   2.813  1.00  0.00     0.057 C 
HETATM   21 CL1  UNL     1      -2.663 -16.970   0.821  1.00  0.00    -0.095 Cl
HETATM   22 CL2  UNL     1      -5.028 -16.675   2.511  1.00  0.00    -0.095 Cl
ENDBRANCH   4  19
TORSDOF 6
ENDMDL
MODEL 5
REMARK VINA RESULT: -7.068320868      1.873      2.110
REMARK  6 active torsions:
REMARK  status: ('A' for Active; 'I' for Inactive)
REMARK    1  A    between atoms: C2_3  and  O1_4 
REMARK    2  A    between atoms: C3_6  and  C4_7 
REMARK    3  A    between atoms: C4_7  and  C5_8 
REMARK    4  A    between atoms: C5_8  and  N2_9 
REMARK    5  A    between atoms: C6_12  and  C7_13 
REMARK    6  A    between atoms: C9_17  and  O2_18 
ROOT
HETATM    1  N2  UNL     1      -5.702 -19.806  -0.465  1.00  0.00    -0.269 N 
HETATM    2  N3  UNL     1      -5.950 -18.848   0.407  1.00  0.00    -0.293 N 
ATOM      3  H3  UNL     1      -6.805 -18.376   0.701  1.00  0.00     0.187 HD
HETATM    4  C6  UNL     1      -4.676 -18.723   0.762  1.00  0.00     0.116 A 
HETATM    5  C9  UNL     1      -4.386 -19.717  -0.137  1.00  0.00     0.185 A 
ENDROOT
BRANCH   1   6
HETATM    6  C5  UNL     1      -6.444 -20.614  -1.377  1.00  0.00     0.156 C 
BRANCH   6   7
HETATM    7  C4  UNL     1      -6.304 -20.359  -2.820  1.00  0.00     0.072 C 
BRANCH   7   8
HETATM    8  C3  UNL     1      -6.755 -19.022  -3.289  1.00  0.00     0.038 A 
HETATM    9  C2  UNL     1      -7.859 -18.655  -4.021  1.00  0.00     0.157 A 
HETATM   10  N1  UNL     1      -8.040 -17.390  -4.268  1.00  0.00    -0.317 N 
HETATM   11  C1  UNL     1      -9.209 -16.898  -5.048  1.00  0.00     0.160 C 
HETATM   12  C10 UNL     1      -7.154 -16.510  -3.808  1.00  0.00     0.147 A 
HETATM   13  S1  UNL     1      -6.020 -17.478  -2.996  1.00  0.00    -0.060 SA
HETATM   14  S2  UNL     1      -7.148 -14.863  -3.983  1.00  0.00    -0.052 SA
BRANCH   9  15
HETATM   15  O1  UNL     1      -8.745 -19.689  -4.472  1.00  0.00    -0.345 OA
ATOM     16  H1  UNL     1      -8.593 -20.615  -4.323  1.00  0.00     0.219 HD
ENDBRANCH   9  15
ENDBRANCH   7   8
ENDBRANCH   6   7
ENDBRANCH   1   6
BRANCH   5  17
HETATM   17  O2  UNL     1      -3.221 -20.367  -0.545  1.00  0.00    -0.344 OA
ATOM     18  H2  UNL     1      -3.018 -21.057  -1.166  1.00  0.00     0.219 HD
ENDBRANCH   5  17
BRANCH   4  19
HETATM   19  C7  UNL     1      -3.873 -17.882   1.717  1.00  0.00     0.157 C 
HETATM   20  C8  UNL     1      -4.802 -16.893   2.366  1.00  0.00     0.057 C 
HETATM   21 CL1  UNL     1      -3.136 -18.991   2.887  1.00  0.00    -0.095 Cl
HETATM   22 CL2  UNL     1      -2.634 -17.047   0.765  1.00  0.00    -0.095 Cl
ENDBRANCH   4  19
TORSDOF 6
ENDMDL
