MODEL 1
REMARK VINA RESULT: -6.804924351      0.000      0.000
REMARK  7 active torsions:
REMARK  status: ('A' for Active; 'I' for Inactive)
REMARK    1  A    between atoms: S1_2  and  C2_3 
REMARK    2  A    between atoms: C3_5  and  C4_6 
REMARK    3  A    between atoms: C6_10  and  C7_11 
REMARK    4  A    between atoms: C7_11  and  O1_12 
REMARK    5  A    between atoms: C7_11  and  N1_14 
REMARK    6  A    between atoms: N1_14  and  O2_16 
REMARK    7  A    between atoms: C8_18  and  N2_19 
ROOT
HETATM    1  C2  UNL     1      -5.330 -18.036  -3.254  1.00  0.00     0.075 A 
HETATM    2  S2  UNL     1      -4.339 -16.761  -2.772  1.00  0.00    -0.080 SA
HETATM    3  C3  UNL     1      -3.921 -17.326  -1.186  1.00  0.00     0.051 A 
HETATM    4  C6  UNL     1      -4.587 -18.509  -1.094  1.00  0.00     0.069 A 
HETATM    5  C8  UNL     1      -5.329 -18.883  -2.185  1.00  0.00     0.142 A 
ENDROOT
BRANCH   4   6
HETATM    6  C7  UNL     1      -4.531 -19.334   0.151  1.00  0.00     0.174 C 
BRANCH   6   7
HETATM    7  O1  UNL     1      -5.239 -19.071   1.266  1.00  0.00    -0.344 OA
ATOM      8  H1  UNL     1      -4.899 -18.596   2.015  1.00  0.00     0.219 HD
ENDBRANCH   6   7
BRANCH   6   9
HETATM    9  N1  UNL     1      -3.744 -20.389   0.187  1.00  0.00    -0.247 N 
ATOM     10  H1  UNL     1      -4.043 -21.212   0.709  1.00  0.00     0.196 HD
BRANCH   9  11
HETATM   11  O2  UNL     1      -2.535 -20.414  -0.456  1.00  0.00    -0.288 OA
ATOM     12  H2  UNL     1      -2.406 -20.895  -1.264  1.00  0.00     0.244 HD
ENDBRANCH   9  11
ENDBRANCH   6   9
ENDBRANCH   4   6
BRANCH   3  13
HETATM   13  C4  UNL     1      -3.007 -16.588  -0.244  1.00  0.00     0.191 C 
HETATM   14  C5  UNL     1      -3.909 -15.640   0.600  1.00  0.00     0.071 C 
HETATM   15  F1  UNL     1      -2.309 -17.381   0.598  1.00  0.00    -0.225 F 
HETATM   16 BR1  UNL     1      -1.820 -15.462  -1.277  1.00  0.00    -0.043 Br
ENDBRANCH   3  13
BRANCH   5  17
HETATM   17  N2  UNL     1      -6.085 -20.137  -2.269  1.00  0.00    -0.113 N 
HETATM   18  O3  UNL     1      -7.183 -20.207  -1.706  1.00  0.00    -0.532 OA
HETATM   19  O4  UNL     1      -5.620 -21.228  -2.940  1.00  0.00    -0.532 OA
ENDBRANCH   5  17
BRANCH   1  20
HETATM   20  S1  UNL     1      -6.207 -18.283  -4.830  1.00  0.00    -0.125 SA
HETATM   21  C1  UNL     1      -7.946 -17.801  -4.629  1.00  0.00     0.096 C 
ENDBRANCH   1  20
TORSDOF 7
ENDMDL
MODEL 2
REMARK VINA RESULT: -6.685541031      0.708      1.308
REMARK  7 active torsions:
REMARK  status: ('A' for Active; 'I' for Inactive)
REMARK    1  A    between atoms: S1_2  and  C2_3 
REMARK    2  A    between atoms: C3_5  and  C4_6 
REMARK    3  A    between atoms: C6_10  and  C7_11 
REMARK    4  A    between atoms: C7_11  and  O1_12 
REMARK    5  A    between atoms: C7_11  and  N1_14 
REMARK    6  A    between atoms: N1_14  and  O2_16 
REMARK    7  A    between atoms: C8_18  and  N2_19 
ROOT
HETATM    1  C2  UNL     1      -5.406 -18.034  -3.585  1.00  0.00     0.075 A 
HETATM    2  S2  UNL     1      -4.361 -16.775  -3.179  1.00  0.00    -0.080 SA
HETATM    3  C3  UNL     1      -3.789 -17.376  -1.656  1.00  0.00     0.051 A 
HETATM    4  C6  UNL     1      -4.451 -18.557  -1.522  1.00  0.00     0.069 A 
HETATM    5  C8  UNL     1      -5.303 -18.904  -2.539  1.00  0.00     0.142 A 
ENDROOT
BRANCH   4   6
HETATM    6  C7  UNL     1      -4.275 -19.409  -0.306  1.00  0.00     0.174 C 
BRANCH   6   7
HETATM    7  O1  UNL     1      -3.412 -20.440  -0.222  1.00  0.00    -0.344 OA
ATOM      8  H1  UNL     1      -3.663 -21.329  -0.000  1.00  0.00     0.219 HD
ENDBRANCH   6   7
BRANCH   6   9
HETATM    9  N1  UNL     1      -4.999 -19.157   0.765  1.00  0.00    -0.247 N 
ATOM     10  H1  UNL     1      -4.575 -18.649   1.541  1.00  0.00     0.196 HD
BRANCH   9  11
HETATM   11  O2  UNL     1      -6.305 -19.559   0.867  1.00  0.00    -0.288 OA
ATOM     12  H2  UNL     1      -6.540 -20.465   1.028  1.00  0.00     0.244 HD
ENDBRANCH   9  11
ENDBRANCH   6   9
ENDBRANCH   4   6
BRANCH   3  13
HETATM   13  C4  UNL     1      -2.777 -16.664  -0.797  1.00  0.00     0.191 C 
HETATM   14  C5  UNL     1      -3.568 -15.624   0.050  1.00  0.00     0.071 C 
HETATM   15  F1  UNL     1      -2.088 -17.467   0.042  1.00  0.00    -0.225 F 
HETATM   16 BR1  UNL     1      -1.578 -15.663  -1.940  1.00  0.00    -0.043 Br
ENDBRANCH   3  13
BRANCH   5  17
HETATM   17  N2  UNL     1      -6.073 -20.151  -2.572  1.00  0.00    -0.113 N 
HETATM   18  O3  UNL     1      -7.151 -20.198  -1.968  1.00  0.00    -0.532 OA
HETATM   19  O4  UNL     1      -5.643 -21.259  -3.237  1.00  0.00    -0.532 OA
ENDBRANCH   5  17
BRANCH   1  20
HETATM   20  S1  UNL     1      -6.441 -18.242  -5.067  1.00  0.00    -0.125 SA
HETATM   21  C1  UNL     1      -8.173 -17.910  -4.640  1.00  0.00     0.096 C 
ENDBRANCH   1  20
TORSDOF 7
ENDMDL
MODEL 3
REMARK VINA RESULT: -6.513686688      3.048      4.463
REMARK  7 active torsions:
REMARK  status: ('A' for Active; 'I' for Inactive)
REMARK    1  A    between atoms: S1_2  and  C2_3 
REMARK    2  A    between atoms: C3_5  and  C4_6 
REMARK    3  A    between atoms: C6_10  and  C7_11 
REMARK    4  A    between atoms: C7_11  and  O1_12 
REMARK    5  A    between atoms: C7_11  and  N1_14 
REMARK    6  A    between atoms: N1_14  and  O2_16 
REMARK    7  A    between atoms: C8_18  and  N2_19 
ROOT
HETATM    1  C2  UNL     1      -4.511 -16.527  -2.481  1.00  0.00     0.075 A 
HETATM    2  S2  UNL     1      -5.564 -17.392  -3.472  1.00  0.00    -0.080 SA
HETATM    3  C3  UNL     1      -5.815 -18.778  -2.460  1.00  0.00     0.051 A 
HETATM    4  C6  UNL     1      -5.049 -18.506  -1.368  1.00  0.00     0.069 A 
HETATM    5  C8  UNL     1      -4.363 -17.319  -1.379  1.00  0.00     0.142 A 
ENDROOT
BRANCH   4   6
HETATM    6  C7  UNL     1      -4.945 -19.475  -0.235  1.00  0.00     0.174 C 
BRANCH   6   7
HETATM    7  O1  UNL     1      -5.686 -19.410   0.887  1.00  0.00    -0.344 OA
ATOM      8  H1  UNL     1      -6.636 -19.407   0.900  1.00  0.00     0.219 HD
ENDBRANCH   6   7
BRANCH   6   9
HETATM    9  N1  UNL     1      -4.079 -20.464  -0.314  1.00  0.00    -0.247 N 
ATOM     10  H1  UNL     1      -4.420 -21.424  -0.282  1.00  0.00     0.196 HD
BRANCH   9  11
HETATM   11  O2  UNL     1      -2.733 -20.240  -0.436  1.00  0.00    -0.288 OA
ATOM     12  H2  UNL     1      -2.378 -19.671  -1.108  1.00  0.00     0.244 HD
ENDBRANCH   9  11
ENDBRANCH   6   9
ENDBRANCH   4   6
BRANCH   3  13
HETATM   13  C4  UNL     1      -6.714 -19.931  -2.820  1.00  0.00     0.191 C 
HETATM   14  C5  UNL     1      -5.802 -21.025  -3.451  1.00  0.00     0.071 C 
HETATM   15  F1  UNL     1      -7.377 -20.474  -1.776  1.00  0.00    -0.225 F 
HETATM   16 BR1  UNL     1      -7.944 -19.360  -4.200  1.00  0.00    -0.043 Br
ENDBRANCH   3  13
BRANCH   5  17
HETATM   17  N2  UNL     1      -3.516 -16.853  -0.277  1.00  0.00    -0.113 N 
HETATM   18  O3  UNL     1      -2.322 -17.174  -0.271  1.00  0.00    -0.532 OA
HETATM   19  O4  UNL     1      -3.996 -16.087   0.742  1.00  0.00    -0.532 OA
ENDBRANCH   5  17
BRANCH   1  20
HETATM   20  S1  UNL     1      -3.737 -14.904  -2.758  1.00  0.00    -0.125 SA
HETATM   21  C1  UNL     1      -4.621 -13.646  -1.793  1.00  0.00     0.096 C 
ENDBRANCH   1  20
TORSDOF 7
ENDMDL
MODEL 4
REMARK VINA RESULT: -6.475635540      2.670      4.405
REMARK  7 active torsions:
REMARK  status: ('A' for Active; 'I' for Inactive)
REMARK    1  A    between atoms: S1_2  and  C2_3 
REMARK    2  A    between atoms: C3_5  and  C4_6 
REMARK    3  A    between atoms: C6_10  and  C7_11 
REMARK    4  A    between atoms: C7_11  and  O1_12 
REMARK    5  A    between atoms: C7_11  and  N1_14 
REMARK    6  A    between atoms: N1_14  and  O2_16 
REMARK    7  A    between atoms: C8_18  and  N2_19 
ROOT
HETATM    1  C2  UNL     1      -3.454 -17.471   1.157  1.00  0.00     0.075 A 
HETATM    2  S2  UNL     1      -2.405 -16.476   0.292  1.00  0.00    -0.080 SA
HETATM    3  C3  UNL     1      -3.023 -16.752  -1.305  1.00  0.00     0.051 A 
HETATM    4  C6  UNL     1      -4.042 -17.629  -1.094  1.00  0.00     0.069 A 
HETATM    5  C8  UNL     1      -4.269 -18.007   0.204  1.00  0.00     0.142 A 
ENDROOT
BRANCH   4   6
HETATM    6  C7  UNL     1      -4.844 -18.171  -2.233  1.00  0.00     0.174 C 
BRANCH   6   7
HETATM    7  O1  UNL     1      -5.912 -17.550  -2.770  1.00  0.00    -0.344 OA
ATOM      8  H1  UNL     1      -6.474 -17.933  -3.433  1.00  0.00     0.219 HD
ENDBRANCH   6   7
BRANCH   6   9
HETATM    9  N1  UNL     1      -4.507 -19.329  -2.763  1.00  0.00    -0.247 N 
ATOM     10  H1  UNL     1      -3.733 -19.364  -3.426  1.00  0.00     0.196 HD
BRANCH   9  11
HETATM   11  O2  UNL     1      -5.167 -20.488  -2.449  1.00  0.00    -0.288 OA
ATOM     12  H2  UNL     1      -6.059 -20.649  -2.731  1.00  0.00     0.244 HD
ENDBRANCH   9  11
ENDBRANCH   6   9
ENDBRANCH   4   6
BRANCH   3  13
HETATM   13  C4  UNL     1      -2.478 -16.092  -2.544  1.00  0.00     0.191 C 
HETATM   14  C5  UNL     1      -1.550 -17.136  -3.232  1.00  0.00     0.071 C 
HETATM   15  F1  UNL     1      -3.417 -15.700  -3.432  1.00  0.00    -0.225 F 
HETATM   16 BR1  UNL     1      -1.357 -14.604  -2.019  1.00  0.00    -0.043 Br
ENDBRANCH   3  13
BRANCH   5  17
HETATM   17  N2  UNL     1      -5.340 -18.920   0.614  1.00  0.00    -0.113 N 
HETATM   18  O3  UNL     1      -5.197 -20.132   0.413  1.00  0.00    -0.532 OA
HETATM   19  O4  UNL     1      -6.488 -18.483   1.204  1.00  0.00    -0.532 OA
ENDBRANCH   5  17
BRANCH   1  20
HETATM   20  S1  UNL     1      -3.535 -17.781   2.949  1.00  0.00    -0.125 SA
HETATM   21  C1  UNL     1      -2.698 -19.347   3.324  1.00  0.00     0.096 C 
ENDBRANCH   1  20
TORSDOF 7
ENDMDL
MODEL 5
REMARK VINA RESULT: -6.416707713      2.742      4.741
REMARK  7 active torsions:
REMARK  status: ('A' for Active; 'I' for Inactive)
REMARK    1  A    between atoms: S1_2  and  C2_3 
REMARK    2  A    between atoms: C3_5  and  C4_6 
REMARK    3  A    between atoms: C6_10  and  C7_11 
REMARK    4  A    between atoms: C7_11  and  O1_12 
REMARK    5  A    between atoms: C7_11  and  N1_14 
REMARK    6  A    between atoms: N1_14  and  O2_16 
REMARK    7  A    between atoms: C8_18  and  N2_19 
ROOT
HETATM    1  C2  UNL     1      -4.005 -17.122  -0.878  1.00  0.00     0.075 A 
HETATM    2  S2  UNL     1      -4.727 -16.650  -2.326  1.00  0.00    -0.080 SA
HETATM    3  C3  UNL     1      -5.885 -17.931  -2.483  1.00  0.00     0.051 A 
HETATM    4  C6  UNL     1      -5.656 -18.692  -1.379  1.00  0.00     0.069 A 
HETATM    5  C8  UNL     1      -4.665 -18.265  -0.532  1.00  0.00     0.142 A 
ENDROOT
BRANCH   4   6
HETATM    6  C7  UNL     1      -6.429 -19.947  -1.129  1.00  0.00     0.174 C 
BRANCH   6   7
HETATM    7  O1  UNL     1      -6.228 -21.104  -1.788  1.00  0.00    -0.344 OA
ATOM      8  H1  UNL     1      -6.462 -21.960  -1.447  1.00  0.00     0.219 HD
ENDBRANCH   6   7
BRANCH   6   9
HETATM    9  N1  UNL     1      -7.376 -19.946  -0.214  1.00  0.00    -0.247 N 
ATOM     10  H1  UNL     1      -7.803 -20.832   0.057  1.00  0.00     0.196 HD
BRANCH   9  11
HETATM   11  O2  UNL     1      -7.804 -18.791   0.385  1.00  0.00    -0.288 OA
ATOM     12  H2  UNL     1      -8.484 -18.791   1.048  1.00  0.00     0.244 HD
ENDBRANCH   9  11
ENDBRANCH   6   9
ENDBRANCH   4   6
BRANCH   3  13
HETATM   13  C4  UNL     1      -6.870 -18.040  -3.618  1.00  0.00     0.191 C 
HETATM   14  C5  UNL     1      -6.037 -18.325  -4.902  1.00  0.00     0.071 C 
HETATM   15  F1  UNL     1      -7.786 -19.022  -3.474  1.00  0.00    -0.225 F 
HETATM   16 BR1  UNL     1      -7.726 -16.324  -3.871  1.00  0.00    -0.043 Br
ENDBRANCH   3  13
BRANCH   5  17
HETATM   17  N2  UNL     1      -4.305 -18.946   0.715  1.00  0.00    -0.113 N 
HETATM   18  O3  UNL     1      -5.013 -18.772   1.712  1.00  0.00    -0.532 OA
HETATM   19  O4  UNL     1      -3.216 -19.759   0.816  1.00  0.00    -0.532 OA
ENDBRANCH   5  17
BRANCH   1  20
HETATM   20  S1  UNL     1      -2.666 -16.321   0.059  1.00  0.00    -0.125 SA
HETATM   21  C1  UNL     1      -3.357 -15.547   1.548  1.00  0.00     0.096 C 
ENDBRANCH   1  20
TORSDOF 7
ENDMDL
