MODEL 1
REMARK VINA RESULT: -8.101764624      0.000      0.000
REMARK  5 active torsions:
REMARK  status: ('A' for Active; 'I' for Inactive)
REMARK    1  A    between atoms: C2_2  and  C5_5 
REMARK    2  A    between atoms: N1_10  and  N2_12 
REMARK    3  A    between atoms: N2_12  and  N3_14 
REMARK    4  A    between atoms: C10_15  and  C11_16 
REMARK    5  A    between atoms: C11_16  and  O1_17 
ROOT
HETATM    1  C5  UNL     1      -2.877 -15.382  -2.127  1.00  0.00     0.072 C 
HETATM    2  C6  UNL     1      -2.123 -16.409  -1.308  1.00  0.00     0.012 C 
HETATM    3  C7  UNL     1      -2.733 -16.693   0.030  1.00  0.00     0.006 C 
HETATM    4  C8  UNL     1      -4.166 -17.170  -0.042  1.00  0.00     0.060 C 
HETATM    5  C9  UNL     1      -4.558 -16.990  -1.463  1.00  0.00     0.076 C 
HETATM    6  N1  UNL     1      -5.036 -17.976  -2.090  1.00  0.00    -0.288 N 
ATOM      7  H1  UNL     1      -5.121 -18.847  -1.566  1.00  0.00     0.188 HD
HETATM    8  C13 UNL     1      -4.334 -15.617  -1.999  1.00  0.00     0.287 C 
HETATM    9  F1  UNL     1      -5.013 -15.560  -3.204  1.00  0.00    -0.199 F 
HETATM   10  F2  UNL     1      -5.010 -14.794  -1.144  1.00  0.00    -0.199 F 
ENDROOT
BRANCH   6  11
HETATM   11  N2  UNL     1      -5.456 -18.006  -3.409  1.00  0.00    -0.232 N 
ATOM     12  H2  UNL     1      -4.839 -17.646  -4.136  1.00  0.00     0.209 HD
BRANCH  11  13
HETATM   13  N3  UNL     1      -6.701 -18.518  -3.766  1.00  0.00    -0.198 N 
HETATM   14  C10 UNL     1      -6.993 -19.844  -3.824  1.00  0.00     0.146 A 
HETATM   15  N4  UNL     1      -8.280 -19.910  -4.203  1.00  0.00    -0.283 N 
HETATM   16  N5  UNL     1      -8.756 -18.693  -4.370  1.00  0.00    -0.273 N 
ATOM     17  H4  UNL     1      -8.808 -20.772  -4.340  1.00  0.00     0.188 HD
HETATM   18  C12 UNL     1      -7.785 -17.796  -4.103  1.00  0.00     0.215 A 
ATOM     19  H5  UNL     1      -9.708 -18.466  -4.656  1.00  0.00     0.189 HD
HETATM   20  S1  UNL     1      -7.886 -16.167  -4.167  1.00  0.00    -0.037 SA
BRANCH  14  21
HETATM   21  C11 UNL     1      -6.060 -20.978  -3.524  1.00  0.00     0.244 C 
BRANCH  21  22
HETATM   22  O1  UNL     1      -5.359 -20.751  -2.345  1.00  0.00    -0.393 OA
ATOM     23  H1  UNL     1      -5.862 -21.028  -1.589  1.00  0.00     0.209 HD
ENDBRANCH  21  22
ENDBRANCH  14  21
ENDBRANCH  11  13
ENDBRANCH   6  11
BRANCH   1  24
HETATM   24  C2  UNL     1      -2.363 -14.003  -1.948  1.00  0.00    -0.042 C 
HETATM   25  C1  UNL     1      -2.748 -13.283  -0.715  1.00  0.00     0.015 C 
HETATM   26  C3  UNL     1      -2.907 -13.128  -3.102  1.00  0.00     0.015 C 
HETATM   27  C4  UNL     1      -0.864 -13.852  -2.098  1.00  0.00     0.015 C 
ENDBRANCH   1  24
TORSDOF 5
ENDMDL
MODEL 2
REMARK VINA RESULT: -8.020994898      2.074      3.124
REMARK  5 active torsions:
REMARK  status: ('A' for Active; 'I' for Inactive)
REMARK    1  A    between atoms: C2_2  and  C5_5 
REMARK    2  A    between atoms: N1_10  and  N2_12 
REMARK    3  A    between atoms: N2_12  and  N3_14 
REMARK    4  A    between atoms: C10_15  and  C11_16 
REMARK    5  A    between atoms: C11_16  and  O1_17 
ROOT
HETATM    1  C5  UNL     1      -4.355 -16.812   0.440  1.00  0.00     0.072 C 
HETATM    2  C6  UNL     1      -3.321 -16.108  -0.414  1.00  0.00     0.012 C 
HETATM    3  C7  UNL     1      -2.240 -17.006  -0.932  1.00  0.00     0.006 C 
HETATM    4  C8  UNL     1      -2.753 -18.168  -1.751  1.00  0.00     0.060 C 
HETATM    5  C9  UNL     1      -4.228 -18.133  -1.584  1.00  0.00     0.076 C 
HETATM    6  N1  UNL     1      -4.956 -18.117  -2.614  1.00  0.00    -0.288 N 
ATOM      7  H1  UNL     1      -4.471 -18.129  -3.511  1.00  0.00     0.188 HD
HETATM    8  C13 UNL     1      -4.690 -18.122  -0.166  1.00  0.00     0.287 C 
HETATM    9  F1  UNL     1      -6.050 -18.384  -0.204  1.00  0.00    -0.199 F 
HETATM   10  F2  UNL     1      -4.109 -19.221   0.400  1.00  0.00    -0.199 F 
ENDROOT
BRANCH   6  11
HETATM   11  N2  UNL     1      -6.340 -18.084  -2.663  1.00  0.00    -0.232 N 
ATOM     12  H2  UNL     1      -6.852 -17.594  -1.930  1.00  0.00     0.209 HD
BRANCH  11  13
HETATM   13  N3  UNL     1      -7.048 -18.704  -3.689  1.00  0.00    -0.198 N 
HETATM   14  C10 UNL     1      -6.942 -20.021  -4.002  1.00  0.00     0.146 A 
HETATM   15  N4  UNL     1      -7.779 -20.212  -5.036  1.00  0.00    -0.283 N 
HETATM   16  N5  UNL     1      -8.369 -19.074  -5.344  1.00  0.00    -0.273 N 
ATOM     17  H4  UNL     1      -7.934 -21.102  -5.509  1.00  0.00     0.188 HD
HETATM   18  C12 UNL     1      -7.929 -18.107  -4.514  1.00  0.00     0.215 A 
ATOM     19  H5  UNL     1      -9.051 -18.946  -6.091  1.00  0.00     0.189 HD
HETATM   20  S1  UNL     1      -8.363 -16.533  -4.496  1.00  0.00    -0.037 SA
BRANCH  14  21
HETATM   21  C11 UNL     1      -6.069 -21.033  -3.324  1.00  0.00     0.244 C 
BRANCH  21  22
HETATM   22  O1  UNL     1      -6.252 -21.010  -1.947  1.00  0.00    -0.393 OA
ATOM     23  H1  UNL     1      -6.430 -21.881  -1.611  1.00  0.00     0.209 HD
ENDBRANCH  21  22
ENDBRANCH  14  21
ENDBRANCH  11  13
ENDBRANCH   6  11
BRANCH   1  24
HETATM   24  C2  UNL     1      -4.048 -16.760   1.889  1.00  0.00    -0.042 C 
HETATM   25  C1  UNL     1      -3.511 -17.984   2.521  1.00  0.00     0.015 C 
HETATM   26  C3  UNL     1      -5.359 -16.464   2.654  1.00  0.00     0.015 C 
HETATM   27  C4  UNL     1      -3.152 -15.615   2.314  1.00  0.00     0.015 C 
ENDBRANCH   1  24
TORSDOF 5
ENDMDL
MODEL 3
REMARK VINA RESULT: -7.982360675      1.686      2.562
REMARK  5 active torsions:
REMARK  status: ('A' for Active; 'I' for Inactive)
REMARK    1  A    between atoms: C2_2  and  C5_5 
REMARK    2  A    between atoms: N1_10  and  N2_12 
REMARK    3  A    between atoms: N2_12  and  N3_14 
REMARK    4  A    between atoms: C10_15  and  C11_16 
REMARK    5  A    between atoms: C11_16  and  O1_17 
ROOT
HETATM    1  C5  UNL     1      -4.297 -16.096  -0.787  1.00  0.00     0.072 C 
HETATM    2  C6  UNL     1      -4.154 -14.898  -1.703  1.00  0.00     0.012 C 
HETATM    3  C7  UNL     1      -3.139 -15.076  -2.790  1.00  0.00     0.006 C 
HETATM    4  C8  UNL     1      -3.404 -16.268  -3.682  1.00  0.00     0.060 C 
HETATM    5  C9  UNL     1      -4.513 -17.001  -3.021  1.00  0.00     0.076 C 
HETATM    6  N1  UNL     1      -5.546 -17.275  -3.692  1.00  0.00    -0.288 N 
ATOM      7  H1  UNL     1      -5.548 -16.967  -4.665  1.00  0.00     0.188 HD
HETATM    8  C13 UNL     1      -4.265 -17.340  -1.590  1.00  0.00     0.287 C 
HETATM    9  F1  UNL     1      -5.245 -18.254  -1.237  1.00  0.00    -0.199 F 
HETATM   10  F2  UNL     1      -3.087 -18.032  -1.594  1.00  0.00    -0.199 F 
ENDROOT
BRANCH   6  11
HETATM   11  N2  UNL     1      -6.676 -17.947  -3.257  1.00  0.00    -0.232 N 
ATOM     12  H2  UNL     1      -6.955 -17.869  -2.279  1.00  0.00     0.209 HD
BRANCH  11  13
HETATM   13  N3  UNL     1      -7.439 -18.727  -4.122  1.00  0.00    -0.198 N 
HETATM   14  C10 UNL     1      -7.281 -20.066  -4.284  1.00  0.00     0.146 A 
HETATM   15  N4  UNL     1      -8.200 -20.428  -5.194  1.00  0.00    -0.283 N 
HETATM   16  N5  UNL     1      -8.888 -19.370  -5.573  1.00  0.00    -0.273 N 
ATOM     17  H4  UNL     1      -8.343 -21.377  -5.538  1.00  0.00     0.188 HD
HETATM   18  C12 UNL     1      -8.432 -18.284  -4.916  1.00  0.00     0.215 A 
ATOM     19  H5  UNL     1      -9.646 -19.372  -6.255  1.00  0.00     0.189 HD
HETATM   20  S1  UNL     1      -8.962 -16.745  -5.042  1.00  0.00    -0.037 SA
BRANCH  14  21
HETATM   21  C11 UNL     1      -6.283 -20.938  -3.584  1.00  0.00     0.244 C 
BRANCH  21  22
HETATM   22  O1  UNL     1      -5.021 -20.356  -3.585  1.00  0.00    -0.393 OA
ATOM     23  H1  UNL     1      -4.911 -19.780  -4.333  1.00  0.00     0.209 HD
ENDBRANCH  21  22
ENDBRANCH  14  21
ENDBRANCH  11  13
ENDBRANCH   6  11
BRANCH   1  24
HETATM   24  C2  UNL     1      -3.444 -16.011   0.422  1.00  0.00    -0.042 C 
HETATM   25  C1  UNL     1      -3.565 -17.091   1.424  1.00  0.00     0.015 C 
HETATM   26  C3  UNL     1      -3.813 -14.719   1.188  1.00  0.00     0.015 C 
HETATM   27  C4  UNL     1      -1.966 -15.823   0.152  1.00  0.00     0.015 C 
ENDBRANCH   1  24
TORSDOF 5
ENDMDL
MODEL 4
REMARK VINA RESULT: -7.867634443      2.371      3.396
REMARK  5 active torsions:
REMARK  status: ('A' for Active; 'I' for Inactive)
REMARK    1  A    between atoms: C2_2  and  C5_5 
REMARK    2  A    between atoms: N1_10  and  N2_12 
REMARK    3  A    between atoms: N2_12  and  N3_14 
REMARK    4  A    between atoms: C10_15  and  C11_16 
REMARK    5  A    between atoms: C11_16  and  O1_17 
ROOT
HETATM    1  C5  UNL     1      -4.365 -16.156  -0.546  1.00  0.00     0.072 C 
HETATM    2  C6  UNL     1      -4.286 -14.845  -1.299  1.00  0.00     0.012 C 
HETATM    3  C7  UNL     1      -3.315 -14.850  -2.439  1.00  0.00     0.006 C 
HETATM    4  C8  UNL     1      -3.592 -15.921  -3.471  1.00  0.00     0.060 C 
HETATM    5  C9  UNL     1      -4.655 -16.765  -2.870  1.00  0.00     0.076 C 
HETATM    6  N1  UNL     1      -5.709 -16.976  -3.531  1.00  0.00    -0.288 N 
ATOM      7  H1  UNL     1      -5.759 -16.542  -4.453  1.00  0.00     0.188 HD
HETATM    8  C13 UNL     1      -4.340 -17.283  -1.508  1.00  0.00     0.287 C 
HETATM    9  F1  UNL     1      -5.284 -18.261  -1.241  1.00  0.00    -0.199 F 
HETATM   10  F2  UNL     1      -3.148 -17.936  -1.650  1.00  0.00    -0.199 F 
ENDROOT
BRANCH   6  11
HETATM   11  N2  UNL     1      -6.805 -17.730  -3.145  1.00  0.00    -0.232 N 
ATOM     12  H2  UNL     1      -7.138 -17.667  -2.183  1.00  0.00     0.209 HD
BRANCH  11  13
HETATM   13  N3  UNL     1      -7.463 -18.571  -4.038  1.00  0.00    -0.198 N 
HETATM   14  C10 UNL     1      -8.470 -18.175  -4.859  1.00  0.00     0.146 A 
HETATM   15  N4  UNL     1      -8.823 -19.273  -5.549  1.00  0.00    -0.283 N 
HETATM   16  N5  UNL     1      -8.074 -20.291  -5.173  1.00  0.00    -0.273 N 
ATOM     17  H4  UNL     1      -9.557 -19.312  -6.255  1.00  0.00     0.188 HD
HETATM   18  C12 UNL     1      -7.210 -19.880  -4.223  1.00  0.00     0.215 A 
ATOM     19  H5  UNL     1      -8.139 -21.239  -5.543  1.00  0.00     0.189 HD
HETATM   20  S1  UNL     1      -6.081 -20.770  -3.448  1.00  0.00    -0.037 SA
BRANCH  14  21
HETATM   21  C11 UNL     1      -9.050 -16.797  -4.960  1.00  0.00     0.244 C 
BRANCH  21  22
HETATM   22  O1  UNL     1      -8.060 -15.827  -4.853  1.00  0.00    -0.393 OA
ATOM     23  H1  UNL     1      -7.434 -15.898  -5.564  1.00  0.00     0.209 HD
ENDBRANCH  21  22
ENDBRANCH  14  21
ENDBRANCH  11  13
ENDBRANCH   6  11
BRANCH   1  24
HETATM   24  C2  UNL     1      -3.463 -16.209   0.630  1.00  0.00    -0.042 C 
HETATM   25  C1  UNL     1      -3.464 -17.445   1.440  1.00  0.00     0.015 C 
HETATM   26  C3  UNL     1      -3.882 -15.092   1.614  1.00  0.00     0.015 C 
HETATM   27  C4  UNL     1      -2.015 -15.870   0.343  1.00  0.00     0.015 C 
ENDBRANCH   1  24
TORSDOF 5
ENDMDL
MODEL 5
REMARK VINA RESULT: -7.768001590      2.665      3.782
REMARK  5 active torsions:
REMARK  status: ('A' for Active; 'I' for Inactive)
REMARK    1  A    between atoms: C2_2  and  C5_5 
REMARK    2  A    between atoms: N1_10  and  N2_12 
REMARK    3  A    between atoms: N2_12  and  N3_14 
REMARK    4  A    between atoms: C10_15  and  C11_16 
REMARK    5  A    between atoms: C11_16  and  O1_17 
ROOT
HETATM    1  C5  UNL     1      -4.345 -16.788   0.102  1.00  0.00     0.072 C 
HETATM    2  C6  UNL     1      -3.386 -16.004  -0.771  1.00  0.00     0.012 C 
HETATM    3  C7  UNL     1      -2.340 -16.843  -1.438  1.00  0.00     0.006 C 
HETATM    4  C8  UNL     1      -2.904 -17.946  -2.305  1.00  0.00     0.060 C 
HETATM    5  C9  UNL     1      -4.362 -17.946  -2.023  1.00  0.00     0.076 C 
HETATM    6  N1  UNL     1      -5.167 -17.861  -2.991  1.00  0.00    -0.288 N 
ATOM      7  H1  UNL     1      -4.752 -17.796  -3.921  1.00  0.00     0.188 HD
HETATM    8  C13 UNL     1      -4.713 -18.052  -0.578  1.00  0.00     0.287 C 
HETATM    9  F1  UNL     1      -6.070 -18.331  -0.533  1.00  0.00    -0.199 F 
HETATM   10  F2  UNL     1      -4.080 -19.183  -0.147  1.00  0.00    -0.199 F 
ENDROOT
BRANCH   6  11
HETATM   11  N2  UNL     1      -6.551 -17.845  -2.932  1.00  0.00    -0.232 N 
ATOM     12  H2  UNL     1      -7.011 -17.965  -2.030  1.00  0.00     0.209 HD
BRANCH  11  13
HETATM   13  N3  UNL     1      -7.327 -17.670  -4.074  1.00  0.00    -0.198 N 
HETATM   14  C10 UNL     1      -7.736 -16.462  -4.541  1.00  0.00     0.146 A 
HETATM   15  N4  UNL     1      -8.452 -16.729  -5.646  1.00  0.00    -0.283 N 
HETATM   16  N5  UNL     1      -8.485 -18.030  -5.849  1.00  0.00    -0.273 N 
ATOM     17  H4  UNL     1      -8.902 -16.030  -6.237  1.00  0.00     0.188 HD
HETATM   18  C12 UNL     1      -7.786 -18.649  -4.876  1.00  0.00     0.215 A 
ATOM     19  H5  UNL     1      -8.963 -18.496  -6.620  1.00  0.00     0.189 HD
HETATM   20  S1  UNL     1      -7.535 -20.252  -4.692  1.00  0.00    -0.037 SA
BRANCH  14  21
HETATM   21  C11 UNL     1      -7.438 -15.123  -3.936  1.00  0.00     0.244 C 
BRANCH  21  22
HETATM   22  O1  UNL     1      -6.080 -14.983  -3.676  1.00  0.00    -0.393 OA
ATOM     23  H1  UNL     1      -5.909 -14.200  -3.165  1.00  0.00     0.209 HD
ENDBRANCH  21  22
ENDBRANCH  14  21
ENDBRANCH  11  13
ENDBRANCH   6  11
BRANCH   1  24
HETATM   24  C2  UNL     1      -3.927 -16.844   1.523  1.00  0.00    -0.042 C 
HETATM   25  C1  UNL     1      -3.313 -18.099   2.008  1.00  0.00     0.015 C 
HETATM   26  C3  UNL     1      -5.182 -16.652   2.406  1.00  0.00     0.015 C 
HETATM   27  C4  UNL     1      -3.030 -15.711   1.973  1.00  0.00     0.015 C 
ENDBRANCH   1  24
TORSDOF 5
ENDMDL
