MODEL 1
REMARK VINA RESULT: -6.839462851      0.000      0.000
REMARK  4 active torsions:
REMARK  status: ('A' for Active; 'I' for Inactive)
REMARK    1  A    between atoms: O1_2  and  C2_3 
REMARK       I    between atoms: C2_3  and  N1_5 
REMARK    2  A    between atoms: C6_13  and  N4_14 
REMARK    3  A    between atoms: C7_21  and  N8_22 
REMARK    4  A    between atoms: C8_25  and  O4_26 
ROOT
HETATM    1  C2  UNL     1       1.982  38.521  23.073  1.00  0.00     0.375 C 
HETATM    2  O2  UNL     1       1.006  38.985  22.496  1.00  0.00    -0.237 OA
HETATM    3  N1  UNL     1       2.007  37.813  24.289  1.00  0.00    -0.201 N 
HETATM    4  C3  UNL     1       3.130  37.311  24.897  1.00  0.00     0.339 A 
HETATM    5  O3  UNL     1       4.293  37.421  24.441  1.00  0.00    -0.246 OA
HETATM    6  N2  UNL     1       2.830  36.694  26.032  1.00  0.00    -0.287 N 
HETATM    7  C4  UNL     1       3.766  36.030  26.964  1.00  0.00     0.163 C 
HETATM    8  C5  UNL     1       1.491  36.780  26.191  1.00  0.00     0.145 A 
HETATM    9  N3  UNL     1       0.710  36.321  27.163  1.00  0.00    -0.322 N 
ATOM     10  H3  UNL     1       1.129  35.813  27.942  1.00  0.00     0.169 HD
HETATM   11  C6  UNL     1      -0.614  36.512  27.139  1.00  0.00     0.186 A 
HETATM   12  C8  UNL     1      -1.183  37.193  26.092  1.00  0.00     0.166 A 
HETATM   13  C9  UNL     1      -0.363  37.674  25.075  1.00  0.00     0.239 A 
HETATM   14  O5  UNL     1      -0.895  38.295  24.124  1.00  0.00    -0.283 OA
HETATM   15  C10 UNL     1       1.008  37.471  25.109  1.00  0.00     0.146 A 
ENDROOT
BRANCH  11  16
HETATM   16  N4  UNL     1      -1.458  36.015  28.188  1.00  0.00    -0.050 N 
HETATM   17  N5  UNL     1      -1.899  36.633  29.258  1.00  0.00    -0.205 N 
HETATM   18  N6  UNL     1      -2.658  35.783  29.960  1.00  0.00    -0.213 N 
ATOM     19  H5  UNL     1      -1.697  37.601  29.512  1.00  0.00     0.211 HD
HETATM   20  N7  UNL     1      -2.708  34.621  29.347  1.00  0.00    -0.115 N 
ATOM     21  H6  UNL     1      -3.127  36.004  30.839  1.00  0.00     0.210 HD
HETATM   22  C7  UNL     1      -1.946  34.775  28.226  1.00  0.00     0.716 A 
ATOM     23  H7  UNL     1      -3.208  33.783  29.646  1.00  0.00     0.207 HD
BRANCH  22  24
HETATM   24  N8  UNL     1      -1.761  33.819  27.364  1.00  0.00    -0.231 N 
ATOM     25  H82 UNL     1      -1.235  33.950  26.500  1.00  0.00     0.174 HD
ATOM     26  H81 UNL     1      -2.094  32.857  27.418  1.00  0.00     0.174 HD
ENDBRANCH  22  24
ENDBRANCH  11  16
BRANCH  12  27
HETATM   27  O4  UNL     1      -2.546  37.413  26.026  1.00  0.00    -0.354 OA
ATOM     28  H4  UNL     1      -3.154  36.713  25.821  1.00  0.00     0.218 HD
ENDBRANCH  12  27
BRANCH   1  29
HETATM   29  O1  UNL     1       3.211  38.746  22.404  1.00  0.00    -0.308 OA
HETATM   30  C1  UNL     1       3.419  38.319  21.069  1.00  0.00     0.215 C 
ENDBRANCH   1  29
TORSDOF 4
ENDMDL
MODEL 2
REMARK VINA RESULT: -6.805689502      1.738      2.094
REMARK  4 active torsions:
REMARK  status: ('A' for Active; 'I' for Inactive)
REMARK    1  A    between atoms: O1_2  and  C2_3 
REMARK       I    between atoms: C2_3  and  N1_5 
REMARK    2  A    between atoms: C6_13  and  N4_14 
REMARK    3  A    between atoms: C7_21  and  N8_22 
REMARK    4  A    between atoms: C8_25  and  O4_26 
ROOT
HETATM    1  C2  UNL     1       2.342  39.954  25.200  1.00  0.00     0.375 C 
HETATM    2  O2  UNL     1       1.488  40.669  24.688  1.00  0.00    -0.237 OA
HETATM    3  N1  UNL     1       2.151  38.736  25.877  1.00  0.00    -0.201 N 
HETATM    4  C3  UNL     1       3.142  37.969  26.435  1.00  0.00     0.339 A 
HETATM    5  O3  UNL     1       4.361  38.260  26.414  1.00  0.00    -0.246 OA
HETATM    6  N2  UNL     1       2.647  36.877  27.004  1.00  0.00    -0.287 N 
HETATM    7  C4  UNL     1       3.397  35.814  27.704  1.00  0.00     0.163 C 
HETATM    8  C5  UNL     1       1.307  36.908  26.826  1.00  0.00     0.145 A 
HETATM    9  N3  UNL     1       0.371  36.047  27.208  1.00  0.00    -0.322 N 
ATOM     10  H3  UNL     1       0.642  35.208  27.721  1.00  0.00     0.169 HD
HETATM   11  C6  UNL     1      -0.922  36.259  26.933  1.00  0.00     0.186 A 
HETATM   12  C8  UNL     1      -1.293  37.385  26.242  1.00  0.00     0.166 A 
HETATM   13  C9  UNL     1      -0.310  38.286  25.842  1.00  0.00     0.239 A 
HETATM   14  O5  UNL     1      -0.662  39.311  25.212  1.00  0.00    -0.283 OA
HETATM   15  C10 UNL     1       1.026  38.057  26.133  1.00  0.00     0.146 A 
ENDROOT
BRANCH  11  16
HETATM   16  N4  UNL     1      -1.934  35.329  27.345  1.00  0.00    -0.050 N 
HETATM   17  N5  UNL     1      -2.552  34.412  26.639  1.00  0.00    -0.205 N 
HETATM   18  N6  UNL     1      -3.421  33.774  27.433  1.00  0.00    -0.213 N 
ATOM     19  H5  UNL     1      -2.397  34.218  25.649  1.00  0.00     0.211 HD
HETATM   20  N7  UNL     1      -3.365  34.277  28.647  1.00  0.00    -0.115 N 
ATOM     21  H6  UNL     1      -4.034  33.013  27.140  1.00  0.00     0.210 HD
HETATM   22  C7  UNL     1      -2.422  35.260  28.584  1.00  0.00     0.716 A 
ATOM     23  H7  UNL     1      -3.910  33.992  29.462  1.00  0.00     0.207 HD
BRANCH  22  24
HETATM   24  N8  UNL     1      -2.092  35.986  29.611  1.00  0.00    -0.231 N 
ATOM     25  H82 UNL     1      -2.003  35.603  30.552  1.00  0.00     0.174 HD
ATOM     26  H81 UNL     1      -1.886  36.985  29.629  1.00  0.00     0.174 HD
ENDBRANCH  22  24
ENDBRANCH  11  16
BRANCH  12  27
HETATM   27  O4  UNL     1      -2.616  37.644  25.935  1.00  0.00    -0.354 OA
ATOM     28  H4  UNL     1      -2.870  38.409  25.432  1.00  0.00     0.218 HD
ENDBRANCH  12  27
BRANCH   1  29
HETATM   29  O1  UNL     1       3.663  40.450  25.074  1.00  0.00    -0.308 OA
HETATM   30  C1  UNL     1       3.950  41.618  24.327  1.00  0.00     0.215 C 
ENDBRANCH   1  29
TORSDOF 4
ENDMDL
MODEL 3
REMARK VINA RESULT: -6.600578244      1.854      1.943
REMARK  4 active torsions:
REMARK  status: ('A' for Active; 'I' for Inactive)
REMARK    1  A    between atoms: O1_2  and  C2_3 
REMARK       I    between atoms: C2_3  and  N1_5 
REMARK    2  A    between atoms: C6_13  and  N4_14 
REMARK    3  A    between atoms: C7_21  and  N8_22 
REMARK    4  A    between atoms: C8_25  and  O4_26 
ROOT
HETATM    1  C2  UNL     1       2.685  40.080  25.146  1.00  0.00     0.375 C 
HETATM    2  O2  UNL     1       1.922  41.038  25.124  1.00  0.00    -0.237 OA
HETATM    3  N1  UNL     1       2.439  38.797  25.668  1.00  0.00    -0.201 N 
HETATM    4  C3  UNL     1       3.329  37.752  25.670  1.00  0.00     0.339 A 
HETATM    5  O3  UNL     1       4.490  37.809  25.200  1.00  0.00    -0.246 OA
HETATM    6  N2  UNL     1       2.805  36.672  26.234  1.00  0.00    -0.287 N 
HETATM    7  C4  UNL     1       3.452  35.357  26.420  1.00  0.00     0.163 C 
HETATM    8  C5  UNL     1       1.548  36.991  26.616  1.00  0.00     0.145 A 
HETATM    9  N3  UNL     1       0.622  36.256  27.221  1.00  0.00    -0.322 N 
ATOM     10  H3  UNL     1       0.831  35.286  27.461  1.00  0.00     0.169 HD
HETATM   11  C6  UNL     1      -0.580  36.761  27.520  1.00  0.00     0.186 A 
HETATM   12  C8  UNL     1      -0.869  38.064  27.198  1.00  0.00     0.166 A 
HETATM   13  C9  UNL     1       0.104  38.833  26.564  1.00  0.00     0.239 A 
HETATM   14  O5  UNL     1      -0.171  40.022  26.276  1.00  0.00    -0.283 OA
HETATM   15  C10 UNL     1       1.347  38.299  26.259  1.00  0.00     0.146 A 
ENDROOT
BRANCH  11  16
HETATM   16  N4  UNL     1      -1.582  35.967  28.172  1.00  0.00    -0.050 N 
HETATM   17  N5  UNL     1      -1.837  35.846  29.454  1.00  0.00    -0.205 N 
HETATM   18  N6  UNL     1      -2.861  34.997  29.608  1.00  0.00    -0.213 N 
ATOM     19  H5  UNL     1      -1.337  36.319  30.208  1.00  0.00     0.211 HD
HETATM   20  N7  UNL     1      -3.266  34.572  28.431  1.00  0.00    -0.115 N 
ATOM     21  H6  UNL     1      -3.266  34.722  30.503  1.00  0.00     0.210 HD
HETATM   22  C7  UNL     1      -2.452  35.191  27.528  1.00  0.00     0.716 A 
ATOM     23  H7  UNL     1      -4.027  33.920  28.235  1.00  0.00     0.207 HD
BRANCH  22  24
HETATM   24  N8  UNL     1      -2.559  35.009  26.244  1.00  0.00    -0.231 N 
ATOM     25  H82 UNL     1      -1.824  35.270  25.587  1.00  0.00     0.174 HD
ATOM     26  H81 UNL     1      -3.344  34.604  25.734  1.00  0.00     0.174 HD
ENDBRANCH  22  24
ENDBRANCH  11  16
BRANCH  12  27
HETATM   27  O4  UNL     1      -2.096  38.628  27.488  1.00  0.00    -0.354 OA
ATOM     28  H4  UNL     1      -2.364  38.805  28.382  1.00  0.00     0.218 HD
ENDBRANCH  12  27
BRANCH   1  29
HETATM   29  O1  UNL     1       3.953  40.336  24.568  1.00  0.00    -0.308 OA
HETATM   30  C1  UNL     1       4.802  41.357  25.063  1.00  0.00     0.215 C 
ENDBRANCH   1  29
TORSDOF 4
ENDMDL
MODEL 4
REMARK VINA RESULT: -6.569849701      4.207      6.899
REMARK  4 active torsions:
REMARK  status: ('A' for Active; 'I' for Inactive)
REMARK    1  A    between atoms: O1_2  and  C2_3 
REMARK       I    between atoms: C2_3  and  N1_5 
REMARK    2  A    between atoms: C6_13  and  N4_14 
REMARK    3  A    between atoms: C7_21  and  N8_22 
REMARK    4  A    between atoms: C8_25  and  O4_26 
ROOT
HETATM    1  C2  UNL     1       1.047  38.241  26.354  1.00  0.00     0.375 C 
HETATM    2  O2  UNL     1       0.075  37.502  26.448  1.00  0.00    -0.237 OA
HETATM    3  N1  UNL     1       1.271  39.252  25.401  1.00  0.00    -0.201 N 
HETATM    4  C3  UNL     1       2.380  40.056  25.336  1.00  0.00     0.339 A 
HETATM    5  O3  UNL     1       3.350  39.992  26.128  1.00  0.00    -0.246 OA
HETATM    6  N2  UNL     1       2.299  40.912  24.326  1.00  0.00    -0.287 N 
HETATM    7  C4  UNL     1       3.294  41.933  23.935  1.00  0.00     0.163 C 
HETATM    8  C5  UNL     1       1.122  40.682  23.703  1.00  0.00     0.145 A 
HETATM    9  N3  UNL     1       0.581  41.275  22.644  1.00  0.00    -0.322 N 
ATOM     10  H3  UNL     1       1.085  42.032  22.183  1.00  0.00     0.169 HD
HETATM   11  C6  UNL     1      -0.613  40.898  22.172  1.00  0.00     0.186 A 
HETATM   12  C8  UNL     1      -1.298  39.881  22.789  1.00  0.00     0.166 A 
HETATM   13  C9  UNL     1      -0.729  39.262  23.899  1.00  0.00     0.239 A 
HETATM   14  O5  UNL     1      -1.364  38.334  24.454  1.00  0.00    -0.283 OA
HETATM   15  C10 UNL     1       0.508  39.660  24.380  1.00  0.00     0.146 A 
ENDROOT
BRANCH  11  16
HETATM   16  N4  UNL     1      -1.199  41.538  21.028  1.00  0.00    -0.050 N 
HETATM   17  N5  UNL     1      -2.445  41.897  20.828  1.00  0.00    -0.205 N 
HETATM   18  N6  UNL     1      -2.539  42.461  19.618  1.00  0.00    -0.213 N 
ATOM     19  H5  UNL     1      -3.215  41.767  21.486  1.00  0.00     0.211 HD
HETATM   20  N7  UNL     1      -1.358  42.468  19.038  1.00  0.00    -0.115 N 
ATOM     21  H6  UNL     1      -3.396  42.831  19.207  1.00  0.00     0.210 HD
HETATM   22  C7  UNL     1      -0.515  41.882  19.937  1.00  0.00     0.716 A 
ATOM     23  H7  UNL     1      -1.122  42.832  18.114  1.00  0.00     0.207 HD
BRANCH  22  24
HETATM   24  N8  UNL     1       0.754  41.713  19.705  1.00  0.00    -0.231 N 
ATOM     25  H82 UNL     1       1.107  41.012  19.054  1.00  0.00     0.174 HD
ATOM     26  H81 UNL     1       1.536  42.222  20.114  1.00  0.00     0.174 HD
ENDBRANCH  22  24
ENDBRANCH  11  16
BRANCH  12  27
HETATM   27  O4  UNL     1      -2.534  39.460  22.336  1.00  0.00    -0.354 OA
ATOM     28  H4  UNL     1      -2.799  39.577  21.431  1.00  0.00     0.218 HD
ENDBRANCH  12  27
BRANCH   1  29
HETATM   29  O1  UNL     1       2.041  38.019  27.339  1.00  0.00    -0.308 OA
HETATM   30  C1  UNL     1       2.723  36.781  27.440  1.00  0.00     0.215 C 
ENDBRANCH   1  29
TORSDOF 4
ENDMDL
MODEL 5
REMARK VINA RESULT: -6.270038227      2.840      6.470
REMARK  4 active torsions:
REMARK  status: ('A' for Active; 'I' for Inactive)
REMARK    1  A    between atoms: O1_2  and  C2_3 
REMARK       I    between atoms: C2_3  and  N1_5 
REMARK    2  A    between atoms: C6_13  and  N4_14 
REMARK    3  A    between atoms: C7_21  and  N8_22 
REMARK    4  A    between atoms: C8_25  and  O4_26 
ROOT
HETATM    1  C2  UNL     1      -1.272  36.312  27.102  1.00  0.00     0.375 C 
HETATM    2  O2  UNL     1      -2.469  36.487  26.906  1.00  0.00    -0.237 OA
HETATM    3  N1  UNL     1      -0.194  36.940  26.451  1.00  0.00    -0.201 N 
HETATM    4  C3  UNL     1       1.135  36.710  26.706  1.00  0.00     0.339 A 
HETATM    5  O3  UNL     1       1.563  35.901  27.562  1.00  0.00    -0.246 OA
HETATM    6  N2  UNL     1       1.912  37.454  25.930  1.00  0.00    -0.287 N 
HETATM    7  C4  UNL     1       3.389  37.486  25.910  1.00  0.00     0.163 C 
HETATM    8  C5  UNL     1       1.098  38.193  25.143  1.00  0.00     0.145 A 
HETATM    9  N3  UNL     1       1.391  39.087  24.205  1.00  0.00    -0.322 N 
ATOM     10  H3  UNL     1       2.369  39.293  23.999  1.00  0.00     0.169 HD
HETATM   11  C6  UNL     1       0.429  39.722  23.526  1.00  0.00     0.186 A 
HETATM   12  C8  UNL     1      -0.888  39.451  23.800  1.00  0.00     0.166 A 
HETATM   13  C9  UNL     1      -1.193  38.514  24.784  1.00  0.00     0.239 A 
HETATM   14  O5  UNL     1      -2.400  38.274  25.025  1.00  0.00    -0.283 OA
HETATM   15  C10 UNL     1      -0.188  37.861  25.481  1.00  0.00     0.146 A 
ENDROOT
BRANCH  11  16
HETATM   16  N4  UNL     1       0.745  40.689  22.513  1.00  0.00    -0.050 N 
HETATM   17  N5  UNL     1       0.790  40.538  21.210  1.00  0.00    -0.205 N 
HETATM   18  N6  UNL     1       1.129  41.708  20.656  1.00  0.00    -0.213 N 
ATOM     19  H5  UNL     1       0.598  39.672  20.704  1.00  0.00     0.211 HD
HETATM   20  N7  UNL     1       1.302  42.612  21.596  1.00  0.00    -0.115 N 
ATOM     21  H6  UNL     1       1.236  41.874  19.655  1.00  0.00     0.210 HD
HETATM   22  C7  UNL     1       1.058  41.959  22.768  1.00  0.00     0.716 A 
ATOM     23  H7  UNL     1       1.564  43.591  21.474  1.00  0.00     0.207 HD
BRANCH  22  24
HETATM   24  N8  UNL     1       1.135  42.543  23.928  1.00  0.00    -0.231 N 
ATOM     25  H82 UNL     1       1.858  43.226  24.155  1.00  0.00     0.174 HD
ATOM     26  H81 UNL     1       0.523  42.414  24.734  1.00  0.00     0.174 HD
ENDBRANCH  22  24
ENDBRANCH  11  16
BRANCH  12  27
HETATM   27  O4  UNL     1      -1.914  40.084  23.124  1.00  0.00    -0.354 OA
ATOM     28  H4  UNL     1      -2.539  40.639  23.575  1.00  0.00     0.218 HD
ENDBRANCH  12  27
BRANCH   1  29
HETATM   29  O1  UNL     1      -0.983  35.358  28.109  1.00  0.00    -0.308 OA
HETATM   30  C1  UNL     1      -2.001  34.811  28.928  1.00  0.00     0.215 C 
ENDBRANCH   1  29
TORSDOF 4
ENDMDL
