MODEL 1
REMARK VINA RESULT: -8.160412762      0.000      0.000
REMARK  7 active torsions:
REMARK  status: ('A' for Active; 'I' for Inactive)
REMARK    1  A    between atoms: C3_3  and  O1_4 
REMARK    2  A    between atoms: C4_6  and  N1_7 
REMARK    3  A    between atoms: N2_9  and  C5_11 
REMARK    4  A    between atoms: C5_11  and  O2_12 
REMARK    5  A    between atoms: N3_14  and  N4_16 
REMARK    6  A    between atoms: N4_16  and  C6_18 
REMARK    7  A    between atoms: C10_33  and  O5_34 
ROOT
HETATM    1  C5  UNL     1      -1.164  39.425  24.385  1.00  0.00     0.251 C 
HETATM    2  N3  UNL     1      -0.190  40.241  24.272  1.00  0.00    -0.250 N 
ATOM      3  H3  UNL     1       0.501  40.274  25.022  1.00  0.00     0.191 HD
ENDROOT
BRANCH   1   4
HETATM    4  N2  UNL     1      -1.238  38.609  25.540  1.00  0.00    -0.262 N 
HETATM    5  N1  UNL     1      -2.001  37.591  25.482  1.00  0.00    -0.280 N 
ATOM      6  H1  UNL     1      -2.535  37.372  24.641  1.00  0.00     0.188 HD
ATOM      7  H2  UNL     1      -0.705  38.827  26.381  1.00  0.00     0.190 HD
BRANCH   5   8
HETATM    8  C4  UNL     1      -2.075  36.775  26.642  1.00  0.00     0.157 A 
HETATM    9  C3  UNL     1      -2.525  35.465  26.543  1.00  0.00     0.120 A 
HETATM   10  C2  UNL     1      -2.606  34.656  27.644  1.00  0.00     0.014 A 
HETATM   11  C1  UNL     1      -3.087  33.262  27.528  1.00  0.00     0.054 C 
HETATM   12  C10 UNL     1      -2.232  35.157  28.874  1.00  0.00     0.143 A 
HETATM   13  C9  UNL     1      -1.788  36.459  28.955  1.00  0.00     0.281 A 
HETATM   14  N9  UNL     1      -1.721  37.224  27.858  1.00  0.00    -0.304 N 
HETATM   15  O4  UNL     1      -1.436  36.948  30.073  1.00  0.00    -0.265 OA
ATOM     16  H9  UNL     1      -1.388  38.184  27.948  1.00  0.00     0.171 HD
BRANCH   9  17
HETATM   17  O1  UNL     1      -2.893  34.985  25.312  1.00  0.00    -0.356 OA
ATOM     18  H1  UNL     1      -3.185  35.586  24.636  1.00  0.00     0.218 HD
ENDBRANCH   9  17
BRANCH  12  19
HETATM   19  O5  UNL     1      -2.318  34.335  29.970  1.00  0.00    -0.355 OA
ATOM     20  H5  UNL     1      -1.886  33.489  29.937  1.00  0.00     0.218 HD
ENDBRANCH  12  19
ENDBRANCH   5   8
ENDBRANCH   1   4
BRANCH   1  21
HETATM   21  O2  UNL     1      -2.148  39.313  23.413  1.00  0.00    -0.330 OA
ATOM     22  H2  UNL     1      -2.136  38.565  22.827  1.00  0.00     0.221 HD
ENDBRANCH   1  21
BRANCH   2  23
HETATM   23  N4  UNL     1      -0.021  41.082  23.191  1.00  0.00    -0.127 N 
ATOM     24  H4  UNL     1      -0.260  42.067  23.307  1.00  0.00     0.205 HD
BRANCH  23  25
HETATM   25  C6  UNL     1       0.423  40.694  22.041  1.00  0.00     0.718 A 
HETATM   26  N5  UNL     1       1.560  40.022  21.889  1.00  0.00    -0.116 N 
HETATM   27  N6  UNL     1       1.945  39.663  20.687  1.00  0.00    -0.224 N 
ATOM     28  H5  UNL     1       2.130  39.788  22.702  1.00  0.00     0.207 HD
HETATM   29  N7  UNL     1       1.240  39.943  19.598  1.00  0.00    -0.236 N 
ATOM     30  H6  UNL     1       2.819  39.148  20.587  1.00  0.00     0.209 HD
HETATM   31  C7  UNL     1       0.088  40.619  19.710  1.00  0.00     0.356 A 
ATOM     32  H7  UNL     1       1.574  39.646  18.681  1.00  0.00     0.193 HD
HETATM   33  O3  UNL     1      -0.620  40.909  18.710  1.00  0.00    -0.244 OA
HETATM   34  N8  UNL     1      -0.309  40.989  20.947  1.00  0.00    -0.133 N 
HETATM   35  C8  UNL     1      -1.551  41.722  21.114  1.00  0.00     0.180 C 
ENDBRANCH  23  25
ENDBRANCH   2  23
TORSDOF 7
ENDMDL
MODEL 2
REMARK VINA RESULT: -7.931008668      1.472      1.526
REMARK  7 active torsions:
REMARK  status: ('A' for Active; 'I' for Inactive)
REMARK    1  A    between atoms: C3_3  and  O1_4 
REMARK    2  A    between atoms: C4_6  and  N1_7 
REMARK    3  A    between atoms: N2_9  and  C5_11 
REMARK    4  A    between atoms: C5_11  and  O2_12 
REMARK    5  A    between atoms: N3_14  and  N4_16 
REMARK    6  A    between atoms: N4_16  and  C6_18 
REMARK    7  A    between atoms: C10_33  and  O5_34 
ROOT
HETATM    1  C5  UNL     1      -0.984  38.681  23.607  1.00  0.00     0.251 C 
HETATM    2  N3  UNL     1      -1.660  39.762  23.647  1.00  0.00    -0.250 N 
ATOM      3  H3  UNL     1      -2.194  39.965  24.492  1.00  0.00     0.191 HD
ENDROOT
BRANCH   1   4
HETATM    4  N2  UNL     1      -1.008  37.820  24.731  1.00  0.00    -0.262 N 
HETATM    5  N1  UNL     1      -2.044  37.862  25.470  1.00  0.00    -0.280 N 
ATOM      6  H1  UNL     1      -2.822  38.486  25.263  1.00  0.00     0.188 HD
ATOM      7  H2  UNL     1      -0.229  37.195  24.940  1.00  0.00     0.190 HD
BRANCH   5   8
HETATM    8  C4  UNL     1      -2.065  36.998  26.597  1.00  0.00     0.157 A 
HETATM    9  C3  UNL     1      -2.444  35.670  26.450  1.00  0.00     0.120 A 
HETATM   10  C2  UNL     1      -2.474  34.815  27.518  1.00  0.00     0.014 A 
HETATM   11  C1  UNL     1      -2.879  33.403  27.349  1.00  0.00     0.054 C 
HETATM   12  C10 UNL     1      -2.118  35.287  28.765  1.00  0.00     0.143 A 
HETATM   13  C9  UNL     1      -1.744  36.607  28.895  1.00  0.00     0.281 A 
HETATM   14  N9  UNL     1      -1.727  37.417  27.828  1.00  0.00    -0.304 N 
HETATM   15  O4  UNL     1      -1.411  37.070  30.030  1.00  0.00    -0.265 OA
ATOM     16  H9  UNL     1      -1.446  38.389  27.955  1.00  0.00     0.171 HD
BRANCH   9  17
HETATM   17  O1  UNL     1      -2.795  35.220  25.202  1.00  0.00    -0.356 OA
ATOM     18  H1  UNL     1      -2.556  35.722  24.432  1.00  0.00     0.218 HD
ENDBRANCH   9  17
BRANCH  12  19
HETATM   19  O5  UNL     1      -2.152  34.419  29.828  1.00  0.00    -0.355 OA
ATOM     20  H5  UNL     1      -2.561  34.708  30.635  1.00  0.00     0.218 HD
ENDBRANCH  12  19
ENDBRANCH   5   8
ENDBRANCH   1   4
BRANCH   1  21
HETATM   21  O2  UNL     1      -0.228  38.326  22.499  1.00  0.00    -0.330 OA
ATOM     22  H2  UNL     1      -0.580  37.695  21.882  1.00  0.00     0.221 HD
ENDBRANCH   1  21
BRANCH   2  23
HETATM   23  N4  UNL     1      -1.709  40.670  22.610  1.00  0.00    -0.127 N 
ATOM     24  H4  UNL     1      -2.600  40.805  22.130  1.00  0.00     0.205 HD
BRANCH  23  25
HETATM   25  C6  UNL     1      -0.692  41.360  22.210  1.00  0.00     0.718 A 
HETATM   26  N5  UNL     1       0.426  41.485  22.918  1.00  0.00    -0.116 N 
HETATM   27  N6  UNL     1       1.416  42.204  22.445  1.00  0.00    -0.224 N 
ATOM     28  H5  UNL     1       0.513  41.025  23.824  1.00  0.00     0.207 HD
HETATM   29  N7  UNL     1       1.353  42.824  21.273  1.00  0.00    -0.236 N 
ATOM     30  H6  UNL     1       2.267  42.290  23.000  1.00  0.00     0.209 HD
HETATM   31  C7  UNL     1       0.242  42.722  20.529  1.00  0.00     0.356 A 
ATOM     32  H7  UNL     1       2.145  43.375  20.941  1.00  0.00     0.193 HD
HETATM   33  O3  UNL     1       0.131  43.288  19.410  1.00  0.00    -0.244 OA
HETATM   34  N8  UNL     1      -0.778  41.982  21.015  1.00  0.00    -0.133 N 
HETATM   35  C8  UNL     1      -1.999  41.844  20.242  1.00  0.00     0.180 C 
ENDBRANCH  23  25
ENDBRANCH   2  23
TORSDOF 7
ENDMDL
MODEL 3
REMARK VINA RESULT: -7.864967321      1.181      1.644
REMARK  7 active torsions:
REMARK  status: ('A' for Active; 'I' for Inactive)
REMARK    1  A    between atoms: C3_3  and  O1_4 
REMARK    2  A    between atoms: C4_6  and  N1_7 
REMARK    3  A    between atoms: N2_9  and  C5_11 
REMARK    4  A    between atoms: C5_11  and  O2_12 
REMARK    5  A    between atoms: N3_14  and  N4_16 
REMARK    6  A    between atoms: N4_16  and  C6_18 
REMARK    7  A    between atoms: C10_33  and  O5_34 
ROOT
HETATM    1  C5  UNL     1      -1.081  38.535  23.586  1.00  0.00     0.251 C 
HETATM    2  N3  UNL     1      -0.093  38.475  22.781  1.00  0.00    -0.250 N 
ATOM      3  H3  UNL     1       0.664  37.826  22.995  1.00  0.00     0.191 HD
ENDROOT
BRANCH   1   4
HETATM    4  N2  UNL     1      -1.079  37.703  24.731  1.00  0.00    -0.262 N 
HETATM    5  N1  UNL     1      -2.125  37.713  25.457  1.00  0.00    -0.280 N 
ATOM      6  H1  UNL     1      -2.930  38.294  25.224  1.00  0.00     0.188 HD
ATOM      7  H2  UNL     1      -0.274  37.121  24.965  1.00  0.00     0.190 HD
BRANCH   5   8
HETATM    8  C4  UNL     1      -2.120  36.878  26.605  1.00  0.00     0.157 A 
HETATM    9  C3  UNL     1      -2.498  35.545  26.499  1.00  0.00     0.120 A 
HETATM   10  C2  UNL     1      -2.502  34.718  27.589  1.00  0.00     0.014 A 
HETATM   11  C1  UNL     1      -2.906  33.301  27.464  1.00  0.00     0.054 C 
HETATM   12  C10 UNL     1      -2.121  35.222  28.816  1.00  0.00     0.143 A 
HETATM   13  C9  UNL     1      -1.750  36.546  28.905  1.00  0.00     0.281 A 
HETATM   14  N9  UNL     1      -1.757  37.328  27.818  1.00  0.00    -0.304 N 
HETATM   15  O4  UNL     1      -1.394  37.038  30.021  1.00  0.00    -0.265 OA
ATOM     16  H9  UNL     1      -1.477  38.305  27.915  1.00  0.00     0.171 HD
BRANCH   9  17
HETATM   17  O1  UNL     1      -2.872  35.063  25.271  1.00  0.00    -0.356 OA
ATOM     18  H1  UNL     1      -2.900  35.645  24.520  1.00  0.00     0.218 HD
ENDBRANCH   9  17
BRANCH  12  19
HETATM   19  O5  UNL     1      -2.130  34.381  29.901  1.00  0.00    -0.355 OA
ATOM     20  H5  UNL     1      -2.370  33.471  29.766  1.00  0.00     0.218 HD
ENDBRANCH  12  19
ENDBRANCH   5   8
ENDBRANCH   1   4
BRANCH   1  21
HETATM   21  O2  UNL     1      -2.154  39.389  23.372  1.00  0.00    -0.330 OA
ATOM     22  H2  UNL     1      -2.106  40.026  22.669  1.00  0.00     0.221 HD
ENDBRANCH   1  21
BRANCH   2  23
HETATM   23  N4  UNL     1       0.008  39.241  21.638  1.00  0.00    -0.127 N 
ATOM     24  H4  UNL     1      -0.168  38.789  20.740  1.00  0.00     0.205 HD
BRANCH  23  25
HETATM   25  C6  UNL     1       0.311  40.497  21.638  1.00  0.00     0.718 A 
HETATM   26  N5  UNL     1       0.506  41.198  22.750  1.00  0.00    -0.116 N 
HETATM   27  N6  UNL     1       0.812  42.472  22.669  1.00  0.00    -0.224 N 
ATOM     28  H5  UNL     1       0.420  40.749  23.662  1.00  0.00     0.207 HD
HETATM   29  N7  UNL     1       0.936  43.104  21.509  1.00  0.00    -0.236 N 
ATOM     30  H6  UNL     1       0.959  42.996  23.532  1.00  0.00     0.209 HD
HETATM   31  C7  UNL     1       0.747  42.431  20.364  1.00  0.00     0.356 A 
ATOM     32  H7  UNL     1       1.174  44.096  21.488  1.00  0.00     0.193 HD
HETATM   33  O3  UNL     1       0.854  42.982  19.237  1.00  0.00    -0.244 OA
HETATM   34  N8  UNL     1       0.433  41.120  20.447  1.00  0.00    -0.133 N 
HETATM   35  C8  UNL     1       0.220  40.354  19.232  1.00  0.00     0.180 C 
ENDBRANCH  23  25
ENDBRANCH   2  23
TORSDOF 7
ENDMDL
MODEL 4
REMARK VINA RESULT: -7.790558342      2.125      8.689
REMARK  7 active torsions:
REMARK  status: ('A' for Active; 'I' for Inactive)
REMARK    1  A    between atoms: C3_3  and  O1_4 
REMARK    2  A    between atoms: C4_6  and  N1_7 
REMARK    3  A    between atoms: N2_9  and  C5_11 
REMARK    4  A    between atoms: C5_11  and  O2_12 
REMARK    5  A    between atoms: N3_14  and  N4_16 
REMARK    6  A    between atoms: N4_16  and  C6_18 
REMARK    7  A    between atoms: C10_33  and  O5_34 
ROOT
HETATM    1  C5  UNL     1      -0.352  39.547  25.557  1.00  0.00     0.251 C 
HETATM    2  N3  UNL     1      -1.395  38.872  25.847  1.00  0.00    -0.250 N 
ATOM      3  H3  UNL     1      -2.188  38.911  25.207  1.00  0.00     0.191 HD
ENDROOT
BRANCH   1   4
HETATM    4  N2  UNL     1      -0.347  40.314  24.367  1.00  0.00    -0.262 N 
HETATM    5  N1  UNL     1      -0.995  39.849  23.374  1.00  0.00    -0.280 N 
ATOM      6  H1  UNL     1      -1.497  38.963  23.433  1.00  0.00     0.188 HD
ATOM      7  H2  UNL     1       0.154  41.201  24.307  1.00  0.00     0.190 HD
BRANCH   5   8
HETATM    8  C4  UNL     1      -0.988  40.620  22.182  1.00  0.00     0.157 A 
HETATM    9  C3  UNL     1       0.217  40.966  21.584  1.00  0.00     0.120 A 
HETATM   10  C2  UNL     1       0.254  41.708  20.435  1.00  0.00     0.014 A 
HETATM   11  C1  UNL     1       1.543  42.071  19.807  1.00  0.00     0.054 C 
HETATM   12  C10 UNL     1      -0.933  42.118  19.862  1.00  0.00     0.143 A 
HETATM   13  C9  UNL     1      -2.120  41.767  20.468  1.00  0.00     0.281 A 
HETATM   14  N9  UNL     1      -2.120  41.040  21.592  1.00  0.00    -0.304 N 
HETATM   15  O4  UNL     1      -3.228  42.130  19.964  1.00  0.00    -0.265 OA
ATOM     16  H9  UNL     1      -3.014  40.795  22.018  1.00  0.00     0.171 HD
BRANCH   9  17
HETATM   17  O1  UNL     1       1.386  40.549  22.168  1.00  0.00    -0.356 OA
ATOM     18  H1  UNL     1       1.474  39.651  22.465  1.00  0.00     0.218 HD
ENDBRANCH   9  17
BRANCH  12  19
HETATM   19  O5  UNL     1      -0.881  42.862  18.710  1.00  0.00    -0.355 OA
ATOM     20  H5  UNL     1      -1.698  43.157  18.324  1.00  0.00     0.218 HD
ENDBRANCH  12  19
ENDBRANCH   5   8
ENDBRANCH   1   4
BRANCH   1  21
HETATM   21  O2  UNL     1       0.773  39.551  26.369  1.00  0.00    -0.330 OA
ATOM     22  H2  UNL     1       0.782  39.010  27.150  1.00  0.00     0.221 HD
ENDBRANCH   1  21
BRANCH   2  23
HETATM   23  N4  UNL     1      -1.508  38.092  26.980  1.00  0.00    -0.127 N 
ATOM     24  H4  UNL     1      -1.287  38.518  27.881  1.00  0.00     0.205 HD
BRANCH  23  25
HETATM   25  C6  UNL     1      -1.878  36.854  26.966  1.00  0.00     0.718 A 
HETATM   26  N5  UNL     1      -2.275  36.225  25.865  1.00  0.00    -0.116 N 
HETATM   27  N6  UNL     1      -2.636  34.966  25.931  1.00  0.00    -0.224 N 
ATOM     28  H5  UNL     1      -2.298  36.719  24.973  1.00  0.00     0.207 HD
HETATM   29  N7  UNL     1      -2.624  34.278  27.066  1.00  0.00    -0.236 N 
ATOM     30  H6  UNL     1      -2.938  34.498  25.077  1.00  0.00     0.209 HD
HETATM   31  C7  UNL     1      -2.230  34.877  28.199  1.00  0.00     0.356 A 
ATOM     32  H7  UNL     1      -2.913  33.300  27.076  1.00  0.00     0.193 HD
HETATM   33  O3  UNL     1      -2.198  34.271  29.302  1.00  0.00    -0.244 OA
HETATM   34  N8  UNL     1      -1.858  36.174  28.132  1.00  0.00    -0.133 N 
HETATM   35  C8  UNL     1      -1.423  36.861  29.335  1.00  0.00     0.180 C 
ENDBRANCH  23  25
ENDBRANCH   2  23
TORSDOF 7
ENDMDL
MODEL 5
REMARK VINA RESULT: -7.761223951      1.214      1.489
REMARK  7 active torsions:
REMARK  status: ('A' for Active; 'I' for Inactive)
REMARK    1  A    between atoms: C3_3  and  O1_4 
REMARK    2  A    between atoms: C4_6  and  N1_7 
REMARK    3  A    between atoms: N2_9  and  C5_11 
REMARK    4  A    between atoms: C5_11  and  O2_12 
REMARK    5  A    between atoms: N3_14  and  N4_16 
REMARK    6  A    between atoms: N4_16  and  C6_18 
REMARK    7  A    between atoms: C10_33  and  O5_34 
ROOT
HETATM    1  C5  UNL     1      -1.045  39.265  23.967  1.00  0.00     0.251 C 
HETATM    2  N3  UNL     1      -0.020  39.982  23.720  1.00  0.00    -0.250 N 
ATOM      3  H3  UNL     1       0.779  39.914  24.350  1.00  0.00     0.191 HD
ENDROOT
BRANCH   1   4
HETATM    4  N2  UNL     1      -1.025  38.415  25.099  1.00  0.00    -0.262 N 
HETATM    5  N1  UNL     1      -2.109  37.814  25.392  1.00  0.00    -0.280 N 
ATOM      6  H1  UNL     1      -2.955  37.939  24.835  1.00  0.00     0.188 HD
ATOM      7  H2  UNL     1      -0.180  38.289  25.656  1.00  0.00     0.190 HD
BRANCH   5   8
HETATM    8  C4  UNL     1      -2.087  36.963  26.528  1.00  0.00     0.157 A 
HETATM    9  C3  UNL     1      -2.459  35.630  26.407  1.00  0.00     0.120 A 
HETATM   10  C2  UNL     1      -2.447  34.787  27.485  1.00  0.00     0.014 A 
HETATM   11  C1  UNL     1      -2.845  33.370  27.345  1.00  0.00     0.054 C 
HETATM   12  C10 UNL     1      -2.056  35.276  28.715  1.00  0.00     0.143 A 
HETATM   13  C9  UNL     1      -1.690  36.601  28.819  1.00  0.00     0.281 A 
HETATM   14  N9  UNL     1      -1.714  37.398  27.743  1.00  0.00    -0.304 N 
HETATM   15  O4  UNL     1      -1.325  37.079  29.937  1.00  0.00    -0.265 OA
ATOM     16  H9  UNL     1      -1.438  38.374  27.851  1.00  0.00     0.171 HD
BRANCH   9  17
HETATM   17  O1  UNL     1      -2.844  35.163  25.177  1.00  0.00    -0.356 OA
ATOM     18  H1  UNL     1      -3.177  35.766  24.522  1.00  0.00     0.218 HD
ENDBRANCH   9  17
BRANCH  12  19
HETATM   19  O5  UNL     1      -2.048  34.420  29.788  1.00  0.00    -0.355 OA
ATOM     20  H5  UNL     1      -1.371  34.524  30.446  1.00  0.00     0.218 HD
ENDBRANCH  12  19
ENDBRANCH   5   8
ENDBRANCH   1   4
BRANCH   1  21
HETATM   21  O2  UNL     1      -2.175  39.293  23.162  1.00  0.00    -0.330 OA
ATOM     22  H2  UNL     1      -3.024  39.443  23.561  1.00  0.00     0.221 HD
ENDBRANCH   1  21
BRANCH   2  23
HETATM   23  N4  UNL     1       0.067  40.844  22.646  1.00  0.00    -0.127 N 
ATOM     24  H4  UNL     1      -0.277  41.797  22.765  1.00  0.00     0.205 HD
BRANCH  23  25
HETATM   25  C6  UNL     1       0.561  40.514  21.497  1.00  0.00     0.718 A 
HETATM   26  N5  UNL     1      -0.031  39.659  20.670  1.00  0.00    -0.116 N 
HETATM   27  N6  UNL     1       0.533  39.373  19.521  1.00  0.00    -0.224 N 
ATOM     28  H5  UNL     1      -0.918  39.226  20.928  1.00  0.00     0.207 HD
HETATM   29  N7  UNL     1       1.686  39.908  19.138  1.00  0.00    -0.236 N 
ATOM     30  H6  UNL     1       0.066  38.715  18.897  1.00  0.00     0.209 HD
HETATM   31  C7  UNL     1       2.313  40.776  19.945  1.00  0.00     0.356 A 
ATOM     32  H7  UNL     1       2.092  39.660  18.236  1.00  0.00     0.193 HD
HETATM   33  O3  UNL     1       3.408  41.313  19.630  1.00  0.00    -0.244 OA
HETATM   34  N8  UNL     1       1.734  41.070  21.129  1.00  0.00    -0.133 N 
HETATM   35  C8  UNL     1       2.379  42.006  22.032  1.00  0.00     0.180 C 
ENDBRANCH  23  25
ENDBRANCH   2  23
TORSDOF 7
ENDMDL
