MODEL 1
REMARK VINA RESULT: -8.760772935      0.000      0.000
REMARK  3 active torsions:
REMARK  status: ('A' for Active; 'I' for Inactive)
REMARK       I    between atoms: C2_2  and  N1_4 
REMARK    1  A    between atoms: C3_7  and  N3_8 
REMARK    2  A    between atoms: N4_10  and  C4_12 
REMARK    3  A    between atoms: C6_20  and  N8_21 
ROOT
HETATM    1  C4  UNL     1      -1.114  39.877  22.660  1.00  0.00     0.171 A 
HETATM    2  N5  UNL     1      -2.217  40.003  21.913  1.00  0.00    -0.271 N 
ATOM      3  H5  UNL     1      -3.097  39.487  21.888  1.00  0.00     0.189 HD
HETATM    4  N6  UNL     1      -1.764  41.030  21.218  1.00  0.00    -0.194 N 
HETATM    5  C5  UNL     1      -2.069  41.900  20.235  1.00  0.00     0.360 C 
HETATM    6  O2  UNL     1      -3.294  41.995  19.965  1.00  0.00    -0.244 OA
HETATM    7  N7  UNL     1      -1.252  42.673  19.511  1.00  0.00    -0.140 N 
ATOM      8  H7  UNL     1      -1.682  43.156  18.723  1.00  0.00     0.189 HD
HETATM    9  C6  UNL     1       0.060  42.897  19.685  1.00  0.00     0.682 C 
HETATM   10  N9  UNL     1       0.778  42.640  20.800  1.00  0.00    -0.154 N 
ATOM     11  H9  UNL     1       1.651  43.156  20.899  1.00  0.00     0.187 HD
HETATM   12  C7  UNL     1       0.476  41.773  21.807  1.00  0.00     0.292 C 
HETATM   13  O3  UNL     1       1.291  41.696  22.748  1.00  0.00    -0.265 OA
HETATM   14  C8  UNL     1      -0.619  40.952  21.944  1.00  0.00     0.176 A 
ENDROOT
BRANCH   1  15
HETATM   15  N4  UNL     1      -0.623  39.039  23.719  1.00  0.00    -0.268 N 
HETATM   16  N3  UNL     1      -1.469  38.379  24.357  1.00  0.00    -0.129 N 
ATOM     17  H3  UNL     1      -2.446  38.480  24.081  1.00  0.00     0.205 HD
ATOM     18  H4  UNL     1       0.372  38.986  23.939  1.00  0.00     0.189 HD
BRANCH  16  19
HETATM   19  C3  UNL     1      -1.187  37.503  25.428  1.00  0.00     0.718 A 
HETATM   20  N2  UNL     1      -1.989  36.492  25.794  1.00  0.00    -0.117 N 
HETATM   21  N1  UNL     1      -1.473  35.827  26.840  1.00  0.00    -0.157 N 
ATOM     22  H2  UNL     1      -2.872  36.259  25.339  1.00  0.00     0.206 HD
HETATM   23  C2  UNL     1      -2.038  34.705  27.498  1.00  0.00     0.243 C 
HETATM   24  C10 UNL     1      -0.316  36.464  27.112  1.00  0.00     0.365 A 
HETATM   25  C1  UNL     1      -3.326  34.169  27.026  1.00  0.00     0.119 C 
HETATM   26  O1  UNL     1      -1.455  34.178  28.461  1.00  0.00    -0.272 OA
HETATM   27  N10 UNL     1      -0.134  37.482  26.260  1.00  0.00    -0.133 N 
HETATM   28  O4  UNL     1       0.475  36.138  28.040  1.00  0.00    -0.244 OA
HETATM   29  C9  UNL     1       0.995  38.412  26.225  1.00  0.00     0.180 C 
ENDBRANCH  16  19
ENDBRANCH   1  15
BRANCH   9  30
HETATM   30  N8  UNL     1       0.716  43.407  18.710  1.00  0.00    -0.234 N 
ATOM     31  H82 UNL     1       0.671  44.423  18.631  1.00  0.00     0.174 HD
ATOM     32  H81 UNL     1       1.226  42.772  18.094  1.00  0.00     0.174 HD
ENDBRANCH   9  30
TORSDOF 3
ENDMDL
MODEL 2
REMARK VINA RESULT: -8.355450037      1.977      2.141
REMARK  3 active torsions:
REMARK  status: ('A' for Active; 'I' for Inactive)
REMARK       I    between atoms: C2_2  and  N1_4 
REMARK    1  A    between atoms: C3_7  and  N3_8 
REMARK    2  A    between atoms: N4_10  and  C4_12 
REMARK    3  A    between atoms: C6_20  and  N8_21 
ROOT
HETATM    1  C4  UNL     1      -1.405  39.469  23.101  1.00  0.00     0.171 A 
HETATM    2  N5  UNL     1      -2.023  40.050  22.065  1.00  0.00    -0.271 N 
ATOM      3  H5  UNL     1      -2.992  40.326  21.905  1.00  0.00     0.189 HD
HETATM    4  N6  UNL     1      -0.934  40.142  21.324  1.00  0.00    -0.194 N 
HETATM    5  C5  UNL     1      -0.459  40.558  20.134  1.00  0.00     0.360 C 
HETATM    6  O2  UNL     1      -1.195  41.371  19.518  1.00  0.00    -0.244 OA
HETATM    7  N7  UNL     1       0.683  40.227  19.521  1.00  0.00    -0.140 N 
ATOM      8  H7  UNL     1       0.781  40.554  18.560  1.00  0.00     0.189 HD
HETATM    9  C6  UNL     1       1.718  39.522  20.004  1.00  0.00     0.682 C 
HETATM   10  N9  UNL     1       1.970  39.253  21.303  1.00  0.00    -0.154 N 
ATOM     11  H9  UNL     1       2.934  39.009  21.532  1.00  0.00     0.187 HD
HETATM   12  C7  UNL     1       1.092  39.268  22.345  1.00  0.00     0.292 C 
HETATM   13  O3  UNL     1       1.549  38.984  23.472  1.00  0.00    -0.265 OA
HETATM   14  C8  UNL     1      -0.253  39.555  22.341  1.00  0.00     0.176 A 
ENDROOT
BRANCH   1  15
HETATM   15  N4  UNL     1      -1.736  38.971  24.408  1.00  0.00    -0.268 N 
HETATM   16  N3  UNL     1      -1.320  37.831  24.701  1.00  0.00    -0.129 N 
ATOM     17  H3  UNL     1      -0.775  37.337  23.995  1.00  0.00     0.205 HD
ATOM     18  H4  UNL     1      -2.286  39.524  25.065  1.00  0.00     0.189 HD
BRANCH  16  19
HETATM   19  C3  UNL     1      -1.540  37.170  25.929  1.00  0.00     0.718 A 
HETATM   20  N2  UNL     1      -2.140  35.975  26.035  1.00  0.00    -0.117 N 
HETATM   21  N1  UNL     1      -2.214  35.588  27.318  1.00  0.00    -0.157 N 
ATOM     22  H2  UNL     1      -2.492  35.433  25.246  1.00  0.00     0.206 HD
HETATM   23  C2  UNL     1      -2.781  34.386  27.814  1.00  0.00     0.243 C 
HETATM   24  C10 UNL     1      -1.636  36.591  28.010  1.00  0.00     0.365 A 
HETATM   25  C1  UNL     1      -3.363  33.422  26.865  1.00  0.00     0.119 C 
HETATM   26  O1  UNL     1      -2.786  34.147  29.033  1.00  0.00    -0.272 OA
HETATM   27  N10 UNL     1      -1.224  37.555  27.175  1.00  0.00    -0.133 N 
HETATM   28  O4  UNL     1      -1.507  36.607  29.266  1.00  0.00    -0.244 OA
HETATM   29  C9  UNL     1      -0.552  38.804  27.534  1.00  0.00     0.180 C 
ENDBRANCH  16  19
ENDBRANCH   1  15
BRANCH   9  30
HETATM   30  N8  UNL     1       2.564  39.047  19.166  1.00  0.00    -0.234 N 
ATOM     31  H82 UNL     1       3.100  39.739  18.642  1.00  0.00     0.174 HD
ATOM     32  H81 UNL     1       2.639  38.033  19.086  1.00  0.00     0.174 HD
ENDBRANCH   9  30
TORSDOF 3
ENDMDL
MODEL 3
REMARK VINA RESULT: -7.844689896      1.789      1.815
REMARK  3 active torsions:
REMARK  status: ('A' for Active; 'I' for Inactive)
REMARK       I    between atoms: C2_2  and  N1_4 
REMARK    1  A    between atoms: C3_7  and  N3_8 
REMARK    2  A    between atoms: N4_10  and  C4_12 
REMARK    3  A    between atoms: C6_20  and  N8_21 
ROOT
HETATM    1  C4  UNL     1       0.040  38.752  22.706  1.00  0.00     0.171 A 
HETATM    2  N5  UNL     1       0.032  38.285  21.451  1.00  0.00    -0.271 N 
ATOM      3  H5  UNL     1      -0.043  37.345  21.064  1.00  0.00     0.189 HD
HETATM    4  N6  UNL     1       0.156  39.475  20.891  1.00  0.00    -0.194 N 
HETATM    5  C5  UNL     1       0.247  40.118  19.710  1.00  0.00     0.360 C 
HETATM    6  O2  UNL     1      -0.137  39.460  18.710  1.00  0.00    -0.244 OA
HETATM    7  N7  UNL     1       0.688  41.356  19.458  1.00  0.00    -0.140 N 
ATOM      8  H7  UNL     1       0.800  41.594  18.472  1.00  0.00     0.189 HD
HETATM    9  C6  UNL     1       1.002  42.326  20.330  1.00  0.00     0.682 C 
HETATM   10  N9  UNL     1       0.655  42.377  21.634  1.00  0.00    -0.154 N 
ATOM     11  H9  UNL     1       0.673  43.300  22.067  1.00  0.00     0.187 HD
HETATM   12  C7  UNL     1       0.284  41.344  22.441  1.00  0.00     0.292 C 
HETATM   13  O3  UNL     1       0.003  41.625  23.624  1.00  0.00    -0.265 OA
HETATM   14  C8  UNL     1       0.170  40.007  22.139  1.00  0.00     0.176 A 
ENDROOT
BRANCH   1  15
HETATM   15  N4  UNL     1      -0.044  38.235  24.045  1.00  0.00    -0.268 N 
HETATM   16  N3  UNL     1      -1.163  37.838  24.429  1.00  0.00    -0.129 N 
ATOM     17  H3  UNL     1      -1.936  37.908  23.767  1.00  0.00     0.205 HD
ATOM     18  H4  UNL     1       0.775  38.195  24.652  1.00  0.00     0.189 HD
BRANCH  16  19
HETATM   19  C3  UNL     1      -1.448  37.301  25.703  1.00  0.00     0.718 A 
HETATM   20  N2  UNL     1      -2.029  36.107  25.896  1.00  0.00    -0.117 N 
HETATM   21  N1  UNL     1      -2.178  35.854  27.205  1.00  0.00    -0.157 N 
ATOM     22  H2  UNL     1      -2.318  35.477  25.148  1.00  0.00     0.206 HD
HETATM   23  C2  UNL     1      -2.750  34.694  27.788  1.00  0.00     0.243 C 
HETATM   24  C10 UNL     1      -1.666  36.938  27.823  1.00  0.00     0.365 A 
HETATM   25  C1  UNL     1      -3.250  33.622  26.911  1.00  0.00     0.119 C 
HETATM   26  O1  UNL     1      -2.829  34.582  29.023  1.00  0.00    -0.272 OA
HETATM   27  N10 UNL     1      -1.221  37.821  26.920  1.00  0.00    -0.133 N 
HETATM   28  O4  UNL     1      -1.619  37.087  29.076  1.00  0.00    -0.244 OA
HETATM   29  C9  UNL     1      -0.600  39.118  27.187  1.00  0.00     0.180 C 
ENDBRANCH  16  19
ENDBRANCH   1  15
BRANCH   9  30
HETATM   30  N8  UNL     1       1.700  43.314  19.904  1.00  0.00    -0.234 N 
ATOM     31  H82 UNL     1       1.708  43.443  18.892  1.00  0.00     0.174 HD
ATOM     32  H81 UNL     1       2.186  43.887  20.594  1.00  0.00     0.174 HD
ENDBRANCH   9  30
TORSDOF 3
ENDMDL
MODEL 4
REMARK VINA RESULT: -7.617373635      1.765      8.337
REMARK  3 active torsions:
REMARK  status: ('A' for Active; 'I' for Inactive)
REMARK       I    between atoms: C2_2  and  N1_4 
REMARK    1  A    between atoms: C3_7  and  N3_8 
REMARK    2  A    between atoms: N4_10  and  C4_12 
REMARK    3  A    between atoms: C6_20  and  N8_21 
ROOT
HETATM    1  C4  UNL     1      -1.524  36.555  25.161  1.00  0.00     0.171 A 
HETATM    2  N5  UNL     1      -2.344  35.497  25.208  1.00  0.00    -0.271 N 
ATOM      3  H5  UNL     1      -2.805  34.947  24.482  1.00  0.00     0.189 HD
HETATM    4  N6  UNL     1      -2.344  35.416  26.526  1.00  0.00    -0.194 N 
HETATM    5  C5  UNL     1      -2.832  34.724  27.574  1.00  0.00     0.360 C 
HETATM    6  O2  UNL     1      -3.287  33.584  27.299  1.00  0.00    -0.244 OA
HETATM    7  N7  UNL     1      -2.899  35.082  28.862  1.00  0.00    -0.140 N 
ATOM      8  H7  UNL     1      -3.434  34.459  29.467  1.00  0.00     0.189 HD
HETATM    9  C6  UNL     1      -2.354  36.152  29.462  1.00  0.00     0.682 C 
HETATM   10  N9  UNL     1      -1.371  36.935  28.969  1.00  0.00    -0.154 N 
ATOM     11  H9  UNL     1      -0.847  37.480  29.654  1.00  0.00     0.187 HD
HETATM   12  C7  UNL     1      -0.994  37.085  27.668  1.00  0.00     0.292 C 
HETATM   13  O3  UNL     1      -0.050  37.870  27.441  1.00  0.00    -0.265 OA
HETATM   14  C8  UNL     1      -1.511  36.488  26.542  1.00  0.00     0.176 A 
ENDROOT
BRANCH   1  15
HETATM   15  N4  UNL     1      -0.916  37.399  24.170  1.00  0.00    -0.268 N 
HETATM   16  N3  UNL     1      -1.341  38.570  24.085  1.00  0.00    -0.129 N 
ATOM     17  H3  UNL     1      -2.087  38.843  24.725  1.00  0.00     0.205 HD
ATOM     18  H4  UNL     1      -0.170  37.057  23.564  1.00  0.00     0.189 HD
BRANCH  16  19
HETATM   19  C3  UNL     1      -0.875  39.547  23.179  1.00  0.00     0.718 A 
HETATM   20  N2  UNL     1      -1.663  40.186  22.301  1.00  0.00    -0.117 N 
HETATM   21  N1  UNL     1      -0.954  41.059  21.569  1.00  0.00    -0.157 N 
ATOM     22  H2  UNL     1      -2.666  40.029  22.204  1.00  0.00     0.206 HD
HETATM   23  C2  UNL     1      -1.446  41.909  20.546  1.00  0.00     0.243 C 
HETATM   24  C10 UNL     1       0.310  40.939  22.025  1.00  0.00     0.365 A 
HETATM   25  C1  UNL     1      -2.879  41.872  20.210  1.00  0.00     0.119 C 
HETATM   26  O1  UNL     1      -0.680  42.676  19.940  1.00  0.00    -0.272 OA
HETATM   27  N10 UNL     1       0.367  40.025  23.002  1.00  0.00    -0.133 N 
HETATM   28  O4  UNL     1       1.290  41.602  21.585  1.00  0.00    -0.244 OA
HETATM   29  C9  UNL     1       1.552  39.608  23.751  1.00  0.00     0.180 C 
ENDBRANCH  16  19
ENDBRANCH   1  15
BRANCH   9  30
HETATM   30  N8  UNL     1      -2.796  36.480  30.619  1.00  0.00    -0.234 N 
ATOM     31  H82 UNL     1      -3.808  36.425  30.737  1.00  0.00     0.174 HD
ATOM     32  H81 UNL     1      -2.118  36.768  31.325  1.00  0.00     0.174 HD
ENDBRANCH   9  30
TORSDOF 3
ENDMDL
MODEL 5
REMARK VINA RESULT: -7.572010090      2.005      2.390
REMARK  3 active torsions:
REMARK  status: ('A' for Active; 'I' for Inactive)
REMARK       I    between atoms: C2_2  and  N1_4 
REMARK    1  A    between atoms: C3_7  and  N3_8 
REMARK    2  A    between atoms: N4_10  and  C4_12 
REMARK    3  A    between atoms: C6_20  and  N8_21 
ROOT
HETATM    1  C4  UNL     1       0.492  38.493  22.807  1.00  0.00     0.171 A 
HETATM    2  N5  UNL     1       1.348  38.318  21.792  1.00  0.00    -0.271 N 
ATOM      3  H5  UNL     1       2.173  37.729  21.678  1.00  0.00     0.189 HD
HETATM    4  N6  UNL     1       0.745  39.177  20.991  1.00  0.00    -0.194 N 
HETATM    5  C5  UNL     1       0.788  39.739  19.767  1.00  0.00     0.360 C 
HETATM    6  O2  UNL     1       1.489  39.127  18.921  1.00  0.00    -0.244 OA
HETATM    7  N7  UNL     1       0.189  40.853  19.330  1.00  0.00    -0.140 N 
ATOM      8  H7  UNL     1       0.469  41.171  18.402  1.00  0.00     0.189 HD
HETATM    9  C6  UNL     1      -0.730  41.607  19.952  1.00  0.00     0.682 C 
HETATM   10  N9  UNL     1      -1.478  41.247  21.017  1.00  0.00    -0.154 N 
ATOM     11  H9  UNL     1      -2.338  41.775  21.160  1.00  0.00     0.187 HD
HETATM   12  C7  UNL     1      -1.222  40.262  21.923  1.00  0.00     0.292 C 
HETATM   13  O3  UNL     1      -2.059  40.102  22.835  1.00  0.00    -0.265 OA
HETATM   14  C8  UNL     1      -0.154  39.397  21.984  1.00  0.00     0.176 A 
ENDROOT
BRANCH   1  15
HETATM   15  N4  UNL     1       0.294  37.999  24.142  1.00  0.00    -0.268 N 
HETATM   16  N3  UNL     1      -0.871  37.684  24.462  1.00  0.00    -0.129 N 
ATOM     17  H3  UNL     1      -1.597  37.798  23.755  1.00  0.00     0.205 HD
ATOM     18  H4  UNL     1       1.070  37.911  24.798  1.00  0.00     0.189 HD
BRANCH  16  19
HETATM   19  C3  UNL     1      -1.267  37.183  25.721  1.00  0.00     0.718 A 
HETATM   20  N2  UNL     1      -1.905  36.015  25.892  1.00  0.00    -0.117 N 
HETATM   21  N1  UNL     1      -2.157  35.793  27.191  1.00  0.00    -0.157 N 
ATOM     22  H2  UNL     1      -2.163  35.382  25.135  1.00  0.00     0.206 HD
HETATM   23  C2  UNL     1      -2.814  34.667  27.750  1.00  0.00     0.243 C 
HETATM   24  C10 UNL     1      -1.651  36.870  27.826  1.00  0.00     0.365 A 
HETATM   25  C1  UNL     1      -3.290  33.597  26.858  1.00  0.00     0.119 C 
HETATM   26  O1  UNL     1      -2.986  34.582  28.978  1.00  0.00    -0.272 OA
HETATM   27  N10 UNL     1      -1.109  37.718  26.942  1.00  0.00    -0.133 N 
HETATM   28  O4  UNL     1      -1.689  37.042  29.076  1.00  0.00    -0.244 OA
HETATM   29  C9  UNL     1      -0.460  38.997  27.232  1.00  0.00     0.180 C 
ENDBRANCH  16  19
ENDBRANCH   1  15
BRANCH   9  30
HETATM   30  N8  UNL     1      -0.937  42.791  19.506  1.00  0.00    -0.234 N 
ATOM     31  H82 UNL     1      -0.104  43.367  19.382  1.00  0.00     0.174 HD
ATOM     32  H81 UNL     1      -1.899  43.067  19.312  1.00  0.00     0.174 HD
ENDBRANCH   9  30
TORSDOF 3
ENDMDL
