MODEL 1
REMARK VINA RESULT: -5.773092256      0.000      0.000
REMARK  5 active torsions:
REMARK  status: ('A' for Active; 'I' for Inactive)
REMARK    1  A    between atoms: N2_5  and  O2_6 
REMARK    2  A    between atoms: N3_17  and  C8_18 
REMARK    3  A    between atoms: C8_18  and  O5_19 
REMARK    4  A    between atoms: C8_18  and  C9_21 
REMARK    5  A    between atoms: C9_21  and  N4_22 
ROOT
HETATM    1  C1  UNL     1       2.124  39.482  19.863  1.00  0.00     0.162 C 
HETATM    2  N1  UNL     1       1.125  39.469  20.908  1.00  0.00    -0.295 N 
HETATM    3  C2  UNL     1      -0.038  40.083  20.745  1.00  0.00     0.356 A 
HETATM    4  O1  UNL     1      -0.331  40.699  19.690  1.00  0.00    -0.244 OA
HETATM    5  N2  UNL     1      -0.909  40.048  21.709  1.00  0.00    -0.133 N 
HETATM    6  C3  UNL     1      -0.637  39.394  22.871  1.00  0.00     0.291 A 
HETATM    7  O3  UNL     1      -1.599  39.481  23.643  1.00  0.00    -0.265 OA
HETATM    8  C4  UNL     1       0.548  38.727  23.134  1.00  0.00     0.097 A 
HETATM    9  C5  UNL     1       1.412  38.808  22.070  1.00  0.00     0.099 A 
HETATM   10  S1  UNL     1       2.811  37.939  22.455  1.00  0.00    -0.061 SA
HETATM   11  C6  UNL     1       2.277  37.461  24.019  1.00  0.00     0.081 A 
HETATM   12  S2  UNL     1       2.735  36.556  25.398  1.00  0.00    -0.019 SA
HETATM   13  C7  UNL     1       1.315  36.856  26.231  1.00  0.00     0.294 A 
HETATM   14  O4  UNL     1       1.173  36.356  27.382  1.00  0.00    -0.259 OA
HETATM   15  N3  UNL     1       0.528  37.623  25.477  1.00  0.00    -0.277 N 
HETATM   16  C10 UNL     1       1.024  37.974  24.240  1.00  0.00     0.083 A 
ENDROOT
BRANCH  15  17
HETATM   17  C8  UNL     1      -0.725  38.033  26.086  1.00  0.00     0.254 C 
BRANCH  17  18
HETATM   18  O5  UNL     1      -0.646  38.601  27.347  1.00  0.00    -0.374 OA
ATOM     19  H5  UNL     1      -1.199  39.355  27.509  1.00  0.00     0.212 HD
ENDBRANCH  17  18
BRANCH  17  20
HETATM   20  C9  UNL     1      -1.804  37.004  26.209  1.00  0.00     0.283 C 
BRANCH  20  21
HETATM   21  N4  UNL     1      -2.011  36.574  27.581  1.00  0.00    -0.075 N 
ATOM     22  H43 UNL     1      -2.658  35.786  27.625  1.00  0.00     0.274 HD
ATOM     23  H42 UNL     1      -1.176  36.121  27.954  1.00  0.00     0.274 HD
ATOM     24  H41 UNL     1      -2.317  37.334  28.189  1.00  0.00     0.274 HD
ENDBRANCH  20  21
ENDBRANCH  17  20
ENDBRANCH  15  17
BRANCH   5  25
HETATM   25  O2  UNL     1      -2.143  40.693  21.548  1.00  0.00    -0.276 OA
ATOM     26  H2  UNL     1      -2.602  41.023  22.311  1.00  0.00     0.245 HD
ENDBRANCH   5  25
TORSDOF 5
ENDMDL
MODEL 2
REMARK VINA RESULT: -5.665954988      1.007      1.007
REMARK  5 active torsions:
REMARK  status: ('A' for Active; 'I' for Inactive)
REMARK    1  A    between atoms: N2_5  and  O2_6 
REMARK    2  A    between atoms: N3_17  and  C8_18 
REMARK    3  A    between atoms: C8_18  and  O5_19 
REMARK    4  A    between atoms: C8_18  and  C9_21 
REMARK    5  A    between atoms: C9_21  and  N4_22 
ROOT
HETATM    1  C1  UNL     1       2.113  40.457  20.439  1.00  0.00     0.162 C 
HETATM    2  N1  UNL     1       1.117  40.069  21.412  1.00  0.00    -0.295 N 
HETATM    3  C2  UNL     1      -0.175  40.217  21.159  1.00  0.00     0.356 A 
HETATM    4  O1  UNL     1      -0.598  40.695  20.077  1.00  0.00    -0.244 OA
HETATM    5  N2  UNL     1      -1.038  39.855  22.061  1.00  0.00    -0.133 N 
HETATM    6  C3  UNL     1      -0.628  39.332  23.248  1.00  0.00     0.291 A 
HETATM    7  O3  UNL     1      -1.608  39.053  23.950  1.00  0.00    -0.265 OA
HETATM    8  C4  UNL     1       0.696  39.142  23.604  1.00  0.00     0.097 A 
HETATM    9  C5  UNL     1       1.544  39.545  22.601  1.00  0.00     0.099 A 
HETATM   10  S1  UNL     1       3.133  39.244  23.095  1.00  0.00    -0.061 SA
HETATM   11  C6  UNL     1       2.702  38.586  24.625  1.00  0.00     0.081 A 
HETATM   12  S2  UNL     1       3.361  37.895  26.046  1.00  0.00    -0.019 SA
HETATM   13  C7  UNL     1       1.875  37.646  26.774  1.00  0.00     0.294 A 
HETATM   14  O4  UNL     1       1.845  37.115  27.919  1.00  0.00    -0.259 OA
HETATM   15  N3  UNL     1       0.918  38.081  25.956  1.00  0.00    -0.277 N 
HETATM   16  C10 UNL     1       1.336  38.603  24.751  1.00  0.00     0.083 A 
ENDROOT
BRANCH  15  17
HETATM   17  C8  UNL     1      -0.439  37.997  26.470  1.00  0.00     0.254 C 
BRANCH  17  18
HETATM   18  O5  UNL     1      -0.654  38.511  27.738  1.00  0.00    -0.374 OA
ATOM     19  H5  UNL     1      -1.418  38.191  28.202  1.00  0.00     0.212 HD
ENDBRANCH  17  18
BRANCH  17  20
HETATM   20  C9  UNL     1      -1.086  36.649  26.501  1.00  0.00     0.283 C 
BRANCH  20  21
HETATM   21  N4  UNL     1      -1.994  36.439  25.387  1.00  0.00    -0.075 N 
ATOM     22  H43 UNL     1      -2.862  36.959  25.518  1.00  0.00     0.274 HD
ATOM     23  H42 UNL     1      -1.652  36.900  24.543  1.00  0.00     0.274 HD
ATOM     24  H41 UNL     1      -2.181  35.451  25.214  1.00  0.00     0.274 HD
ENDBRANCH  20  21
ENDBRANCH  17  20
ENDBRANCH  15  17
BRANCH   5  25
HETATM   25  O2  UNL     1      -2.408  40.006  21.804  1.00  0.00    -0.276 OA
ATOM     26  H2  UNL     1      -2.711  40.761  21.313  1.00  0.00     0.245 HD
ENDBRANCH   5  25
TORSDOF 5
ENDMDL
MODEL 3
REMARK VINA RESULT: -5.616336336      2.743      6.134
REMARK  5 active torsions:
REMARK  status: ('A' for Active; 'I' for Inactive)
REMARK    1  A    between atoms: N2_5  and  O2_6 
REMARK    2  A    between atoms: N3_17  and  C8_18 
REMARK    3  A    between atoms: C8_18  and  O5_19 
REMARK    4  A    between atoms: C8_18  and  C9_21 
REMARK    5  A    between atoms: C9_21  and  N4_22 
ROOT
HETATM    1  C1  UNL     1       1.412  40.186  26.572  1.00  0.00     0.162 C 
HETATM    2  N1  UNL     1       0.585  40.095  25.390  1.00  0.00    -0.295 N 
HETATM    3  C2  UNL     1      -0.562  39.433  25.411  1.00  0.00     0.356 A 
HETATM    4  O1  UNL     1      -0.987  38.858  26.444  1.00  0.00    -0.244 OA
HETATM    5  N2  UNL     1      -1.276  39.374  24.327  1.00  0.00    -0.133 N 
HETATM    6  C3  UNL     1      -0.857  39.981  23.183  1.00  0.00     0.291 A 
HETATM    7  O3  UNL     1      -1.685  39.806  22.282  1.00  0.00    -0.265 OA
HETATM    8  C4  UNL     1       0.325  40.692  23.063  1.00  0.00     0.097 A 
HETATM    9  C5  UNL     1       1.019  40.709  24.247  1.00  0.00     0.099 A 
HETATM   10  S1  UNL     1       2.423  41.626  24.028  1.00  0.00    -0.061 SA
HETATM   11  C6  UNL     1       2.115  41.996  22.377  1.00  0.00     0.081 A 
HETATM   12  S2  UNL     1       2.740  42.851  21.032  1.00  0.00    -0.019 SA
HETATM   13  C7  UNL     1       1.478  42.437  20.013  1.00  0.00     0.294 A 
HETATM   14  O4  UNL     1       1.493  42.871  18.827  1.00  0.00    -0.259 OA
HETATM   15  N3  UNL     1       0.618  41.672  20.683  1.00  0.00    -0.277 N 
HETATM   16  C10 UNL     1       0.933  41.410  21.999  1.00  0.00     0.083 A 
ENDROOT
BRANCH  15  17
HETATM   17  C8  UNL     1      -0.509  41.170  19.918  1.00  0.00     0.254 C 
BRANCH  17  18
HETATM   18  O5  UNL     1      -0.215  40.558  18.710  1.00  0.00    -0.374 OA
ATOM     19  H5  UNL     1      -0.264  39.610  18.691  1.00  0.00     0.212 HD
ENDBRANCH  17  18
BRANCH  17  20
HETATM   20  C9  UNL     1      -1.607  42.131  19.590  1.00  0.00     0.283 C 
BRANCH  20  21
HETATM   21  N4  UNL     1      -2.748  42.001  20.480  1.00  0.00    -0.075 N 
ATOM     22  H43 UNL     1      -2.939  41.021  20.691  1.00  0.00     0.274 HD
ATOM     23  H42 UNL     1      -2.520  42.330  21.418  1.00  0.00     0.274 HD
ATOM     24  H41 UNL     1      -3.581  42.467  20.120  1.00  0.00     0.274 HD
ENDBRANCH  20  21
ENDBRANCH  17  20
ENDBRANCH  15  17
BRANCH   5  25
HETATM   25  O2  UNL     1      -2.492  38.677  24.338  1.00  0.00    -0.276 OA
ATOM     26  H2  UNL     1      -2.908  38.449  23.515  1.00  0.00     0.245 HD
ENDBRANCH   5  25
TORSDOF 5
ENDMDL
MODEL 4
REMARK VINA RESULT: -5.526069517      1.899      1.921
REMARK  5 active torsions:
REMARK  status: ('A' for Active; 'I' for Inactive)
REMARK    1  A    between atoms: N2_5  and  O2_6 
REMARK    2  A    between atoms: N3_17  and  C8_18 
REMARK    3  A    between atoms: C8_18  and  O5_19 
REMARK    4  A    between atoms: C8_18  and  C9_21 
REMARK    5  A    between atoms: C9_21  and  N4_22 
ROOT
HETATM    1  C1  UNL     1       2.433  41.697  22.672  1.00  0.00     0.162 C 
HETATM    2  N1  UNL     1       1.222  40.975  22.988  1.00  0.00    -0.295 N 
HETATM    3  C2  UNL     1       0.117  41.157  22.280  1.00  0.00     0.356 A 
HETATM    4  O1  UNL     1       0.063  41.954  21.311  1.00  0.00    -0.244 OA
HETATM    5  N2  UNL     1      -0.951  40.488  22.598  1.00  0.00    -0.133 N 
HETATM    6  C3  UNL     1      -0.942  39.613  23.640  1.00  0.00     0.291 A 
HETATM    7  O3  UNL     1      -2.054  39.085  23.761  1.00  0.00    -0.265 OA
HETATM    8  C4  UNL     1       0.161  39.358  24.437  1.00  0.00     0.097 A 
HETATM    9  C5  UNL     1       1.246  40.099  24.038  1.00  0.00     0.099 A 
HETATM   10  S1  UNL     1       2.555  39.701  25.032  1.00  0.00    -0.061 SA
HETATM   11  C6  UNL     1       1.692  38.558  25.984  1.00  0.00     0.081 A 
HETATM   12  S2  UNL     1       1.867  37.455  27.281  1.00  0.00    -0.019 SA
HETATM   13  C7  UNL     1       0.278  36.930  27.225  1.00  0.00     0.294 A 
HETATM   14  O4  UNL     1      -0.095  36.047  28.046  1.00  0.00    -0.259 OA
HETATM   15  N3  UNL     1      -0.355  37.581  26.250  1.00  0.00    -0.277 N 
HETATM   16  C10 UNL     1       0.397  38.488  25.534  1.00  0.00     0.083 A 
ENDROOT
BRANCH  15  17
HETATM   17  C8  UNL     1      -1.771  37.288  26.110  1.00  0.00     0.254 C 
BRANCH  17  18
HETATM   18  O5  UNL     1      -2.551  37.447  27.243  1.00  0.00    -0.374 OA
ATOM     19  H5  UNL     1      -3.461  37.680  27.103  1.00  0.00     0.212 HD
ENDBRANCH  17  18
BRANCH  17  20
HETATM   20  C9  UNL     1      -2.150  35.940  25.583  1.00  0.00     0.283 C 
BRANCH  20  21
HETATM   21  N4  UNL     1      -2.538  35.018  26.636  1.00  0.00    -0.075 N 
ATOM     22  H43 UNL     1      -3.526  35.121  26.867  1.00  0.00     0.274 HD
ATOM     23  H42 UNL     1      -2.548  34.056  26.296  1.00  0.00     0.274 HD
ATOM     24  H41 UNL     1      -1.956  35.106  27.469  1.00  0.00     0.274 HD
ENDBRANCH  20  21
ENDBRANCH  17  20
ENDBRANCH  15  17
BRANCH   5  25
HETATM   25  O2  UNL     1      -2.126  40.672  21.855  1.00  0.00    -0.276 OA
ATOM     26  H2  UNL     1      -2.890  40.142  22.049  1.00  0.00     0.245 HD
ENDBRANCH   5  25
TORSDOF 5
ENDMDL
MODEL 5
REMARK VINA RESULT: -5.508928290      2.577      5.419
REMARK  5 active torsions:
REMARK  status: ('A' for Active; 'I' for Inactive)
REMARK    1  A    between atoms: N2_5  and  O2_6 
REMARK    2  A    between atoms: N3_17  and  C8_18 
REMARK    3  A    between atoms: C8_18  and  O5_19 
REMARK    4  A    between atoms: C8_18  and  C9_21 
REMARK    5  A    between atoms: C9_21  and  N4_22 
ROOT
HETATM    1  C1  UNL     1       5.811  37.409  25.049  1.00  0.00     0.162 C 
HETATM    2  N1  UNL     1       4.548  37.066  25.662  1.00  0.00    -0.295 N 
HETATM    3  C2  UNL     1       4.495  36.232  26.690  1.00  0.00     0.356 A 
HETATM    4  O1  UNL     1       5.524  35.704  27.181  1.00  0.00    -0.244 OA
HETATM    5  N2  UNL     1       3.339  35.949  27.212  1.00  0.00    -0.133 N 
HETATM    6  C3  UNL     1       2.196  36.496  26.715  1.00  0.00     0.291 A 
HETATM    7  O3  UNL     1       1.219  36.098  27.360  1.00  0.00    -0.265 OA
HETATM    8  C4  UNL     1       2.151  37.373  25.645  1.00  0.00     0.097 A 
HETATM    9  C5  UNL     1       3.408  37.623  25.151  1.00  0.00     0.099 A 
HETATM   10  S1  UNL     1       3.270  38.729  23.880  1.00  0.00    -0.061 SA
HETATM   11  C6  UNL     1       1.559  38.874  23.979  1.00  0.00     0.081 A 
HETATM   12  S2  UNL     1       0.216  39.678  23.286  1.00  0.00    -0.019 SA
HETATM   13  C7  UNL     1      -0.906  38.964  24.302  1.00  0.00     0.294 A 
HETATM   14  O4  UNL     1      -2.124  39.271  24.168  1.00  0.00    -0.259 OA
HETATM   15  N3  UNL     1      -0.269  38.141  25.134  1.00  0.00    -0.277 N 
HETATM   16  C10 UNL     1       1.099  38.069  24.991  1.00  0.00     0.083 A 
ENDROOT
BRANCH  15  17
HETATM   17  C8  UNL     1      -1.113  37.387  26.045  1.00  0.00     0.254 C 
BRANCH  17  18
HETATM   18  O5  UNL     1      -2.284  36.866  25.518  1.00  0.00    -0.374 OA
ATOM     19  H5  UNL     1      -2.441  35.942  25.665  1.00  0.00     0.212 HD
ENDBRANCH  17  18
BRANCH  17  20
HETATM   20  C9  UNL     1      -1.542  38.060  27.310  1.00  0.00     0.283 C 
BRANCH  20  21
HETATM   21  N4  UNL     1      -1.332  37.231  28.483  1.00  0.00    -0.075 N 
ATOM     22  H43 UNL     1      -1.386  36.240  28.247  1.00  0.00     0.274 HD
ATOM     23  H42 UNL     1      -0.361  37.273  28.793  1.00  0.00     0.274 HD
ATOM     24  H41 UNL     1      -1.970  37.461  29.246  1.00  0.00     0.274 HD
ENDBRANCH  20  21
ENDBRANCH  17  20
ENDBRANCH  15  17
BRANCH   5  25
HETATM   25  O2  UNL     1       3.271  35.068  28.301  1.00  0.00    -0.276 OA
ATOM     26  H2  UNL     1       2.425  34.850  28.673  1.00  0.00     0.245 HD
ENDBRANCH   5  25
TORSDOF 5
ENDMDL
