MODEL 1
REMARK VINA RESULT: -6.700163254      0.000      0.000
REMARK  3 active torsions:
REMARK  status: ('A' for Active; 'I' for Inactive)
REMARK    1  A    between atoms: N1_1  and  C1_4 
REMARK       I    between atoms: N3_7  and  C2_8 
REMARK       I    between atoms: C2_8  and  N4_10 
REMARK    2  A    between atoms: N7_17  and  N8_18 
REMARK    3  A    between atoms: C6_20  and  C7_21 
ROOT
HETATM    1  C1  UNL     1       1.189  39.188  26.567  1.00  0.00     0.716 A 
HETATM    2  N2  UNL     1       0.501  38.063  26.934  1.00  0.00    -0.116 N 
ATOM      3  H2  UNL     1       0.813  37.364  27.608  1.00  0.00     0.206 HD
HETATM    4  N3  UNL     1      -0.636  38.043  26.264  1.00  0.00    -0.135 N 
HETATM    5  C2  UNL     1      -1.686  37.077  26.305  1.00  0.00     0.365 C 
HETATM    6  O1  UNL     1      -2.686  37.319  25.533  1.00  0.00    -0.243 OA
HETATM    7  N4  UNL     1      -1.693  35.918  27.105  1.00  0.00    -0.227 N 
HETATM    8  C3  UNL     1      -2.768  34.948  27.132  1.00  0.00     0.169 C 
HETATM    9  C4  UNL     1      -2.754  34.577  28.616  1.00  0.00     0.153 C 
HETATM   10  N5  UNL     1      -1.338  34.622  28.899  1.00  0.00    -0.124 NA
HETATM   11  N6  UNL     1      -0.742  35.465  27.992  1.00  0.00    -0.025 NA
HETATM   12  C5  UNL     1      -0.653  39.156  25.482  1.00  0.00     0.386 A 
HETATM   13  O2  UNL     1      -1.567  39.531  24.671  1.00  0.00    -0.242 OA
HETATM   14  N7  UNL     1       0.469  39.868  25.661  1.00  0.00    -0.029 N 
ENDROOT
BRANCH  14  15
HETATM   15  N8  UNL     1       0.828  41.073  25.041  1.00  0.00    -0.284 N 
HETATM   16  C6  UNL     1       1.337  41.108  23.860  1.00  0.00     0.146 C 
ATOM     17  H8  UNL     1       0.683  41.949  25.543  1.00  0.00     0.187 HD
BRANCH  16  18
HETATM   18  C7  UNL     1       1.713  42.395  23.215  1.00  0.00     0.101 A 
HETATM   19  C8  UNL     1       2.166  42.407  21.915  1.00  0.00     0.091 A 
HETATM   20  S1  UNL     1       2.443  44.084  21.692  1.00  0.00    -0.062 SA
HETATM   21  C9  UNL     1       1.965  44.601  23.248  1.00  0.00     0.184 A 
HETATM   22  S2  UNL     1       1.923  46.128  23.895  1.00  0.00    -0.044 SA
HETATM   23  O3  UNL     1       1.637  43.498  23.815  1.00  0.00    -0.290 OA
ENDBRANCH  16  18
ENDBRANCH  14  15
BRANCH   1  24
HETATM   24  N1  UNL     1       2.347  39.514  27.037  1.00  0.00    -0.231 N 
ATOM     25  H12 UNL     1       3.244  39.087  26.804  1.00  0.00     0.174 HD
ATOM     26  H11 UNL     1       2.499  40.258  27.718  1.00  0.00     0.174 HD
ENDBRANCH   1  24
TORSDOF 3
ENDMDL
MODEL 2
REMARK VINA RESULT: -6.680940899      1.614      2.192
REMARK  3 active torsions:
REMARK  status: ('A' for Active; 'I' for Inactive)
REMARK    1  A    between atoms: N1_1  and  C1_4 
REMARK       I    between atoms: N3_7  and  C2_8 
REMARK       I    between atoms: C2_8  and  N4_10 
REMARK    2  A    between atoms: N7_17  and  N8_18 
REMARK    3  A    between atoms: C6_20  and  C7_21 
ROOT
HETATM    1  C1  UNL     1      -1.543  39.066  24.252  1.00  0.00     0.716 A 
HETATM    2  N2  UNL     1      -1.906  37.979  25.000  1.00  0.00    -0.116 N 
ATOM      3  H2  UNL     1      -2.627  37.300  24.759  1.00  0.00     0.206 HD
HETATM    4  N3  UNL     1      -1.158  37.964  26.088  1.00  0.00    -0.135 N 
HETATM    5  C2  UNL     1      -1.162  37.031  27.167  1.00  0.00     0.365 C 
HETATM    6  O1  UNL     1      -0.313  37.270  28.104  1.00  0.00    -0.243 OA
HETATM    7  N4  UNL     1      -2.006  35.908  27.269  1.00  0.00    -0.227 N 
HETATM    8  C3  UNL     1      -1.995  34.972  28.373  1.00  0.00     0.169 C 
HETATM    9  C4  UNL     1      -2.268  33.669  27.621  1.00  0.00     0.153 C 
HETATM   10  N5  UNL     1      -3.189  34.123  26.604  1.00  0.00    -0.124 NA
HETATM   11  N6  UNL     1      -2.976  35.465  26.397  1.00  0.00    -0.025 NA
HETATM   12  C5  UNL     1      -0.331  39.042  26.013  1.00  0.00     0.386 A 
HETATM   13  O2  UNL     1       0.557  39.409  26.857  1.00  0.00    -0.242 OA
HETATM   14  N7  UNL     1      -0.562  39.728  24.885  1.00  0.00    -0.029 N 
ENDROOT
BRANCH  14  15
HETATM   15  N8  UNL     1       0.079  40.894  24.444  1.00  0.00    -0.284 N 
HETATM   16  C6  UNL     1       1.091  40.858  23.649  1.00  0.00     0.146 C 
ATOM     17  H8  UNL     1      -0.267  41.799  24.763  1.00  0.00     0.187 HD
BRANCH  16  18
HETATM   18  C7  UNL     1       1.760  42.106  23.189  1.00  0.00     0.101 A 
HETATM   19  C8  UNL     1       2.652  42.061  22.140  1.00  0.00     0.091 A 
HETATM   20  S1  UNL     1       3.103  43.712  22.040  1.00  0.00    -0.062 SA
HETATM   21  C9  UNL     1       2.132  44.290  23.320  1.00  0.00     0.184 A 
HETATM   22  S2  UNL     1       1.962  45.830  23.914  1.00  0.00    -0.044 SA
HETATM   23  O3  UNL     1       1.548  43.223  23.726  1.00  0.00    -0.290 OA
ENDBRANCH  16  18
ENDBRANCH  14  15
BRANCH   1  24
HETATM   24  N1  UNL     1      -2.082  39.378  23.120  1.00  0.00    -0.231 N 
ATOM     25  H12 UNL     1      -2.230  38.759  22.323  1.00  0.00     0.174 HD
ATOM     26  H11 UNL     1      -2.430  40.308  22.889  1.00  0.00     0.174 HD
ENDBRANCH   1  24
TORSDOF 3
ENDMDL
MODEL 3
REMARK VINA RESULT: -6.676596383      2.040      2.589
REMARK  3 active torsions:
REMARK  status: ('A' for Active; 'I' for Inactive)
REMARK    1  A    between atoms: N1_1  and  C1_4 
REMARK       I    between atoms: N3_7  and  C2_8 
REMARK       I    between atoms: C2_8  and  N4_10 
REMARK    2  A    between atoms: N7_17  and  N8_18 
REMARK    3  A    between atoms: C6_20  and  C7_21 
ROOT
HETATM    1  C1  UNL     1      -1.580  38.765  24.610  1.00  0.00     0.716 A 
HETATM    2  N2  UNL     1      -1.999  37.625  25.240  1.00  0.00    -0.116 N 
ATOM      3  H2  UNL     1      -2.738  36.999  24.918  1.00  0.00     0.206 HD
HETATM    4  N3  UNL     1      -1.280  37.476  26.337  1.00  0.00    -0.135 N 
HETATM    5  C2  UNL     1      -1.343  36.444  27.320  1.00  0.00     0.365 C 
HETATM    6  O1  UNL     1      -0.510  36.560  28.294  1.00  0.00    -0.243 OA
HETATM    7  N4  UNL     1      -2.229  35.348  27.293  1.00  0.00    -0.227 N 
HETATM    8  C3  UNL     1      -2.279  34.311  28.301  1.00  0.00     0.169 C 
HETATM    9  C4  UNL     1      -2.578  33.097  27.419  1.00  0.00     0.153 C 
HETATM   10  N5  UNL     1      -3.456  33.682  26.432  1.00  0.00    -0.124 NA
HETATM   11  N6  UNL     1      -3.191  35.028  26.362  1.00  0.00    -0.025 NA
HETATM   12  C5  UNL     1      -0.415  38.525  26.386  1.00  0.00     0.386 A 
HETATM   13  O2  UNL     1       0.464  38.775  27.279  1.00  0.00    -0.242 OA
HETATM   14  N7  UNL     1      -0.593  39.325  25.325  1.00  0.00    -0.029 N 
ENDROOT
BRANCH  14  15
HETATM   15  N8  UNL     1       0.100  40.503  25.013  1.00  0.00    -0.284 N 
HETATM   16  C6  UNL     1       1.154  40.501  24.275  1.00  0.00     0.146 C 
ATOM     17  H8  UNL     1      -0.243  41.390  25.383  1.00  0.00     0.187 HD
BRANCH  16  18
HETATM   18  C7  UNL     1       1.878  41.762  23.953  1.00  0.00     0.101 A 
HETATM   19  C8  UNL     1       1.201  42.817  23.383  1.00  0.00     0.091 A 
HETATM   20  S1  UNL     1       2.469  43.960  23.232  1.00  0.00    -0.062 SA
HETATM   21  C9  UNL     1       3.717  43.003  23.896  1.00  0.00     0.184 A 
HETATM   22  S2  UNL     1       5.321  43.359  24.130  1.00  0.00    -0.044 SA
HETATM   23  O3  UNL     1       3.105  41.911  24.179  1.00  0.00    -0.290 OA
ENDBRANCH  16  18
ENDBRANCH  14  15
BRANCH   1  24
HETATM   24  N1  UNL     1      -2.079  39.204  23.501  1.00  0.00    -0.231 N 
ATOM     25  H12 UNL     1      -1.769  38.974  22.558  1.00  0.00     0.174 HD
ATOM     26  H11 UNL     1      -2.865  39.852  23.445  1.00  0.00     0.174 HD
ENDBRANCH   1  24
TORSDOF 3
ENDMDL
MODEL 4
REMARK VINA RESULT: -6.641452484      2.942      3.254
REMARK  3 active torsions:
REMARK  status: ('A' for Active; 'I' for Inactive)
REMARK    1  A    between atoms: N1_1  and  C1_4 
REMARK       I    between atoms: N3_7  and  C2_8 
REMARK       I    between atoms: C2_8  and  N4_10 
REMARK    2  A    between atoms: N7_17  and  N8_18 
REMARK    3  A    between atoms: C6_20  and  C7_21 
ROOT
HETATM    1  C1  UNL     1       2.492  37.094  26.542  1.00  0.00     0.716 A 
HETATM    2  N2  UNL     1       1.331  36.564  27.036  1.00  0.00    -0.116 N 
ATOM      3  H2  UNL     1       1.180  35.590  27.296  1.00  0.00     0.206 HD
HETATM    4  N3  UNL     1       0.441  37.536  27.119  1.00  0.00    -0.135 N 
HETATM    5  C2  UNL     1      -0.910  37.480  27.574  1.00  0.00     0.365 C 
HETATM    6  O1  UNL     1      -1.547  38.598  27.542  1.00  0.00    -0.243 OA
HETATM    7  N4  UNL     1      -1.565  36.323  28.038  1.00  0.00    -0.227 N 
HETATM    8  C3  UNL     1      -2.937  36.286  28.497  1.00  0.00     0.169 C 
HETATM    9  C4  UNL     1      -2.811  35.274  29.636  1.00  0.00     0.153 C 
HETATM   10  N5  UNL     1      -1.835  34.361  29.088  1.00  0.00    -0.124 NA
HETATM   11  N6  UNL     1      -1.084  35.038  28.158  1.00  0.00    -0.025 NA
HETATM   12  C5  UNL     1       1.051  38.668  26.675  1.00  0.00     0.386 A 
HETATM   13  O2  UNL     1       0.555  39.842  26.584  1.00  0.00    -0.242 OA
HETATM   14  N7  UNL     1       2.316  38.405  26.317  1.00  0.00    -0.029 N 
ENDROOT
BRANCH  14  15
HETATM   15  N8  UNL     1       3.269  39.301  25.811  1.00  0.00    -0.284 N 
HETATM   16  C6  UNL     1       4.032  39.993  26.582  1.00  0.00     0.146 C 
ATOM     17  H8  UNL     1       3.360  39.407  24.801  1.00  0.00     0.187 HD
BRANCH  16  18
HETATM   18  C7  UNL     1       5.039  40.940  26.030  1.00  0.00     0.101 A 
HETATM   19  C8  UNL     1       6.378  40.749  26.290  1.00  0.00     0.091 A 
HETATM   20  S1  UNL     1       7.055  42.078  25.446  1.00  0.00    -0.062 SA
HETATM   21  C9  UNL     1       5.596  42.739  24.854  1.00  0.00     0.184 A 
HETATM   22  S2  UNL     1       5.342  44.080  23.912  1.00  0.00    -0.044 SA
HETATM   23  O3  UNL     1       4.718  41.930  25.323  1.00  0.00    -0.290 OA
ENDBRANCH  16  18
ENDBRANCH  14  15
BRANCH   1  24
HETATM   24  N1  UNL     1       3.569  36.410  26.336  1.00  0.00    -0.231 N 
ATOM     25  H12 UNL     1       4.147  35.953  27.041  1.00  0.00     0.174 HD
ATOM     26  H11 UNL     1       3.975  36.247  25.414  1.00  0.00     0.174 HD
ENDBRANCH   1  24
TORSDOF 3
ENDMDL
MODEL 5
REMARK VINA RESULT: -6.586926973      0.811      1.344
REMARK  3 active torsions:
REMARK  status: ('A' for Active; 'I' for Inactive)
REMARK    1  A    between atoms: N1_1  and  C1_4 
REMARK       I    between atoms: N3_7  and  C2_8 
REMARK       I    between atoms: C2_8  and  N4_10 
REMARK    2  A    between atoms: N7_17  and  N8_18 
REMARK    3  A    between atoms: C6_20  and  C7_21 
ROOT
HETATM    1  C1  UNL     1       1.154  39.232  26.491  1.00  0.00     0.716 A 
HETATM    2  N2  UNL     1       0.481  38.106  26.880  1.00  0.00    -0.116 N 
ATOM      3  H2  UNL     1       0.800  37.426  27.571  1.00  0.00     0.206 HD
HETATM    4  N3  UNL     1      -0.653  38.054  26.207  1.00  0.00    -0.135 N 
HETATM    5  C2  UNL     1      -1.689  37.075  26.266  1.00  0.00     0.365 C 
HETATM    6  O1  UNL     1      -2.690  37.285  25.485  1.00  0.00    -0.243 OA
HETATM    7  N4  UNL     1      -1.683  35.933  27.091  1.00  0.00    -0.227 N 
HETATM    8  C3  UNL     1      -2.743  34.950  27.136  1.00  0.00     0.169 C 
HETATM    9  C4  UNL     1      -2.730  34.611  28.628  1.00  0.00     0.153 C 
HETATM   10  N5  UNL     1      -1.316  34.683  28.915  1.00  0.00    -0.124 NA
HETATM   11  N6  UNL     1      -0.729  35.514  27.991  1.00  0.00    -0.025 NA
HETATM   12  C5  UNL     1      -0.683  39.149  25.400  1.00  0.00     0.386 A 
HETATM   13  O2  UNL     1      -1.599  39.493  24.578  1.00  0.00    -0.242 OA
HETATM   14  N7  UNL     1       0.428  39.882  25.568  1.00  0.00    -0.029 N 
ENDROOT
BRANCH  14  15
HETATM   15  N8  UNL     1       0.773  41.077  24.923  1.00  0.00    -0.284 N 
HETATM   16  C6  UNL     1       1.208  41.099  23.712  1.00  0.00     0.146 C 
ATOM     17  H8  UNL     1       0.675  41.957  25.429  1.00  0.00     0.187 HD
BRANCH  16  18
HETATM   18  C7  UNL     1       1.569  42.378  23.040  1.00  0.00     0.101 A 
HETATM   19  C8  UNL     1       1.849  43.495  23.794  1.00  0.00     0.091 A 
HETATM   20  S1  UNL     1       2.186  44.634  22.558  1.00  0.00    -0.062 SA
HETATM   21  C9  UNL     1       1.942  43.597  21.223  1.00  0.00     0.184 A 
HETATM   22  S2  UNL     1       2.067  43.908  19.598  1.00  0.00    -0.044 SA
HETATM   23  O3  UNL     1       1.630  42.489  21.789  1.00  0.00    -0.290 OA
ENDBRANCH  16  18
ENDBRANCH  14  15
BRANCH   1  24
HETATM   24  N1  UNL     1       2.306  39.585  26.958  1.00  0.00    -0.231 N 
ATOM     25  H12 UNL     1       2.491  40.328  27.632  1.00  0.00     0.174 HD
ATOM     26  H11 UNL     1       3.188  39.145  26.696  1.00  0.00     0.174 HD
ENDBRANCH   1  24
TORSDOF 3
ENDMDL
