MODEL 1
REMARK VINA RESULT: -6.355080207      0.000      0.000
REMARK  3 active torsions:
REMARK  status: ('A' for Active; 'I' for Inactive)
REMARK    1  A    between atoms: C5_6  and  N2_7 
REMARK    2  A    between atoms: C6_10  and  N3_11 
REMARK    3  A    between atoms: C9_21  and  O5_22 
ROOT
HETATM    1  N1  UNL     1       3.419  38.714  20.155  1.00  0.00    -0.191 NA
HETATM    2  C1  UNL     1       2.475  38.882  20.842  1.00  0.00     0.103 C 
HETATM    3  C2  UNL     1       1.292  39.111  21.661  1.00  0.00     0.088 A 
HETATM    4  C3  UNL     1       1.215  38.606  22.877  1.00  0.00     0.033 A 
HETATM    5  C4  UNL     1       0.070  38.829  23.670  1.00  0.00     0.051 A 
HETATM    6  C5  UNL     1       0.056  38.263  24.917  1.00  0.00     0.152 A 
HETATM    7  C6  UNL     1       1.116  37.494  25.402  1.00  0.00     0.166 A 
HETATM    8  C7  UNL     1       2.223  37.280  24.638  1.00  0.00     0.110 A 
HETATM    9  N4  UNL     1       3.354  36.597  24.870  1.00  0.00    -0.279 N 
ATOM     10  H4  UNL     1       3.586  36.087  25.722  1.00  0.00     0.184 HD
HETATM   11  N5  UNL     1       4.118  36.707  23.788  1.00  0.00    -0.022 NA
HETATM   12  N6  UNL     1       3.466  37.447  22.901  1.00  0.00    -0.281 N 
ATOM     13  H6  UNL     1       3.829  37.688  21.979  1.00  0.00     0.184 HD
HETATM   14  C8  UNL     1       2.269  37.841  23.367  1.00  0.00     0.089 A 
HETATM   15  C9  UNL     1      -0.945  39.534  23.231  1.00  0.00     0.132 A 
HETATM   16  C10 UNL     1      -0.964  40.142  21.887  1.00  0.00     0.233 A 
HETATM   17  O6  UNL     1      -1.925  40.814  21.455  1.00  0.00    -0.283 OA
HETATM   18  C11 UNL     1       0.208  39.918  21.074  1.00  0.00     0.101 A 
HETATM   19  N7  UNL     1       0.340  40.389  19.865  1.00  0.00    -0.395 N 
ATOM     20  H71 UNL     1      -0.410  40.948  19.459  1.00  0.00     0.156 HD
ATOM     21  H72 UNL     1       1.168  40.232  19.291  1.00  0.00     0.156 HD
ENDROOT
BRANCH   6  22
HETATM   22  N2  UNL     1      -1.054  38.437  25.782  1.00  0.00    -0.112 N 
HETATM   23  O1  UNL     1      -0.988  39.360  26.638  1.00  0.00    -0.532 OA
HETATM   24  O2  UNL     1      -2.154  37.634  25.763  1.00  0.00    -0.532 OA
ENDBRANCH   6  22
BRANCH  15  25
HETATM   25  O5  UNL     1      -2.087  39.761  24.007  1.00  0.00    -0.356 OA
ATOM     26  H5  UNL     1      -2.147  40.483  24.621  1.00  0.00     0.218 HD
ENDBRANCH  15  25
BRANCH   7  27
HETATM   27  N3  UNL     1       1.005  36.922  26.703  1.00  0.00    -0.111 N 
HETATM   28  O3  UNL     1       0.251  35.990  26.991  1.00  0.00    -0.532 OA
HETATM   29  O4  UNL     1       1.799  37.461  27.690  1.00  0.00    -0.532 OA
ENDBRANCH   7  27
TORSDOF 3
ENDMDL
MODEL 2
REMARK VINA RESULT: -6.319974441      1.968      4.827
REMARK  3 active torsions:
REMARK  status: ('A' for Active; 'I' for Inactive)
REMARK    1  A    between atoms: C5_6  and  N2_7 
REMARK    2  A    between atoms: C6_10  and  N3_11 
REMARK    3  A    between atoms: C9_21  and  O5_22 
ROOT
HETATM    1  N1  UNL     1       2.937  35.840  27.054  1.00  0.00    -0.191 NA
HETATM    2  C1  UNL     1       2.079  36.418  26.486  1.00  0.00     0.103 C 
HETATM    3  C2  UNL     1       0.993  37.114  25.810  1.00  0.00     0.088 A 
HETATM    4  C3  UNL     1       1.242  37.888  24.771  1.00  0.00     0.033 A 
HETATM    5  C4  UNL     1       0.190  38.562  24.117  1.00  0.00     0.051 A 
HETATM    6  C5  UNL     1       0.526  39.357  23.053  1.00  0.00     0.152 A 
HETATM    7  C6  UNL     1       1.844  39.510  22.620  1.00  0.00     0.166 A 
HETATM    8  C7  UNL     1       2.861  38.858  23.249  1.00  0.00     0.110 A 
HETATM    9  N4  UNL     1       4.184  38.834  23.029  1.00  0.00    -0.279 N 
ATOM     10  H4  UNL     1       4.682  39.341  22.298  1.00  0.00     0.184 HD
HETATM   11  N5  UNL     1       4.728  38.029  23.937  1.00  0.00    -0.022 NA
HETATM   12  N6  UNL     1       3.752  37.564  24.706  1.00  0.00    -0.281 N 
ATOM     13  H6  UNL     1       3.895  36.921  25.485  1.00  0.00     0.184 HD
HETATM   14  C8  UNL     1       2.554  38.042  24.333  1.00  0.00     0.089 A 
HETATM   15  C9  UNL     1      -1.055  38.447  24.515  1.00  0.00     0.132 A 
HETATM   16  C10 UNL     1      -1.443  37.611  25.666  1.00  0.00     0.233 A 
HETATM   17  O6  UNL     1      -2.625  37.494  26.057  1.00  0.00    -0.283 OA
HETATM   18  C11 UNL     1      -0.369  36.918  26.337  1.00  0.00     0.101 A 
HETATM   19  N7  UNL     1      -0.553  36.142  27.369  1.00  0.00    -0.395 N 
ATOM     20  H71 UNL     1      -1.495  36.006  27.733  1.00  0.00     0.156 HD
ATOM     21  H72 UNL     1       0.206  35.652  27.842  1.00  0.00     0.156 HD
ENDROOT
BRANCH   6  22
HETATM   22  N2  UNL     1      -0.469  40.070  22.336  1.00  0.00    -0.112 N 
HETATM   23  O1  UNL     1      -0.911  39.548  21.277  1.00  0.00    -0.532 OA
HETATM   24  O2  UNL     1      -0.927  41.297  22.706  1.00  0.00    -0.532 OA
ENDBRANCH   6  22
BRANCH  15  25
HETATM   25  O5  UNL     1      -2.107  39.112  23.875  1.00  0.00    -0.356 OA
ATOM     26  H5  UNL     1      -3.010  39.015  24.152  1.00  0.00     0.218 HD
ENDBRANCH  15  25
BRANCH   7  27
HETATM   27  N3  UNL     1       2.105  40.377  21.519  1.00  0.00    -0.111 N 
HETATM   28  O3  UNL     1       2.148  41.607  21.598  1.00  0.00    -0.532 OA
HETATM   29  O4  UNL     1       2.318  39.784  20.295  1.00  0.00    -0.532 OA
ENDBRANCH   7  27
TORSDOF 3
ENDMDL
MODEL 3
REMARK VINA RESULT: -6.290359006      1.898      4.228
REMARK  3 active torsions:
REMARK  status: ('A' for Active; 'I' for Inactive)
REMARK    1  A    between atoms: C5_6  and  N2_7 
REMARK    2  A    between atoms: C6_10  and  N3_11 
REMARK    3  A    between atoms: C9_21  and  O5_22 
ROOT
HETATM    1  N1  UNL     1       1.576  39.497  19.832  1.00  0.00    -0.191 NA
HETATM    2  C1  UNL     1       1.843  39.007  20.871  1.00  0.00     0.103 C 
HETATM    3  C2  UNL     1       2.210  38.394  22.141  1.00  0.00     0.088 A 
HETATM    4  C3  UNL     1       1.337  38.330  23.127  1.00  0.00     0.033 A 
HETATM    5  C4  UNL     1       1.692  37.736  24.356  1.00  0.00     0.051 A 
HETATM    6  C5  UNL     1       0.737  37.716  25.338  1.00  0.00     0.152 A 
HETATM    7  C6  UNL     1      -0.537  38.257  25.154  1.00  0.00     0.166 A 
HETATM    8  C7  UNL     1      -0.882  38.829  23.967  1.00  0.00     0.110 A 
HETATM    9  N4  UNL     1      -2.019  39.402  23.545  1.00  0.00    -0.279 N 
ATOM     10  H4  UNL     1      -2.875  39.512  24.087  1.00  0.00     0.184 HD
HETATM   11  N5  UNL     1      -1.826  39.801  22.291  1.00  0.00    -0.022 NA
HETATM   12  N6  UNL     1      -0.587  39.477  21.946  1.00  0.00    -0.281 N 
ATOM     13  H6  UNL     1      -0.179  39.669  21.031  1.00  0.00     0.184 HD
HETATM   14  C8  UNL     1       0.064  38.864  22.948  1.00  0.00     0.089 A 
HETATM   15  C9  UNL     1       2.888  37.236  24.559  1.00  0.00     0.132 A 
HETATM   16  C10 UNL     1       3.940  37.257  23.526  1.00  0.00     0.233 A 
HETATM   17  O6  UNL     1       5.084  36.786  23.706  1.00  0.00    -0.283 OA
HETATM   18  C11 UNL     1       3.579  37.863  22.266  1.00  0.00     0.101 A 
HETATM   19  N7  UNL     1       4.399  37.957  21.256  1.00  0.00    -0.395 N 
ATOM     20  H71 UNL     1       5.346  37.588  21.343  1.00  0.00     0.156 HD
ATOM     21  H72 UNL     1       4.144  38.384  20.366  1.00  0.00     0.156 HD
ENDROOT
BRANCH   6  22
HETATM   22  N2  UNL     1       1.008  37.137  26.603  1.00  0.00    -0.112 N 
HETATM   23  O1  UNL     1       0.601  35.961  26.807  1.00  0.00    -0.532 OA
HETATM   24  O2  UNL     1       1.637  37.799  27.614  1.00  0.00    -0.532 OA
ENDBRANCH   6  22
BRANCH  15  25
HETATM   25  O5  UNL     1       3.253  36.645  25.774  1.00  0.00    -0.356 OA
ATOM     26  H5  UNL     1       3.267  35.703  25.894  1.00  0.00     0.218 HD
ENDBRANCH  15  25
BRANCH   7  27
HETATM   27  N3  UNL     1      -1.459  38.215  26.239  1.00  0.00    -0.111 N 
HETATM   28  O3  UNL     1      -1.418  38.965  27.217  1.00  0.00    -0.532 OA
HETATM   29  O4  UNL     1      -2.455  37.265  26.174  1.00  0.00    -0.532 OA
ENDBRANCH   7  27
TORSDOF 3
ENDMDL
MODEL 4
REMARK VINA RESULT: -6.290313572      2.920      3.523
REMARK  3 active torsions:
REMARK  status: ('A' for Active; 'I' for Inactive)
REMARK    1  A    between atoms: C5_6  and  N2_7 
REMARK    2  A    between atoms: C6_10  and  N3_11 
REMARK    3  A    between atoms: C9_21  and  O5_22 
ROOT
HETATM    1  N1  UNL     1       2.778  44.317  20.289  1.00  0.00    -0.191 NA
HETATM    2  C1  UNL     1       1.956  43.544  20.636  1.00  0.00     0.103 C 
HETATM    3  C2  UNL     1       0.919  42.601  21.031  1.00  0.00     0.088 A 
HETATM    4  C3  UNL     1       1.064  41.868  22.118  1.00  0.00     0.033 A 
HETATM    5  C4  UNL     1       0.059  40.956  22.501  1.00  0.00     0.051 A 
HETATM    6  C5  UNL     1       0.284  40.220  23.635  1.00  0.00     0.152 A 
HETATM    7  C6  UNL     1       1.450  40.350  24.391  1.00  0.00     0.166 A 
HETATM    8  C7  UNL     1       2.420  41.233  24.024  1.00  0.00     0.110 A 
HETATM    9  N4  UNL     1       3.605  41.543  24.572  1.00  0.00    -0.279 N 
ATOM     10  H4  UNL     1       4.002  41.135  25.418  1.00  0.00     0.184 HD
HETATM   11  N5  UNL     1       4.166  42.478  23.812  1.00  0.00    -0.022 NA
HETATM   12  N6  UNL     1       3.338  42.740  22.810  1.00  0.00    -0.281 N 
ATOM     13  H6  UNL     1       3.525  43.424  22.077  1.00  0.00     0.184 HD
HETATM   14  C8  UNL     1       2.222  41.996  22.878  1.00  0.00     0.089 A 
HETATM   15  C9  UNL     1      -1.038  40.804  21.798  1.00  0.00     0.132 A 
HETATM   16  C10 UNL     1      -1.300  41.570  20.566  1.00  0.00     0.233 A 
HETATM   17  O6  UNL     1      -2.340  41.435  19.885  1.00  0.00    -0.283 OA
HETATM   18  C11 UNL     1      -0.275  42.507  20.172  1.00  0.00     0.101 A 
HETATM   19  N7  UNL     1      -0.360  43.256  19.108  1.00  0.00    -0.395 N 
ATOM     20  H71 UNL     1      -1.187  43.192  18.514  1.00  0.00     0.156 HD
ATOM     21  H72 UNL     1       0.364  43.918  18.830  1.00  0.00     0.156 HD
ENDROOT
BRANCH   6  22
HETATM   22  N2  UNL     1      -0.674  39.281  24.093  1.00  0.00    -0.112 N 
HETATM   23  O1  UNL     1      -0.537  38.082  23.727  1.00  0.00    -0.532 OA
HETATM   24  O2  UNL     1      -1.748  39.616  24.861  1.00  0.00    -0.532 OA
ENDBRANCH   6  22
BRANCH  15  25
HETATM   25  O5  UNL     1      -2.042  39.901  22.166  1.00  0.00    -0.356 OA
ATOM     26  H5  UNL     1      -2.014  39.420  22.985  1.00  0.00     0.218 HD
ENDBRANCH  15  25
BRANCH   7  27
HETATM   27  N3  UNL     1       1.611  39.526  25.543  1.00  0.00    -0.111 N 
HETATM   28  O3  UNL     1       1.069  39.736  26.631  1.00  0.00    -0.532 OA
HETATM   29  O4  UNL     1       2.432  38.428  25.413  1.00  0.00    -0.532 OA
ENDBRANCH   7  27
TORSDOF 3
ENDMDL
MODEL 5
REMARK VINA RESULT: -6.283927935      1.671      2.679
REMARK  3 active torsions:
REMARK  status: ('A' for Active; 'I' for Inactive)
REMARK    1  A    between atoms: C5_6  and  N2_7 
REMARK    2  A    between atoms: C6_10  and  N3_11 
REMARK    3  A    between atoms: C9_21  and  O5_22 
ROOT
HETATM    1  N1  UNL     1       5.047  36.823  23.533  1.00  0.00    -0.191 NA
HETATM    2  C1  UNL     1       3.911  37.136  23.584  1.00  0.00     0.103 C 
HETATM    3  C2  UNL     1       2.511  37.538  23.609  1.00  0.00     0.088 A 
HETATM    4  C3  UNL     1       1.771  37.309  24.677  1.00  0.00     0.033 A 
HETATM    5  C4  UNL     1       0.416  37.699  24.701  1.00  0.00     0.051 A 
HETATM    6  C5  UNL     1      -0.294  37.417  25.839  1.00  0.00     0.152 A 
HETATM    7  C6  UNL     1       0.278  36.771  26.936  1.00  0.00     0.166 A 
HETATM    8  C7  UNL     1       1.588  36.396  26.915  1.00  0.00     0.110 A 
HETATM    9  N4  UNL     1       2.359  35.780  27.823  1.00  0.00    -0.279 N 
ATOM     10  H4  UNL     1       2.067  35.466  28.748  1.00  0.00     0.184 HD
HETATM   11  N5  UNL     1       3.573  35.652  27.298  1.00  0.00    -0.022 NA
HETATM   12  N6  UNL     1       3.550  36.182  26.082  1.00  0.00    -0.281 N 
ATOM     13  H6  UNL     1       4.355  36.217  25.458  1.00  0.00     0.184 HD
HETATM   14  C8  UNL     1       2.336  36.668  25.775  1.00  0.00     0.089 A 
HETATM   15  C9  UNL     1      -0.149  38.292  23.676  1.00  0.00     0.132 A 
HETATM   16  C10 UNL     1       0.586  38.593  22.434  1.00  0.00     0.233 A 
HETATM   17  O6  UNL     1       0.060  39.157  21.449  1.00  0.00    -0.283 OA
HETATM   18  C11 UNL     1       1.974  38.198  22.406  1.00  0.00     0.101 A 
HETATM   19  N7  UNL     1       2.754  38.396  21.380  1.00  0.00    -0.395 N 
ATOM     20  H71 UNL     1       2.383  38.853  20.548  1.00  0.00     0.156 HD
ATOM     21  H72 UNL     1       3.735  38.117  21.361  1.00  0.00     0.156 HD
ENDROOT
BRANCH   6  22
HETATM   22  N2  UNL     1      -1.661  37.775  25.949  1.00  0.00    -0.112 N 
HETATM   23  O1  UNL     1      -2.520  36.898  25.662  1.00  0.00    -0.532 OA
HETATM   24  O2  UNL     1      -2.086  39.021  26.300  1.00  0.00    -0.532 OA
ENDBRANCH   6  22
BRANCH  15  25
HETATM   25  O5  UNL     1      -1.493  38.682  23.687  1.00  0.00    -0.356 OA
ATOM     26  H5  UNL     1      -1.935  38.998  22.908  1.00  0.00     0.218 HD
ENDBRANCH  15  25
BRANCH   7  27
HETATM   27  N3  UNL     1      -0.541  36.496  28.069  1.00  0.00    -0.111 N 
HETATM   28  O3  UNL     1      -1.004  37.358  28.819  1.00  0.00    -0.532 OA
HETATM   29  O4  UNL     1      -0.823  35.173  28.327  1.00  0.00    -0.532 OA
ENDBRANCH   7  27
TORSDOF 3
ENDMDL
