MODEL 1
REMARK VINA RESULT: -8.273980207      0.000      0.000
REMARK  10 active torsions:
REMARK  status: ('A' for Active; 'I' for Inactive)
REMARK       I    between atoms: N1_2  and  C2_4 
REMARK    1  A    between atoms: C2_4  and  C3_6 
REMARK    2  A    between atoms: C3_6  and  C4_11 
REMARK    3  A    between atoms: N2_7  and  O2_9 
REMARK    4  A    between atoms: C4_11  and  N3_12 
REMARK    5  A    between atoms: C4_11  and  N5_15 
REMARK    6  A    between atoms: C6_18  and  N7_19 
REMARK    7  A    between atoms: N8_21  and  C7_23 
REMARK    8  A    between atoms: C7_23  and  O3_24 
REMARK    9  A    between atoms: N9_26  and  O4_28 
REMARK   10  A    between atoms: C8_30  and  N10_31 
ROOT
HETATM    1  N3  UNL     1      47.411 -15.992  -9.941  1.00  0.00    -0.307 NA
HETATM    2  C5  UNL     1      48.150 -16.950 -10.363  1.00  0.00     0.270 C 
HETATM    3  N4  UNL     1      48.800 -17.812 -10.759  1.00  0.00    -0.156 NA
ENDROOT
BRANCH   1   4
HETATM    4  C4  UNL     1      46.860 -15.156  -9.286  1.00  0.00     0.250 C 
BRANCH   4   5
HETATM    5  C3  UNL     1      45.426 -15.096  -9.039  1.00  0.00     0.183 C 
HETATM    6  N2  UNL     1      44.715 -16.132  -8.780  1.00  0.00    -0.259 N 
ATOM      7  H2  UNL     1      43.727 -15.924  -8.635  1.00  0.00     0.194 HD
BRANCH   5   8
HETATM    8  C2  UNL     1      44.663 -13.824  -9.071  1.00  0.00     0.274 C 
HETATM    9  N1  UNL     1      44.447 -13.223 -10.343  1.00  0.00    -0.360 N 
HETATM   10  C1  UNL     1      43.712 -11.985 -10.465  1.00  0.00     0.149 C 
ATOM     11  H1  UNL     1      44.815 -13.674 -11.180  1.00  0.00     0.162 HD
HETATM   12  O1  UNL     1      44.211 -13.267  -8.064  1.00  0.00    -0.266 OA
ENDBRANCH   5   8
BRANCH   6  13
HETATM   13  O2  UNL     1      45.005 -17.410  -8.663  1.00  0.00    -0.289 OA
ATOM     14  H2  UNL     1      45.538 -18.001  -9.181  1.00  0.00     0.244 HD
ENDBRANCH   6  13
ENDBRANCH   4   5
BRANCH   4  15
HETATM   15  N5  UNL     1      47.686 -14.108  -8.683  1.00  0.00    -0.205 N 
HETATM   16  N6  UNL     1      47.936 -13.919  -7.404  1.00  0.00    -0.271 N 
HETATM   17  C6  UNL     1      48.775 -12.876  -7.205  1.00  0.00     0.173 A 
ATOM     18  H6  UNL     1      47.544 -14.489  -6.654  1.00  0.00     0.189 HD
HETATM   19  C8  UNL     1      49.080 -12.364  -8.462  1.00  0.00     0.194 A 
HETATM   20  C9  UNL     1      48.382 -13.160  -9.345  1.00  0.00     0.161 A 
HETATM   21  N11 UNL     1      48.379 -13.036 -10.630  1.00  0.00    -0.382 N 
ATOM     22 2H11 UNL     1      47.862 -13.625 -11.282  1.00  0.00     0.157 HD
ATOM     23 1H11 UNL     1      48.904 -12.320 -11.130  1.00  0.00     0.157 HD
BRANCH  17  24
HETATM   24  N7  UNL     1      49.283 -12.346  -6.012  1.00  0.00    -0.279 N 
HETATM   25  N8  UNL     1      48.835 -12.719  -4.908  1.00  0.00    -0.262 N 
ATOM     26  H8  UNL     1      48.092 -13.418  -4.908  1.00  0.00     0.190 HD
ATOM     27  H7  UNL     1      50.027 -11.648  -6.045  1.00  0.00     0.189 HD
BRANCH  25  28
HETATM   28  C7  UNL     1      49.292 -12.234  -3.652  1.00  0.00     0.256 C 
HETATM   29  N9  UNL     1      48.685 -12.635  -2.600  1.00  0.00    -0.232 N 
ATOM     30  H9  UNL     1      47.903 -13.282  -2.700  1.00  0.00     0.198 HD
BRANCH  28  31
HETATM   31  O3  UNL     1      50.348 -11.359  -3.517  1.00  0.00    -0.330 OA
ATOM     32  H3  UNL     1      50.260 -10.416  -3.601  1.00  0.00     0.221 HD
ENDBRANCH  28  31
BRANCH  29  33
HETATM   33  O4  UNL     1      49.044 -12.231  -1.359  1.00  0.00    -0.287 OA
ATOM     34  H4  UNL     1      48.426 -12.190  -0.639  1.00  0.00     0.244 HD
ENDBRANCH  29  33
ENDBRANCH  25  28
ENDBRANCH  17  24
BRANCH  19  35
HETATM   35  N10 UNL     1      49.919 -11.278  -8.797  1.00  0.00    -0.108 N 
HETATM   36  O5  UNL     1      49.926 -10.812  -9.940  1.00  0.00    -0.531 OA
HETATM   37  O6  UNL     1      50.742 -10.726  -7.854  1.00  0.00    -0.531 OA
ENDBRANCH  19  35
ENDBRANCH   4  15
ENDBRANCH   1   4
TORSDOF 10
ENDMDL
MODEL 2
REMARK VINA RESULT: -8.266037156      3.997      7.481
REMARK  10 active torsions:
REMARK  status: ('A' for Active; 'I' for Inactive)
REMARK       I    between atoms: N1_2  and  C2_4 
REMARK    1  A    between atoms: C2_4  and  C3_6 
REMARK    2  A    between atoms: C3_6  and  C4_11 
REMARK    3  A    between atoms: N2_7  and  O2_9 
REMARK    4  A    between atoms: C4_11  and  N3_12 
REMARK    5  A    between atoms: C4_11  and  N5_15 
REMARK    6  A    between atoms: C6_18  and  N7_19 
REMARK    7  A    between atoms: N8_21  and  C7_23 
REMARK    8  A    between atoms: C7_23  and  O3_24 
REMARK    9  A    between atoms: N9_26  and  O4_28 
REMARK   10  A    between atoms: C8_30  and  N10_31 
ROOT
HETATM    1  N3  UNL     1      46.788 -14.442  -8.264  1.00  0.00    -0.307 NA
HETATM    2  C5  UNL     1      47.581 -13.923  -7.402  1.00  0.00     0.270 C 
HETATM    3  N4  UNL     1      48.278 -13.460  -6.614  1.00  0.00    -0.156 NA
ENDROOT
BRANCH   1   4
HETATM    4  C4  UNL     1      46.224 -14.780  -9.264  1.00  0.00     0.250 C 
BRANCH   4   5
HETATM    5  C3  UNL     1      46.413 -16.056  -9.942  1.00  0.00     0.183 C 
HETATM    6  N2  UNL     1      45.847 -17.142  -9.560  1.00  0.00    -0.259 N 
ATOM      7  H2  UNL     1      46.084 -17.950 -10.137  1.00  0.00     0.194 HD
BRANCH   5   8
HETATM    8  C2  UNL     1      47.284 -16.205 -11.134  1.00  0.00     0.274 C 
HETATM    9  N1  UNL     1      48.185 -15.143 -11.422  1.00  0.00    -0.360 N 
HETATM   10  C1  UNL     1      49.070 -15.207 -12.563  1.00  0.00     0.149 C 
ATOM     11  H1  UNL     1      48.207 -14.324 -10.815  1.00  0.00     0.162 HD
HETATM   12  O1  UNL     1      47.267 -17.192 -11.879  1.00  0.00    -0.266 OA
ENDBRANCH   5   8
BRANCH   6  13
HETATM   13  O2  UNL     1      45.024 -17.424  -8.575  1.00  0.00    -0.289 OA
ATOM     14  H2  UNL     1      44.076 -17.435  -8.508  1.00  0.00     0.244 HD
ENDBRANCH   6  13
ENDBRANCH   4   5
BRANCH   4  15
HETATM   15  N5  UNL     1      45.270 -13.842  -9.858  1.00  0.00    -0.205 N 
HETATM   16  N6  UNL     1      45.523 -12.870 -10.710  1.00  0.00    -0.271 N 
HETATM   17  C6  UNL     1      44.396 -12.224 -11.085  1.00  0.00     0.173 A 
ATOM     18  H6  UNL     1      46.457 -12.632 -11.045  1.00  0.00     0.189 HD
HETATM   19  C8  UNL     1      43.342 -12.838 -10.416  1.00  0.00     0.194 A 
HETATM   20  C9  UNL     1      43.933 -13.834  -9.668  1.00  0.00     0.161 A 
HETATM   21  N11 UNL     1      43.317 -14.657  -8.889  1.00  0.00    -0.382 N 
ATOM     22 2H11 UNL     1      43.754 -15.394  -8.336  1.00  0.00     0.157 HD
ATOM     23 1H11 UNL     1      42.308 -14.651  -8.745  1.00  0.00     0.157 HD
BRANCH  17  24
HETATM   24  N7  UNL     1      44.228 -11.143 -11.961  1.00  0.00    -0.279 N 
HETATM   25  N8  UNL     1      43.779 -11.322 -13.113  1.00  0.00    -0.262 N 
ATOM     26  H8  UNL     1      43.542 -12.274 -13.389  1.00  0.00     0.190 HD
ATOM     27  H7  UNL     1      44.474 -10.201 -11.655  1.00  0.00     0.189 HD
BRANCH  25  28
HETATM   28  C7  UNL     1      43.578 -10.284 -14.064  1.00  0.00     0.256 C 
HETATM   29  N9  UNL     1      44.496  -9.402 -14.190  1.00  0.00    -0.232 N 
ATOM     30  H9  UNL     1      45.331  -9.475 -13.608  1.00  0.00     0.198 HD
BRANCH  28  31
HETATM   31  O3  UNL     1      42.449 -10.185 -14.849  1.00  0.00    -0.330 OA
ATOM     32  H3  UNL     1      42.472 -10.178 -15.799  1.00  0.00     0.221 HD
ENDBRANCH  28  31
BRANCH  29  33
HETATM   33  O4  UNL     1      44.398  -8.376 -15.067  1.00  0.00    -0.287 OA
ATOM     34  H4  UNL     1      44.691  -7.497 -14.855  1.00  0.00     0.244 HD
ENDBRANCH  29  33
ENDBRANCH  25  28
ENDBRANCH  17  24
BRANCH  19  35
HETATM   35  N10 UNL     1      41.962 -12.539 -10.472  1.00  0.00    -0.108 N 
HETATM   36  O5  UNL     1      41.365 -12.510 -11.552  1.00  0.00    -0.531 OA
HETATM   37  O6  UNL     1      41.266 -12.276  -9.324  1.00  0.00    -0.531 OA
ENDBRANCH  19  35
ENDBRANCH   4  15
ENDBRANCH   1   4
TORSDOF 10
ENDMDL
MODEL 3
REMARK VINA RESULT: -8.123199068      3.844      7.336
REMARK  10 active torsions:
REMARK  status: ('A' for Active; 'I' for Inactive)
REMARK       I    between atoms: N1_2  and  C2_4 
REMARK    1  A    between atoms: C2_4  and  C3_6 
REMARK    2  A    between atoms: C3_6  and  C4_11 
REMARK    3  A    between atoms: N2_7  and  O2_9 
REMARK    4  A    between atoms: C4_11  and  N3_12 
REMARK    5  A    between atoms: C4_11  and  N5_15 
REMARK    6  A    between atoms: C6_18  and  N7_19 
REMARK    7  A    between atoms: N8_21  and  C7_23 
REMARK    8  A    between atoms: C7_23  and  O3_24 
REMARK    9  A    between atoms: N9_26  and  O4_28 
REMARK   10  A    between atoms: C8_30  and  N10_31 
ROOT
HETATM    1  N3  UNL     1      47.200 -14.597  -8.426  1.00  0.00    -0.307 NA
HETATM    2  C5  UNL     1      47.769 -13.946  -7.480  1.00  0.00     0.270 C 
HETATM    3  N4  UNL     1      48.286 -13.380  -6.623  1.00  0.00    -0.156 NA
ENDROOT
BRANCH   1   4
HETATM    4  C4  UNL     1      46.520 -14.946  -9.346  1.00  0.00     0.250 C 
BRANCH   4   5
HETATM    5  C3  UNL     1      46.574 -16.257  -9.978  1.00  0.00     0.183 C 
HETATM    6  N2  UNL     1      45.891 -17.262  -9.566  1.00  0.00    -0.259 N 
ATOM      7  H2  UNL     1      46.043 -18.110 -10.113  1.00  0.00     0.194 HD
BRANCH   5   8
HETATM    8  C2  UNL     1      47.431 -16.541 -11.156  1.00  0.00     0.274 C 
HETATM    9  N1  UNL     1      48.540 -17.412 -10.962  1.00  0.00    -0.360 N 
HETATM   10  C1  UNL     1      49.425 -17.743 -12.055  1.00  0.00     0.149 C 
ATOM     11  H1  UNL     1      48.712 -17.807 -10.039  1.00  0.00     0.162 HD
HETATM   12  O1  UNL     1      47.234 -16.067 -12.281  1.00  0.00    -0.266 OA
ENDBRANCH   5   8
BRANCH   6  13
HETATM   13  O2  UNL     1      45.035 -17.419  -8.580  1.00  0.00    -0.289 OA
ATOM     14  H2  UNL     1      45.130 -17.720  -7.685  1.00  0.00     0.244 HD
ENDBRANCH   6  13
ENDBRANCH   4   5
BRANCH   4  15
HETATM   15  N5  UNL     1      45.557 -13.984  -9.885  1.00  0.00    -0.205 N 
HETATM   16  N6  UNL     1      45.494 -13.512 -11.113  1.00  0.00    -0.271 N 
HETATM   17  C6  UNL     1      44.449 -12.668 -11.274  1.00  0.00     0.173 A 
ATOM     18  H6  UNL     1      46.154 -13.753 -11.853  1.00  0.00     0.189 HD
HETATM   19  C8  UNL     1      43.797 -12.600 -10.046  1.00  0.00     0.194 A 
HETATM   20  C9  UNL     1      44.521 -13.432  -9.218  1.00  0.00     0.161 A 
HETATM   21  N11 UNL     1      44.263 -13.667  -7.976  1.00  0.00    -0.382 N 
ATOM     22 2H11 UNL     1      44.798 -14.282  -7.364  1.00  0.00     0.157 HD
ATOM     23 1H11 UNL     1      43.480 -13.250  -7.473  1.00  0.00     0.157 HD
BRANCH  17  24
HETATM   24  N7  UNL     1      44.033 -11.958 -12.408  1.00  0.00    -0.279 N 
HETATM   25  N8  UNL     1      44.364 -10.765 -12.569  1.00  0.00    -0.262 N 
ATOM     26  H8  UNL     1      44.944 -10.331 -11.851  1.00  0.00     0.190 HD
ATOM     27  H7  UNL     1      43.453 -12.421 -13.110  1.00  0.00     0.189 HD
BRANCH  25  28
HETATM   28  C7  UNL     1      43.987  -9.972 -13.687  1.00  0.00     0.256 C 
HETATM   29  N9  UNL     1      44.898  -9.287 -14.268  1.00  0.00    -0.232 N 
ATOM     30  H9  UNL     1      45.852  -9.334 -13.911  1.00  0.00     0.198 HD
BRANCH  28  31
HETATM   31  O3  UNL     1      42.697  -9.908 -14.170  1.00  0.00    -0.330 OA
ATOM     32  H3  UNL     1      42.420  -9.294 -14.840  1.00  0.00     0.221 HD
ENDBRANCH  28  31
BRANCH  29  33
HETATM   33  O4  UNL     1      44.639  -8.502 -15.340  1.00  0.00    -0.287 OA
ATOM     34  H4  UNL     1      44.867  -7.580 -15.362  1.00  0.00     0.244 HD
ENDBRANCH  29  33
ENDBRANCH  25  28
ENDBRANCH  17  24
BRANCH  19  35
HETATM   35  N10 UNL     1      42.646 -11.862  -9.694  1.00  0.00    -0.108 N 
HETATM   36  O5  UNL     1      42.500 -10.697 -10.076  1.00  0.00    -0.531 OA
HETATM   37  O6  UNL     1      41.672 -12.430  -8.920  1.00  0.00    -0.531 OA
ENDBRANCH  19  35
ENDBRANCH   4  15
ENDBRANCH   1   4
TORSDOF 10
ENDMDL
MODEL 4
REMARK VINA RESULT: -7.995482891      4.601      7.560
REMARK  10 active torsions:
REMARK  status: ('A' for Active; 'I' for Inactive)
REMARK       I    between atoms: N1_2  and  C2_4 
REMARK    1  A    between atoms: C2_4  and  C3_6 
REMARK    2  A    between atoms: C3_6  and  C4_11 
REMARK    3  A    between atoms: N2_7  and  O2_9 
REMARK    4  A    between atoms: C4_11  and  N3_12 
REMARK    5  A    between atoms: C4_11  and  N5_15 
REMARK    6  A    between atoms: C6_18  and  N7_19 
REMARK    7  A    between atoms: N8_21  and  C7_23 
REMARK    8  A    between atoms: C7_23  and  O3_24 
REMARK    9  A    between atoms: N9_26  and  O4_28 
REMARK   10  A    between atoms: C8_30  and  N10_31 
ROOT
HETATM    1  N3  UNL     1      47.463 -11.984 -13.204  1.00  0.00    -0.307 NA
HETATM    2  C5  UNL     1      48.080 -13.016 -13.647  1.00  0.00     0.270 C 
HETATM    3  N4  UNL     1      48.625 -13.939 -14.064  1.00  0.00    -0.156 NA
ENDROOT
BRANCH   1   4
HETATM    4  C4  UNL     1      46.938 -11.152 -12.524  1.00  0.00     0.250 C 
BRANCH   4   5
HETATM    5  C3  UNL     1      47.564  -9.914 -12.081  1.00  0.00     0.183 C 
HETATM    6  N2  UNL     1      47.351  -8.781 -12.643  1.00  0.00    -0.259 N 
ATOM      7  H2  UNL     1      47.868  -8.011 -12.219  1.00  0.00     0.194 HD
BRANCH   5   8
HETATM    8  C2  UNL     1      48.509  -9.862 -10.939  1.00  0.00     0.274 C 
HETATM    9  N1  UNL     1      49.070 -11.092 -10.496  1.00  0.00    -0.360 N 
HETATM   10  C1  UNL     1      50.000 -11.131  -9.392  1.00  0.00     0.149 C 
ATOM     11  H1  UNL     1      48.810 -11.959 -10.966  1.00  0.00     0.162 HD
HETATM   12  O1  UNL     1      48.831  -8.817 -10.360  1.00  0.00    -0.266 OA
ENDBRANCH   5   8
BRANCH   6  13
HETATM   13  O2  UNL     1      46.600  -8.413 -13.658  1.00  0.00    -0.289 OA
ATOM     14  H2  UNL     1      46.317  -7.565 -13.979  1.00  0.00     0.244 HD
ENDBRANCH   6  13
ENDBRANCH   4   5
BRANCH   4  15
HETATM   15  N5  UNL     1      45.557 -11.392 -12.098  1.00  0.00    -0.205 N 
HETATM   16  N6  UNL     1      45.144 -11.847 -10.933  1.00  0.00    -0.271 N 
HETATM   17  C6  UNL     1      43.794 -11.907 -10.868  1.00  0.00     0.173 A 
ATOM     18  H6  UNL     1      45.766 -12.119 -10.172  1.00  0.00     0.189 HD
HETATM   19  C8  UNL     1      43.314 -11.456 -12.094  1.00  0.00     0.194 A 
HETATM   20  C9  UNL     1      44.444 -11.149 -12.822  1.00  0.00     0.161 A 
HETATM   21  N11 UNL     1      44.461 -10.690 -14.027  1.00  0.00    -0.382 N 
ATOM     22 2H11 UNL     1      45.297 -10.463 -14.566  1.00  0.00     0.157 HD
ATOM     23 1H11 UNL     1      43.620 -10.506 -14.574  1.00  0.00     0.157 HD
BRANCH  17  24
HETATM   24  N7  UNL     1      42.962 -12.330  -9.823  1.00  0.00    -0.279 N 
HETATM   25  N8  UNL     1      42.543 -13.506  -9.780  1.00  0.00    -0.262 N 
ATOM     26  H8  UNL     1      42.827 -14.141 -10.526  1.00  0.00     0.190 HD
ATOM     27  H7  UNL     1      42.696 -11.672  -9.090  1.00  0.00     0.189 HD
BRANCH  25  28
HETATM   28  C7  UNL     1      41.697 -14.018  -8.758  1.00  0.00     0.256 C 
HETATM   29  N9  UNL     1      41.309 -15.233  -8.856  1.00  0.00    -0.232 N 
ATOM     30  H9  UNL     1      41.618 -15.785  -9.656  1.00  0.00     0.198 HD
BRANCH  28  31
HETATM   31  O3  UNL     1      41.279 -13.272  -7.676  1.00  0.00    -0.330 OA
ATOM     32  H3  UNL     1      40.752 -12.485  -7.757  1.00  0.00     0.221 HD
ENDBRANCH  28  31
BRANCH  29  33
HETATM   33  O4  UNL     1      40.503 -15.812  -7.935  1.00  0.00    -0.287 OA
ATOM     34  H4  UNL     1      39.732 -15.378  -7.591  1.00  0.00     0.244 HD
ENDBRANCH  29  33
ENDBRANCH  25  28
ENDBRANCH  17  24
BRANCH  19  35
HETATM   35  N10 UNL     1      41.976 -11.321 -12.526  1.00  0.00    -0.108 N 
HETATM   36  O5  UNL     1      41.654 -10.427 -13.314  1.00  0.00    -0.531 OA
HETATM   37  O6  UNL     1      41.015 -12.182 -12.075  1.00  0.00    -0.531 OA
ENDBRANCH  19  35
ENDBRANCH   4  15
ENDBRANCH   1   4
TORSDOF 10
ENDMDL
MODEL 5
REMARK VINA RESULT: -7.937978778      4.002      6.095
REMARK  10 active torsions:
REMARK  status: ('A' for Active; 'I' for Inactive)
REMARK       I    between atoms: N1_2  and  C2_4 
REMARK    1  A    between atoms: C2_4  and  C3_6 
REMARK    2  A    between atoms: C3_6  and  C4_11 
REMARK    3  A    between atoms: N2_7  and  O2_9 
REMARK    4  A    between atoms: C4_11  and  N3_12 
REMARK    5  A    between atoms: C4_11  and  N5_15 
REMARK    6  A    between atoms: C6_18  and  N7_19 
REMARK    7  A    between atoms: N8_21  and  C7_23 
REMARK    8  A    between atoms: C7_23  and  O3_24 
REMARK    9  A    between atoms: N9_26  and  O4_28 
REMARK   10  A    between atoms: C8_30  and  N10_31 
ROOT
HETATM    1  N3  UNL     1      52.516  -9.778 -10.316  1.00  0.00    -0.307 NA
HETATM    2  C5  UNL     1      53.496 -10.006 -11.109  1.00  0.00     0.270 C 
HETATM    3  N4  UNL     1      54.376 -10.190 -11.826  1.00  0.00    -0.156 NA
ENDROOT
BRANCH   1   4
HETATM    4  C4  UNL     1      51.550  -9.859  -9.615  1.00  0.00     0.250 C 
BRANCH   4   5
HETATM    5  C3  UNL     1      50.190 -10.084 -10.085  1.00  0.00     0.183 C 
HETATM    6  N2  UNL     1      49.361  -9.132 -10.313  1.00  0.00    -0.259 N 
ATOM      7  H2  UNL     1      48.448  -9.455 -10.633  1.00  0.00     0.194 HD
BRANCH   5   8
HETATM    8  C2  UNL     1      49.646 -11.442 -10.335  1.00  0.00     0.274 C 
HETATM    9  N1  UNL     1      49.303 -11.773 -11.676  1.00  0.00    -0.360 N 
HETATM   10  C1  UNL     1      48.769 -13.073 -12.008  1.00  0.00     0.149 C 
ATOM     11  H1  UNL     1      49.437 -11.081 -12.413  1.00  0.00     0.162 HD
HETATM   12  O1  UNL     1      49.478 -12.290  -9.450  1.00  0.00    -0.266 OA
ENDBRANCH   5   8
BRANCH   6  13
HETATM   13  O2  UNL     1      49.453  -7.824 -10.217  1.00  0.00    -0.289 OA
ATOM     14  H2  UNL     1      50.060  -7.191 -10.581  1.00  0.00     0.244 HD
ENDBRANCH   6  13
ENDBRANCH   4   5
BRANCH   4  15
HETATM   15  N5  UNL     1      51.744  -9.722  -8.170  1.00  0.00    -0.205 N 
HETATM   16  N6  UNL     1      51.116 -10.370  -7.210  1.00  0.00    -0.271 N 
HETATM   17  C6  UNL     1      51.575 -10.022  -5.986  1.00  0.00     0.173 A 
ATOM     18  H6  UNL     1      50.374 -11.051  -7.371  1.00  0.00     0.189 HD
HETATM   19  C8  UNL     1      52.574  -9.075  -6.188  1.00  0.00     0.194 A 
HETATM   20  C9  UNL     1      52.642  -8.922  -7.557  1.00  0.00     0.161 A 
HETATM   21  N11 UNL     1      53.444  -8.132  -8.187  1.00  0.00    -0.382 N 
ATOM     22 2H11 UNL     1      53.494  -8.019  -9.199  1.00  0.00     0.157 HD
ATOM     23 1H11 UNL     1      54.122  -7.529  -7.724  1.00  0.00     0.157 HD
BRANCH  17  24
HETATM   24  N7  UNL     1      51.181 -10.469  -4.718  1.00  0.00    -0.279 N 
HETATM   25  N8  UNL     1      50.219 -11.255  -4.591  1.00  0.00    -0.262 N 
ATOM     26  H8  UNL     1      49.735 -11.557  -5.437  1.00  0.00     0.190 HD
ATOM     27  H7  UNL     1      51.685 -10.149  -3.890  1.00  0.00     0.189 HD
BRANCH  25  28
HETATM   28  C7  UNL     1      49.753 -11.757  -3.345  1.00  0.00     0.256 C 
HETATM   29  N9  UNL     1      48.688 -12.466  -3.346  1.00  0.00    -0.232 N 
ATOM     30  H9  UNL     1      48.217 -12.644  -4.234  1.00  0.00     0.198 HD
BRANCH  28  31
HETATM   31  O3  UNL     1      50.389 -11.516  -2.146  1.00  0.00    -0.330 OA
ATOM     32  H3  UNL     1      49.954 -11.573  -1.303  1.00  0.00     0.221 HD
ENDBRANCH  28  31
BRANCH  29  33
HETATM   33  O4  UNL     1      48.165 -12.989  -2.213  1.00  0.00    -0.287 OA
ATOM     34  H4  UNL     1      47.800 -12.446  -1.524  1.00  0.00     0.244 HD
ENDBRANCH  29  33
ENDBRANCH  25  28
ENDBRANCH  17  24
BRANCH  19  35
HETATM   35  N10 UNL     1      53.368  -8.406  -5.230  1.00  0.00    -0.108 N 
HETATM   36  O5  UNL     1      52.877  -8.009  -4.168  1.00  0.00    -0.531 OA
HETATM   37  O6  UNL     1      54.696  -8.187  -5.466  1.00  0.00    -0.531 OA
ENDBRANCH  19  35
ENDBRANCH   4  15
ENDBRANCH   1   4
TORSDOF 10
ENDMDL
