MODEL 1
REMARK VINA RESULT: -8.297787438      0.000      0.000
REMARK  8 active torsions:
REMARK  status: ('A' for Active; 'I' for Inactive)
REMARK    1  A    between atoms: C2_2  and  C8_17 
REMARK    2  A    between atoms: N1_3  and  N2_5 
REMARK    3  A    between atoms: N2_5  and  C3_7 
REMARK    4  A    between atoms: C4_8  and  O1_9 
REMARK    5  A    between atoms: C9_18  and  O3_19 
REMARK    6  A    between atoms: C10_23  and  C11_24 
REMARK       I    between atoms: C11_24  and  N6_26 
REMARK    7  A    between atoms: N6_26  and  N7_28 
REMARK    8  A    between atoms: N7_28  and  C12_30 
ROOT
HETATM    1  C8  UNL     1      42.227 -12.809 -10.314  1.00  0.00     0.065 A 
HETATM    2  C9  UNL     1      41.230 -11.881 -10.278  1.00  0.00     0.155 A 
HETATM    3  N5  UNL     1      41.301 -11.117 -11.416  1.00  0.00    -0.330 N 
ATOM      4  H5  UNL     1      40.671 -10.348 -11.645  1.00  0.00     0.168 HD
HETATM    5  C10 UNL     1      42.310 -11.527 -12.177  1.00  0.00     0.129 A 
HETATM    6  C13 UNL     1      42.891 -12.578 -11.501  1.00  0.00     0.095 A 
HETATM    7  N8  UNL     1      44.016 -13.293 -11.994  1.00  0.00    -0.099 NA
ENDROOT
BRANCH   1   8
HETATM    8  C2  UNL     1      42.505 -13.828  -9.287  1.00  0.00     0.038 C 
HETATM    9  C1  UNL     1      41.267 -14.557  -8.752  1.00  0.00     0.071 C 
HETATM   10  N1  UNL     1      43.574 -14.169  -8.809  1.00  0.00    -0.303 N 
ATOM     11  H1  UNL     1      43.357 -14.901  -8.133  1.00  0.00     0.186 HD
BRANCH  10  12
HETATM   12  N2  UNL     1      44.886 -14.020  -8.772  1.00  0.00    -0.281 N 
ATOM     13  H2  UNL     1      45.248 -13.264  -8.191  1.00  0.00     0.188 HD
BRANCH  12  14
HETATM   14  C3  UNL     1      45.854 -14.826  -9.477  1.00  0.00     0.178 A 
HETATM   15  C4  UNL     1      45.907 -16.182  -9.503  1.00  0.00     0.193 A 
HETATM   16  N3  UNL     1      46.957 -16.596 -10.273  1.00  0.00    -0.281 N 
HETATM   17  C5  UNL     1      47.287 -17.992 -10.503  1.00  0.00     0.163 C 
HETATM   18  C6  UNL     1      47.532 -15.483 -10.707  1.00  0.00     0.331 A 
HETATM   19  O2  UNL     1      48.538 -15.442 -11.448  1.00  0.00    -0.246 OA
HETATM   20  N4  UNL     1      46.874 -14.388 -10.233  1.00  0.00    -0.285 N 
HETATM   21  C7  UNL     1      47.194 -13.010 -10.481  1.00  0.00     0.163 C 
BRANCH  15  22
HETATM   22  O1  UNL     1      45.026 -17.036  -8.848  1.00  0.00    -0.343 OA
ATOM     23  H1  UNL     1      45.103 -17.982  -8.809  1.00  0.00     0.219 HD
ENDBRANCH  15  22
ENDBRANCH  12  14
ENDBRANCH  10  12
ENDBRANCH   1   8
BRANCH   2  24
HETATM   24  O3  UNL     1      40.250 -11.634  -9.333  1.00  0.00    -0.345 OA
ATOM     25  H3  UNL     1      39.320 -11.461  -9.426  1.00  0.00     0.219 HD
ENDBRANCH   2  24
BRANCH   5  26
HETATM   26  C11 UNL     1      42.735 -10.994 -13.461  1.00  0.00     0.288 C 
HETATM   27  O4  UNL     1      41.926 -10.909 -14.415  1.00  0.00    -0.264 OA
HETATM   28  N6  UNL     1      44.070 -10.559 -13.670  1.00  0.00    -0.262 N 
ATOM     29  H6  UNL     1      44.727 -10.630 -12.893  1.00  0.00     0.190 HD
BRANCH  28  30
HETATM   30  N7  UNL     1      44.531 -10.046 -14.867  1.00  0.00    -0.275 N 
ATOM     31  H7  UNL     1      44.292  -9.080 -15.091  1.00  0.00     0.189 HD
BRANCH  30  32
HETATM   32  C12 UNL     1      45.228 -10.686 -15.706  1.00  0.00     0.368 C 
HETATM   33  O5  UNL     1      45.747 -11.505 -16.492  1.00  0.00    -0.282 OA
ENDBRANCH  30  32
ENDBRANCH  28  30
ENDBRANCH   5  26
TORSDOF 8
ENDMDL
MODEL 2
REMARK VINA RESULT: -8.252065911      3.287      5.518
REMARK  8 active torsions:
REMARK  status: ('A' for Active; 'I' for Inactive)
REMARK    1  A    between atoms: C2_2  and  C8_17 
REMARK    2  A    between atoms: N1_3  and  N2_5 
REMARK    3  A    between atoms: N2_5  and  C3_7 
REMARK    4  A    between atoms: C4_8  and  O1_9 
REMARK    5  A    between atoms: C9_18  and  O3_19 
REMARK    6  A    between atoms: C10_23  and  C11_24 
REMARK       I    between atoms: C11_24  and  N6_26 
REMARK    7  A    between atoms: N6_26  and  N7_28 
REMARK    8  A    between atoms: N7_28  and  C12_30 
ROOT
HETATM    1  C8  UNL     1      45.641 -14.947  -9.028  1.00  0.00     0.065 A 
HETATM    2  C9  UNL     1      44.671 -15.895  -8.904  1.00  0.00     0.155 A 
HETATM    3  N5  UNL     1      43.454 -15.312  -9.157  1.00  0.00    -0.330 N 
ATOM      4  H5  UNL     1      42.556 -15.796  -9.134  1.00  0.00     0.168 HD
HETATM    5  C10 UNL     1      43.617 -14.023  -9.438  1.00  0.00     0.129 A 
HETATM    6  C13 UNL     1      44.973 -13.787  -9.360  1.00  0.00     0.095 A 
HETATM    7  N8  UNL     1      45.555 -12.513  -9.597  1.00  0.00    -0.099 NA
ENDROOT
BRANCH   1   8
HETATM    8  C2  UNL     1      47.088 -15.154  -8.841  1.00  0.00     0.038 C 
HETATM    9  C1  UNL     1      47.676 -16.336  -9.620  1.00  0.00     0.071 C 
HETATM   10  N1  UNL     1      47.876 -14.520  -8.159  1.00  0.00    -0.303 N 
ATOM     11  H1  UNL     1      48.783 -14.966  -8.292  1.00  0.00     0.186 HD
BRANCH  10  12
HETATM   12  N2  UNL     1      48.085 -13.515  -7.327  1.00  0.00    -0.281 N 
ATOM     13  H2  UNL     1      47.494 -13.473  -6.496  1.00  0.00     0.188 HD
BRANCH  12  14
HETATM   14  C3  UNL     1      49.072 -12.472  -7.483  1.00  0.00     0.178 A 
HETATM   15  C4  UNL     1      49.405 -11.846  -8.639  1.00  0.00     0.193 A 
HETATM   16  N3  UNL     1      50.376 -10.914  -8.406  1.00  0.00    -0.281 N 
HETATM   17  C5  UNL     1      50.952 -10.071  -9.440  1.00  0.00     0.163 C 
HETATM   18  C6  UNL     1      50.622 -10.986  -7.104  1.00  0.00     0.331 A 
HETATM   19  O2  UNL     1      51.459 -10.283  -6.498  1.00  0.00    -0.246 OA
HETATM   20  N4  UNL     1      49.835 -11.931  -6.520  1.00  0.00    -0.285 N 
HETATM   21  C7  UNL     1      49.810 -12.301  -5.132  1.00  0.00     0.163 C 
BRANCH  15  22
HETATM   22  O1  UNL     1      48.848 -12.105  -9.887  1.00  0.00    -0.343 OA
ATOM     23  H1  UNL     1      48.053 -11.712 -10.228  1.00  0.00     0.219 HD
ENDBRANCH  15  22
ENDBRANCH  12  14
ENDBRANCH  10  12
ENDBRANCH   1   8
BRANCH   2  24
HETATM   24  O3  UNL     1      44.746 -17.240  -8.588  1.00  0.00    -0.345 OA
ATOM     25  H3  UNL     1      45.491 -17.827  -8.525  1.00  0.00     0.219 HD
ENDBRANCH   2  24
BRANCH   5  26
HETATM   26  C11 UNL     1      42.594 -13.042  -9.763  1.00  0.00     0.288 C 
HETATM   27  O4  UNL     1      41.728 -12.720  -8.915  1.00  0.00    -0.264 OA
HETATM   28  N6  UNL     1      42.546 -12.427 -11.041  1.00  0.00    -0.262 N 
ATOM     29  H6  UNL     1      43.252 -12.691 -11.728  1.00  0.00     0.190 HD
BRANCH  28  30
HETATM   30  N7  UNL     1      41.600 -11.490 -11.406  1.00  0.00    -0.275 N 
ATOM     31  H7  UNL     1      41.289 -10.829 -10.694  1.00  0.00     0.189 HD
BRANCH  30  32
HETATM   32  C12 UNL     1      41.090 -11.391 -12.559  1.00  0.00     0.368 C 
HETATM   33  O5  UNL     1      40.748 -11.484 -13.757  1.00  0.00    -0.282 OA
ENDBRANCH  30  32
ENDBRANCH  28  30
ENDBRANCH   5  26
TORSDOF 8
ENDMDL
MODEL 3
REMARK VINA RESULT: -8.234246197      5.962      8.505
REMARK  8 active torsions:
REMARK  status: ('A' for Active; 'I' for Inactive)
REMARK    1  A    between atoms: C2_2  and  C8_17 
REMARK    2  A    between atoms: N1_3  and  N2_5 
REMARK    3  A    between atoms: N2_5  and  C3_7 
REMARK    4  A    between atoms: C4_8  and  O1_9 
REMARK    5  A    between atoms: C9_18  and  O3_19 
REMARK    6  A    between atoms: C10_23  and  C11_24 
REMARK       I    between atoms: C11_24  and  N6_26 
REMARK    7  A    between atoms: N6_26  and  N7_28 
REMARK    8  A    between atoms: N7_28  and  C12_30 
ROOT
HETATM    1  C8  UNL     1      48.665 -12.683  -7.936  1.00  0.00     0.065 A 
HETATM    2  C9  UNL     1      48.902 -12.479  -9.262  1.00  0.00     0.155 A 
HETATM    3  N5  UNL     1      47.910 -13.097  -9.984  1.00  0.00    -0.330 N 
ATOM      4  H5  UNL     1      47.844 -13.102 -11.002  1.00  0.00     0.168 HD
HETATM    5  C10 UNL     1      47.050 -13.688  -9.162  1.00  0.00     0.129 A 
HETATM    6  C13 UNL     1      47.510 -13.436  -7.887  1.00  0.00     0.095 A 
HETATM    7  N8  UNL     1      46.856 -13.906  -6.716  1.00  0.00    -0.099 NA
ENDROOT
BRANCH   1   8
HETATM    8  C2  UNL     1      49.488 -12.187  -6.820  1.00  0.00     0.038 C 
HETATM    9  C1  UNL     1      49.172 -12.815  -5.457  1.00  0.00     0.071 C 
HETATM   10  N1  UNL     1      50.380 -11.355  -6.829  1.00  0.00    -0.303 N 
ATOM     11  H1  UNL     1      50.709 -11.286  -5.866  1.00  0.00     0.186 HD
BRANCH  10  12
HETATM   12  N2  UNL     1      51.112 -10.502  -7.524  1.00  0.00    -0.281 N 
ATOM     13  H2  UNL     1      51.002 -10.518  -8.538  1.00  0.00     0.188 HD
BRANCH  12  14
HETATM   14  C3  UNL     1      52.054  -9.551  -6.981  1.00  0.00     0.178 A 
HETATM   15  C4  UNL     1      52.164  -9.179  -5.682  1.00  0.00     0.193 A 
HETATM   16  N3  UNL     1      53.165  -8.260  -5.539  1.00  0.00    -0.281 N 
HETATM   17  C5  UNL     1      53.537  -7.661  -4.268  1.00  0.00     0.163 C 
HETATM   18  C6  UNL     1      53.654  -8.086  -6.760  1.00  0.00     0.331 A 
HETATM   19  O2  UNL     1      54.594  -7.313  -7.047  1.00  0.00    -0.246 OA
HETATM   20  N4  UNL     1      52.990  -8.865  -7.658  1.00  0.00    -0.285 N 
HETATM   21  C7  UNL     1      53.227  -8.954  -9.071  1.00  0.00     0.163 C 
BRANCH  15  22
HETATM   22  O1  UNL     1      51.378  -9.654  -4.637  1.00  0.00    -0.343 OA
ATOM     23  H1  UNL     1      51.472  -9.413  -3.723  1.00  0.00     0.219 HD
ENDBRANCH  15  22
ENDBRANCH  12  14
ENDBRANCH  10  12
ENDBRANCH   1   8
BRANCH   2  24
HETATM   24  O3  UNL     1      49.914 -11.795  -9.912  1.00  0.00    -0.345 OA
ATOM     25  H3  UNL     1      49.904 -11.263 -10.699  1.00  0.00     0.219 HD
ENDBRANCH   2  24
BRANCH   5  26
HETATM   26  C11 UNL     1      45.861 -14.450  -9.508  1.00  0.00     0.288 C 
HETATM   27  O4  UNL     1      45.897 -15.306 -10.423  1.00  0.00    -0.264 OA
HETATM   28  N6  UNL     1      44.634 -14.247  -8.824  1.00  0.00    -0.262 N 
ATOM     29  H6  UNL     1      44.607 -13.550  -8.080  1.00  0.00     0.190 HD
BRANCH  28  30
HETATM   30  N7  UNL     1      43.473 -14.939  -9.109  1.00  0.00    -0.275 N 
ATOM     31  H7  UNL     1      43.497 -15.956  -9.027  1.00  0.00     0.189 HD
BRANCH  30  32
HETATM   32  C12 UNL     1      42.383 -14.405  -9.464  1.00  0.00     0.368 C 
HETATM   33  O5  UNL     1      41.259 -14.107  -9.918  1.00  0.00    -0.282 OA
ENDBRANCH  30  32
ENDBRANCH  28  30
ENDBRANCH   5  26
TORSDOF 8
ENDMDL
MODEL 4
REMARK VINA RESULT: -8.197868002      7.569     10.791
REMARK  8 active torsions:
REMARK  status: ('A' for Active; 'I' for Inactive)
REMARK    1  A    between atoms: C2_2  and  C8_17 
REMARK    2  A    between atoms: N1_3  and  N2_5 
REMARK    3  A    between atoms: N2_5  and  C3_7 
REMARK    4  A    between atoms: C4_8  and  O1_9 
REMARK    5  A    between atoms: C9_18  and  O3_19 
REMARK    6  A    between atoms: C10_23  and  C11_24 
REMARK       I    between atoms: C11_24  and  N6_26 
REMARK    7  A    between atoms: N6_26  and  N7_28 
REMARK    8  A    between atoms: N7_28  and  C12_30 
ROOT
HETATM    1  C8  UNL     1      53.390  -9.281  -9.959  1.00  0.00     0.065 A 
HETATM    2  C9  UNL     1      54.459  -8.512 -10.309  1.00  0.00     0.155 A 
HETATM    3  N5  UNL     1      54.880  -7.818  -9.200  1.00  0.00    -0.330 N 
ATOM      4  H5  UNL     1      55.664  -7.167  -9.181  1.00  0.00     0.168 HD
HETATM    5  C10 UNL     1      54.114  -8.120  -8.158  1.00  0.00     0.129 A 
HETATM    6  C13 UNL     1      53.186  -9.028  -8.619  1.00  0.00     0.095 A 
HETATM    7  N8  UNL     1      52.178  -9.598  -7.794  1.00  0.00    -0.099 NA
ENDROOT
BRANCH   1   8
HETATM    8  C2  UNL     1      52.638 -10.181 -10.851  1.00  0.00     0.038 C 
HETATM    9  C1  UNL     1      53.465 -10.807 -11.980  1.00  0.00     0.071 C 
HETATM   10  N1  UNL     1      51.460 -10.496 -10.814  1.00  0.00    -0.303 N 
ATOM     11  H1  UNL     1      51.318 -11.138 -11.594  1.00  0.00     0.186 HD
BRANCH  10  12
HETATM   12  N2  UNL     1      50.286 -10.382 -10.220  1.00  0.00    -0.281 N 
ATOM     13  H2  UNL     1      49.957  -9.436 -10.025  1.00  0.00     0.188 HD
BRANCH  12  14
HETATM   14  C3  UNL     1      49.425 -11.471  -9.821  1.00  0.00     0.178 A 
HETATM   15  C4  UNL     1      49.291 -11.973  -8.568  1.00  0.00     0.193 A 
HETATM   16  N3  UNL     1      48.387 -12.997  -8.566  1.00  0.00    -0.281 N 
HETATM   17  C5  UNL     1      48.019 -13.748  -7.378  1.00  0.00     0.163 C 
HETATM   18  C6  UNL     1      47.981 -13.105  -9.825  1.00  0.00     0.331 A 
HETATM   19  O2  UNL     1      47.144 -13.938 -10.234  1.00  0.00    -0.246 OA
HETATM   20  N4  UNL     1      48.602 -12.181 -10.609  1.00  0.00    -0.285 N 
HETATM   21  C7  UNL     1      48.426 -11.984 -12.021  1.00  0.00     0.163 C 
BRANCH  15  22
HETATM   22  O1  UNL     1      49.969 -11.521  -7.440  1.00  0.00    -0.343 OA
ATOM     23  H1  UNL     1      49.919 -11.909  -6.575  1.00  0.00     0.219 HD
ENDBRANCH  15  22
ENDBRANCH  12  14
ENDBRANCH  10  12
ENDBRANCH   1   8
BRANCH   2  24
HETATM   24  O3  UNL     1      55.112  -8.355 -11.518  1.00  0.00    -0.345 OA
ATOM     25  H3  UNL     1      55.341  -7.575 -12.009  1.00  0.00     0.219 HD
ENDBRANCH   2  24
BRANCH   5  26
HETATM   26  C11 UNL     1      54.213  -7.611  -6.799  1.00  0.00     0.288 C 
HETATM   27  O4  UNL     1      55.323  -7.270  -6.326  1.00  0.00    -0.264 OA
HETATM   28  N6  UNL     1      53.063  -7.487  -5.975  1.00  0.00    -0.262 N 
ATOM     29  H6  UNL     1      52.162  -7.765  -6.363  1.00  0.00     0.190 HD
BRANCH  28  30
HETATM   30  N7  UNL     1      53.096  -7.011  -4.679  1.00  0.00    -0.275 N 
ATOM     31  H7  UNL     1      52.732  -6.074  -4.510  1.00  0.00     0.189 HD
BRANCH  30  32
HETATM   32  C12 UNL     1      53.545  -7.653  -3.686  1.00  0.00     0.368 C 
HETATM   33  O5  UNL     1      53.976  -8.061  -2.587  1.00  0.00    -0.282 OA
ENDBRANCH  30  32
ENDBRANCH  28  30
ENDBRANCH   5  26
TORSDOF 8
ENDMDL
MODEL 5
REMARK VINA RESULT: -8.181553906      3.121      5.201
REMARK  8 active torsions:
REMARK  status: ('A' for Active; 'I' for Inactive)
REMARK    1  A    between atoms: C2_2  and  C8_17 
REMARK    2  A    between atoms: N1_3  and  N2_5 
REMARK    3  A    between atoms: N2_5  and  C3_7 
REMARK    4  A    between atoms: C4_8  and  O1_9 
REMARK    5  A    between atoms: C9_18  and  O3_19 
REMARK    6  A    between atoms: C10_23  and  C11_24 
REMARK       I    between atoms: C11_24  and  N6_26 
REMARK    7  A    between atoms: N6_26  and  N7_28 
REMARK    8  A    between atoms: N7_28  and  C12_30 
ROOT
HETATM    1  C8  UNL     1      45.609 -14.744  -9.834  1.00  0.00     0.065 A 
HETATM    2  C9  UNL     1      44.762 -15.653  -9.275  1.00  0.00     0.155 A 
HETATM    3  N5  UNL     1      43.501 -15.111  -9.234  1.00  0.00    -0.330 N 
ATOM      4  H5  UNL     1      42.675 -15.579  -8.864  1.00  0.00     0.168 HD
HETATM    5  C10 UNL     1      43.517 -13.887  -9.749  1.00  0.00     0.129 A 
HETATM    6  C13 UNL     1      44.821 -13.650 -10.125  1.00  0.00     0.095 A 
HETATM    7  N8  UNL     1      45.250 -12.434 -10.724  1.00  0.00    -0.099 NA
ENDROOT
BRANCH   1   8
HETATM    8  C2  UNL     1      47.052 -14.927 -10.066  1.00  0.00     0.038 C 
HETATM    9  C1  UNL     1      47.459 -16.335 -10.515  1.00  0.00     0.071 C 
HETATM   10  N1  UNL     1      47.960 -14.120  -9.951  1.00  0.00    -0.303 N 
ATOM     11  H1  UNL     1      48.812 -14.620 -10.201  1.00  0.00     0.186 HD
BRANCH  10  12
HETATM   12  N2  UNL     1      48.337 -12.890  -9.650  1.00  0.00    -0.281 N 
ATOM     13  H2  UNL     1      48.187 -12.173 -10.361  1.00  0.00     0.188 HD
BRANCH  12  14
HETATM   14  C3  UNL     1      48.942 -12.466  -8.409  1.00  0.00     0.178 A 
HETATM   15  C4  UNL     1      48.640 -12.923  -7.168  1.00  0.00     0.193 A 
HETATM   16  N3  UNL     1      49.414 -12.295  -6.234  1.00  0.00    -0.281 N 
HETATM   17  C5  UNL     1      49.334 -12.561  -4.808  1.00  0.00     0.163 C 
HETATM   18  C6  UNL     1      50.181 -11.460  -6.923  1.00  0.00     0.331 A 
HETATM   19  O2  UNL     1      51.034 -10.698  -6.419  1.00  0.00    -0.246 OA
HETATM   20  N4  UNL     1      49.909 -11.548  -8.254  1.00  0.00    -0.285 N 
HETATM   21  C7  UNL     1      50.530 -10.806  -9.316  1.00  0.00     0.163 C 
BRANCH  15  22
HETATM   22  O1  UNL     1      47.683 -13.890  -6.876  1.00  0.00    -0.343 OA
ATOM     23  H1  UNL     1      47.389 -14.571  -7.469  1.00  0.00     0.219 HD
ENDBRANCH  15  22
ENDBRANCH  12  14
ENDBRANCH  10  12
ENDBRANCH   1   8
BRANCH   2  24
HETATM   24  O3  UNL     1      44.988 -16.929  -8.789  1.00  0.00    -0.345 OA
ATOM     25  H3  UNL     1      44.386 -17.599  -8.487  1.00  0.00     0.219 HD
ENDBRANCH   2  24
BRANCH   5  26
HETATM   26  C11 UNL     1      42.401 -12.965  -9.898  1.00  0.00     0.288 C 
HETATM   27  O4  UNL     1      41.649 -12.714  -8.927  1.00  0.00    -0.264 OA
HETATM   28  N6  UNL     1      42.135 -12.328 -11.138  1.00  0.00    -0.262 N 
ATOM     29  H6  UNL     1      42.749 -12.534 -11.926  1.00  0.00     0.190 HD
BRANCH  28  30
HETATM   30  N7  UNL     1      41.092 -11.445 -11.339  1.00  0.00    -0.275 N 
ATOM     31  H7  UNL     1      40.654 -11.035 -10.514  1.00  0.00     0.189 HD
BRANCH  30  32
HETATM   32  C12 UNL     1      40.641 -11.107 -12.471  1.00  0.00     0.368 C 
HETATM   33  O5  UNL     1      40.155 -11.025 -13.618  1.00  0.00    -0.282 OA
ENDBRANCH  30  32
ENDBRANCH  28  30
ENDBRANCH   5  26
TORSDOF 8
ENDMDL
