MODEL 1
REMARK VINA RESULT: -10.156740256      0.000      0.000
REMARK  7 active torsions:
REMARK  status: ('A' for Active; 'I' for Inactive)
REMARK    1  A    between atoms: C2_2  and  C3_4 
REMARK    2  A    between atoms: N2_7  and  N3_9 
REMARK    3  A    between atoms: N3_9  and  C5_11 
REMARK    4  A    between atoms: C6_16  and  C7_17 
REMARK    5  A    between atoms: N6_18  and  N7_20 
REMARK    6  A    between atoms: N7_20  and  C8_22 
REMARK    7  A    between atoms: C13_33  and  O2_34 
ROOT
HETATM    1  C3  UNL     1      53.739  -8.313  -5.894  1.00  0.00     0.174 C 
HETATM    2  C4  UNL     1      54.719  -7.954  -6.931  1.00  0.00     0.123 C 
HETATM    3  N1  UNL     1      55.501  -7.671  -7.732  1.00  0.00    -0.190 NA
HETATM    4  N2  UNL     1      52.953  -9.270  -6.086  1.00  0.00    -0.286 N 
ATOM      5  H2  UNL     1      53.061  -9.742  -6.984  1.00  0.00     0.188 HD
ENDROOT
BRANCH   1   6
HETATM    6  C2  UNL     1      53.767  -7.503  -4.705  1.00  0.00     0.184 C 
HETATM    7  C1  UNL     1      54.397  -6.178  -4.556  1.00  0.00     0.099 C 
HETATM    8  O1  UNL     1      53.189  -7.968  -3.663  1.00  0.00    -0.290 OA
ENDBRANCH   1   6
BRANCH   4   9
HETATM    9  N3  UNL     1      51.989  -9.775  -5.296  1.00  0.00    -0.281 N 
ATOM     10  H3  UNL     1      51.971  -9.418  -4.340  1.00  0.00     0.188 HD
BRANCH   9  11
HETATM   11  C5  UNL     1      50.990 -10.736  -5.608  1.00  0.00     0.163 A 
HETATM   12  N4  UNL     1      50.705 -11.059  -6.895  1.00  0.00    -0.282 N 
HETATM   13  N5  UNL     1      49.800 -11.936  -7.238  1.00  0.00    -0.297 N 
ATOM     14  H4  UNL     1      51.228 -10.592  -7.636  1.00  0.00     0.188 HD
HETATM   15  C6  UNL     1      49.073 -12.590  -6.326  1.00  0.00     0.077 A 
ATOM     16  H5  UNL     1      49.643 -12.127  -8.228  1.00  0.00     0.187 HD
HETATM   17  C11 UNL     1      49.324 -12.298  -5.002  1.00  0.00     0.028 A 
HETATM   18  C12 UNL     1      48.759 -12.791  -3.861  1.00  0.00     0.072 A 
HETATM   19  C14 UNL     1      50.289 -11.363  -4.608  1.00  0.00     0.094 A 
HETATM   20  C13 UNL     1      49.371 -12.167  -2.809  1.00  0.00     0.141 A 
HETATM   21  N11 UNL     1      50.302 -11.298  -3.254  1.00  0.00    -0.333 N 
ATOM     22  H11 UNL     1      50.902 -10.705  -2.681  1.00  0.00     0.168 HD
BRANCH  15  23
HETATM   23  C7  UNL     1      48.057 -13.574  -6.702  1.00  0.00     0.139 C 
HETATM   24  N6  UNL     1      47.936 -13.890  -7.946  1.00  0.00    -0.295 N 
ATOM     25  H6  UNL     1      48.534 -13.467  -8.656  1.00  0.00     0.186 HD
BRANCH  24  26
HETATM   26  N7  UNL     1      46.969 -14.824  -8.290  1.00  0.00    -0.131 N 
ATOM     27  H7  UNL     1      47.153 -15.824  -8.202  1.00  0.00     0.205 HD
BRANCH  26  28
HETATM   28  C8  UNL     1      45.709 -14.352  -8.770  1.00  0.00     0.707 C 
HETATM   29  N8  UNL     1      45.585 -13.217  -9.333  1.00  0.00    -0.222 N 
HETATM   30  C9  UNL     1      44.350 -12.715  -9.821  1.00  0.00     0.159 C 
ATOM     31  H8  UNL     1      46.419 -12.638  -9.440  1.00  0.00     0.177 HD
HETATM   32  C10 UNL     1      43.264 -13.714  -9.982  1.00  0.00     0.160 C 
HETATM   33  N9  UNL     1      43.311 -14.812  -9.073  1.00  0.00    -0.321 N 
HETATM   34  N10 UNL     1      44.554 -15.161  -8.617  1.00  0.00    -0.135 N 
ATOM     35  H9  UNL     1      42.469 -15.307  -8.779  1.00  0.00     0.180 HD
ATOM     36  H10 UNL     1      44.656 -16.057  -8.140  1.00  0.00     0.205 HD
ENDBRANCH  26  28
ENDBRANCH  24  26
ENDBRANCH  15  23
BRANCH  20  37
HETATM   37  O2  UNL     1      49.076 -12.395  -1.462  1.00  0.00    -0.346 OA
ATOM     38  H2  UNL     1      49.635 -12.865  -0.856  1.00  0.00     0.219 HD
ENDBRANCH  20  37
ENDBRANCH   9  11
ENDBRANCH   4   9
TORSDOF 7
ENDMDL
MODEL 2
REMARK VINA RESULT: -10.036046830      1.964      2.306
REMARK  7 active torsions:
REMARK  status: ('A' for Active; 'I' for Inactive)
REMARK    1  A    between atoms: C2_2  and  C3_4 
REMARK    2  A    between atoms: N2_7  and  N3_9 
REMARK    3  A    between atoms: N3_9  and  C5_11 
REMARK    4  A    between atoms: C6_16  and  C7_17 
REMARK    5  A    between atoms: N6_18  and  N7_20 
REMARK    6  A    between atoms: N7_20  and  C8_22 
REMARK    7  A    between atoms: C13_33  and  O2_34 
ROOT
HETATM    1  C3  UNL     1      53.849  -8.792  -9.109  1.00  0.00     0.174 C 
HETATM    2  C4  UNL     1      54.398  -8.494 -10.441  1.00  0.00     0.123 C 
HETATM    3  N1  UNL     1      54.845  -8.269 -11.482  1.00  0.00    -0.190 NA
HETATM    4  N2  UNL     1      52.651  -9.144  -8.995  1.00  0.00    -0.286 N 
ATOM      5  H2  UNL     1      52.134  -9.198  -9.873  1.00  0.00     0.188 HD
ENDROOT
BRANCH   1   6
HETATM    6  C2  UNL     1      54.766  -8.646  -8.011  1.00  0.00     0.184 C 
HETATM    7  C1  UNL     1      55.912  -7.721  -7.936  1.00  0.00     0.099 C 
HETATM    8  O1  UNL     1      54.580  -9.388  -6.987  1.00  0.00    -0.290 OA
ENDBRANCH   1   6
BRANCH   4   9
HETATM    9  N3  UNL     1      51.939  -9.464  -7.900  1.00  0.00    -0.281 N 
ATOM     10  H3  UNL     1      52.127  -8.897  -7.073  1.00  0.00     0.188 HD
BRANCH   9  11
HETATM   11  C5  UNL     1      50.963 -10.482  -7.735  1.00  0.00     0.163 A 
HETATM   12  N4  UNL     1      50.318 -11.015  -8.804  1.00  0.00    -0.282 N 
HETATM   13  N5  UNL     1      49.414 -11.954  -8.709  1.00  0.00    -0.297 N 
ATOM     14  H4  UNL     1      50.552 -10.664  -9.732  1.00  0.00     0.188 HD
HETATM   15  C6  UNL     1      49.052 -12.465  -7.528  1.00  0.00     0.077 A 
ATOM     16  H5  UNL     1      48.972 -12.306  -9.559  1.00  0.00     0.187 HD
HETATM   17  C11 UNL     1      49.679 -11.958  -6.410  1.00  0.00     0.028 A 
HETATM   18  C12 UNL     1      49.529 -12.271  -5.089  1.00  0.00     0.072 A 
HETATM   19  C14 UNL     1      50.650 -10.952  -6.483  1.00  0.00     0.094 A 
HETATM   20  C13 UNL     1      50.391 -11.472  -4.388  1.00  0.00     0.141 A 
HETATM   21  N11 UNL     1      51.077 -10.669  -5.229  1.00  0.00    -0.333 N 
ATOM     22  H11 UNL     1      51.782  -9.979  -4.969  1.00  0.00     0.168 HD
BRANCH  15  23
HETATM   23  C7  UNL     1      48.040 -13.517  -7.414  1.00  0.00     0.139 C 
HETATM   24  N6  UNL     1      47.254 -13.727  -8.414  1.00  0.00    -0.295 N 
ATOM     25  H6  UNL     1      47.332 -13.175  -9.269  1.00  0.00     0.186 HD
BRANCH  24  26
HETATM   26  N7  UNL     1      46.299 -14.727  -8.294  1.00  0.00    -0.131 N 
ATOM     27  H7  UNL     1      46.571 -15.687  -8.083  1.00  0.00     0.205 HD
BRANCH  26  28
HETATM   28  C8  UNL     1      44.925 -14.378  -8.471  1.00  0.00     0.707 C 
HETATM   29  N8  UNL     1      44.489 -13.208  -8.223  1.00  0.00    -0.222 N 
HETATM   30  C9  UNL     1      43.131 -12.827  -8.387  1.00  0.00     0.159 C 
ATOM     31  H8  UNL     1      45.151 -12.507  -7.888  1.00  0.00     0.177 HD
HETATM   32  C10 UNL     1      42.298 -13.739  -9.209  1.00  0.00     0.160 C 
HETATM   33  N9  UNL     1      42.683 -15.112  -9.169  1.00  0.00    -0.321 N 
HETATM   34  N10 UNL     1      44.010 -15.357  -8.936  1.00  0.00    -0.135 N 
ATOM     35  H9  UNL     1      42.010 -15.866  -9.306  1.00  0.00     0.180 HD
ATOM     36  H10 UNL     1      44.361 -16.300  -9.106  1.00  0.00     0.205 HD
ENDBRANCH  26  28
ENDBRANCH  24  26
ENDBRANCH  15  23
BRANCH  20  37
HETATM   37  O2  UNL     1      50.544 -11.485  -3.000  1.00  0.00    -0.346 OA
ATOM     38  H2  UNL     1      50.865 -10.757  -2.482  1.00  0.00     0.219 HD
ENDBRANCH  20  37
ENDBRANCH   9  11
ENDBRANCH   4   9
TORSDOF 7
ENDMDL
MODEL 3
REMARK VINA RESULT: -9.920569028      1.761      2.267
REMARK  7 active torsions:
REMARK  status: ('A' for Active; 'I' for Inactive)
REMARK    1  A    between atoms: C2_2  and  C3_4 
REMARK    2  A    between atoms: N2_7  and  N3_9 
REMARK    3  A    between atoms: N3_9  and  C5_11 
REMARK    4  A    between atoms: C6_16  and  C7_17 
REMARK    5  A    between atoms: N6_18  and  N7_20 
REMARK    6  A    between atoms: N7_20  and  C8_22 
REMARK    7  A    between atoms: C13_33  and  O2_34 
ROOT
HETATM    1  C3  UNL     1      53.563  -8.146  -6.957  1.00  0.00     0.174 C 
HETATM    2  C4  UNL     1      53.774  -7.120  -5.924  1.00  0.00     0.123 C 
HETATM    3  N1  UNL     1      53.952  -6.307  -5.123  1.00  0.00    -0.190 NA
HETATM    4  N2  UNL     1      52.397  -8.453  -7.300  1.00  0.00    -0.286 N 
ATOM      5  H2  UNL     1      51.659  -7.945  -6.814  1.00  0.00     0.188 HD
ENDROOT
BRANCH   1   6
HETATM    6  C2  UNL     1      54.758  -8.732  -7.504  1.00  0.00     0.184 C 
HETATM    7  C1  UNL     1      55.189  -8.703  -8.914  1.00  0.00     0.099 C 
HETATM    8  O1  UNL     1      55.537  -9.342  -6.694  1.00  0.00    -0.290 OA
ENDBRANCH   1   6
BRANCH   4   9
HETATM    9  N3  UNL     1      51.965  -9.346  -8.208  1.00  0.00    -0.281 N 
ATOM     10  H3  UNL     1      52.383  -9.268  -9.135  1.00  0.00     0.188 HD
BRANCH   9  11
HETATM   11  C5  UNL     1      51.007 -10.384  -8.054  1.00  0.00     0.163 A 
HETATM   12  N4  UNL     1      50.374 -10.919  -9.129  1.00  0.00    -0.282 N 
HETATM   13  N5  UNL     1      49.488 -11.875  -9.044  1.00  0.00    -0.297 N 
ATOM     14  H4  UNL     1      50.604 -10.555 -10.054  1.00  0.00     0.188 HD
HETATM   15  C6  UNL     1      49.134 -12.404  -7.869  1.00  0.00     0.077 A 
ATOM     16  H5  UNL     1      49.055 -12.227  -9.898  1.00  0.00     0.187 HD
HETATM   17  C11 UNL     1      49.749 -11.896  -6.745  1.00  0.00     0.028 A 
HETATM   18  C12 UNL     1      49.603 -12.223  -5.428  1.00  0.00     0.072 A 
HETATM   19  C14 UNL     1      50.702 -10.871  -6.807  1.00  0.00     0.094 A 
HETATM   20  C13 UNL     1      50.449 -11.415  -4.718  1.00  0.00     0.141 A 
HETATM   21  N11 UNL     1      51.120 -10.592  -5.549  1.00  0.00    -0.333 N 
ATOM     22  H11 UNL     1      51.812  -9.891  -5.282  1.00  0.00     0.168 HD
BRANCH  15  23
HETATM   23  C7  UNL     1      48.142 -13.475  -7.767  1.00  0.00     0.139 C 
HETATM   24  N6  UNL     1      47.223 -13.553  -8.668  1.00  0.00    -0.295 N 
ATOM     25  H6  UNL     1      47.185 -12.885  -9.438  1.00  0.00     0.186 HD
BRANCH  24  26
HETATM   26  N7  UNL     1      46.288 -14.573  -8.560  1.00  0.00    -0.131 N 
ATOM     27  H7  UNL     1      46.584 -15.544  -8.451  1.00  0.00     0.205 HD
BRANCH  26  28
HETATM   28  C8  UNL     1      44.902 -14.231  -8.604  1.00  0.00     0.707 C 
HETATM   29  N8  UNL     1      44.492 -13.050  -8.365  1.00  0.00    -0.222 N 
HETATM   30  C9  UNL     1      43.123 -12.675  -8.399  1.00  0.00     0.159 C 
ATOM     31  H8  UNL     1      45.184 -12.335  -8.138  1.00  0.00     0.177 HD
HETATM   32  C10 UNL     1      42.208 -13.623  -9.081  1.00  0.00     0.160 C 
HETATM   33  N9  UNL     1      42.600 -14.994  -9.018  1.00  0.00    -0.321 N 
HETATM   34  N10 UNL     1      43.945 -15.229  -8.919  1.00  0.00    -0.135 N 
ATOM     35  H9  UNL     1      41.919 -15.753  -9.045  1.00  0.00     0.180 HD
ATOM     36  H10 UNL     1      44.279 -16.180  -9.081  1.00  0.00     0.205 HD
ENDBRANCH  26  28
ENDBRANCH  24  26
ENDBRANCH  15  23
BRANCH  20  37
HETATM   37  O2  UNL     1      50.599 -11.438  -3.329  1.00  0.00    -0.346 OA
ATOM     38  H2  UNL     1      51.119 -12.070  -2.849  1.00  0.00     0.219 HD
ENDBRANCH  20  37
ENDBRANCH   9  11
ENDBRANCH   4   9
TORSDOF 7
ENDMDL
MODEL 4
REMARK VINA RESULT: -9.880877014      2.227      2.797
REMARK  7 active torsions:
REMARK  status: ('A' for Active; 'I' for Inactive)
REMARK    1  A    between atoms: C2_2  and  C3_4 
REMARK    2  A    between atoms: N2_7  and  N3_9 
REMARK    3  A    between atoms: N3_9  and  C5_11 
REMARK    4  A    between atoms: C6_16  and  C7_17 
REMARK    5  A    between atoms: N6_18  and  N7_20 
REMARK    6  A    between atoms: N7_20  and  C8_22 
REMARK    7  A    between atoms: C13_33  and  O2_34 
ROOT
HETATM    1  C3  UNL     1      53.872  -8.414  -8.006  1.00  0.00     0.174 C 
HETATM    2  C4  UNL     1      54.542  -7.788  -6.856  1.00  0.00     0.123 C 
HETATM    3  N1  UNL     1      55.075  -7.284  -5.963  1.00  0.00    -0.190 NA
HETATM    4  N2  UNL     1      52.680  -8.791  -7.903  1.00  0.00    -0.286 N 
ATOM      5  H2  UNL     1      52.255  -8.625  -6.991  1.00  0.00     0.188 HD
ENDROOT
BRANCH   1   6
HETATM    6  C2  UNL     1      54.672  -8.547  -9.194  1.00  0.00     0.184 C 
HETATM    7  C1  UNL     1      56.124  -8.796  -9.257  1.00  0.00     0.099 C 
HETATM    8  O1  UNL     1      54.074  -8.443 -10.320  1.00  0.00    -0.290 OA
ENDBRANCH   1   6
BRANCH   4   9
HETATM    9  N3  UNL     1      51.873  -9.378  -8.804  1.00  0.00    -0.281 N 
ATOM     10  H3  UNL     1      51.963  -9.039  -9.762  1.00  0.00     0.188 HD
BRANCH   9  11
HETATM   11  C5  UNL     1      50.913 -10.406  -8.606  1.00  0.00     0.163 A 
HETATM   12  N4  UNL     1      50.243 -10.951  -9.654  1.00  0.00    -0.282 N 
HETATM   13  N5  UNL     1      49.352 -11.898  -9.529  1.00  0.00    -0.297 N 
ATOM     14  H4  UNL     1      50.447 -10.601 -10.590  1.00  0.00     0.188 HD
HETATM   15  C6  UNL     1      49.030 -12.408  -8.336  1.00  0.00     0.077 A 
ATOM     16  H5  UNL     1      48.890 -12.258 -10.364  1.00  0.00     0.187 HD
HETATM   17  C11 UNL     1      49.684 -11.890  -7.239  1.00  0.00     0.028 A 
HETATM   18  C12 UNL     1      49.576 -12.198  -5.913  1.00  0.00     0.072 A 
HETATM   19  C14 UNL     1      50.642 -10.874  -7.344  1.00  0.00     0.094 A 
HETATM   20  C13 UNL     1      50.449 -11.387  -5.240  1.00  0.00     0.141 A 
HETATM   21  N11 UNL     1      51.101 -10.580  -6.104  1.00  0.00    -0.333 N 
ATOM     22  H11 UNL     1      51.806  -9.882  -5.867  1.00  0.00     0.168 HD
BRANCH  15  23
HETATM   23  C7  UNL     1      48.034 -13.470  -8.188  1.00  0.00     0.139 C 
HETATM   24  N6  UNL     1      47.048 -13.509  -9.018  1.00  0.00    -0.295 N 
ATOM     25  H6  UNL     1      46.960 -12.818  -9.763  1.00  0.00     0.186 HD
BRANCH  24  26
HETATM   26  N7  UNL     1      46.109 -14.521  -8.868  1.00  0.00    -0.131 N 
ATOM     27  H7  UNL     1      46.397 -15.499  -8.819  1.00  0.00     0.205 HD
BRANCH  26  28
HETATM   28  C8  UNL     1      44.730 -14.160  -8.782  1.00  0.00     0.707 C 
HETATM   29  N8  UNL     1      44.360 -12.978  -8.487  1.00  0.00    -0.222 N 
HETATM   30  C9  UNL     1      42.999 -12.584  -8.392  1.00  0.00     0.159 C 
ATOM     31  H8  UNL     1      45.080 -12.277  -8.309  1.00  0.00     0.177 HD
HETATM   32  C10 UNL     1      42.014 -13.508  -9.007  1.00  0.00     0.160 C 
HETATM   33  N9  UNL     1      42.389 -14.884  -9.004  1.00  0.00    -0.321 N 
HETATM   34  N10 UNL     1      43.734 -15.139  -9.029  1.00  0.00    -0.135 N 
ATOM     35  H9  UNL     1      41.697 -15.633  -8.984  1.00  0.00     0.180 HD
ATOM     36  H10 UNL     1      44.038 -16.091  -9.237  1.00  0.00     0.205 HD
ENDBRANCH  26  28
ENDBRANCH  24  26
ENDBRANCH  15  23
BRANCH  20  37
HETATM   37  O2  UNL     1      50.642 -11.392  -3.857  1.00  0.00    -0.346 OA
ATOM     38  H2  UNL     1      51.485 -11.329  -3.425  1.00  0.00     0.219 HD
ENDBRANCH  20  37
ENDBRANCH   9  11
ENDBRANCH   4   9
TORSDOF 7
ENDMDL
MODEL 5
REMARK VINA RESULT: -9.793079625      1.495      1.931
REMARK  7 active torsions:
REMARK  status: ('A' for Active; 'I' for Inactive)
REMARK    1  A    between atoms: C2_2  and  C3_4 
REMARK    2  A    between atoms: N2_7  and  N3_9 
REMARK    3  A    between atoms: N3_9  and  C5_11 
REMARK    4  A    between atoms: C6_16  and  C7_17 
REMARK    5  A    between atoms: N6_18  and  N7_20 
REMARK    6  A    between atoms: N7_20  and  C8_22 
REMARK    7  A    between atoms: C13_33  and  O2_34 
ROOT
HETATM    1  C3  UNL     1      53.732  -8.297  -5.872  1.00  0.00     0.174 C 
HETATM    2  C4  UNL     1      54.719  -7.944  -6.904  1.00  0.00     0.123 C 
HETATM    3  N1  UNL     1      55.507  -7.665  -7.701  1.00  0.00    -0.190 NA
HETATM    4  N2  UNL     1      52.939  -9.248  -6.069  1.00  0.00    -0.286 N 
ATOM      5  H2  UNL     1      53.047  -9.718  -6.967  1.00  0.00     0.188 HD
ENDROOT
BRANCH   1   6
HETATM    6  C2  UNL     1      53.761  -7.489  -4.682  1.00  0.00     0.184 C 
HETATM    7  C1  UNL     1      54.328  -6.135  -4.549  1.00  0.00     0.099 C 
HETATM    8  O1  UNL     1      53.244  -7.985  -3.622  1.00  0.00    -0.290 OA
ENDBRANCH   1   6
BRANCH   4   9
HETATM    9  N3  UNL     1      51.967  -9.746  -5.284  1.00  0.00    -0.281 N 
ATOM     10  H3  UNL     1      51.934  -9.374  -4.335  1.00  0.00     0.188 HD
BRANCH   9  11
HETATM   11  C5  UNL     1      50.980 -10.720  -5.594  1.00  0.00     0.163 A 
HETATM   12  N4  UNL     1      50.702 -11.052  -6.881  1.00  0.00    -0.282 N 
HETATM   13  N5  UNL     1      49.806 -11.940  -7.221  1.00  0.00    -0.297 N 
ATOM     14  H4  UNL     1      51.220 -10.581  -7.622  1.00  0.00     0.188 HD
HETATM   15  C6  UNL     1      49.086 -12.599  -6.308  1.00  0.00     0.077 A 
ATOM     16  H5  UNL     1      49.653 -12.137  -8.210  1.00  0.00     0.187 HD
HETATM   17  C11 UNL     1      49.332 -12.299  -4.985  1.00  0.00     0.028 A 
HETATM   18  C12 UNL     1      48.770 -12.794  -3.843  1.00  0.00     0.072 A 
HETATM   19  C14 UNL     1      50.285 -11.351  -4.592  1.00  0.00     0.094 A 
HETATM   20  C13 UNL     1      49.373 -12.159  -2.791  1.00  0.00     0.141 A 
HETATM   21  N11 UNL     1      50.295 -11.281  -3.239  1.00  0.00    -0.333 N 
ATOM     22  H11 UNL     1      50.888 -10.678  -2.668  1.00  0.00     0.168 HD
BRANCH  15  23
HETATM   23  C7  UNL     1      48.082 -13.596  -6.681  1.00  0.00     0.139 C 
HETATM   24  N6  UNL     1      47.680 -13.637  -7.906  1.00  0.00    -0.295 N 
ATOM     25  H6  UNL     1      48.051 -12.990  -8.602  1.00  0.00     0.186 HD
BRANCH  24  26
HETATM   26  N7  UNL     1      46.727 -14.586  -8.247  1.00  0.00    -0.131 N 
ATOM     27  H7  UNL     1      45.860 -14.671  -7.717  1.00  0.00     0.205 HD
BRANCH  26  28
HETATM   28  C8  UNL     1      46.991 -15.443  -9.360  1.00  0.00     0.707 C 
HETATM   29  N8  UNL     1      47.789 -15.109 -10.293  1.00  0.00    -0.222 N 
HETATM   30  C9  UNL     1      48.073 -15.934 -11.413  1.00  0.00     0.159 C 
ATOM     31  H8  UNL     1      48.248 -14.200 -10.233  1.00  0.00     0.177 HD
HETATM   32  C10 UNL     1      47.689 -17.361 -11.280  1.00  0.00     0.160 C 
HETATM   33  N9  UNL     1      46.560 -17.609 -10.444  1.00  0.00    -0.321 N 
HETATM   34  N10 UNL     1      46.348 -16.705  -9.438  1.00  0.00    -0.135 N 
ATOM     35  H9  UNL     1      45.946 -18.412 -10.588  1.00  0.00     0.180 HD
ATOM     36  H10 UNL     1      45.688 -16.954  -8.700  1.00  0.00     0.205 HD
ENDBRANCH  26  28
ENDBRANCH  24  26
ENDBRANCH  15  23
BRANCH  20  37
HETATM   37  O2  UNL     1      49.079 -12.385  -1.445  1.00  0.00    -0.346 OA
ATOM     38  H2  UNL     1      48.219 -12.295  -1.053  1.00  0.00     0.219 HD
ENDBRANCH  20  37
ENDBRANCH   9  11
ENDBRANCH   4   9
TORSDOF 7
ENDMDL
