MODEL 1
REMARK VINA RESULT: -7.812246783      0.000      0.000
REMARK  9 active torsions:
REMARK  status: ('A' for Active; 'I' for Inactive)
REMARK    1  A    between atoms: O1_2  and  C2_3 
REMARK    2  A    between atoms: C3_6  and  C4_7 
REMARK    3  A    between atoms: C5_8  and  N2_9 
REMARK    4  A    between atoms: N2_9  and  C6_11 
REMARK    5  A    between atoms: C6_11  and  N3_12 
REMARK    6  A    between atoms: N5_18  and  N6_19 
REMARK    7  A    between atoms: N7_24  and  N8_25 
REMARK    8  A    between atoms: C9_28  and  N9_29 
REMARK    9  A    between atoms: C10_32  and  N10_33 
ROOT
HETATM    1  C6  UNL     1      46.532 -10.119 -12.116  1.00  0.00     0.390 C 
HETATM    2  C7  UNL     1      45.494  -9.406 -12.919  1.00  0.00     0.114 C 
HETATM    3  N4  UNL     1      44.704  -8.861 -13.557  1.00  0.00    -0.193 NA
ENDROOT
BRANCH   1   4
HETATM    4  N2  UNL     1      45.975 -10.493 -10.840  1.00  0.00    -0.334 N 
ATOM      5  H2  UNL     1      45.582  -9.761 -10.249  1.00  0.00     0.164 HD
BRANCH   4   6
HETATM    6  C5  UNL     1      45.947 -11.819 -10.371  1.00  0.00     0.159 A 
HETATM    7  C4  UNL     1      44.756 -12.558 -10.271  1.00  0.00     0.133 A 
HETATM    8  N7  UNL     1      45.107 -13.748  -9.770  1.00  0.00    -0.229 N 
HETATM    9  C8  UNL     1      46.434 -13.800  -9.550  1.00  0.00     0.220 A 
HETATM   10  N5  UNL     1      46.937 -12.599  -9.928  1.00  0.00    -0.216 N 
HETATM   11  S1  UNL     1      47.286 -15.057  -8.945  1.00  0.00    -0.037 SA
BRANCH   7  12
HETATM   12  C3  UNL     1      43.442 -12.106 -10.682  1.00  0.00     0.105 A 
HETATM   13  N1  UNL     1      43.052 -12.049 -11.985  1.00  0.00    -0.318 N 
HETATM   14  C2  UNL     1      41.853 -11.575 -12.351  1.00  0.00     0.225 A 
ATOM     15  H1  UNL     1      43.694 -12.377 -12.706  1.00  0.00     0.169 HD
HETATM   16  N11 UNL     1      40.954 -11.124 -11.449  1.00  0.00    -0.306 N 
HETATM   17  C10 UNL     1      41.286 -11.158 -10.152  1.00  0.00     0.138 A 
ATOM     18  H11 UNL     1      40.046 -10.768 -11.748  1.00  0.00     0.171 HD
HETATM   19  C9  UNL     1      42.541 -11.652  -9.757  1.00  0.00     0.175 A 
BRANCH  14  20
HETATM   20  O1  UNL     1      41.485 -11.527 -13.683  1.00  0.00    -0.327 OA
HETATM   21  C1  UNL     1      42.366 -11.139 -14.716  1.00  0.00     0.213 C 
ENDBRANCH  14  20
BRANCH  17  22
HETATM   22  N10 UNL     1      40.432 -10.728  -9.296  1.00  0.00    -0.383 N 
ATOM     23 2H10 UNL     1      40.347  -9.720  -9.167  1.00  0.00     0.157 HD
ATOM     24 1H10 UNL     1      39.851 -11.366  -8.752  1.00  0.00     0.157 HD
ENDBRANCH  17  22
BRANCH  19  25
HETATM   25  N9  UNL     1      42.813 -11.593  -8.383  1.00  0.00    -0.109 N 
HETATM   26  O2  UNL     1      42.797 -12.694  -7.761  1.00  0.00    -0.532 OA
HETATM   27  O3  UNL     1      43.085 -10.450  -7.704  1.00  0.00    -0.532 OA
ENDBRANCH  19  25
ENDBRANCH   7  12
BRANCH   8  28
HETATM   28  N8  UNL     1      44.286 -14.853  -9.506  1.00  0.00    -0.336 N 
ATOM     29  H82 UNL     1      43.271 -14.757  -9.466  1.00  0.00     0.177 HD
ATOM     30  H81 UNL     1      44.566 -15.815  -9.313  1.00  0.00     0.177 HD
ENDBRANCH   8  28
BRANCH  10  31
HETATM   31  N6  UNL     1      48.298 -12.320  -9.806  1.00  0.00    -0.335 N 
ATOM     32  H62 UNL     1      48.896 -12.252 -10.630  1.00  0.00     0.177 HD
ATOM     33  H61 UNL     1      48.857 -12.173  -8.965  1.00  0.00     0.177 HD
ENDBRANCH  10  31
ENDBRANCH   4   6
ENDBRANCH   1   4
BRANCH   1  34
HETATM   34  N3  UNL     1      47.618  -9.147 -11.883  1.00  0.00    -0.045 N 
ATOM     35  H33 UNL     1      47.968  -8.737 -12.749  1.00  0.00     0.278 HD
ATOM     36  H32 UNL     1      47.288  -8.287 -11.445  1.00  0.00     0.278 HD
ATOM     37  H31 UNL     1      48.351  -9.605 -11.342  1.00  0.00     0.278 HD
ENDBRANCH   1  34
TORSDOF 9
ENDMDL
MODEL 2
REMARK VINA RESULT: -7.715917950      1.583      3.685
REMARK  9 active torsions:
REMARK  status: ('A' for Active; 'I' for Inactive)
REMARK    1  A    between atoms: O1_2  and  C2_3 
REMARK    2  A    between atoms: C3_6  and  C4_7 
REMARK    3  A    between atoms: C5_8  and  N2_9 
REMARK    4  A    between atoms: N2_9  and  C6_11 
REMARK    5  A    between atoms: C6_11  and  N3_12 
REMARK    6  A    between atoms: N5_18  and  N6_19 
REMARK    7  A    between atoms: N7_24  and  N8_25 
REMARK    8  A    between atoms: C9_28  and  N9_29 
REMARK    9  A    between atoms: C10_32  and  N10_33 
ROOT
HETATM    1  C6  UNL     1      44.489 -15.112  -9.243  1.00  0.00     0.390 C 
HETATM    2  C7  UNL     1      45.423 -16.278  -9.228  1.00  0.00     0.114 C 
HETATM    3  N4  UNL     1      46.130 -17.187  -9.202  1.00  0.00    -0.193 NA
ENDROOT
BRANCH   1   4
HETATM    4  N2  UNL     1      44.669 -14.372 -10.467  1.00  0.00    -0.334 N 
ATOM      5  H2  UNL     1      44.242 -14.733 -11.320  1.00  0.00     0.164 HD
BRANCH   4   6
HETATM    6  C5  UNL     1      45.406 -13.177 -10.541  1.00  0.00     0.159 A 
HETATM    7  C4  UNL     1      44.812 -11.943 -10.855  1.00  0.00     0.133 A 
HETATM    8  N7  UNL     1      45.807 -11.049 -10.861  1.00  0.00    -0.229 N 
HETATM    9  C8  UNL     1      46.982 -11.642 -10.574  1.00  0.00     0.220 A 
HETATM   10  N5  UNL     1      46.714 -12.957 -10.380  1.00  0.00    -0.216 N 
HETATM   11  S1  UNL     1      48.450 -10.931 -10.478  1.00  0.00    -0.037 SA
BRANCH   7  12
HETATM   12  C3  UNL     1      43.397 -11.715 -11.073  1.00  0.00     0.105 A 
HETATM   13  N1  UNL     1      42.814 -11.794 -12.300  1.00  0.00    -0.318 N 
HETATM   14  C2  UNL     1      41.516 -11.524 -12.493  1.00  0.00     0.225 A 
ATOM     15  H1  UNL     1      43.385 -12.068 -13.100  1.00  0.00     0.169 HD
HETATM   16  N11 UNL     1      40.701 -11.157 -11.479  1.00  0.00    -0.306 N 
HETATM   17  C10 UNL     1      41.224 -11.064 -10.249  1.00  0.00     0.138 A 
ATOM     18  H11 UNL     1      39.715 -10.957 -11.646  1.00  0.00     0.171 HD
HETATM   19  C9  UNL     1      42.585 -11.343 -10.036  1.00  0.00     0.175 A 
BRANCH  14  20
HETATM   20  O1  UNL     1      40.952 -11.612 -13.752  1.00  0.00    -0.327 OA
HETATM   21  C1  UNL     1      41.593 -11.151 -14.922  1.00  0.00     0.213 C 
ENDBRANCH  14  20
BRANCH  17  22
HETATM   22  N10 UNL     1      40.450 -10.712  -9.287  1.00  0.00    -0.383 N 
ATOM     23 2H10 UNL     1      39.506 -10.403  -9.518  1.00  0.00     0.157 HD
ATOM     24 1H10 UNL     1      40.759 -10.734  -8.315  1.00  0.00     0.157 HD
ENDBRANCH  17  22
BRANCH  19  25
HETATM   25  N9  UNL     1      43.045 -11.161  -8.724  1.00  0.00    -0.109 N 
HETATM   26  O2  UNL     1      43.450 -10.001  -8.429  1.00  0.00    -0.532 OA
HETATM   27  O3  UNL     1      43.076 -12.136  -7.781  1.00  0.00    -0.532 OA
ENDBRANCH  19  25
ENDBRANCH   7  12
BRANCH   8  28
HETATM   28  N8  UNL     1      45.732  -9.669 -11.092  1.00  0.00    -0.336 N 
ATOM     29  H82 UNL     1      46.328  -9.218 -11.786  1.00  0.00     0.177 HD
ATOM     30  H81 UNL     1      45.140  -8.982 -10.624  1.00  0.00     0.177 HD
ENDBRANCH   8  28
BRANCH  10  31
HETATM   31  N6  UNL     1      47.734 -13.861 -10.082  1.00  0.00    -0.335 N 
ATOM     32  H62 UNL     1      48.712 -13.627 -10.259  1.00  0.00     0.177 HD
ATOM     33  H61 UNL     1      47.673 -14.804  -9.698  1.00  0.00     0.177 HD
ENDBRANCH  10  31
ENDBRANCH   4   6
ENDBRANCH   1   4
BRANCH   1  34
HETATM   34  N3  UNL     1      44.884 -14.249  -8.113  1.00  0.00    -0.045 N 
ATOM     35  H33 UNL     1      45.815 -14.469  -7.759  1.00  0.00     0.278 HD
ATOM     36  H32 UNL     1      45.068 -13.287  -8.400  1.00  0.00     0.278 HD
ATOM     37  H31 UNL     1      44.165 -14.311  -7.393  1.00  0.00     0.278 HD
ENDBRANCH   1  34
TORSDOF 9
ENDMDL
MODEL 3
REMARK VINA RESULT: -7.245315711      0.806      1.242
REMARK  9 active torsions:
REMARK  status: ('A' for Active; 'I' for Inactive)
REMARK    1  A    between atoms: O1_2  and  C2_3 
REMARK    2  A    between atoms: C3_6  and  C4_7 
REMARK    3  A    between atoms: C5_8  and  N2_9 
REMARK    4  A    between atoms: N2_9  and  C6_11 
REMARK    5  A    between atoms: C6_11  and  N3_12 
REMARK    6  A    between atoms: N5_18  and  N6_19 
REMARK    7  A    between atoms: N7_24  and  N8_25 
REMARK    8  A    between atoms: C9_28  and  N9_29 
REMARK    9  A    between atoms: C10_32  and  N10_33 
ROOT
HETATM    1  C6  UNL     1      46.450 -10.221 -12.190  1.00  0.00     0.390 C 
HETATM    2  C7  UNL     1      46.592 -11.471 -12.996  1.00  0.00     0.114 C 
HETATM    3  N4  UNL     1      46.715 -12.424 -13.631  1.00  0.00    -0.193 NA
ENDROOT
BRANCH   1   4
HETATM    4  N2  UNL     1      46.026 -10.560 -10.854  1.00  0.00    -0.334 N 
ATOM      5  H2  UNL     1      45.747  -9.805 -10.227  1.00  0.00     0.164 HD
BRANCH   4   6
HETATM    6  C5  UNL     1      45.979 -11.881 -10.374  1.00  0.00     0.159 A 
HETATM    7  C4  UNL     1      44.778 -12.601 -10.265  1.00  0.00     0.133 A 
HETATM    8  N7  UNL     1      45.111 -13.791  -9.754  1.00  0.00    -0.229 N 
HETATM    9  C8  UNL     1      46.438 -13.862  -9.536  1.00  0.00     0.220 A 
HETATM   10  N5  UNL     1      46.958 -12.672  -9.925  1.00  0.00    -0.216 N 
HETATM   11  S1  UNL     1      47.272 -15.126  -8.922  1.00  0.00    -0.037 SA
BRANCH   7  12
HETATM   12  C3  UNL     1      43.469 -12.133 -10.678  1.00  0.00     0.105 A 
HETATM   13  N1  UNL     1      43.091 -12.046 -11.982  1.00  0.00    -0.318 N 
HETATM   14  C2  UNL     1      41.898 -11.557 -12.349  1.00  0.00     0.225 A 
ATOM     15  H1  UNL     1      43.737 -12.363 -12.705  1.00  0.00     0.169 HD
HETATM   16  N11 UNL     1      40.994 -11.121 -11.445  1.00  0.00    -0.306 N 
HETATM   17  C10 UNL     1      41.315 -11.184 -10.146  1.00  0.00     0.138 A 
ATOM     18  H11 UNL     1      40.090 -10.753 -11.744  1.00  0.00     0.171 HD
HETATM   19  C9  UNL     1      42.563 -11.694  -9.751  1.00  0.00     0.175 A 
BRANCH  14  20
HETATM   20  O1  UNL     1      41.543 -11.480 -13.682  1.00  0.00    -0.327 OA
HETATM   21  C1  UNL     1      42.345 -10.857 -14.663  1.00  0.00     0.213 C 
ENDBRANCH  14  20
BRANCH  17  22
HETATM   22  N10 UNL     1      40.456 -10.767  -9.289  1.00  0.00    -0.383 N 
ATOM     23 2H10 UNL     1      40.097 -11.432  -8.604  1.00  0.00     0.157 HD
ATOM     24 1H10 UNL     1      40.130  -9.800  -9.284  1.00  0.00     0.157 HD
ENDBRANCH  17  22
BRANCH  19  25
HETATM   25  N9  UNL     1      42.824 -11.665  -8.373  1.00  0.00    -0.109 N 
HETATM   26  O2  UNL     1      42.983 -10.522  -7.858  1.00  0.00    -0.532 OA
HETATM   27  O3  UNL     1      42.909 -12.767  -7.586  1.00  0.00    -0.532 OA
ENDBRANCH  19  25
ENDBRANCH   7  12
BRANCH   8  28
HETATM   28  N8  UNL     1      44.275 -14.882  -9.479  1.00  0.00    -0.336 N 
ATOM     29  H82 UNL     1      43.798 -15.383 -10.229  1.00  0.00     0.177 HD
ATOM     30  H81 UNL     1      44.031 -15.276  -8.570  1.00  0.00     0.177 HD
ENDBRANCH   8  28
BRANCH  10  31
HETATM   31  N6  UNL     1      48.324 -12.412  -9.808  1.00  0.00    -0.335 N 
ATOM     32  H62 UNL     1      48.659 -11.541  -9.397  1.00  0.00     0.177 HD
ATOM     33  H61 UNL     1      49.119 -12.981 -10.099  1.00  0.00     0.177 HD
ENDBRANCH  10  31
ENDBRANCH   4   6
ENDBRANCH   1   4
BRANCH   1  34
HETATM   34  N3  UNL     1      45.380  -9.431 -12.832  1.00  0.00    -0.045 N 
ATOM     35  H33 UNL     1      44.926  -9.934 -13.595  1.00  0.00     0.278 HD
ATOM     36  H32 UNL     1      44.562  -9.319 -12.233  1.00  0.00     0.278 HD
ATOM     37  H31 UNL     1      45.773  -8.539 -13.129  1.00  0.00     0.278 HD
ENDBRANCH   1  34
TORSDOF 9
ENDMDL
MODEL 4
REMARK VINA RESULT: -7.040509012      2.449      4.914
REMARK  9 active torsions:
REMARK  status: ('A' for Active; 'I' for Inactive)
REMARK    1  A    between atoms: O1_2  and  C2_3 
REMARK    2  A    between atoms: C3_6  and  C4_7 
REMARK    3  A    between atoms: C5_8  and  N2_9 
REMARK    4  A    between atoms: N2_9  and  C6_11 
REMARK    5  A    between atoms: C6_11  and  N3_12 
REMARK    6  A    between atoms: N5_18  and  N6_19 
REMARK    7  A    between atoms: N7_24  and  N8_25 
REMARK    8  A    between atoms: C9_28  and  N9_29 
REMARK    9  A    between atoms: C10_32  and  N10_33 
ROOT
HETATM    1  C6  UNL     1      41.347 -10.890 -13.008  1.00  0.00     0.390 C 
HETATM    2  C7  UNL     1      40.525 -11.255 -14.201  1.00  0.00     0.114 C 
HETATM    3  N4  UNL     1      39.879 -11.518 -15.118  1.00  0.00    -0.193 NA
ENDROOT
BRANCH   1   4
HETATM    4  N2  UNL     1      42.581 -11.636 -13.033  1.00  0.00    -0.334 N 
ATOM      5  H2  UNL     1      42.533 -12.649 -13.134  1.00  0.00     0.164 HD
BRANCH   4   6
HETATM    6  C5  UNL     1      43.846 -11.033 -12.923  1.00  0.00     0.159 A 
HETATM    7  C4  UNL     1      44.715 -11.294 -11.850  1.00  0.00     0.133 A 
HETATM    8  N7  UNL     1      45.796 -10.535 -12.063  1.00  0.00    -0.229 N 
HETATM    9  C8  UNL     1      45.659  -9.817 -13.194  1.00  0.00     0.220 A 
HETATM   10  N5  UNL     1      44.448 -10.138 -13.712  1.00  0.00    -0.216 N 
HETATM   11  S1  UNL     1      46.733  -8.762 -13.829  1.00  0.00    -0.037 SA
BRANCH   7  12
HETATM   12  C3  UNL     1      44.475 -12.237 -10.776  1.00  0.00     0.105 A 
HETATM   13  N1  UNL     1      44.879 -13.536 -10.826  1.00  0.00    -0.318 N 
HETATM   14  C2  UNL     1      44.599 -14.410  -9.849  1.00  0.00     0.225 A 
ATOM     15  H1  UNL     1      45.413 -13.855 -11.635  1.00  0.00     0.169 HD
HETATM   16  N11 UNL     1      43.898 -14.055  -8.750  1.00  0.00    -0.306 N 
HETATM   17  C10 UNL     1      43.475 -12.788  -8.650  1.00  0.00     0.138 A 
ATOM     18  H11 UNL     1      43.695 -14.735  -8.017  1.00  0.00     0.171 HD
HETATM   19  C9  UNL     1      43.763 -11.865  -9.669  1.00  0.00     0.175 A 
BRANCH  14  20
HETATM   20  O1  UNL     1      45.022 -15.723  -9.929  1.00  0.00    -0.327 OA
HETATM   21  C1  UNL     1      46.110 -16.233  -9.188  1.00  0.00     0.213 C 
ENDBRANCH  14  20
BRANCH  17  22
HETATM   22  N10 UNL     1      42.807 -12.454  -7.606  1.00  0.00    -0.383 N 
ATOM     23 2H10 UNL     1      43.320 -12.268  -6.745  1.00  0.00     0.157 HD
ATOM     24 1H10 UNL     1      41.790 -12.375  -7.624  1.00  0.00     0.157 HD
ENDBRANCH  17  22
BRANCH  19  25
HETATM   25  N9  UNL     1      43.228 -10.580  -9.494  1.00  0.00    -0.109 N 
HETATM   26  O2  UNL     1      41.968 -10.487  -9.538  1.00  0.00    -0.532 OA
HETATM   27  O3  UNL     1      43.970  -9.463  -9.285  1.00  0.00    -0.532 OA
ENDBRANCH  19  25
ENDBRANCH   7  12
BRANCH   8  28
HETATM   28  N8  UNL     1      46.963 -10.454 -11.292  1.00  0.00    -0.336 N 
ATOM     29  H82 UNL     1      46.937 -10.111 -10.331  1.00  0.00     0.177 HD
ATOM     30  H81 UNL     1      47.919 -10.684 -11.567  1.00  0.00     0.177 HD
ENDBRANCH   8  28
BRANCH  10  31
HETATM   31  N6  UNL     1      43.990  -9.544 -14.888  1.00  0.00    -0.335 N 
ATOM     32  H62 UNL     1      43.293 -10.005 -15.473  1.00  0.00     0.177 HD
ATOM     33  H61 UNL     1      44.261  -8.658 -15.314  1.00  0.00     0.177 HD
ENDBRANCH  10  31
ENDBRANCH   4   6
ENDBRANCH   1   4
BRANCH   1  34
HETATM   34  N3  UNL     1      40.572 -11.309 -11.824  1.00  0.00    -0.045 N 
ATOM     35  H33 UNL     1      40.818 -12.247 -11.507  1.00  0.00     0.278 HD
ATOM     36  H32 UNL     1      40.839 -10.802 -10.981  1.00  0.00     0.278 HD
ATOM     37  H31 UNL     1      39.579 -11.216 -12.039  1.00  0.00     0.278 HD
ENDBRANCH   1  34
TORSDOF 9
ENDMDL
MODEL 5
REMARK VINA RESULT: -6.982300336      1.857      2.181
REMARK  9 active torsions:
REMARK  status: ('A' for Active; 'I' for Inactive)
REMARK    1  A    between atoms: O1_2  and  C2_3 
REMARK    2  A    between atoms: C3_6  and  C4_7 
REMARK    3  A    between atoms: C5_8  and  N2_9 
REMARK    4  A    between atoms: N2_9  and  C6_11 
REMARK    5  A    between atoms: C6_11  and  N3_12 
REMARK    6  A    between atoms: N5_18  and  N6_19 
REMARK    7  A    between atoms: N7_24  and  N8_25 
REMARK    8  A    between atoms: C9_28  and  N9_29 
REMARK    9  A    between atoms: C10_32  and  N10_33 
ROOT
HETATM    1  C6  UNL     1      47.218 -10.221 -11.892  1.00  0.00     0.390 C 
HETATM    2  C7  UNL     1      45.958  -9.600 -12.398  1.00  0.00     0.114 C 
HETATM    3  N4  UNL     1      44.996  -9.113 -12.805  1.00  0.00    -0.193 NA
ENDROOT
BRANCH   1   4
HETATM    4  N2  UNL     1      46.893 -11.264 -10.951  1.00  0.00    -0.334 N 
ATOM      5  H2  UNL     1      46.582 -10.995 -10.018  1.00  0.00     0.164 HD
BRANCH   4   6
HETATM    6  C5  UNL     1      46.984 -12.633 -11.258  1.00  0.00     0.159 A 
HETATM    7  C4  UNL     1      45.856 -13.467 -11.328  1.00  0.00     0.133 A 
HETATM    8  N7  UNL     1      46.321 -14.688 -11.612  1.00  0.00    -0.229 N 
HETATM    9  C8  UNL     1      47.663 -14.673 -11.723  1.00  0.00     0.220 A 
HETATM   10  N5  UNL     1      48.055 -13.394 -11.501  1.00  0.00    -0.216 N 
HETATM   11  S1  UNL     1      48.641 -15.939 -12.057  1.00  0.00    -0.037 SA
BRANCH   7  12
HETATM   12  C3  UNL     1      44.478 -13.044 -11.167  1.00  0.00     0.105 A 
HETATM   13  N1  UNL     1      43.854 -12.206 -12.038  1.00  0.00    -0.318 N 
HETATM   14  C2  UNL     1      42.599 -11.779 -11.844  1.00  0.00     0.225 A 
ATOM     15  H1  UNL     1      44.358 -11.892 -12.868  1.00  0.00     0.169 HD
HETATM   16  N11 UNL     1      41.872 -12.155 -10.769  1.00  0.00    -0.306 N 
HETATM   17  C10 UNL     1      42.439 -12.980  -9.878  1.00  0.00     0.138 A 
ATOM     18  H11 UNL     1      40.917 -11.820 -10.639  1.00  0.00     0.171 HD
HETATM   19  C9  UNL     1      43.755 -13.432 -10.072  1.00  0.00     0.175 A 
BRANCH  14  20
HETATM   20  O1  UNL     1      41.991 -10.926 -12.747  1.00  0.00    -0.327 OA
HETATM   21  C1  UNL     1      40.627 -11.017 -13.100  1.00  0.00     0.213 C 
ENDBRANCH  14  20
BRANCH  17  22
HETATM   22  N10 UNL     1      41.748 -13.334  -8.856  1.00  0.00    -0.383 N 
ATOM     23 2H10 UNL     1      41.455 -12.610  -8.200  1.00  0.00     0.157 HD
ATOM     24 1H10 UNL     1      41.496 -14.309  -8.692  1.00  0.00     0.157 HD
ENDBRANCH  17  22
BRANCH  19  25
HETATM   25  N9  UNL     1      44.274 -14.246  -9.055  1.00  0.00    -0.109 N 
HETATM   26  O2  UNL     1      44.168 -15.494  -9.228  1.00  0.00    -0.532 OA
HETATM   27  O3  UNL     1      44.869 -13.779  -7.928  1.00  0.00    -0.532 OA
ENDBRANCH  19  25
ENDBRANCH   7  12
BRANCH   8  28
HETATM   28  N8  UNL     1      45.593 -15.868 -11.813  1.00  0.00    -0.336 N 
ATOM     29  H82 UNL     1      44.995 -15.985 -12.632  1.00  0.00     0.177 HD
ATOM     30  H81 UNL     1      45.546 -16.691 -11.212  1.00  0.00     0.177 HD
ENDBRANCH   8  28
BRANCH  10  31
HETATM   31  N6  UNL     1      49.405 -13.043 -11.525  1.00  0.00    -0.335 N 
ATOM     32  H62 UNL     1      49.887 -12.753 -10.674  1.00  0.00     0.177 HD
ATOM     33  H61 UNL     1      50.051 -13.006 -12.313  1.00  0.00     0.177 HD
ENDBRANCH  10  31
ENDBRANCH   4   6
ENDBRANCH   1   4
BRANCH   1  34
HETATM   34  N3  UNL     1      47.948  -9.157 -11.174  1.00  0.00    -0.045 N 
ATOM     35  H33 UNL     1      48.867  -9.460 -10.853  1.00  0.00     0.278 HD
ATOM     36  H32 UNL     1      48.257  -8.407 -11.794  1.00  0.00     0.278 HD
ATOM     37  H31 UNL     1      47.359  -8.818 -10.414  1.00  0.00     0.278 HD
ENDBRANCH   1  34
TORSDOF 9
ENDMDL
