MODEL 1
REMARK VINA RESULT: -9.402029530      0.000      0.000
REMARK  6 active torsions:
REMARK  status: ('A' for Active; 'I' for Inactive)
REMARK    1  A    between atoms: C4_4  and  O1_5 
REMARK    2  A    between atoms: O1_5  and  C5_6 
REMARK    3  A    between atoms: C5_6  and  C6_7 
REMARK    4  A    between atoms: N1_8  and  C7_10 
REMARK    5  A    between atoms: C8_13  and  N3_14 
REMARK    6  A    between atoms: N3_14  and  C10_16 
ROOT
HETATM    1  C7  UNL     1      20.316 -30.749  10.712  1.00  0.00     0.145 A 
HETATM    2  N2  UNL     1      20.491 -30.552   9.349  1.00  0.00    -0.174 N 
ATOM      3  H2  UNL     1      19.966 -29.800   8.902  1.00  0.00     0.186 HD
HETATM    4  C8  UNL     1      21.296 -31.279   8.597  1.00  0.00     0.701 A 
HETATM    5  N9  UNL     1      22.000 -32.280   9.168  1.00  0.00    -0.176 N 
ATOM      6  H9  UNL     1      22.626 -32.852   8.603  1.00  0.00     0.185 HD
HETATM    7  C16 UNL     1      21.873 -32.520  10.481  1.00  0.00     0.156 A 
HETATM    8  N10 UNL     1      22.609 -33.576  11.120  1.00  0.00    -0.080 NA
HETATM    9  C17 UNL     1      21.036 -31.771  11.285  1.00  0.00     0.130 A 
HETATM   10  C18 UNL     1      20.931 -32.092  12.705  1.00  0.00     0.107 C 
HETATM   11  N11 UNL     1      20.856 -32.372  13.818  1.00  0.00    -0.191 NA
ENDROOT
BRANCH   1  12
HETATM   12  N1  UNL     1      19.558 -30.027  11.340  1.00  0.00    -0.352 N 
HETATM   13  C6  UNL     1      19.099 -29.464  12.485  1.00  0.00     0.089 C 
ATOM     14  H1  UNL     1      18.944 -29.643  10.622  1.00  0.00     0.166 HD
BRANCH  13  15
HETATM   15  C5  UNL     1      18.128 -30.304  13.299  1.00  0.00     0.222 C 
BRANCH  15  16
HETATM   16  O1  UNL     1      17.155 -30.825  12.457  1.00  0.00    -0.331 OA
BRANCH  16  17
HETATM   17  C4  UNL     1      15.800 -30.656  12.587  1.00  0.00     0.145 A 
HETATM   18  C3  UNL     1      14.947 -31.757  12.339  1.00  0.00     0.080 A 
HETATM   19  C2  UNL     1      13.589 -31.610  12.464  1.00  0.00     0.010 A 
HETATM   20  C1  UNL     1      12.683 -32.750  12.202  1.00  0.00     0.068 C 
HETATM   21  N13 UNL     1      13.066 -30.433  12.818  1.00  0.00    -0.350 N 
HETATM   22  C19 UNL     1      13.862 -29.356  13.064  1.00  0.00     0.079 A 
ATOM     23  H13 UNL     1      12.054 -30.341  12.906  1.00  0.00     0.167 HD
HETATM   24  N12 UNL     1      15.169 -29.530  12.935  1.00  0.00    -0.327 N 
HETATM   25  C20 UNL     1      13.203 -28.100  13.447  1.00  0.00     0.089 C 
ATOM     26  H12 UNL     1      15.757 -28.717  13.121  1.00  0.00     0.169 HD
ENDBRANCH  16  17
ENDBRANCH  15  16
ENDBRANCH  13  15
ENDBRANCH   1  12
BRANCH   4  27
HETATM   27  N3  UNL     1      21.462 -31.088   7.214  1.00  0.00    -0.018 N 
HETATM   28  C9  UNL     1      20.388 -31.492   6.308  1.00  0.00     0.195 C 
BRANCH  27  29
HETATM   29  C10 UNL     1      22.618 -30.498   6.633  1.00  0.00     0.702 A 
HETATM   30  N4  UNL     1      22.824 -29.159   6.749  1.00  0.00    -0.174 N 
HETATM   31  C11 UNL     1      23.887 -28.536   6.238  1.00  0.00     0.145 A 
ATOM     32  H4  UNL     1      22.131 -28.603   7.252  1.00  0.00     0.186 HD
HETATM   33  N5  UNL     1      24.078 -27.266   6.350  1.00  0.00    -0.383 N 
HETATM   34  C12 UNL     1      24.841 -29.265   5.552  1.00  0.00     0.123 A 
ATOM     35  H52 UNL     1      23.374 -26.728   6.856  1.00  0.00     0.157 HD
ATOM     36  H51 UNL     1      24.891 -26.789   5.959  1.00  0.00     0.157 HD
HETATM   37  N6  UNL     1      25.994 -28.961   4.932  1.00  0.00    -0.346 N 
HETATM   38  C15 UNL     1      24.660 -30.620   5.417  1.00  0.00     0.154 A 
HETATM   39  C13 UNL     1      26.527 -30.084   4.422  1.00  0.00     0.184 A 
ATOM     40  H6  UNL     1      26.400 -28.028   4.860  1.00  0.00     0.167 HD
HETATM   41  N7  UNL     1      25.705 -31.100   4.723  1.00  0.00    -0.331 N 
HETATM   42  C14 UNL     1      25.910 -32.478   4.366  1.00  0.00     0.158 C 
HETATM   43  N8  UNL     1      23.553 -31.191   5.963  1.00  0.00    -0.173 N 
ATOM     44  H8  UNL     1      23.427 -32.197   5.859  1.00  0.00     0.186 HD
ENDBRANCH  27  29
ENDBRANCH   4  27
TORSDOF 6
ENDMDL
MODEL 2
REMARK VINA RESULT: -8.859336411      0.864      1.899
REMARK  6 active torsions:
REMARK  status: ('A' for Active; 'I' for Inactive)
REMARK    1  A    between atoms: C4_4  and  O1_5 
REMARK    2  A    between atoms: O1_5  and  C5_6 
REMARK    3  A    between atoms: C5_6  and  C6_7 
REMARK    4  A    between atoms: N1_8  and  C7_10 
REMARK    5  A    between atoms: C8_13  and  N3_14 
REMARK    6  A    between atoms: N3_14  and  C10_16 
ROOT
HETATM    1  C7  UNL     1      21.039 -31.384  10.994  1.00  0.00     0.145 A 
HETATM    2  N2  UNL     1      21.047 -31.020   9.654  1.00  0.00    -0.174 N 
ATOM      3  H2  UNL     1      20.589 -30.147   9.392  1.00  0.00     0.186 HD
HETATM    4  C8  UNL     1      21.612 -31.736   8.700  1.00  0.00     0.701 A 
HETATM    5  N9  UNL     1      22.224 -32.895   9.026  1.00  0.00    -0.176 N 
ATOM      6  H9  UNL     1      22.666 -33.461   8.302  1.00  0.00     0.185 HD
HETATM    7  C16 UNL     1      22.249 -33.300  10.303  1.00  0.00     0.156 A 
HETATM    8  N10 UNL     1      22.893 -34.527  10.684  1.00  0.00    -0.080 NA
HETATM    9  C17 UNL     1      21.663 -32.566  11.316  1.00  0.00     0.130 A 
HETATM   10  C18 UNL     1      21.712 -33.068  12.686  1.00  0.00     0.107 C 
HETATM   11  N11 UNL     1      21.753 -33.490  13.755  1.00  0.00    -0.191 NA
ENDROOT
BRANCH   1  12
HETATM   12  N1  UNL     1      20.500 -30.661  11.818  1.00  0.00    -0.352 N 
HETATM   13  C6  UNL     1      19.586 -30.408  12.787  1.00  0.00     0.089 C 
ATOM     14  H1  UNL     1      21.008 -29.781  11.732  1.00  0.00     0.166 HD
BRANCH  13  15
HETATM   15  C5  UNL     1      18.201 -30.009  12.309  1.00  0.00     0.222 C 
BRANCH  15  16
HETATM   16  O1  UNL     1      17.253 -30.818  12.922  1.00  0.00    -0.331 OA
BRANCH  16  17
HETATM   17  C4  UNL     1      15.893 -30.637  12.888  1.00  0.00     0.145 A 
HETATM   18  C3  UNL     1      15.071 -31.714  12.482  1.00  0.00     0.080 A 
HETATM   19  C2  UNL     1      13.709 -31.556  12.441  1.00  0.00     0.010 A 
HETATM   20  C1  UNL     1      12.835 -32.670  12.012  1.00  0.00     0.068 C 
HETATM   21  N13 UNL     1      13.154 -30.390  12.782  1.00  0.00    -0.350 N 
HETATM   22  C19 UNL     1      13.919 -29.335  13.178  1.00  0.00     0.079 A 
ATOM     23  H13 UNL     1      12.140 -30.288  12.745  1.00  0.00     0.167 HD
HETATM   24  N12 UNL     1      15.231 -29.520  13.207  1.00  0.00    -0.327 N 
HETATM   25  C20 UNL     1      13.227 -28.090  13.533  1.00  0.00     0.089 C 
ATOM     26  H12 UNL     1      15.797 -28.725  13.504  1.00  0.00     0.169 HD
ENDBRANCH  16  17
ENDBRANCH  15  16
ENDBRANCH  13  15
ENDBRANCH   1  12
BRANCH   4  27
HETATM   27  N3  UNL     1      21.608 -31.374   7.341  1.00  0.00    -0.018 N 
HETATM   28  C9  UNL     1      20.351 -31.427   6.597  1.00  0.00     0.195 C 
BRANCH  27  29
HETATM   29  C10 UNL     1      22.763 -30.933   6.640  1.00  0.00     0.702 A 
HETATM   30  N4  UNL     1      23.492 -31.821   5.912  1.00  0.00    -0.174 N 
HETATM   31  C11 UNL     1      24.582 -31.480   5.223  1.00  0.00     0.145 A 
ATOM     32  H4  UNL     1      23.190 -32.796   5.892  1.00  0.00     0.186 HD
HETATM   33  N5  UNL     1      25.270 -32.326   4.534  1.00  0.00    -0.383 N 
HETATM   34  C12 UNL     1      25.013 -30.166   5.231  1.00  0.00     0.123 A 
ATOM     35  H52 UNL     1      24.953 -33.295   4.527  1.00  0.00     0.157 HD
ATOM     36  H51 UNL     1      26.104 -32.065   4.007  1.00  0.00     0.157 HD
HETATM   37  N6  UNL     1      26.036 -29.506   4.664  1.00  0.00    -0.346 N 
HETATM   38  C15 UNL     1      24.297 -29.246   5.959  1.00  0.00     0.154 A 
HETATM   39  C13 UNL     1      25.973 -28.211   5.018  1.00  0.00     0.184 A 
ATOM     40  H6  UNL     1      26.748 -29.920   4.061  1.00  0.00     0.167 HD
HETATM   41  N7  UNL     1      24.903 -28.056   5.812  1.00  0.00    -0.331 N 
HETATM   42  C14 UNL     1      24.472 -26.819   6.406  1.00  0.00     0.158 C 
HETATM   43  N8  UNL     1      23.196 -29.661   6.638  1.00  0.00    -0.173 N 
ATOM     44  H8  UNL     1      22.670 -28.971   7.175  1.00  0.00     0.186 HD
ENDBRANCH  27  29
ENDBRANCH   4  27
TORSDOF 6
ENDMDL
MODEL 3
REMARK VINA RESULT: -8.760850392      2.240     10.267
REMARK  6 active torsions:
REMARK  status: ('A' for Active; 'I' for Inactive)
REMARK    1  A    between atoms: C4_4  and  O1_5 
REMARK    2  A    between atoms: O1_5  and  C5_6 
REMARK    3  A    between atoms: C5_6  and  C6_7 
REMARK    4  A    between atoms: N1_8  and  C7_10 
REMARK    5  A    between atoms: C8_13  and  N3_14 
REMARK    6  A    between atoms: N3_14  and  C10_16 
ROOT
HETATM    1  C7  UNL     1      20.716 -29.926   8.798  1.00  0.00     0.145 A 
HETATM    2  N2  UNL     1      20.024 -30.674   9.742  1.00  0.00    -0.174 N 
ATOM      3  H2  UNL     1      19.514 -31.497   9.421  1.00  0.00     0.186 HD
HETATM    4  C8  UNL     1      19.989 -30.384  11.029  1.00  0.00     0.701 A 
HETATM    5  N9  UNL     1      20.657 -29.299  11.475  1.00  0.00    -0.176 N 
ATOM      6  H9  UNL     1      20.641 -29.060  12.467  1.00  0.00     0.185 HD
HETATM    7  C16 UNL     1      21.343 -28.537  10.612  1.00  0.00     0.156 A 
HETATM    8  N10 UNL     1      22.067 -27.376  11.054  1.00  0.00    -0.080 NA
HETATM    9  C17 UNL     1      21.393 -28.822   9.262  1.00  0.00     0.130 A 
HETATM   10  C18 UNL     1      22.145 -27.944   8.371  1.00  0.00     0.107 C 
HETATM   11  N11 UNL     1      22.734 -27.231   7.687  1.00  0.00    -0.191 NA
ENDROOT
BRANCH   1  12
HETATM   12  N1  UNL     1      20.706 -30.265   7.626  1.00  0.00    -0.352 N 
HETATM   13  C6  UNL     1      20.722 -31.195   6.638  1.00  0.00     0.089 C 
ATOM     14  H1  UNL     1      20.664 -29.381   7.120  1.00  0.00     0.166 HD
BRANCH  13  15
HETATM   15  C5  UNL     1      22.091 -31.713   6.232  1.00  0.00     0.222 C 
BRANCH  15  16
HETATM   16  O1  UNL     1      23.063 -30.807   6.636  1.00  0.00    -0.331 OA
BRANCH  16  17
HETATM   17  C4  UNL     1      24.168 -30.432   5.915  1.00  0.00     0.145 A 
HETATM   18  C3  UNL     1      24.983 -31.436   5.342  1.00  0.00     0.080 A 
HETATM   19  C2  UNL     1      26.092 -31.083   4.616  1.00  0.00     0.010 A 
HETATM   20  C1  UNL     1      26.959 -32.121   4.016  1.00  0.00     0.068 C 
HETATM   21  N13 UNL     1      26.409 -29.796   4.447  1.00  0.00    -0.350 N 
HETATM   22  C19 UNL     1      25.642 -28.807   4.987  1.00  0.00     0.079 A 
ATOM     23  H13 UNL     1      27.237 -29.551   3.906  1.00  0.00     0.167 HD
HETATM   24  N12 UNL     1      24.578 -29.181   5.682  1.00  0.00    -0.327 N 
HETATM   25  C20 UNL     1      26.064 -27.420   4.754  1.00  0.00     0.089 C 
ATOM     26  H12 UNL     1      24.011 -28.434   6.082  1.00  0.00     0.169 HD
ENDBRANCH  16  17
ENDBRANCH  15  16
ENDBRANCH  13  15
ENDBRANCH   1  12
BRANCH   4  27
HETATM   27  N3  UNL     1      19.277 -31.134  11.982  1.00  0.00    -0.018 N 
HETATM   28  C9  UNL     1      19.937 -32.263  12.634  1.00  0.00     0.195 C 
BRANCH  27  29
HETATM   29  C10 UNL     1      17.940 -30.847  12.372  1.00  0.00     0.702 A 
HETATM   30  N4  UNL     1      17.704 -30.164  13.524  1.00  0.00    -0.174 N 
HETATM   31  C11 UNL     1      16.478 -29.852  13.950  1.00  0.00     0.145 A 
ATOM     32  H4  UNL     1      18.502 -29.875  14.089  1.00  0.00     0.186 HD
HETATM   33  N5  UNL     1      16.260 -29.204  15.044  1.00  0.00    -0.383 N 
HETATM   34  C12 UNL     1      15.378 -30.230  13.203  1.00  0.00     0.123 A 
ATOM     35  H52 UNL     1      17.071 -28.925  15.595  1.00  0.00     0.157 HD
ATOM     36  H51 UNL     1      15.323 -28.966  15.370  1.00  0.00     0.157 HD
HETATM   37  N6  UNL     1      14.049 -30.081  13.339  1.00  0.00    -0.346 N 
HETATM   38  C15 UNL     1      15.585 -30.923  12.034  1.00  0.00     0.154 A 
HETATM   39  C13 UNL     1      13.434 -30.658  12.293  1.00  0.00     0.184 A 
ATOM     40  H6  UNL     1      13.583 -29.606  14.112  1.00  0.00     0.167 HD
HETATM   41  N7  UNL     1      14.381 -31.172  11.495  1.00  0.00    -0.331 N 
HETATM   42  C14 UNL     1      14.146 -31.873  10.261  1.00  0.00     0.158 C 
HETATM   43  N8  UNL     1      16.860 -31.207  11.658  1.00  0.00    -0.173 N 
ATOM     44  H8  UNL     1      17.004 -31.721  10.790  1.00  0.00     0.186 HD
ENDBRANCH  27  29
ENDBRANCH   4  27
TORSDOF 6
ENDMDL
MODEL 4
REMARK VINA RESULT: -8.655739605      4.195      7.580
REMARK  6 active torsions:
REMARK  status: ('A' for Active; 'I' for Inactive)
REMARK    1  A    between atoms: C4_4  and  O1_5 
REMARK    2  A    between atoms: O1_5  and  C5_6 
REMARK    3  A    between atoms: C5_6  and  C6_7 
REMARK    4  A    between atoms: N1_8  and  C7_10 
REMARK    5  A    between atoms: C8_13  and  N3_14 
REMARK    6  A    between atoms: N3_14  and  C10_16 
ROOT
HETATM    1  C7  UNL     1      20.708 -31.720   5.904  1.00  0.00     0.145 A 
HETATM    2  N2  UNL     1      19.682 -32.625   5.666  1.00  0.00    -0.174 N 
ATOM      3  H2  UNL     1      18.844 -32.561   6.244  1.00  0.00     0.186 HD
HETATM    4  C8  UNL     1      19.726 -33.561   4.737  1.00  0.00     0.701 A 
HETATM    5  N9  UNL     1      20.827 -33.663   3.961  1.00  0.00    -0.176 N 
ATOM      6  H9  UNL     1      20.879 -34.380   3.238  1.00  0.00     0.185 HD
HETATM    7  C16 UNL     1      21.851 -32.818   4.143  1.00  0.00     0.156 A 
HETATM    8  N10 UNL     1      23.036 -32.898   3.333  1.00  0.00    -0.080 NA
HETATM    9  C17 UNL     1      21.825 -31.832   5.109  1.00  0.00     0.130 A 
HETATM   10  C18 UNL     1      22.980 -30.952   5.267  1.00  0.00     0.107 C 
HETATM   11  N11 UNL     1      23.905 -30.280   5.381  1.00  0.00    -0.191 NA
ENDROOT
BRANCH   1  12
HETATM   12  N1  UNL     1      20.587 -30.877   6.778  1.00  0.00    -0.352 N 
HETATM   13  C6  UNL     1      21.036 -30.172   7.846  1.00  0.00     0.089 C 
ATOM     14  H1  UNL     1      19.650 -30.504   6.623  1.00  0.00     0.166 HD
BRANCH  13  15
HETATM   15  C5  UNL     1      20.877 -30.841   9.201  1.00  0.00     0.222 C 
BRANCH  15  16
HETATM   16  O1  UNL     1      19.949 -30.134   9.955  1.00  0.00    -0.331 OA
BRANCH  16  17
HETATM   17  C4  UNL     1      19.574 -30.416  11.245  1.00  0.00     0.145 A 
HETATM   18  C3  UNL     1      20.552 -30.876  12.157  1.00  0.00     0.080 A 
HETATM   19  C2  UNL     1      20.198 -31.162  13.450  1.00  0.00     0.010 A 
HETATM   20  C1  UNL     1      21.208 -31.652  14.415  1.00  0.00     0.068 C 
HETATM   21  N13 UNL     1      18.935 -31.009  13.856  1.00  0.00    -0.350 N 
HETATM   22  C19 UNL     1      17.971 -30.566  13.001  1.00  0.00     0.079 A 
ATOM     23  H13 UNL     1      18.689 -31.227  14.821  1.00  0.00     0.167 HD
HETATM   24  N12 UNL     1      18.344 -30.298  11.758  1.00  0.00    -0.327 N 
HETATM   25  C20 UNL     1      16.608 -30.428  13.529  1.00  0.00     0.089 C 
ATOM     26  H12 UNL     1      17.616 -29.968  11.125  1.00  0.00     0.169 HD
ENDBRANCH  16  17
ENDBRANCH  15  16
ENDBRANCH  13  15
ENDBRANCH   1  12
BRANCH   4  27
HETATM   27  N3  UNL     1      18.693 -34.486   4.506  1.00  0.00    -0.018 N 
HETATM   28  C9  UNL     1      18.161 -34.633   3.153  1.00  0.00     0.195 C 
BRANCH  27  29
HETATM   29  C10 UNL     1      18.136 -35.315   5.519  1.00  0.00     0.702 A 
HETATM   30  N4  UNL     1      16.809 -35.608   5.499  1.00  0.00    -0.174 N 
HETATM   31  C11 UNL     1      16.218 -36.383   6.410  1.00  0.00     0.145 A 
ATOM     32  H4  UNL     1      16.236 -35.216   4.750  1.00  0.00     0.186 HD
HETATM   33  N5  UNL     1      14.958 -36.658   6.387  1.00  0.00    -0.383 N 
HETATM   34  C12 UNL     1      16.969 -36.927   7.435  1.00  0.00     0.123 A 
ATOM     35  H52 UNL     1      14.403 -36.257   5.631  1.00  0.00     0.157 HD
ATOM     36  H51 UNL     1      14.506 -37.251   7.084  1.00  0.00     0.157 HD
HETATM   37  N6  UNL     1      16.699 -37.725   8.482  1.00  0.00    -0.346 N 
HETATM   38  C15 UNL     1      18.314 -36.648   7.483  1.00  0.00     0.154 A 
HETATM   39  C13 UNL     1      17.831 -37.945   9.171  1.00  0.00     0.184 A 
ATOM     40  H6  UNL     1      15.780 -38.103   8.717  1.00  0.00     0.167 HD
HETATM   41  N7  UNL     1      18.820 -37.283   8.553  1.00  0.00    -0.331 N 
HETATM   42  C14 UNL     1      20.198 -37.258   8.965  1.00  0.00     0.158 C 
HETATM   43  N8  UNL     1      18.852 -35.851   6.522  1.00  0.00    -0.173 N 
ATOM     44  H8  UNL     1      19.850 -35.649   6.565  1.00  0.00     0.186 HD
ENDBRANCH  27  29
ENDBRANCH   4  27
TORSDOF 6
ENDMDL
MODEL 5
REMARK VINA RESULT: -8.576115590      3.495      6.549
REMARK  6 active torsions:
REMARK  status: ('A' for Active; 'I' for Inactive)
REMARK    1  A    between atoms: C4_4  and  O1_5 
REMARK    2  A    between atoms: O1_5  and  C5_6 
REMARK    3  A    between atoms: C5_6  and  C6_7 
REMARK    4  A    between atoms: N1_8  and  C7_10 
REMARK    5  A    between atoms: C8_13  and  N3_14 
REMARK    6  A    between atoms: N3_14  and  C10_16 
ROOT
HETATM    1  C7  UNL     1      20.946 -31.746  12.042  1.00  0.00     0.145 A 
HETATM    2  N2  UNL     1      21.311 -32.843  12.811  1.00  0.00    -0.174 N 
ATOM      3  H2  UNL     1      21.082 -32.829  13.805  1.00  0.00     0.186 HD
HETATM    4  C8  UNL     1      21.936 -33.903  12.332  1.00  0.00     0.701 A 
HETATM    5  N9  UNL     1      22.248 -33.942  11.019  1.00  0.00    -0.176 N 
ATOM      6  H9  UNL     1      22.731 -34.752  10.632  1.00  0.00     0.185 HD
HETATM    7  C16 UNL     1      21.922 -32.912  10.226  1.00  0.00     0.156 A 
HETATM    8  N10 UNL     1      22.238 -32.923   8.824  1.00  0.00    -0.080 NA
HETATM    9  C17 UNL     1      21.269 -31.794  10.706  1.00  0.00     0.130 A 
HETATM   10  C18 UNL     1      20.955 -30.700   9.793  1.00  0.00     0.107 C 
HETATM   11  N11 UNL     1      20.729 -29.845   9.058  1.00  0.00    -0.191 NA
ENDROOT
BRANCH   1  12
HETATM   12  N1  UNL     1      20.362 -30.807  12.559  1.00  0.00    -0.352 N 
HETATM   13  C6  UNL     1      19.349 -30.265  13.279  1.00  0.00     0.089 C 
ATOM     14  H1  UNL     1      20.946 -30.004  12.326  1.00  0.00     0.166 HD
BRANCH  13  15
HETATM   15  C5  UNL     1      18.077 -29.950  12.509  1.00  0.00     0.222 C 
BRANCH  15  16
HETATM   16  O1  UNL     1      17.115 -30.907  12.802  1.00  0.00    -0.331 OA
BRANCH  16  17
HETATM   17  C4  UNL     1      15.757 -30.709  12.815  1.00  0.00     0.145 A 
HETATM   18  C3  UNL     1      14.905 -31.792  12.495  1.00  0.00     0.080 A 
HETATM   19  C2  UNL     1      13.545 -31.616  12.503  1.00  0.00     0.010 A 
HETATM   20  C1  UNL     1      12.640 -32.737  12.165  1.00  0.00     0.068 C 
HETATM   21  N13 UNL     1      13.019 -30.428  12.811  1.00  0.00    -0.350 N 
HETATM   22  C19 UNL     1      13.813 -29.366  13.124  1.00  0.00     0.079 A 
ATOM     23  H13 UNL     1      12.005 -30.314  12.812  1.00  0.00     0.167 HD
HETATM   24  N12 UNL     1      15.122 -29.568  13.108  1.00  0.00    -0.327 N 
HETATM   25  C20 UNL     1      13.151 -28.096  13.448  1.00  0.00     0.089 C 
ATOM     26  H12 UNL     1      15.710 -28.768  13.343  1.00  0.00     0.169 HD
ENDBRANCH  16  17
ENDBRANCH  15  16
ENDBRANCH  13  15
ENDBRANCH   1  12
BRANCH   4  27
HETATM   27  N3  UNL     1      22.317 -35.007  13.115  1.00  0.00    -0.018 N 
HETATM   28  C9  UNL     1      21.379 -36.115  13.285  1.00  0.00     0.195 C 
BRANCH  27  29
HETATM   29  C10 UNL     1      23.587 -35.126  13.744  1.00  0.00     0.702 A 
HETATM   30  N4  UNL     1      23.726 -34.789  15.054  1.00  0.00    -0.174 N 
HETATM   31  C11 UNL     1      24.883 -34.881  15.713  1.00  0.00     0.145 A 
ATOM     32  H4  UNL     1      22.906 -34.450  15.558  1.00  0.00     0.186 HD
HETATM   33  N5  UNL     1      25.010 -34.560  16.955  1.00  0.00    -0.383 N 
HETATM   34  C12 UNL     1      26.010 -35.337  15.055  1.00  0.00     0.123 A 
ATOM     35  H52 UNL     1      24.179 -34.223  17.441  1.00  0.00     0.157 HD
ATOM     36  H51 UNL     1      25.894 -34.629  17.459  1.00  0.00     0.157 HD
HETATM   37  N6  UNL     1      27.289 -35.546  15.409  1.00  0.00    -0.346 N 
HETATM   38  C15 UNL     1      25.900 -35.685  13.730  1.00  0.00     0.154 A 
HETATM   39  C13 UNL     1      27.968 -36.009  14.347  1.00  0.00     0.184 A 
ATOM     40  H6  UNL     1      27.682 -35.379  16.336  1.00  0.00     0.167 HD
HETATM   41  N7  UNL     1      27.112 -36.094  13.319  1.00  0.00    -0.331 N 
HETATM   42  C14 UNL     1      27.435 -36.552  11.994  1.00  0.00     0.158 C 
HETATM   43  N8  UNL     1      24.692 -35.567  13.119  1.00  0.00    -0.173 N 
ATOM     44  H8  UNL     1      24.620 -35.827  12.136  1.00  0.00     0.186 HD
ENDBRANCH  27  29
ENDBRANCH   4  27
TORSDOF 6
ENDMDL
