MODEL 1
REMARK VINA RESULT: -7.487314936      0.000      0.000
REMARK  6 active torsions:
REMARK  status: ('A' for Active; 'I' for Inactive)
REMARK    1  A    between atoms: C2_2  and  C3_3 
REMARK       I    between atoms: N3_9  and  C5_11 
REMARK    2  A    between atoms: C5_11  and  C6_13 
REMARK    3  A    between atoms: C6_13  and  S1_14 
REMARK    4  A    between atoms: S1_14  and  C7_15 
REMARK    5  A    between atoms: C10_21  and  N6_22 
REMARK    6  A    between atoms: C13_27  and  N8_28 
ROOT
HETATM    1  C7  UNL     1      21.484 -31.744  10.022  1.00  0.00     0.131 A 
HETATM    2  N4  UNL     1      22.147 -32.393  10.960  1.00  0.00    -0.278 N 
ATOM      3  H4  UNL     1      22.117 -32.064  11.925  1.00  0.00     0.189 HD
HETATM    4  N5  UNL     1      22.834 -33.442  10.660  1.00  0.00    -0.212 N 
HETATM    5  C8  UNL     1      23.628 -34.350  11.330  1.00  0.00     0.162 A 
HETATM    6  C9  UNL     1      23.955 -34.376  12.728  1.00  0.00     0.100 A 
HETATM    7  C10 UNL     1      23.211 -35.127  13.642  1.00  0.00     0.136 A 
HETATM    8  N7  UNL     1      23.546 -35.116  14.952  1.00  0.00    -0.176 N 
ATOM      9  H7  UNL     1      22.993 -35.670  15.607  1.00  0.00     0.186 HD
HETATM   10  C13 UNL     1      24.581 -34.401  15.421  1.00  0.00     0.679 A 
HETATM   11  N9  UNL     1      25.308 -33.672  14.558  1.00  0.00    -0.176 N 
ATOM     12  H9  UNL     1      26.096 -33.125  14.902  1.00  0.00     0.186 HD
HETATM   13  C14 UNL     1      25.009 -33.655  13.241  1.00  0.00     0.132 A 
HETATM   14  N10 UNL     1      25.725 -32.952  12.468  1.00  0.00    -0.384 N 
ATOM     15 1H10 UNL     1      26.506 -32.418  12.848  1.00  0.00     0.157 HD
ATOM     16 2H10 UNL     1      25.499 -32.939  11.473  1.00  0.00     0.157 HD
HETATM   17  N11 UNL     1      24.068 -35.231  10.418  1.00  0.00    -0.281 N 
ATOM     18  H11 UNL     1      24.679 -36.019  10.634  1.00  0.00     0.188 HD
HETATM   19  N12 UNL     1      23.623 -34.964   9.230  1.00  0.00    -0.276 N 
ATOM     20  H12 UNL     1      23.807 -35.475   8.365  1.00  0.00     0.189 HD
HETATM   21  C15 UNL     1      22.853 -33.843   9.394  1.00  0.00     0.189 A 
HETATM   22  S2  UNL     1      21.858 -32.676   8.635  1.00  0.00    -0.024 SA
ENDROOT
BRANCH   7  23
HETATM   23  N6  UNL     1      22.115 -35.906  13.221  1.00  0.00    -0.375 N 
HETATM   24  C11 UNL     1      20.811 -35.319  13.138  1.00  0.00     0.150 C 
HETATM   25  C12 UNL     1      22.302 -37.286  12.878  1.00  0.00     0.150 C 
ENDBRANCH   7  23
BRANCH   1  26
HETATM   26  S1  UNL     1      20.458 -30.266  10.171  1.00  0.00    -0.094 SA
BRANCH  26  27
HETATM   27  C6  UNL     1      19.076 -30.722  11.286  1.00  0.00     0.184 C 
BRANCH  27  28
HETATM   28  C5  UNL     1      19.387 -30.375  12.679  1.00  0.00     0.234 C 
HETATM   29  N3  UNL     1      18.378 -30.009  13.579  1.00  0.00    -0.291 N 
HETATM   30  C4  UNL     1      17.116 -30.214  13.468  1.00  0.00     0.247 A 
ATOM     31  H3  UNL     1      18.682 -29.522  14.423  1.00  0.00     0.172 HD
HETATM   32  N2  UNL     1      16.145 -29.861  14.335  1.00  0.00    -0.263 N 
HETATM   33  O2  UNL     1      16.495 -30.810  12.488  1.00  0.00    -0.264 OA
HETATM   34  N1  UNL     1      14.989 -30.255  13.851  1.00  0.00    -0.280 N 
ATOM     35  H2  UNL     1      16.286 -29.372  15.219  1.00  0.00     0.190 HD
HETATM   36  C3  UNL     1      15.201 -30.862  12.673  1.00  0.00     0.141 A 
ATOM     37  H1  UNL     1      14.081 -30.122  14.298  1.00  0.00     0.189 HD
HETATM   38  O1  UNL     1      20.580 -30.406  13.066  1.00  0.00    -0.272 OA
BRANCH  36  39
HETATM   39  C2  UNL     1      14.145 -31.435  11.828  1.00  0.00     0.081 C 
HETATM   40  C1  UNL     1      13.183 -32.204  12.741  1.00  0.00     0.013 C 
ENDBRANCH  36  39
ENDBRANCH  27  28
ENDBRANCH  26  27
ENDBRANCH   1  26
BRANCH  10  41
HETATM   41  N8  UNL     1      24.875 -34.412  16.698  1.00  0.00    -0.234 N 
ATOM     42  H82 UNL     1      24.289 -34.920  17.361  1.00  0.00     0.174 HD
ATOM     43  H81 UNL     1      25.696 -33.915  17.046  1.00  0.00     0.174 HD
ENDBRANCH  10  41
TORSDOF 6
ENDMDL
MODEL 2
REMARK VINA RESULT: -6.917813888      3.727      6.669
REMARK  6 active torsions:
REMARK  status: ('A' for Active; 'I' for Inactive)
REMARK    1  A    between atoms: C2_2  and  C3_3 
REMARK       I    between atoms: N3_9  and  C5_11 
REMARK    2  A    between atoms: C5_11  and  C6_13 
REMARK    3  A    between atoms: C6_13  and  S1_14 
REMARK    4  A    between atoms: S1_14  and  C7_15 
REMARK    5  A    between atoms: C10_21  and  N6_22 
REMARK    6  A    between atoms: C13_27  and  N8_28 
ROOT
HETATM    1  C7  UNL     1      21.213 -31.429   9.419  1.00  0.00     0.131 A 
HETATM    2  N4  UNL     1      21.260 -31.821   8.161  1.00  0.00    -0.278 N 
ATOM      3  H4  UNL     1      20.807 -31.264   7.436  1.00  0.00     0.189 HD
HETATM    4  N5  UNL     1      21.878 -32.907   7.843  1.00  0.00    -0.212 N 
HETATM    5  C8  UNL     1      22.134 -33.619   6.689  1.00  0.00     0.162 A 
HETATM    6  C9  UNL     1      21.725 -33.305   5.349  1.00  0.00     0.100 A 
HETATM    7  C10 UNL     1      22.549 -32.586   4.479  1.00  0.00     0.136 A 
HETATM    8  N7  UNL     1      22.122 -32.303   3.228  1.00  0.00    -0.176 N 
ATOM      9  H7  UNL     1      22.735 -31.777   2.605  1.00  0.00     0.186 HD
HETATM   10  C13 UNL     1      20.918 -32.690   2.777  1.00  0.00     0.679 A 
HETATM   11  N9  UNL     1      20.112 -33.382   3.599  1.00  0.00    -0.176 N 
ATOM     12  H9  UNL     1      19.195 -33.682   3.267  1.00  0.00     0.186 HD
HETATM   13  C14 UNL     1      20.498 -33.688   4.856  1.00  0.00     0.132 A 
HETATM   14  N10 UNL     1      19.702 -34.343   5.591  1.00  0.00    -0.384 N 
ATOM     15 1H10 UNL     1      18.793 -34.626   5.226  1.00  0.00     0.157 HD
ATOM     16 2H10 UNL     1      19.995 -34.573   6.541  1.00  0.00     0.157 HD
HETATM   17  N11 UNL     1      22.849 -34.697   7.046  1.00  0.00    -0.281 N 
ATOM     18  H11 UNL     1      23.180 -35.405   6.390  1.00  0.00     0.188 HD
HETATM   19  N12 UNL     1      23.069 -34.735   8.324  1.00  0.00    -0.276 N 
ATOM     20  H12 UNL     1      23.583 -35.443   8.848  1.00  0.00     0.189 HD
HETATM   21  C15 UNL     1      22.457 -33.610   8.811  1.00  0.00     0.189 A 
HETATM   22  S2  UNL     1      22.095 -32.674  10.197  1.00  0.00    -0.024 SA
ENDROOT
BRANCH   7  23
HETATM   23  N6  UNL     1      23.828 -32.151   4.882  1.00  0.00    -0.375 N 
HETATM   24  C11 UNL     1      23.973 -30.915   5.591  1.00  0.00     0.150 C 
HETATM   25  C12 UNL     1      24.985 -32.944   4.581  1.00  0.00     0.150 C 
ENDBRANCH   7  23
BRANCH   1  26
HETATM   26  S1  UNL     1      20.424 -29.966  10.126  1.00  0.00    -0.094 SA
BRANCH  26  27
HETATM   27  C6  UNL     1      19.122 -30.592  11.255  1.00  0.00     0.184 C 
BRANCH  27  28
HETATM   28  C5  UNL     1      19.434 -30.263  12.652  1.00  0.00     0.234 C 
HETATM   29  N3  UNL     1      18.423 -29.934  13.564  1.00  0.00    -0.291 N 
HETATM   30  C4  UNL     1      17.165 -30.164  13.456  1.00  0.00     0.247 A 
ATOM     31  H3  UNL     1      18.722 -29.456  14.415  1.00  0.00     0.172 HD
HETATM   32  N2  UNL     1      16.192 -29.848  14.335  1.00  0.00    -0.263 N 
HETATM   33  O2  UNL     1      16.551 -30.756  12.469  1.00  0.00    -0.264 OA
HETATM   34  N1  UNL     1      15.041 -30.257  13.851  1.00  0.00    -0.280 N 
ATOM     35  H2  UNL     1      16.328 -29.371  15.226  1.00  0.00     0.190 HD
HETATM   36  C3  UNL     1      15.260 -30.838  12.660  1.00  0.00     0.141 A 
ATOM     37  H1  UNL     1      14.134 -30.151  14.304  1.00  0.00     0.189 HD
HETATM   38  O1  UNL     1      20.630 -30.275  13.031  1.00  0.00    -0.272 OA
BRANCH  36  39
HETATM   39  C2  UNL     1      14.210 -31.419  11.811  1.00  0.00     0.081 C 
HETATM   40  C1  UNL     1      13.256 -32.202  12.720  1.00  0.00     0.013 C 
ENDBRANCH  36  39
ENDBRANCH  27  28
ENDBRANCH  26  27
ENDBRANCH   1  26
BRANCH  10  41
HETATM   41  N8  UNL     1      20.536 -32.396   1.559  1.00  0.00    -0.234 N 
ATOM     42  H82 UNL     1      20.858 -31.540   1.106  1.00  0.00     0.174 HD
ATOM     43  H81 UNL     1      19.912 -33.019   1.046  1.00  0.00     0.174 HD
ENDBRANCH  10  41
TORSDOF 6
ENDMDL
MODEL 3
REMARK VINA RESULT: -6.861625778      3.719      6.557
REMARK  6 active torsions:
REMARK  status: ('A' for Active; 'I' for Inactive)
REMARK    1  A    between atoms: C2_2  and  C3_3 
REMARK       I    between atoms: N3_9  and  C5_11 
REMARK    2  A    between atoms: C5_11  and  C6_13 
REMARK    3  A    between atoms: C6_13  and  S1_14 
REMARK    4  A    between atoms: S1_14  and  C7_15 
REMARK    5  A    between atoms: C10_21  and  N6_22 
REMARK    6  A    between atoms: C13_27  and  N8_28 
ROOT
HETATM    1  C7  UNL     1      22.243 -34.966   9.523  1.00  0.00     0.131 A 
HETATM    2  N4  UNL     1      22.460 -33.928   8.738  1.00  0.00    -0.278 N 
ATOM      3  H4  UNL     1      23.021 -33.144   9.075  1.00  0.00     0.189 HD
HETATM    4  N5  UNL     1      21.966 -33.899   7.548  1.00  0.00    -0.212 N 
HETATM    5  C8  UNL     1      21.968 -33.028   6.478  1.00  0.00     0.162 A 
HETATM    6  C9  UNL     1      22.603 -31.743   6.386  1.00  0.00     0.100 A 
HETATM    7  C10 UNL     1      23.886 -31.594   5.853  1.00  0.00     0.136 A 
HETATM    8  N7  UNL     1      24.451 -30.367   5.794  1.00  0.00    -0.176 N 
ATOM      9  H7  UNL     1      25.389 -30.275   5.402  1.00  0.00     0.186 HD
HETATM   10  C13 UNL     1      23.821 -29.266   6.233  1.00  0.00     0.679 A 
HETATM   11  N9  UNL     1      22.586 -29.389   6.748  1.00  0.00    -0.176 N 
ATOM     12  H9  UNL     1      22.098 -28.560   7.085  1.00  0.00     0.186 HD
HETATM   13  C14 UNL     1      21.984 -30.595   6.826  1.00  0.00     0.132 A 
HETATM   14  N10 UNL     1      20.819 -30.659   7.320  1.00  0.00    -0.384 N 
ATOM     15 1H10 UNL     1      20.361 -29.808   7.646  1.00  0.00     0.157 HD
ATOM     16 2H10 UNL     1      20.364 -31.570   7.378  1.00  0.00     0.157 HD
HETATM   17  N11 UNL     1      21.244 -33.603   5.505  1.00  0.00    -0.281 N 
ATOM     18  H11 UNL     1      21.076 -33.180   4.592  1.00  0.00     0.188 HD
HETATM   19  N12 UNL     1      20.781 -34.761   5.863  1.00  0.00    -0.276 N 
ATOM     20  H12 UNL     1      20.205 -35.399   5.313  1.00  0.00     0.189 HD
HETATM   21  C15 UNL     1      21.240 -34.935   7.142  1.00  0.00     0.189 A 
HETATM   22  S2  UNL     1      21.280 -35.959   8.512  1.00  0.00    -0.024 SA
ENDROOT
BRANCH   7  23
HETATM   23  N6  UNL     1      24.605 -32.704   5.368  1.00  0.00    -0.375 N 
HETATM   24  C11 UNL     1      25.400 -33.489   6.265  1.00  0.00     0.150 C 
HETATM   25  C12 UNL     1      24.545 -33.050   3.977  1.00  0.00     0.150 C 
ENDBRANCH   7  23
BRANCH   1  26
HETATM   26  S1  UNL     1      22.812 -35.255  11.211  1.00  0.00    -0.094 SA
BRANCH  26  27
HETATM   27  C6  UNL     1      21.384 -34.872  12.297  1.00  0.00     0.184 C 
BRANCH  27  28
HETATM   28  C5  UNL     1      21.827 -34.583  13.667  1.00  0.00     0.234 C 
HETATM   29  N3  UNL     1      21.597 -33.334  14.256  1.00  0.00    -0.291 N 
HETATM   30  C4  UNL     1      20.760 -32.434  13.885  1.00  0.00     0.247 A 
ATOM     31  H3  UNL     1      22.161 -33.112  15.077  1.00  0.00     0.172 HD
HETATM   32  N2  UNL     1      20.539 -31.231  14.453  1.00  0.00    -0.263 N 
HETATM   33  O2  UNL     1      19.938 -32.488  12.874  1.00  0.00    -0.264 OA
HETATM   34  N1  UNL     1      19.602 -30.612  13.772  1.00  0.00    -0.280 N 
ATOM     35  H2  UNL     1      21.019 -30.864  15.274  1.00  0.00     0.190 HD
HETATM   36  C3  UNL     1      19.211 -31.406  12.762  1.00  0.00     0.141 A 
ATOM     37  H1  UNL     1      19.232 -29.684  13.976  1.00  0.00     0.189 HD
HETATM   38  O1  UNL     1      22.424 -35.474  14.318  1.00  0.00    -0.272 OA
BRANCH  36  39
HETATM   39  C2  UNL     1      18.177 -31.056  11.778  1.00  0.00     0.081 C 
HETATM   40  C1  UNL     1      16.818 -31.441  12.373  1.00  0.00     0.013 C 
ENDBRANCH  36  39
ENDBRANCH  27  28
ENDBRANCH  26  27
ENDBRANCH   1  26
BRANCH  10  41
HETATM   41  N8  UNL     1      24.400 -28.093   6.162  1.00  0.00    -0.234 N 
ATOM     42  H82 UNL     1      25.163 -27.930   5.505  1.00  0.00     0.174 HD
ATOM     43  H81 UNL     1      24.095 -27.326   6.761  1.00  0.00     0.174 HD
ENDBRANCH  10  41
TORSDOF 6
ENDMDL
MODEL 4
REMARK VINA RESULT: -6.849181710      3.382      5.080
REMARK  6 active torsions:
REMARK  status: ('A' for Active; 'I' for Inactive)
REMARK    1  A    between atoms: C2_2  and  C3_3 
REMARK       I    between atoms: N3_9  and  C5_11 
REMARK    2  A    between atoms: C5_11  and  C6_13 
REMARK    3  A    between atoms: C6_13  and  S1_14 
REMARK    4  A    between atoms: S1_14  and  C7_15 
REMARK    5  A    between atoms: C10_21  and  N6_22 
REMARK    6  A    between atoms: C13_27  and  N8_28 
ROOT
HETATM    1  C7  UNL     1      22.202 -32.997  13.967  1.00  0.00     0.131 A 
HETATM    2  N4  UNL     1      22.750 -33.887  14.771  1.00  0.00    -0.278 N 
ATOM      3  H4  UNL     1      22.181 -34.350  15.481  1.00  0.00     0.189 HD
HETATM    4  N5  UNL     1      24.002 -34.174  14.665  1.00  0.00    -0.212 N 
HETATM    5  C8  UNL     1      24.900 -35.011  15.295  1.00  0.00     0.162 A 
HETATM    6  C9  UNL     1      24.655 -35.907  16.389  1.00  0.00     0.100 A 
HETATM    7  C10 UNL     1      24.333 -37.251  16.180  1.00  0.00     0.136 A 
HETATM    8  N7  UNL     1      24.099 -38.058  17.239  1.00  0.00    -0.176 N 
ATOM      9  H7  UNL     1      23.864 -39.037  17.070  1.00  0.00     0.186 HD
HETATM   10  C13 UNL     1      24.164 -37.617  18.505  1.00  0.00     0.679 A 
HETATM   11  N9  UNL     1      24.473 -36.329  18.726  1.00  0.00    -0.176 N 
ATOM     12  H9  UNL     1      24.526 -35.982  19.684  1.00  0.00     0.186 HD
HETATM   13  C14 UNL     1      24.714 -35.487  17.698  1.00  0.00     0.132 A 
HETATM   14  N10 UNL     1      25.002 -34.282  17.959  1.00  0.00    -0.384 N 
ATOM     15 1H10 UNL     1      25.046 -33.970  18.930  1.00  0.00     0.157 HD
ATOM     16 2H10 UNL     1      25.184 -33.645  17.182  1.00  0.00     0.157 HD
HETATM   17  N11 UNL     1      26.087 -34.832  14.694  1.00  0.00    -0.281 N 
ATOM     18  H11 UNL     1      26.940 -35.327  14.957  1.00  0.00     0.188 HD
HETATM   19  N12 UNL     1      26.023 -33.956  13.740  1.00  0.00    -0.276 N 
ATOM     20  H12 UNL     1      26.779 -33.639  13.132  1.00  0.00     0.189 HD
HETATM   21  C15 UNL     1      24.714 -33.552  13.731  1.00  0.00     0.189 A 
HETATM   22  S2  UNL     1      23.542 -32.539  13.004  1.00  0.00    -0.024 SA
ENDROOT
BRANCH   7  23
HETATM   23  N6  UNL     1      24.250 -37.785  14.879  1.00  0.00    -0.375 N 
HETATM   24  C11 UNL     1      23.024 -37.694  14.144  1.00  0.00     0.150 C 
HETATM   25  C12 UNL     1      25.393 -38.421  14.288  1.00  0.00     0.150 C 
ENDBRANCH   7  23
BRANCH   1  26
HETATM   26  S1  UNL     1      20.493 -32.419  13.905  1.00  0.00    -0.094 SA
BRANCH  26  27
HETATM   27  C6  UNL     1      20.249 -31.748  12.216  1.00  0.00     0.184 C 
BRANCH  27  28
HETATM   28  C5  UNL     1      19.743 -30.370  12.265  1.00  0.00     0.234 C 
HETATM   29  N3  UNL     1      20.025 -29.456  11.241  1.00  0.00    -0.291 N 
HETATM   30  C4  UNL     1      20.437 -29.713  10.053  1.00  0.00     0.247 A 
ATOM     31  H3  UNL     1      19.888 -28.471  11.467  1.00  0.00     0.172 HD
HETATM   32  N2  UNL     1      20.708 -28.832   9.068  1.00  0.00    -0.263 N 
HETATM   33  O2  UNL     1      20.683 -30.885   9.537  1.00  0.00    -0.264 OA
HETATM   34  N1  UNL     1      21.102 -29.499   8.007  1.00  0.00    -0.280 N 
ATOM     35  H2  UNL     1      20.621 -27.818   9.136  1.00  0.00     0.190 HD
HETATM   36  C3  UNL     1      21.089 -30.810   8.296  1.00  0.00     0.141 A 
ATOM     37  H1  UNL     1      21.372 -29.089   7.113  1.00  0.00     0.189 HD
HETATM   38  O1  UNL     1      19.047 -30.008  13.244  1.00  0.00    -0.272 OA
BRANCH  36  39
HETATM   39  C2  UNL     1      21.469 -31.875   7.357  1.00  0.00     0.081 C 
HETATM   40  C1  UNL     1      20.639 -31.689   6.081  1.00  0.00     0.013 C 
ENDBRANCH  36  39
ENDBRANCH  27  28
ENDBRANCH  26  27
ENDBRANCH   1  26
BRANCH  10  41
HETATM   41  N8  UNL     1      23.929 -38.429  19.507  1.00  0.00    -0.234 N 
ATOM     42  H82 UNL     1      24.684 -38.715  20.131  1.00  0.00     0.174 HD
ATOM     43  H81 UNL     1      22.988 -38.783  19.679  1.00  0.00     0.174 HD
ENDBRANCH  10  41
TORSDOF 6
ENDMDL
MODEL 5
REMARK VINA RESULT: -6.770161757      2.817      4.349
REMARK  6 active torsions:
REMARK  status: ('A' for Active; 'I' for Inactive)
REMARK    1  A    between atoms: C2_2  and  C3_3 
REMARK       I    between atoms: N3_9  and  C5_11 
REMARK    2  A    between atoms: C5_11  and  C6_13 
REMARK    3  A    between atoms: C6_13  and  S1_14 
REMARK    4  A    between atoms: S1_14  and  C7_15 
REMARK    5  A    between atoms: C10_21  and  N6_22 
REMARK    6  A    between atoms: C13_27  and  N8_28 
ROOT
HETATM    1  C7  UNL     1      22.506 -34.958  13.257  1.00  0.00     0.131 A 
HETATM    2  N4  UNL     1      23.208 -35.363  14.297  1.00  0.00    -0.278 N 
ATOM      3  H4  UNL     1      22.757 -35.899  15.039  1.00  0.00     0.189 HD
HETATM    4  N5  UNL     1      24.464 -35.086  14.379  1.00  0.00    -0.212 N 
HETATM    5  C8  UNL     1      25.491 -35.321  15.271  1.00  0.00     0.162 A 
HETATM    6  C9  UNL     1      25.432 -36.029  16.519  1.00  0.00     0.100 A 
HETATM    7  C10 UNL     1      25.732 -37.392  16.604  1.00  0.00     0.136 A 
HETATM    8  N7  UNL     1      25.654 -38.023  17.797  1.00  0.00    -0.176 N 
ATOM      9  H7  UNL     1      25.876 -39.019  17.843  1.00  0.00     0.186 HD
HETATM   10  C13 UNL     1      25.296 -37.387  18.923  1.00  0.00     0.679 A 
HETATM   11  N9  UNL     1      25.005 -36.077  18.861  1.00  0.00    -0.176 N 
ATOM     12  H9  UNL     1      24.732 -35.583  19.710  1.00  0.00     0.186 HD
HETATM   13  C14 UNL     1      25.070 -35.406  17.691  1.00  0.00     0.132 A 
HETATM   14  N10 UNL     1      24.786 -34.172  17.685  1.00  0.00    -0.384 N 
ATOM     15 1H10 UNL     1      24.517 -33.711  18.554  1.00  0.00     0.157 HD
ATOM     16 2H10 UNL     1      24.835 -33.665  16.801  1.00  0.00     0.157 HD
HETATM   17  N11 UNL     1      26.591 -34.746  14.760  1.00  0.00    -0.281 N 
ATOM     18  H11 UNL     1      27.506 -34.763  15.212  1.00  0.00     0.188 HD
HETATM   19  N12 UNL     1      26.355 -34.167  13.624  1.00  0.00    -0.276 N 
ATOM     20  H12 UNL     1      27.015 -33.661  13.033  1.00  0.00     0.189 HD
HETATM   21  C15 UNL     1      25.022 -34.386  13.397  1.00  0.00     0.189 A 
HETATM   22  S2  UNL     1      23.697 -34.133  12.343  1.00  0.00    -0.024 SA
ENDROOT
BRANCH   7  23
HETATM   23  N6  UNL     1      26.119 -38.124  15.464  1.00  0.00    -0.375 N 
HETATM   24  C11 UNL     1      25.138 -38.516  14.498  1.00  0.00     0.150 C 
HETATM   25  C12 UNL     1      27.496 -38.478  15.270  1.00  0.00     0.150 C 
ENDBRANCH   7  23
BRANCH   1  26
HETATM   26  S1  UNL     1      20.755 -35.209  12.899  1.00  0.00    -0.094 SA
BRANCH  26  27
HETATM   27  C6  UNL     1      19.839 -34.230  14.151  1.00  0.00     0.184 C 
BRANCH  27  28
HETATM   28  C5  UNL     1      20.655 -33.113  14.646  1.00  0.00     0.234 C 
HETATM   29  N3  UNL     1      20.431 -31.801  14.209  1.00  0.00    -0.291 N 
HETATM   30  C4  UNL     1      19.384 -31.336  13.631  1.00  0.00     0.247 A 
ATOM     31  H3  UNL     1      21.190 -31.138  14.369  1.00  0.00     0.172 HD
HETATM   32  N2  UNL     1      19.170 -30.072  13.211  1.00  0.00    -0.263 N 
HETATM   33  O2  UNL     1      18.296 -31.985  13.323  1.00  0.00    -0.264 OA
HETATM   34  N1  UNL     1      17.972 -30.007  12.673  1.00  0.00    -0.280 N 
ATOM     35  H2  UNL     1      19.826 -29.297  13.297  1.00  0.00     0.190 HD
HETATM   36  C3  UNL     1      17.407 -31.223  12.740  1.00  0.00     0.141 A 
ATOM     37  H1  UNL     1      17.545 -29.173  12.272  1.00  0.00     0.189 HD
HETATM   38  O1  UNL     1      21.569 -33.343  15.473  1.00  0.00    -0.272 OA
BRANCH  36  39
HETATM   39  C2  UNL     1      16.064 -31.547  12.237  1.00  0.00     0.081 C 
HETATM   40  C1  UNL     1      15.056 -30.699  13.021  1.00  0.00     0.013 C 
ENDBRANCH  36  39
ENDBRANCH  27  28
ENDBRANCH  26  27
ENDBRANCH   1  26
BRANCH  10  41
HETATM   41  N8  UNL     1      25.230 -38.032  20.062  1.00  0.00    -0.234 N 
ATOM     42  H82 UNL     1      26.052 -38.114  20.661  1.00  0.00     0.174 HD
ATOM     43  H81 UNL     1      24.355 -38.459  20.367  1.00  0.00     0.174 HD
ENDBRANCH  10  41
TORSDOF 6
ENDMDL
