MODEL 1
REMARK VINA RESULT: -6.903852936      0.000      0.000
REMARK  9 active torsions:
REMARK  status: ('A' for Active; 'I' for Inactive)
REMARK    1  A    between atoms: N2_7  and  C6_8 
REMARK    2  A    between atoms: C6_8  and  S2_10 
REMARK    3  A    between atoms: S2_10  and  C7_11 
REMARK    4  A    between atoms: C7_11  and  C8_12 
REMARK    5  A    between atoms: C8_12  and  S3_13 
REMARK    6  A    between atoms: S3_13  and  C9_14 
REMARK    7  A    between atoms: C10_15  and  C11_16 
REMARK    8  A    between atoms: N7_25  and  C12_26 
REMARK    9  A    between atoms: C13_32  and  N10_33 
ROOT
HETATM    1  N1  UNL     1      20.930 -30.532   9.089  1.00  0.00    -0.197 NA
HETATM    2  C1  UNL     1      20.301 -30.147   9.998  1.00  0.00     0.066 C 
HETATM    3  C2  UNL     1      19.528 -29.652  11.138  1.00  0.00     0.127 C 
HETATM    4  C3  UNL     1      18.488 -30.666  11.558  1.00  0.00     0.056 C 
HETATM    5  C4  UNL     1      18.542 -30.647  13.068  1.00  0.00     0.205 C 
HETATM    6  C5  UNL     1      19.277 -31.908  13.524  1.00  0.00     0.157 C 
HETATM    7  N2  UNL     1      20.565 -31.921  12.843  1.00  0.00    -0.362 N 
HETATM    8  C14 UNL     1      21.269 -30.727  12.474  1.00  0.00     0.158 C 
HETATM    9  C15 UNL     1      20.366 -29.522  12.388  1.00  0.00     0.221 C 
HETATM   10  N11 UNL     1      19.373 -29.526  13.434  1.00  0.00    -0.062 N 
ATOM     11 1H11 UNL     1      19.747 -29.561  14.382  1.00  0.00     0.278 HD
ATOM     12 2H11 UNL     1      18.875 -28.645  13.558  1.00  0.00     0.278 HD
ENDROOT
BRANCH   7  13
HETATM   13  C6  UNL     1      21.164 -33.186  12.523  1.00  0.00     0.136 C 
HETATM   14  S1  UNL     1      22.285 -33.274  11.333  1.00  0.00    -0.053 SA
BRANCH  13  15
HETATM   15  S2  UNL     1      20.695 -34.633  13.429  1.00  0.00    -0.100 SA
BRANCH  15  16
HETATM   16  C7  UNL     1      21.902 -35.953  13.211  1.00  0.00     0.092 C 
BRANCH  16  17
HETATM   17  C8  UNL     1      22.713 -36.130  14.445  1.00  0.00     0.091 C 
BRANCH  17  18
HETATM   18  S3  UNL     1      23.688 -34.690  14.937  1.00  0.00    -0.107 SA
BRANCH  18  19
HETATM   19  C9  UNL     1      25.402 -35.123  15.107  1.00  0.00     0.128 A 
HETATM   20  C10 UNL     1      26.423 -34.828  14.237  1.00  0.00     0.125 A 
HETATM   21  N5  UNL     1      27.535 -35.341  14.864  1.00  0.00    -0.280 N 
HETATM   22  N6  UNL     1      27.184 -35.891  16.007  1.00  0.00    -0.233 N 
ATOM     23  H5  UNL     1      28.486 -35.301  14.499  1.00  0.00     0.188 HD
HETATM   24  N7  UNL     1      25.895 -35.788  16.206  1.00  0.00    -0.211 N 
ATOM     25  H6  UNL     1      27.833 -36.339  16.654  1.00  0.00     0.209 HD
BRANCH  20  26
HETATM   26  C11 UNL     1      26.427 -34.166  12.938  1.00  0.00     0.141 C 
HETATM   27  N3  UNL     1      26.874 -33.005  12.674  1.00  0.00    -0.386 N 
ATOM     28  H32 UNL     1      27.276 -32.460  13.437  1.00  0.00     0.157 HD
ATOM     29  H31 UNL     1      26.876 -32.542  11.766  1.00  0.00     0.157 HD
HETATM   30  N4  UNL     1      25.854 -34.942  11.852  1.00  0.00    -0.081 NA
ENDBRANCH  20  26
BRANCH  24  31
HETATM   31  C12 UNL     1      25.105 -36.244  17.300  1.00  0.00     0.197 A 
HETATM   32  N8  UNL     1      24.389 -37.374  17.427  1.00  0.00    -0.220 N 
HETATM   33  O1  UNL     1      23.803 -37.423  18.585  1.00  0.00    -0.153 OA
ATOM     34  H8  UNL     1      24.316 -38.096  16.711  1.00  0.00     0.198 HD
HETATM   35  N9  UNL     1      24.112 -36.347  19.239  1.00  0.00    -0.222 N 
HETATM   36  C13 UNL     1      24.922 -35.573  18.489  1.00  0.00     0.169 A 
ATOM     37  H9  UNL     1      23.790 -36.120  20.180  1.00  0.00     0.198 HD
BRANCH  36  38
HETATM   38  N10 UNL     1      25.433 -34.425  18.809  1.00  0.00    -0.381 N 
ATOM     39 2H10 UNL     1      26.358 -34.245  19.198  1.00  0.00     0.157 HD
ATOM     40 1H10 UNL     1      24.979 -33.516  18.718  1.00  0.00     0.157 HD
ENDBRANCH  36  38
ENDBRANCH  24  31
ENDBRANCH  18  19
ENDBRANCH  17  18
ENDBRANCH  16  17
ENDBRANCH  15  16
ENDBRANCH  13  15
ENDBRANCH   7  13
TORSDOF 9
ENDMDL
MODEL 2
REMARK VINA RESULT: -6.752598197      5.702      8.733
REMARK  9 active torsions:
REMARK  status: ('A' for Active; 'I' for Inactive)
REMARK    1  A    between atoms: N2_7  and  C6_8 
REMARK    2  A    between atoms: C6_8  and  S2_10 
REMARK    3  A    between atoms: S2_10  and  C7_11 
REMARK    4  A    between atoms: C7_11  and  C8_12 
REMARK    5  A    between atoms: C8_12  and  S3_13 
REMARK    6  A    between atoms: S3_13  and  C9_14 
REMARK    7  A    between atoms: C10_15  and  C11_16 
REMARK    8  A    between atoms: N7_25  and  C12_26 
REMARK    9  A    between atoms: C13_32  and  N10_33 
ROOT
HETATM    1  N1  UNL     1      23.696 -30.123   6.016  1.00  0.00    -0.197 NA
HETATM    2  C1  UNL     1      22.872 -30.678   5.397  1.00  0.00     0.066 C 
HETATM    3  C2  UNL     1      21.829 -31.362   4.632  1.00  0.00     0.127 C 
HETATM    4  C3  UNL     1      22.328 -32.693   4.118  1.00  0.00     0.056 C 
HETATM    5  C4  UNL     1      21.165 -33.633   4.335  1.00  0.00     0.205 C 
HETATM    6  C5  UNL     1      21.492 -34.507   5.546  1.00  0.00     0.157 C 
HETATM    7  N2  UNL     1      21.797 -33.608   6.652  1.00  0.00    -0.362 N 
HETATM    8  C14 UNL     1      21.202 -32.311   6.794  1.00  0.00     0.158 C 
HETATM    9  C15 UNL     1      20.659 -31.773   5.493  1.00  0.00     0.221 C 
HETATM   10  N11 UNL     1      20.039 -32.812   4.707  1.00  0.00    -0.062 N 
ATOM     11 1H11 UNL     1      19.280 -33.309   5.173  1.00  0.00     0.278 HD
ATOM     12 2H11 UNL     1      19.473 -32.480   3.926  1.00  0.00     0.278 HD
ENDROOT
BRANCH   7  13
HETATM   13  C6  UNL     1      22.737 -34.035   7.651  1.00  0.00     0.136 C 
HETATM   14  S1  UNL     1      24.332 -34.091   7.290  1.00  0.00    -0.053 SA
BRANCH  13  15
HETATM   15  S2  UNL     1      22.160 -34.482   9.263  1.00  0.00    -0.100 SA
BRANCH  15  16
HETATM   16  C7  UNL     1      22.903 -33.436  10.529  1.00  0.00     0.092 C 
BRANCH  16  17
HETATM   17  C8  UNL     1      21.855 -32.691  11.275  1.00  0.00     0.091 C 
BRANCH  17  18
HETATM   18  S3  UNL     1      21.179 -31.250  10.418  1.00  0.00    -0.107 SA
BRANCH  18  19
HETATM   19  C9  UNL     1      20.652 -30.019  11.585  1.00  0.00     0.128 A 
HETATM   20  C10 UNL     1      20.056 -30.231  12.803  1.00  0.00     0.125 A 
HETATM   21  N5  UNL     1      19.909 -28.962  13.312  1.00  0.00    -0.280 N 
HETATM   22  N6  UNL     1      20.383 -28.084  12.455  1.00  0.00    -0.233 N 
ATOM     23  H5  UNL     1      19.496 -28.736  14.217  1.00  0.00     0.188 HD
HETATM   24  N7  UNL     1      20.848 -28.672  11.384  1.00  0.00    -0.211 N 
ATOM     25  H6  UNL     1      20.387 -27.075  12.606  1.00  0.00     0.209 HD
BRANCH  20  26
HETATM   26  C11 UNL     1      19.621 -31.454  13.468  1.00  0.00     0.141 C 
HETATM   27  N3  UNL     1      20.142 -31.990  14.497  1.00  0.00    -0.386 N 
ATOM     28  H32 UNL     1      20.951 -31.535  14.918  1.00  0.00     0.157 HD
ATOM     29  H31 UNL     1      19.838 -32.845  14.961  1.00  0.00     0.157 HD
HETATM   30  N4  UNL     1      18.469 -32.103  12.867  1.00  0.00    -0.081 NA
ENDBRANCH  20  26
BRANCH  24  31
HETATM   31  C12 UNL     1      21.442 -28.104  10.219  1.00  0.00     0.197 A 
HETATM   32  N8  UNL     1      21.356 -28.493   8.937  1.00  0.00    -0.220 N 
HETATM   33  O1  UNL     1      22.047 -27.709   8.167  1.00  0.00    -0.153 OA
ATOM     34  H8  UNL     1      20.820 -29.298   8.611  1.00  0.00     0.198 HD
HETATM   35  N9  UNL     1      22.597 -26.798   8.908  1.00  0.00    -0.222 N 
HETATM   36  C13 UNL     1      22.256 -26.992  10.198  1.00  0.00     0.169 A 
ATOM     37  H9  UNL     1      23.197 -26.047   8.567  1.00  0.00     0.198 HD
BRANCH  36  38
HETATM   38  N10 UNL     1      22.614 -26.284  11.223  1.00  0.00    -0.381 N 
ATOM     39 2H10 UNL     1      23.407 -26.447  11.843  1.00  0.00     0.157 HD
ATOM     40 1H10 UNL     1      22.150 -25.443  11.569  1.00  0.00     0.157 HD
ENDBRANCH  36  38
ENDBRANCH  24  31
ENDBRANCH  18  19
ENDBRANCH  17  18
ENDBRANCH  16  17
ENDBRANCH  15  16
ENDBRANCH  13  15
ENDBRANCH   7  13
TORSDOF 9
ENDMDL
MODEL 3
REMARK VINA RESULT: -6.698932933      5.481      8.603
REMARK  9 active torsions:
REMARK  status: ('A' for Active; 'I' for Inactive)
REMARK    1  A    between atoms: N2_7  and  C6_8 
REMARK    2  A    between atoms: C6_8  and  S2_10 
REMARK    3  A    between atoms: S2_10  and  C7_11 
REMARK    4  A    between atoms: C7_11  and  C8_12 
REMARK    5  A    between atoms: C8_12  and  S3_13 
REMARK    6  A    between atoms: S3_13  and  C9_14 
REMARK    7  A    between atoms: C10_15  and  C11_16 
REMARK    8  A    between atoms: N7_25  and  C12_26 
REMARK    9  A    between atoms: C13_32  and  N10_33 
ROOT
HETATM    1  N1  UNL     1      18.798 -34.185   5.321  1.00  0.00    -0.197 NA
HETATM    2  C1  UNL     1      19.522 -33.278   5.164  1.00  0.00     0.066 C 
HETATM    3  C2  UNL     1      20.433 -32.152   4.952  1.00  0.00     0.127 C 
HETATM    4  C3  UNL     1      20.623 -31.371   6.232  1.00  0.00     0.056 C 
HETATM    5  C4  UNL     1      22.102 -31.062   6.260  1.00  0.00     0.205 C 
HETATM    6  C5  UNL     1      22.753 -31.993   7.283  1.00  0.00     0.157 C 
HETATM    7  N2  UNL     1      22.397 -33.356   6.907  1.00  0.00    -0.362 N 
HETATM    8  C14 UNL     1      22.171 -33.761   5.550  1.00  0.00     0.158 C 
HETATM    9  C15 UNL     1      21.840 -32.602   4.643  1.00  0.00     0.221 C 
HETATM   10  N11 UNL     1      22.622 -31.433   4.967  1.00  0.00    -0.062 N 
ATOM     11 1H11 UNL     1      23.633 -31.569   4.934  1.00  0.00     0.278 HD
ATOM     12 2H11 UNL     1      22.600 -30.693   4.266  1.00  0.00     0.278 HD
ENDROOT
BRANCH   7  13
HETATM   13  C6  UNL     1      22.263 -34.344   7.940  1.00  0.00     0.136 C 
HETATM   14  S1  UNL     1      21.236 -35.601   7.730  1.00  0.00    -0.053 SA
BRANCH  13  15
HETATM   15  S2  UNL     1      23.221 -34.199   9.422  1.00  0.00    -0.100 SA
BRANCH  15  16
HETATM   16  C7  UNL     1      22.159 -33.984  10.861  1.00  0.00     0.092 C 
BRANCH  16  17
HETATM   17  C8  UNL     1      22.220 -32.582  11.353  1.00  0.00     0.091 C 
BRANCH  17  18
HETATM   18  S3  UNL     1      21.063 -31.439  10.563  1.00  0.00    -0.107 SA
BRANCH  18  19
HETATM   19  C9  UNL     1      20.600 -30.144  11.686  1.00  0.00     0.128 A 
HETATM   20  C10 UNL     1      20.079 -30.287  12.948  1.00  0.00     0.125 A 
HETATM   21  N5  UNL     1      19.955 -28.990  13.391  1.00  0.00    -0.280 N 
HETATM   22  N6  UNL     1      20.371 -28.162  12.457  1.00  0.00    -0.233 N 
ATOM     23  H5  UNL     1      19.596 -28.713  14.304  1.00  0.00     0.188 HD
HETATM   24  N7  UNL     1      20.774 -28.811  11.395  1.00  0.00    -0.211 N 
ATOM     25  H6  UNL     1      20.377 -27.146  12.549  1.00  0.00     0.209 HD
BRANCH  20  26
HETATM   26  C11 UNL     1      19.694 -31.469  13.708  1.00  0.00     0.141 C 
HETATM   27  N3  UNL     1      18.546 -32.017  13.738  1.00  0.00    -0.386 N 
ATOM     28  H32 UNL     1      17.801 -31.602  13.179  1.00  0.00     0.157 HD
ATOM     29  H31 UNL     1      18.277 -32.845  14.269  1.00  0.00     0.157 HD
HETATM   30  N4  UNL     1      20.755 -32.060  14.505  1.00  0.00    -0.081 NA
ENDBRANCH  20  26
BRANCH  24  31
HETATM   31  C12 UNL     1      21.293 -28.309  10.166  1.00  0.00     0.197 A 
HETATM   32  N8  UNL     1      21.109 -28.757   8.913  1.00  0.00    -0.220 N 
HETATM   33  O1  UNL     1      21.756 -28.023   8.060  1.00  0.00    -0.153 OA
ATOM     34  H8  UNL     1      20.537 -29.564   8.665  1.00  0.00     0.198 HD
HETATM   35  N9  UNL     1      22.373 -27.090   8.715  1.00  0.00    -0.222 N 
HETATM   36  C13 UNL     1      22.121 -27.217  10.034  1.00  0.00     0.169 A 
ATOM     37  H9  UNL     1      22.960 -26.368   8.296  1.00  0.00     0.198 HD
BRANCH  36  38
HETATM   38  N10 UNL     1      22.564 -26.468  10.996  1.00  0.00    -0.381 N 
ATOM     39 2H10 UNL     1      22.104 -25.660  11.415  1.00  0.00     0.157 HD
ATOM     40 1H10 UNL     1      23.452 -26.577  11.486  1.00  0.00     0.157 HD
ENDBRANCH  36  38
ENDBRANCH  24  31
ENDBRANCH  18  19
ENDBRANCH  17  18
ENDBRANCH  16  17
ENDBRANCH  15  16
ENDBRANCH  13  15
ENDBRANCH   7  13
TORSDOF 9
ENDMDL
MODEL 4
REMARK VINA RESULT: -6.672327285      0.872      1.215
REMARK  9 active torsions:
REMARK  status: ('A' for Active; 'I' for Inactive)
REMARK    1  A    between atoms: N2_7  and  C6_8 
REMARK    2  A    between atoms: C6_8  and  S2_10 
REMARK    3  A    between atoms: S2_10  and  C7_11 
REMARK    4  A    between atoms: C7_11  and  C8_12 
REMARK    5  A    between atoms: C8_12  and  S3_13 
REMARK    6  A    between atoms: S3_13  and  C9_14 
REMARK    7  A    between atoms: C10_15  and  C11_16 
REMARK    8  A    between atoms: N7_25  and  C12_26 
REMARK    9  A    between atoms: C13_32  and  N10_33 
ROOT
HETATM    1  N1  UNL     1      21.058 -30.799   9.412  1.00  0.00    -0.197 NA
HETATM    2  C1  UNL     1      20.315 -30.360  10.202  1.00  0.00     0.066 C 
HETATM    3  C2  UNL     1      19.397 -29.797  11.194  1.00  0.00     0.127 C 
HETATM    4  C3  UNL     1      18.312 -30.790  11.542  1.00  0.00     0.056 C 
HETATM    5  C4  UNL     1      18.167 -30.667  13.041  1.00  0.00     0.205 C 
HETATM    6  C5  UNL     1      18.836 -31.887  13.675  1.00  0.00     0.157 C 
HETATM    7  N2  UNL     1      20.204 -31.933  13.172  1.00  0.00    -0.362 N 
HETATM    8  C14 UNL     1      20.948 -30.760  12.818  1.00  0.00     0.158 C 
HETATM    9  C15 UNL     1      20.062 -29.572  12.530  1.00  0.00     0.221 C 
HETATM   10  N11 UNL     1      18.940 -29.516  13.435  1.00  0.00    -0.062 N 
ATOM     11 1H11 UNL     1      19.186 -29.482  14.424  1.00  0.00     0.278 HD
ATOM     12 2H11 UNL     1      18.429 -28.633  13.431  1.00  0.00     0.278 HD
ENDROOT
BRANCH   7  13
HETATM   13  C6  UNL     1      20.841 -33.211  13.022  1.00  0.00     0.136 C 
HETATM   14  S1  UNL     1      20.243 -34.512  13.815  1.00  0.00    -0.053 SA
BRANCH  13  15
HETATM   15  S2  UNL     1      22.258 -33.366  11.972  1.00  0.00    -0.100 SA
BRANCH  15  16
HETATM   16  C7  UNL     1      23.764 -32.897  12.844  1.00  0.00     0.092 C 
BRANCH  16  17
HETATM   17  C8  UNL     1      23.693 -33.312  14.271  1.00  0.00     0.091 C 
BRANCH  17  18
HETATM   18  S3  UNL     1      23.968 -35.072  14.574  1.00  0.00    -0.107 SA
BRANCH  18  19
HETATM   19  C9  UNL     1      25.665 -35.377  14.996  1.00  0.00     0.128 A 
HETATM   20  C10 UNL     1      26.772 -35.110  14.229  1.00  0.00     0.125 A 
HETATM   21  N5  UNL     1      27.820 -35.484  15.038  1.00  0.00    -0.280 N 
HETATM   22  N6  UNL     1      27.354 -35.934  16.184  1.00  0.00    -0.233 N 
ATOM     23  H5  UNL     1      28.806 -35.422  14.788  1.00  0.00     0.188 HD
HETATM   24  N7  UNL     1      26.048 -35.892  16.213  1.00  0.00    -0.211 N 
ATOM     25  H6  UNL     1      27.938 -36.271  16.950  1.00  0.00     0.209 HD
BRANCH  20  26
HETATM   26  C11 UNL     1      26.908 -34.587  12.875  1.00  0.00     0.141 C 
HETATM   27  N3  UNL     1      27.368 -33.450  12.538  1.00  0.00    -0.386 N 
ATOM     28  H32 UNL     1      27.681 -32.821  13.277  1.00  0.00     0.157 HD
ATOM     29  H31 UNL     1      27.462 -33.084  11.591  1.00  0.00     0.157 HD
HETATM   30  N4  UNL     1      26.461 -35.483  11.823  1.00  0.00    -0.081 NA
ENDBRANCH  20  26
BRANCH  24  31
HETATM   31  C12 UNL     1      25.149 -36.282  17.248  1.00  0.00     0.197 A 
HETATM   32  N8  UNL     1      24.343 -37.354  17.324  1.00  0.00    -0.220 N 
HETATM   33  O1  UNL     1      23.674 -37.353  18.436  1.00  0.00    -0.153 OA
ATOM     34  H8  UNL     1      24.268 -38.073  16.604  1.00  0.00     0.198 HD
HETATM   35  N9  UNL     1      24.014 -36.299  19.111  1.00  0.00    -0.222 N 
HETATM   36  C13 UNL     1      24.932 -35.592  18.420  1.00  0.00     0.169 A 
ATOM     37  H9  UNL     1      23.644 -36.043  20.026  1.00  0.00     0.198 HD
BRANCH  36  38
HETATM   38  N10 UNL     1      25.503 -34.483  18.776  1.00  0.00    -0.381 N 
ATOM     39 2H10 UNL     1      26.196 -34.351  19.512  1.00  0.00     0.157 HD
ATOM     40 1H10 UNL     1      25.342 -33.563  18.366  1.00  0.00     0.157 HD
ENDBRANCH  36  38
ENDBRANCH  24  31
ENDBRANCH  18  19
ENDBRANCH  17  18
ENDBRANCH  16  17
ENDBRANCH  15  16
ENDBRANCH  13  15
ENDBRANCH   7  13
TORSDOF 9
ENDMDL
MODEL 5
REMARK VINA RESULT: -6.657367806      1.598      3.696
REMARK  9 active torsions:
REMARK  status: ('A' for Active; 'I' for Inactive)
REMARK    1  A    between atoms: N2_7  and  C6_8 
REMARK    2  A    between atoms: C6_8  and  S2_10 
REMARK    3  A    between atoms: S2_10  and  C7_11 
REMARK    4  A    between atoms: C7_11  and  C8_12 
REMARK    5  A    between atoms: C8_12  and  S3_13 
REMARK    6  A    between atoms: S3_13  and  C9_14 
REMARK    7  A    between atoms: C10_15  and  C11_16 
REMARK    8  A    between atoms: N7_25  and  C12_26 
REMARK    9  A    between atoms: C13_32  and  N10_33 
ROOT
HETATM    1  N1  UNL     1      20.887 -30.460   9.051  1.00  0.00    -0.197 NA
HETATM    2  C1  UNL     1      20.301 -30.094   9.996  1.00  0.00     0.066 C 
HETATM    3  C2  UNL     1      19.581 -29.624  11.181  1.00  0.00     0.127 C 
HETATM    4  C3  UNL     1      18.559 -30.645  11.625  1.00  0.00     0.056 C 
HETATM    5  C4  UNL     1      18.680 -30.659  13.131  1.00  0.00     0.205 C 
HETATM    6  C5  UNL     1      19.432 -31.931  13.525  1.00  0.00     0.157 C 
HETATM    7  N2  UNL     1      20.689 -31.931  12.787  1.00  0.00    -0.362 N 
HETATM    8  C14 UNL     1      21.377 -30.730  12.413  1.00  0.00     0.158 C 
HETATM    9  C15 UNL     1      20.474 -29.521  12.393  1.00  0.00     0.221 C 
HETATM   10  N11 UNL     1      19.529 -29.547  13.483  1.00  0.00    -0.062 N 
ATOM     11 1H11 UNL     1      19.945 -29.603  14.413  1.00  0.00     0.278 HD
ATOM     12 2H11 UNL     1      19.038 -28.668  13.648  1.00  0.00     0.278 HD
ENDROOT
BRANCH   7  13
HETATM   13  C6  UNL     1      21.271 -33.189  12.414  1.00  0.00     0.136 C 
HETATM   14  S1  UNL     1      22.470 -33.228  11.301  1.00  0.00    -0.053 SA
BRANCH  13  15
HETATM   15  S2  UNL     1      20.694 -34.681  13.171  1.00  0.00    -0.100 SA
BRANCH  15  16
HETATM   16  C7  UNL     1      21.953 -35.969  13.104  1.00  0.00     0.092 C 
BRANCH  16  17
HETATM   17  C8  UNL     1      22.640 -36.098  14.417  1.00  0.00     0.091 C 
BRANCH  17  18
HETATM   18  S3  UNL     1      23.606 -34.657  14.924  1.00  0.00    -0.107 SA
BRANCH  18  19
HETATM   19  C9  UNL     1      25.264 -35.133  15.346  1.00  0.00     0.128 A 
HETATM   20  C10 UNL     1      25.746 -35.447  16.593  1.00  0.00     0.125 A 
HETATM   21  N5  UNL     1      27.056 -35.789  16.352  1.00  0.00    -0.280 N 
HETATM   22  N6  UNL     1      27.312 -35.681  15.066  1.00  0.00    -0.233 N 
ATOM     23  H5  UNL     1      27.726 -36.083  17.062  1.00  0.00     0.188 HD
HETATM   24  N7  UNL     1      26.256 -35.283  14.405  1.00  0.00    -0.211 N 
ATOM     25  H6  UNL     1      28.217 -35.881  14.640  1.00  0.00     0.209 HD
BRANCH  20  26
HETATM   26  C11 UNL     1      25.115 -35.427  17.907  1.00  0.00     0.141 C 
HETATM   27  N3  UNL     1      25.362 -34.621  18.860  1.00  0.00    -0.386 N 
ATOM     28  H32 UNL     1      26.072 -33.906  18.712  1.00  0.00     0.157 HD
ATOM     29  H31 UNL     1      24.921 -34.608  19.779  1.00  0.00     0.157 HD
HETATM   30  N4  UNL     1      24.103 -36.447  18.118  1.00  0.00    -0.081 NA
ENDBRANCH  20  26
BRANCH  24  31
HETATM   31  C12 UNL     1      26.096 -35.037  13.010  1.00  0.00     0.197 A 
HETATM   32  N8  UNL     1      25.544 -35.811  12.062  1.00  0.00    -0.220 N 
HETATM   33  O1  UNL     1      25.591 -35.227  10.903  1.00  0.00    -0.153 OA
ATOM     34  H8  UNL     1      25.143 -36.734  12.229  1.00  0.00     0.198 HD
HETATM   35  N9  UNL     1      26.163 -34.074  11.054  1.00  0.00    -0.222 N 
HETATM   36  C13 UNL     1      26.501 -33.899  12.348  1.00  0.00     0.169 A 
ATOM     37  H9  UNL     1      26.333 -33.401  10.307  1.00  0.00     0.198 HD
BRANCH  36  38
HETATM   38  N10 UNL     1      27.089 -32.871  12.876  1.00  0.00    -0.381 N 
ATOM     39 2H10 UNL     1      27.475 -32.793  13.817  1.00  0.00     0.157 HD
ATOM     40 1H10 UNL     1      27.257 -31.972  12.423  1.00  0.00     0.157 HD
ENDBRANCH  36  38
ENDBRANCH  24  31
ENDBRANCH  18  19
ENDBRANCH  17  18
ENDBRANCH  16  17
ENDBRANCH  15  16
ENDBRANCH  13  15
ENDBRANCH   7  13
TORSDOF 9
ENDMDL
