MODEL 1
REMARK VINA RESULT: -7.951791811      0.000      0.000
REMARK  9 active torsions:
REMARK  status: ('A' for Active; 'I' for Inactive)
REMARK    1  A    between atoms: N2_9  and  C6_10 
REMARK    2  A    between atoms: C6_10  and  C7_11 
REMARK    3  A    between atoms: C7_11  and  C8_12 
REMARK    4  A    between atoms: C8_12  and  C9_13 
REMARK    5  A    between atoms: C9_13  and  C10_14 
REMARK    6  A    between atoms: C10_14  and  C11_15 
REMARK    7  A    between atoms: C11_15  and  C12_16 
REMARK       I    between atoms: N5_22  and  C14_24 
REMARK       I    between atoms: C14_24  and  N7_29 
REMARK    8  A    between atoms: N6_25  and  O2_27 
REMARK    9  A    between atoms: N7_29  and  N8_31 
ROOT
HETATM    1  C10 UNL     1      20.685 -29.961  13.361  1.00  0.00     0.006 C 
ENDROOT
BRANCH   1   2
HETATM    2  C9  UNL     1      21.488 -29.528  12.174  1.00  0.00     0.000 C 
BRANCH   2   3
HETATM    3  C8  UNL     1      20.728 -29.511  10.895  1.00  0.00     0.002 C 
BRANCH   3   4
HETATM    4  C7  UNL     1      21.114 -30.552   9.896  1.00  0.00     0.020 C 
BRANCH   4   5
HETATM    5  C6  UNL     1      20.672 -30.152   8.500  1.00  0.00     0.133 C 
BRANCH   5   6
HETATM    6  N2  UNL     1      21.800 -30.001   7.613  1.00  0.00    -0.303 N 
HETATM    7  C2  UNL     1      22.280 -31.013   6.892  1.00  0.00     0.083 A 
HETATM    8  C1  UNL     1      21.656 -32.353   6.953  1.00  0.00     0.089 C 
HETATM    9  N1  UNL     1      23.357 -30.854   6.064  1.00  0.00    -0.331 N 
HETATM   10  C3  UNL     1      23.958 -29.671   5.956  1.00  0.00     0.122 A 
ATOM     11  H1  UNL     1      23.702 -31.648   5.525  1.00  0.00     0.168 HD
HETATM   12  C4  UNL     1      23.502 -28.601   6.676  1.00  0.00     0.072 A 
HETATM   13  N11 UNL     1      25.094 -29.510   5.079  1.00  0.00    -0.316 N 
HETATM   14  C5  UNL     1      22.417 -28.797   7.500  1.00  0.00     0.260 A 
HETATM   15  C16 UNL     1      24.127 -27.279   6.594  1.00  0.00     0.170 A 
HETATM   16  O1  UNL     1      21.933 -27.855   8.201  1.00  0.00    -0.267 OA
HETATM   17  N9  UNL     1      25.245 -27.225   5.697  1.00  0.00    -0.360 N 
HETATM   18  C17 UNL     1      25.684 -28.224   5.014  1.00  0.00     0.190 A 
ATOM     19  H9  UNL     1      25.726 -26.331   5.593  1.00  0.00     0.162 HD
HETATM   20  N10 UNL     1      26.806 -27.990   4.172  1.00  0.00    -0.063 NA
ATOM     21  H11 UNL     1      25.456 -30.290   4.529  1.00  0.00     0.170 HD
ENDBRANCH   5   6
ENDBRANCH   4   5
ENDBRANCH   3   4
ENDBRANCH   2   3
ENDBRANCH   1   2
BRANCH   1  22
HETATM   22  C11 UNL     1      20.102 -31.347  13.189  1.00  0.00     0.066 C 
BRANCH  22  23
HETATM   23  C12 UNL     1      18.610 -31.150  13.159  1.00  0.00     0.069 A 
HETATM   24  N3  UNL     1      17.648 -32.058  13.184  1.00  0.00    -0.296 N 
HETATM   25  N4  UNL     1      16.430 -31.706  13.152  1.00  0.00    -0.279 N 
ATOM     26  H3  UNL     1      17.887 -33.049  13.230  1.00  0.00     0.187 HD
HETATM   27  C13 UNL     1      16.138 -30.403  13.093  1.00  0.00     0.180 A 
ATOM     28  H4  UNL     1      15.687 -32.405  13.171  1.00  0.00     0.189 HD
HETATM   29  N5  UNL     1      14.990 -29.790  13.051  1.00  0.00    -0.166 N 
HETATM   30  S1  UNL     1      17.691 -29.699  13.085  1.00  0.00    -0.037 SA
HETATM   31  C14 UNL     1      13.798 -30.528  13.065  1.00  0.00     0.719 C 
ATOM     32  H5  UNL     1      14.958 -28.771  13.008  1.00  0.00     0.186 HD
HETATM   33  N6  UNL     1      12.950 -30.395  14.023  1.00  0.00    -0.097 N 
HETATM   34  N7  UNL     1      13.548 -31.427  11.994  1.00  0.00    -0.133 N 
ATOM     35  H6  UNL     1      12.095 -30.950  13.997  1.00  0.00     0.213 HD
HETATM   36  C15 UNL     1      12.625 -32.517  12.243  1.00  0.00     0.197 C 
BRANCH  33  37
HETATM   37  O2  UNL     1      13.145 -29.546  15.071  1.00  0.00    -0.276 OA
ATOM     38  H2  UNL     1      13.784 -29.709  15.755  1.00  0.00     0.245 HD
ENDBRANCH  33  37
BRANCH  34  39
HETATM   39  N8  UNL     1      14.172 -31.271  10.731  1.00  0.00    -0.329 N 
ATOM     40  H82 UNL     1      14.075 -30.406  10.200  1.00  0.00     0.177 HD
ATOM     41  H81 UNL     1      14.733 -32.015  10.316  1.00  0.00     0.177 HD
ENDBRANCH  34  39
ENDBRANCH  22  23
ENDBRANCH   1  22
TORSDOF 9
ENDMDL
MODEL 2
REMARK VINA RESULT: -7.303623958      0.971      1.086
REMARK  9 active torsions:
REMARK  status: ('A' for Active; 'I' for Inactive)
REMARK    1  A    between atoms: N2_9  and  C6_10 
REMARK    2  A    between atoms: C6_10  and  C7_11 
REMARK    3  A    between atoms: C7_11  and  C8_12 
REMARK    4  A    between atoms: C8_12  and  C9_13 
REMARK    5  A    between atoms: C9_13  and  C10_14 
REMARK    6  A    between atoms: C10_14  and  C11_15 
REMARK    7  A    between atoms: C11_15  and  C12_16 
REMARK       I    between atoms: N5_22  and  C14_24 
REMARK       I    between atoms: C14_24  and  N7_29 
REMARK    8  A    between atoms: N6_25  and  O2_27 
REMARK    9  A    between atoms: N7_29  and  N8_31 
ROOT
HETATM    1  C10 UNL     1      20.691 -29.777  12.710  1.00  0.00     0.006 C 
ENDROOT
BRANCH   1   2
HETATM    2  C9  UNL     1      21.301 -29.554  11.361  1.00  0.00     0.000 C 
BRANCH   2   3
HETATM    3  C8  UNL     1      20.428 -29.950  10.222  1.00  0.00     0.002 C 
BRANCH   3   4
HETATM    4  C7  UNL     1      21.005 -30.957   9.282  1.00  0.00     0.020 C 
BRANCH   4   5
HETATM    5  C6  UNL     1      20.770 -30.544   7.839  1.00  0.00     0.133 C 
BRANCH   5   6
HETATM    6  N2  UNL     1      21.948 -30.754   7.033  1.00  0.00    -0.303 N 
HETATM    7  C2  UNL     1      22.255 -31.942   6.516  1.00  0.00     0.083 A 
HETATM    8  C1  UNL     1      21.378 -33.114   6.729  1.00  0.00     0.089 C 
HETATM    9  N1  UNL     1      23.382 -32.124   5.762  1.00  0.00    -0.331 N 
HETATM   10  C3  UNL     1      24.209 -31.107   5.524  1.00  0.00     0.122 A 
ATOM     11  H1  UNL     1      23.591 -33.046   5.380  1.00  0.00     0.168 HD
HETATM   12  C4  UNL     1      23.937 -29.868   6.035  1.00  0.00     0.072 A 
HETATM   13  N11 UNL     1      25.397 -31.307   4.727  1.00  0.00    -0.316 N 
HETATM   14  C5  UNL     1      22.795 -29.721   6.789  1.00  0.00     0.260 A 
HETATM   15  C16 UNL     1      24.813 -28.717   5.803  1.00  0.00     0.170 A 
HETATM   16  O1  UNL     1      22.471 -28.603   7.297  1.00  0.00    -0.267 OA
HETATM   17  N9  UNL     1      25.962 -29.020   5.001  1.00  0.00    -0.360 N 
HETATM   18  C17 UNL     1      26.230 -30.182   4.515  1.00  0.00     0.190 A 
ATOM     19  H9  UNL     1      26.614 -28.261   4.802  1.00  0.00     0.162 HD
HETATM   20  N10 UNL     1      27.417 -30.302   3.741  1.00  0.00    -0.063 NA
ATOM     21  H11 UNL     1      25.626 -32.220   4.333  1.00  0.00     0.170 HD
ENDBRANCH   5   6
ENDBRANCH   4   5
ENDBRANCH   3   4
ENDBRANCH   2   3
ENDBRANCH   1   2
BRANCH   1  22
HETATM   22  C11 UNL     1      20.148 -31.181  12.873  1.00  0.00     0.066 C 
BRANCH  22  23
HETATM   23  C12 UNL     1      18.653 -31.025  12.926  1.00  0.00     0.069 A 
HETATM   24  N3  UNL     1      17.718 -31.959  13.011  1.00  0.00    -0.296 N 
HETATM   25  N4  UNL     1      16.492 -31.640  13.045  1.00  0.00    -0.279 N 
ATOM     26  H3  UNL     1      17.987 -32.942  13.048  1.00  0.00     0.187 HD
HETATM   27  C13 UNL     1      16.160 -30.346  12.996  1.00  0.00     0.180 A 
ATOM     28  H4  UNL     1      15.770 -32.358  13.110  1.00  0.00     0.189 HD
HETATM   29  N5  UNL     1      14.995 -29.764  13.015  1.00  0.00    -0.166 N 
HETATM   30  S1  UNL     1      17.691 -29.599  12.895  1.00  0.00    -0.037 SA
HETATM   31  C14 UNL     1      13.827 -30.534  13.101  1.00  0.00     0.719 C 
ATOM     32  H5  UNL     1      14.934 -28.747  12.968  1.00  0.00     0.186 HD
HETATM   33  N6  UNL     1      13.032 -30.418  14.104  1.00  0.00    -0.097 N 
HETATM   34  N7  UNL     1      13.542 -31.448  12.051  1.00  0.00    -0.133 N 
ATOM     35  H6  UNL     1      12.191 -30.996  14.131  1.00  0.00     0.213 HD
HETATM   36  C15 UNL     1      12.665 -32.561  12.358  1.00  0.00     0.197 C 
BRANCH  33  37
HETATM   37  O2  UNL     1      13.262 -29.556  15.134  1.00  0.00    -0.276 OA
ATOM     38  H2  UNL     1      13.018 -29.749  16.032  1.00  0.00     0.245 HD
ENDBRANCH  33  37
BRANCH  34  39
HETATM   39  N8  UNL     1      14.089 -31.284  10.754  1.00  0.00    -0.329 N 
ATOM     40  H82 UNL     1      13.516 -31.418   9.921  1.00  0.00     0.177 HD
ATOM     41  H81 UNL     1      15.067 -31.030  10.613  1.00  0.00     0.177 HD
ENDBRANCH  34  39
ENDBRANCH  22  23
ENDBRANCH   1  22
TORSDOF 9
ENDMDL
MODEL 3
REMARK VINA RESULT: -7.196618391      4.365      6.542
REMARK  9 active torsions:
REMARK  status: ('A' for Active; 'I' for Inactive)
REMARK    1  A    between atoms: N2_9  and  C6_10 
REMARK    2  A    between atoms: C6_10  and  C7_11 
REMARK    3  A    between atoms: C7_11  and  C8_12 
REMARK    4  A    between atoms: C8_12  and  C9_13 
REMARK    5  A    between atoms: C9_13  and  C10_14 
REMARK    6  A    between atoms: C10_14  and  C11_15 
REMARK    7  A    between atoms: C11_15  and  C12_16 
REMARK       I    between atoms: N5_22  and  C14_24 
REMARK       I    between atoms: C14_24  and  N7_29 
REMARK    8  A    between atoms: N6_25  and  O2_27 
REMARK    9  A    between atoms: N7_29  and  N8_31 
ROOT
HETATM    1  C10 UNL     1      19.570 -30.766  13.055  1.00  0.00     0.006 C 
ENDROOT
BRANCH   1   2
HETATM    2  C9  UNL     1      19.235 -30.713  11.597  1.00  0.00     0.000 C 
BRANCH   2   3
HETATM    3  C8  UNL     1      20.290 -30.094  10.750  1.00  0.00     0.002 C 
BRANCH   3   4
HETATM    4  C7  UNL     1      20.977 -31.014   9.794  1.00  0.00     0.020 C 
BRANCH   4   5
HETATM    5  C6  UNL     1      20.571 -30.707   8.363  1.00  0.00     0.133 C 
BRANCH   5   6
HETATM    6  N2  UNL     1      21.718 -30.389   7.548  1.00  0.00    -0.303 N 
HETATM    7  C2  UNL     1      22.349 -31.306   6.817  1.00  0.00     0.083 A 
HETATM    8  C1  UNL     1      21.883 -32.710   6.790  1.00  0.00     0.089 C 
HETATM    9  N1  UNL     1      23.441 -30.988   6.057  1.00  0.00    -0.331 N 
HETATM   10  C3  UNL     1      23.906 -29.740   6.029  1.00  0.00     0.122 A 
ATOM     11  H1  UNL     1      23.904 -31.713   5.509  1.00  0.00     0.168 HD
HETATM   12  C4  UNL     1      23.291 -28.763   6.763  1.00  0.00     0.072 A 
HETATM   13  N11 UNL     1      25.059 -29.412   5.224  1.00  0.00    -0.316 N 
HETATM   14  C5  UNL     1      22.196 -29.119   7.517  1.00  0.00     0.260 A 
HETATM   15  C16 UNL     1      23.762 -27.376   6.767  1.00  0.00     0.170 A 
HETATM   16  O1  UNL     1      21.570 -28.270   8.225  1.00  0.00    -0.267 OA
HETATM   17  N9  UNL     1      24.910 -27.154   5.938  1.00  0.00    -0.360 N 
HETATM   18  C17 UNL     1      25.498 -28.065   5.242  1.00  0.00     0.190 A 
ATOM     19  H9  UNL     1      25.289 -26.208   5.895  1.00  0.00     0.162 HD
HETATM   20  N10 UNL     1      26.627 -27.667   4.475  1.00  0.00    -0.063 NA
ATOM     21  H11 UNL     1      25.537 -30.119   4.666  1.00  0.00     0.170 HD
ENDBRANCH   5   6
ENDBRANCH   4   5
ENDBRANCH   3   4
ENDBRANCH   2   3
ENDBRANCH   1   2
BRANCH   1  22
HETATM   22  C11 UNL     1      19.510 -32.173  13.610  1.00  0.00     0.066 C 
BRANCH  22  23
HETATM   23  C12 UNL     1      20.926 -32.681  13.561  1.00  0.00     0.069 A 
HETATM   24  N3  UNL     1      22.041 -32.020  13.293  1.00  0.00    -0.296 N 
HETATM   25  N4  UNL     1      23.159 -32.618  13.297  1.00  0.00    -0.279 N 
ATOM     26  H3  UNL     1      22.001 -31.023  13.080  1.00  0.00     0.187 HD
HETATM   27  C13 UNL     1      23.191 -33.924  13.578  1.00  0.00     0.180 A 
ATOM     28  H4  UNL     1      24.020 -32.110  13.090  1.00  0.00     0.189 HD
HETATM   29  N5  UNL     1      24.191 -34.756  13.647  1.00  0.00    -0.166 N 
HETATM   30  S1  UNL     1      21.540 -34.264  13.836  1.00  0.00    -0.037 SA
HETATM   31  C14 UNL     1      25.496 -34.307  13.403  1.00  0.00     0.719 C 
ATOM     32  H5  UNL     1      24.023 -35.734  13.879  1.00  0.00     0.186 HD
HETATM   33  N6  UNL     1      26.397 -34.367  14.318  1.00  0.00    -0.097 N 
HETATM   34  N7  UNL     1      25.801 -33.783  12.117  1.00  0.00    -0.133 N 
ATOM     35  H6  UNL     1      27.336 -34.030  14.102  1.00  0.00     0.213 HD
HETATM   36  C15 UNL     1      26.935 -32.885  12.017  1.00  0.00     0.197 C 
BRANCH  33  37
HETATM   37  O2  UNL     1      26.154 -34.861  15.564  1.00  0.00    -0.276 OA
ATOM     38  H2  UNL     1      26.100 -34.310  16.336  1.00  0.00     0.245 HD
ENDBRANCH  33  37
BRANCH  34  39
HETATM   39  N8  UNL     1      25.032 -34.120  10.976  1.00  0.00    -0.329 N 
ATOM     40  H82 UNL     1      24.039 -33.893  10.925  1.00  0.00     0.177 HD
ATOM     41  H81 UNL     1      25.445 -34.597  10.174  1.00  0.00     0.177 HD
ENDBRANCH  34  39
ENDBRANCH  22  23
ENDBRANCH   1  22
TORSDOF 9
ENDMDL
MODEL 4
REMARK VINA RESULT: -7.106031149      4.170      4.952
REMARK  9 active torsions:
REMARK  status: ('A' for Active; 'I' for Inactive)
REMARK    1  A    between atoms: N2_9  and  C6_10 
REMARK    2  A    between atoms: C6_10  and  C7_11 
REMARK    3  A    between atoms: C7_11  and  C8_12 
REMARK    4  A    between atoms: C8_12  and  C9_13 
REMARK    5  A    between atoms: C9_13  and  C10_14 
REMARK    6  A    between atoms: C10_14  and  C11_15 
REMARK    7  A    between atoms: C11_15  and  C12_16 
REMARK       I    between atoms: N5_22  and  C14_24 
REMARK       I    between atoms: C14_24  and  N7_29 
REMARK    8  A    between atoms: N6_25  and  O2_27 
REMARK    9  A    between atoms: N7_29  and  N8_31 
ROOT
HETATM    1  C10 UNL     1      21.422 -29.689  12.554  1.00  0.00     0.006 C 
ENDROOT
BRANCH   1   2
HETATM    2  C9  UNL     1      20.430 -29.259  11.518  1.00  0.00     0.000 C 
BRANCH   2   3
HETATM    3  C8  UNL     1      19.959 -30.357  10.630  1.00  0.00     0.002 C 
BRANCH   3   4
HETATM    4  C7  UNL     1      20.994 -30.958   9.737  1.00  0.00     0.020 C 
BRANCH   4   5
HETATM    5  C6  UNL     1      20.616 -30.781   8.277  1.00  0.00     0.133 C 
BRANCH   5   6
HETATM    6  N2  UNL     1      21.763 -30.433   7.475  1.00  0.00    -0.303 N 
HETATM    7  C2  UNL     1      22.409 -31.327   6.730  1.00  0.00     0.083 A 
HETATM    8  C1  UNL     1      21.961 -32.736   6.673  1.00  0.00     0.089 C 
HETATM    9  N1  UNL     1      23.502 -30.980   5.983  1.00  0.00    -0.331 N 
HETATM   10  C3  UNL     1      23.951 -29.727   5.982  1.00  0.00     0.122 A 
ATOM     11  H1  UNL     1      23.977 -31.688   5.423  1.00  0.00     0.168 HD
HETATM   12  C4  UNL     1      23.320 -28.772   6.731  1.00  0.00     0.072 A 
HETATM   13  N11 UNL     1      25.104 -29.368   5.191  1.00  0.00    -0.316 N 
HETATM   14  C5  UNL     1      22.225 -29.156   7.471  1.00  0.00     0.260 A 
HETATM   15  C16 UNL     1      23.774 -27.379   6.766  1.00  0.00     0.170 A 
HETATM   16  O1  UNL     1      21.584 -28.329   8.192  1.00  0.00    -0.267 OA
HETATM   17  N9  UNL     1      24.924 -27.127   5.948  1.00  0.00    -0.360 N 
HETATM   18  C17 UNL     1      25.526 -28.017   5.238  1.00  0.00     0.190 A 
ATOM     19  H9  UNL     1      25.291 -26.175   5.926  1.00  0.00     0.162 HD
HETATM   20  N10 UNL     1      26.655 -27.590   4.485  1.00  0.00    -0.063 NA
ATOM     21  H11 UNL     1      25.595 -30.059   4.621  1.00  0.00     0.170 HD
ENDBRANCH   5   6
ENDBRANCH   4   5
ENDBRANCH   3   4
ENDBRANCH   2   3
ENDBRANCH   1   2
BRANCH   1  22
HETATM   22  C11 UNL     1      20.758 -30.119  13.844  1.00  0.00     0.066 C 
BRANCH  22  23
HETATM   23  C12 UNL     1      20.756 -31.623  13.809  1.00  0.00     0.069 A 
HETATM   24  N3  UNL     1      21.781 -32.460  13.818  1.00  0.00    -0.296 N 
HETATM   25  N4  UNL     1      21.588 -33.713  13.784  1.00  0.00    -0.279 N 
ATOM     26  H3  UNL     1      22.733 -32.095  13.854  1.00  0.00     0.187 HD
HETATM   27  C13 UNL     1      20.333 -34.172  13.738  1.00  0.00     0.180 A 
ATOM     28  H4  UNL     1      22.377 -34.360  13.791  1.00  0.00     0.189 HD
HETATM   29  N5  UNL     1      19.873 -35.389  13.697  1.00  0.00    -0.166 N 
HETATM   30  S1  UNL     1      19.434 -32.722  13.746  1.00  0.00    -0.037 SA
HETATM   31  C14 UNL     1      20.759 -36.475  13.697  1.00  0.00     0.719 C 
ATOM     32  H5  UNL     1      18.867 -35.551  13.666  1.00  0.00     0.186 HD
HETATM   33  N6  UNL     1      20.748 -37.337  14.652  1.00  0.00    -0.097 N 
HETATM   34  N7  UNL     1      21.670 -36.603  12.614  1.00  0.00    -0.133 N 
ATOM     35  H6  UNL     1      21.408 -38.113  14.615  1.00  0.00     0.213 HD
HETATM   36  C15 UNL     1      22.873 -37.378  12.846  1.00  0.00     0.197 C 
BRANCH  33  37
HETATM   37  O2  UNL     1      19.894 -37.257  15.710  1.00  0.00    -0.276 OA
ATOM     38  H2  UNL     1      19.550 -38.023  16.154  1.00  0.00     0.245 HD
ENDBRANCH  33  37
BRANCH  34  39
HETATM   39  N8  UNL     1      21.420 -36.000  11.356  1.00  0.00    -0.329 N 
ATOM     40  H82 UNL     1      20.468 -35.871  11.015  1.00  0.00     0.177 HD
ATOM     41  H81 UNL     1      22.180 -35.678  10.756  1.00  0.00     0.177 HD
ENDBRANCH  34  39
ENDBRANCH  22  23
ENDBRANCH   1  22
TORSDOF 9
ENDMDL
MODEL 5
REMARK VINA RESULT: -7.046795448      6.533     10.177
REMARK  9 active torsions:
REMARK  status: ('A' for Active; 'I' for Inactive)
REMARK    1  A    between atoms: N2_9  and  C6_10 
REMARK    2  A    between atoms: C6_10  and  C7_11 
REMARK    3  A    between atoms: C7_11  and  C8_12 
REMARK    4  A    between atoms: C8_12  and  C9_13 
REMARK    5  A    between atoms: C9_13  and  C10_14 
REMARK    6  A    between atoms: C10_14  and  C11_15 
REMARK    7  A    between atoms: C11_15  and  C12_16 
REMARK       I    between atoms: N5_22  and  C14_24 
REMARK       I    between atoms: C14_24  and  N7_29 
REMARK    8  A    between atoms: N6_25  and  O2_27 
REMARK    9  A    between atoms: N7_29  and  N8_31 
ROOT
HETATM    1  C10 UNL     1      20.084 -34.466  13.749  1.00  0.00     0.006 C 
ENDROOT
BRANCH   1   2
HETATM    2  C9  UNL     1      21.030 -34.708  12.615  1.00  0.00     0.000 C 
BRANCH   2   3
HETATM    3  C8  UNL     1      21.764 -36.001  12.697  1.00  0.00     0.002 C 
BRANCH   3   4
HETATM    4  C7  UNL     1      22.238 -36.392  14.058  1.00  0.00     0.020 C 
BRANCH   4   5
HETATM    5  C6  UNL     1      23.755 -36.376  14.127  1.00  0.00     0.133 C 
BRANCH   5   6
HETATM    6  N2  UNL     1      24.221 -35.735  15.332  1.00  0.00    -0.303 N 
HETATM    7  C2  UNL     1      24.445 -34.424  15.402  1.00  0.00     0.083 A 
HETATM    8  C1  UNL     1      24.203 -33.548  14.235  1.00  0.00     0.089 C 
HETATM    9  N1  UNL     1      24.897 -33.836  16.551  1.00  0.00    -0.331 N 
HETATM   10  C3  UNL     1      25.126 -34.567  17.641  1.00  0.00     0.122 A 
ATOM     11  H1  UNL     1      25.060 -32.829  16.573  1.00  0.00     0.168 HD
HETATM   12  C4  UNL     1      24.911 -35.917  17.618  1.00  0.00     0.072 A 
HETATM   13  N11 UNL     1      25.602 -33.938  18.850  1.00  0.00    -0.316 N 
HETATM   14  C5  UNL     1      24.457 -36.476  16.445  1.00  0.00     0.260 A 
HETATM   15  C16 UNL     1      25.147 -36.766  18.789  1.00  0.00     0.170 A 
HETATM   16  O1  UNL     1      24.232 -37.722  16.344  1.00  0.00    -0.267 OA
HETATM   17  N9  UNL     1      25.617 -36.047  19.937  1.00  0.00    -0.360 N 
HETATM   18  C17 UNL     1      25.824 -34.776  19.970  1.00  0.00     0.190 A 
ATOM     19  H9  UNL     1      25.801 -36.580  20.787  1.00  0.00     0.162 HD
HETATM   20  N10 UNL     1      26.293 -34.228  21.196  1.00  0.00    -0.063 NA
ATOM     21  H11 UNL     1      25.771 -32.933  18.897  1.00  0.00     0.170 HD
ENDBRANCH   5   6
ENDBRANCH   4   5
ENDBRANCH   3   4
ENDBRANCH   2   3
ENDBRANCH   1   2
BRANCH   1  22
HETATM   22  C11 UNL     1      20.447 -33.233  14.549  1.00  0.00     0.066 C 
BRANCH  22  23
HETATM   23  C12 UNL     1      20.531 -32.117  13.543  1.00  0.00     0.069 A 
HETATM   24  N3  UNL     1      21.547 -31.314  13.270  1.00  0.00    -0.296 N 
HETATM   25  N4  UNL     1      21.438 -30.418  12.380  1.00  0.00    -0.279 N 
ATOM     26  H3  UNL     1      22.425 -31.416  13.780  1.00  0.00     0.187 HD
HETATM   27  C13 UNL     1      20.280 -30.300  11.722  1.00  0.00     0.180 A 
ATOM     28  H4  UNL     1      22.220 -29.798  12.168  1.00  0.00     0.189 HD
HETATM   29  N5  UNL     1      19.916 -29.479  10.780  1.00  0.00    -0.166 N 
HETATM   30  S1  UNL     1      19.347 -31.535  12.440  1.00  0.00    -0.037 SA
HETATM   31  C14 UNL     1      20.815 -28.515  10.302  1.00  0.00     0.719 C 
ATOM     32  H5  UNL     1      18.975 -29.537  10.390  1.00  0.00     0.186 HD
HETATM   33  N6  UNL     1      21.196 -28.520   9.074  1.00  0.00    -0.097 N 
HETATM   34  N7  UNL     1      21.295 -27.532  11.208  1.00  0.00    -0.133 N 
ATOM     35  H6  UNL     1      21.852 -27.802   8.764  1.00  0.00     0.213 HD
HETATM   36  C15 UNL     1      22.552 -26.885  10.883  1.00  0.00     0.197 C 
BRANCH  33  37
HETATM   37  O2  UNL     1      20.764 -29.442   8.169  1.00  0.00    -0.276 OA
ATOM     38  H2  UNL     1      20.503 -29.213   7.284  1.00  0.00     0.245 HD
ENDBRANCH  33  37
BRANCH  34  39
HETATM   39  N8  UNL     1      20.581 -27.191  12.383  1.00  0.00    -0.329 N 
ATOM     40  H82 UNL     1      19.611 -26.879  12.337  1.00  0.00     0.177 HD
ATOM     41  H81 UNL     1      21.012 -27.246  13.306  1.00  0.00     0.177 HD
ENDBRANCH  34  39
ENDBRANCH  22  23
ENDBRANCH   1  22
TORSDOF 9
ENDMDL
