MODEL 1
REMARK VINA RESULT: -7.745066248      0.000      0.000
REMARK  8 active torsions:
REMARK  status: ('A' for Active; 'I' for Inactive)
REMARK    1  A    between atoms: C2_2  and  O1_3 
REMARK    2  A    between atoms: O1_3  and  C3_4 
REMARK    3  A    between atoms: C6_7  and  N1_8 
REMARK    4  A    between atoms: N1_8  and  C7_10 
REMARK    5  A    between atoms: C7_10  and  C9_12 
REMARK    6  A    between atoms: C12_18  and  N3_19 
REMARK    7  A    between atoms: C18_32  and  C19_33 
REMARK    8  A    between atoms: C20_37  and  N8_38 
ROOT
HETATM    1  N1  UNL     1      22.738 -27.691   7.104  1.00  0.00    -0.367 N 
ATOM      2  H1  UNL     1      22.123 -27.401   6.345  1.00  0.00     0.161 HD
ENDROOT
BRANCH   1   3
HETATM    3  C6  UNL     1      22.234 -27.783   8.411  1.00  0.00     0.102 A 
HETATM    4  C5  UNL     1      21.516 -28.850   8.867  1.00  0.00     0.051 A 
HETATM    5  C4  UNL     1      21.042 -28.914  10.161  1.00  0.00     0.043 A 
HETATM    6  C3  UNL     1      21.311 -27.853  11.019  1.00  0.00     0.099 A 
HETATM    7  C18 UNL     1      22.034 -26.778  10.557  1.00  0.00     0.112 A 
HETATM    8  N6  UNL     1      22.467 -26.775   9.291  1.00  0.00    -0.337 N 
ATOM      9  H6  UNL     1      23.002 -25.970   8.968  1.00  0.00     0.167 HD
BRANCH   6  10
HETATM   10  O1  UNL     1      20.860 -27.863  12.320  1.00  0.00    -0.349 OA
BRANCH  10  11
HETATM   11  C2  UNL     1      20.059 -28.835  12.894  1.00  0.00     0.171 C 
HETATM   12  C1  UNL     1      20.821 -29.900  13.653  1.00  0.00     0.034 C 
ENDBRANCH  10  11
ENDBRANCH   6  10
BRANCH   7  13
HETATM   13  C19 UNL     1      22.324 -25.636  11.475  1.00  0.00     0.143 A 
HETATM   14  N7  UNL     1      23.591 -25.263  11.681  1.00  0.00    -0.308 N 
HETATM   15  S1  UNL     1      23.464 -23.980  12.747  1.00  0.00     0.024 SA
ATOM     16  H7  UNL     1      24.437 -25.667  11.281  1.00  0.00     0.176 HD
HETATM   17  C20 UNL     1      21.771 -23.960  12.899  1.00  0.00     0.160 A 
HETATM   18  N9  UNL     1      21.387 -24.957  12.109  1.00  0.00    -0.320 N 
ATOM     19  H9  UNL     1      20.400 -25.190  11.997  1.00  0.00     0.169 HD
BRANCH  17  20
HETATM   20  N8  UNL     1      20.999 -23.167  13.614  1.00  0.00    -0.379 N 
ATOM     21  H82 UNL     1      20.705 -22.219  13.381  1.00  0.00     0.158 HD
ATOM     22  H81 UNL     1      20.552 -23.332  14.515  1.00  0.00     0.158 HD
ENDBRANCH  17  20
ENDBRANCH   7  13
ENDBRANCH   1   3
BRANCH   1  23
HETATM   23  C7  UNL     1      24.108 -28.000   6.827  1.00  0.00     0.130 C 
HETATM   24  C8  UNL     1      24.834 -26.934   6.039  1.00  0.00     0.039 C 
BRANCH  23  25
HETATM   25  C9  UNL     1      24.239 -29.329   6.140  1.00  0.00     0.054 A 
HETATM   26  C10 UNL     1      25.466 -29.732   5.655  1.00  0.00     0.102 A 
HETATM   27  C11 UNL     1      25.599 -30.957   5.018  1.00  0.00     0.261 A 
HETATM   28  O2  UNL     1      26.740 -31.276   4.594  1.00  0.00    -0.268 OA
HETATM   29  N2  UNL     1      24.511 -31.720   4.895  1.00  0.00    -0.156 N 
HETATM   30  C12 UNL     1      23.297 -31.347   5.363  1.00  0.00     0.683 A 
ATOM     31  H2  UNL     1      24.598 -32.623   4.428  1.00  0.00     0.187 HD
HETATM   32  N5  UNL     1      23.198 -30.156   5.975  1.00  0.00    -0.193 N 
ATOM     33  H5  UNL     1      22.287 -29.866   6.331  1.00  0.00     0.184 HD
BRANCH  30  34
HETATM   34  N3  UNL     1      22.189 -32.223   5.190  1.00  0.00    -0.216 N 
HETATM   35  C13 UNL     1      20.945 -31.671   5.730  1.00  0.00     0.143 C 
HETATM   36  C14 UNL     1      19.904 -32.738   5.667  1.00  0.00     0.048 C 
HETATM   37  C15 UNL     1      19.483 -33.090   4.279  1.00  0.00     0.234 C 
HETATM   38  N4  UNL     1      20.445 -32.811   3.266  1.00  0.00    -0.074 N 
HETATM   39  C16 UNL     1      21.599 -33.672   3.301  1.00  0.00     0.252 C 
ATOM     40  H42 UNL     1      20.010 -32.832   2.343  1.00  0.00     0.277 HD
ATOM     41  H41 UNL     1      20.729 -31.832   3.301  1.00  0.00     0.277 HD
HETATM   42  C17 UNL     1      22.440 -33.467   4.538  1.00  0.00     0.168 C 
ENDBRANCH  30  34
ENDBRANCH  23  25
ENDBRANCH   1  23
TORSDOF 8
ENDMDL
MODEL 2
REMARK VINA RESULT: -7.642107311      7.334     10.103
REMARK  8 active torsions:
REMARK  status: ('A' for Active; 'I' for Inactive)
REMARK    1  A    between atoms: C2_2  and  O1_3 
REMARK    2  A    between atoms: O1_3  and  C3_4 
REMARK    3  A    between atoms: C6_7  and  N1_8 
REMARK    4  A    between atoms: N1_8  and  C7_10 
REMARK    5  A    between atoms: C7_10  and  C9_12 
REMARK    6  A    between atoms: C12_18  and  N3_19 
REMARK    7  A    between atoms: C18_32  and  C19_33 
REMARK    8  A    between atoms: C20_37  and  N8_38 
ROOT
HETATM    1  N1  UNL     1      21.061 -33.881  14.630  1.00  0.00    -0.367 N 
ATOM      2  H1  UNL     1      20.759 -34.150  15.566  1.00  0.00     0.161 HD
ENDROOT
BRANCH   1   3
HETATM    3  C6  UNL     1      20.719 -32.618  14.124  1.00  0.00     0.102 A 
HETATM    4  C5  UNL     1      21.632 -31.638  13.867  1.00  0.00     0.051 A 
HETATM    5  C4  UNL     1      21.264 -30.408  13.361  1.00  0.00     0.043 A 
HETATM    6  C3  UNL     1      19.916 -30.172  13.109  1.00  0.00     0.099 A 
HETATM    7  C18 UNL     1      18.997 -31.161  13.370  1.00  0.00     0.112 A 
HETATM    8  N6  UNL     1      19.417 -32.332  13.860  1.00  0.00    -0.337 N 
ATOM      9  H6  UNL     1      18.720 -33.053  14.046  1.00  0.00     0.167 HD
BRANCH   6  10
HETATM   10  O1  UNL     1      19.492 -28.962  12.606  1.00  0.00    -0.349 OA
BRANCH  10  11
HETATM   11  C2  UNL     1      20.288 -27.853  12.380  1.00  0.00     0.171 C 
HETATM   12  C1  UNL     1      21.330 -28.046  11.299  1.00  0.00     0.034 C 
ENDBRANCH  10  11
ENDBRANCH   6  10
BRANCH   7  13
HETATM   13  C19 UNL     1      17.549 -30.910  13.102  1.00  0.00     0.143 A 
HETATM   14  N7  UNL     1      16.932 -31.593  12.133  1.00  0.00    -0.308 N 
HETATM   15  S1  UNL     1      15.361 -31.017  12.172  1.00  0.00     0.024 SA
ATOM     16  H7  UNL     1      17.327 -32.301  11.514  1.00  0.00     0.176 HD
HETATM   17  C20 UNL     1      15.544 -29.906  13.445  1.00  0.00     0.160 A 
HETATM   18  N9  UNL     1      16.825 -30.038  13.777  1.00  0.00    -0.320 N 
ATOM     19  H9  UNL     1      17.234 -29.483  14.529  1.00  0.00     0.169 HD
BRANCH  17  20
HETATM   20  N8  UNL     1      14.659 -29.097  13.991  1.00  0.00    -0.379 N 
ATOM     21  H82 UNL     1      13.849 -28.674  13.539  1.00  0.00     0.158 HD
ATOM     22  H81 UNL     1      14.604 -28.739  14.944  1.00  0.00     0.158 HD
ENDBRANCH  17  20
ENDBRANCH   7  13
ENDBRANCH   1   3
BRANCH   1  23
HETATM   23  C7  UNL     1      21.831 -34.798  13.844  1.00  0.00     0.130 C 
HETATM   24  C8  UNL     1      21.373 -36.234  13.947  1.00  0.00     0.039 C 
BRANCH  23  25
HETATM   25  C9  UNL     1      23.293 -34.698  14.167  1.00  0.00     0.054 A 
HETATM   26  C10 UNL     1      24.184 -34.287  13.197  1.00  0.00     0.102 A 
HETATM   27  C11 UNL     1      25.538 -34.192  13.484  1.00  0.00     0.261 A 
HETATM   28  O2  UNL     1      26.306 -33.811  12.563  1.00  0.00    -0.268 OA
HETATM   29  N2  UNL     1      25.940 -34.509  14.716  1.00  0.00    -0.156 N 
HETATM   30  C12 UNL     1      25.087 -34.915  15.685  1.00  0.00     0.683 A 
ATOM     31  H2  UNL     1      26.934 -34.442  14.937  1.00  0.00     0.187 HD
HETATM   32  N5  UNL     1      23.781 -34.998  15.379  1.00  0.00    -0.193 N 
ATOM     33  H5  UNL     1      23.131 -35.302  16.103  1.00  0.00     0.184 HD
BRANCH  30  34
HETATM   34  N3  UNL     1      25.601 -35.233  16.973  1.00  0.00    -0.216 N 
HETATM   35  C13 UNL     1      25.065 -34.366  18.024  1.00  0.00     0.143 C 
HETATM   36  C14 UNL     1      25.806 -34.660  19.285  1.00  0.00     0.048 C 
HETATM   37  C15 UNL     1      25.522 -36.010  19.853  1.00  0.00     0.234 C 
HETATM   38  N4  UNL     1      25.074 -36.980  18.911  1.00  0.00    -0.074 N 
HETATM   39  C16 UNL     1      26.090 -37.413  17.986  1.00  0.00     0.252 C 
ATOM     40  H42 UNL     1      24.662 -37.781  19.391  1.00  0.00     0.277 HD
ATOM     41  H41 UNL     1      24.254 -36.639  18.409  1.00  0.00     0.277 HD
HETATM   42  C17 UNL     1      26.532 -36.312  17.052  1.00  0.00     0.168 C 
ENDBRANCH  30  34
ENDBRANCH  23  25
ENDBRANCH   1  23
TORSDOF 8
ENDMDL
MODEL 3
REMARK VINA RESULT: -7.563937878      4.610      7.556
REMARK  8 active torsions:
REMARK  status: ('A' for Active; 'I' for Inactive)
REMARK    1  A    between atoms: C2_2  and  O1_3 
REMARK    2  A    between atoms: O1_3  and  C3_4 
REMARK    3  A    between atoms: C6_7  and  N1_8 
REMARK    4  A    between atoms: N1_8  and  C7_10 
REMARK    5  A    between atoms: C7_10  and  C9_12 
REMARK    6  A    between atoms: C12_18  and  N3_19 
REMARK    7  A    between atoms: C18_32  and  C19_33 
REMARK    8  A    between atoms: C20_37  and  N8_38 
ROOT
HETATM    1  N1  UNL     1      19.213 -29.897  12.690  1.00  0.00    -0.367 N 
ATOM      2  H1  UNL     1      18.984 -29.470  13.587  1.00  0.00     0.161 HD
ENDROOT
BRANCH   1   3
HETATM    3  C6  UNL     1      20.038 -29.213  11.785  1.00  0.00     0.102 A 
HETATM    4  C5  UNL     1      20.343 -29.683  10.541  1.00  0.00     0.051 A 
HETATM    5  C4  UNL     1      21.151 -28.981   9.671  1.00  0.00     0.043 A 
HETATM    6  C3  UNL     1      21.664 -27.756  10.084  1.00  0.00     0.099 A 
HETATM    7  C18 UNL     1      21.355 -27.283  11.338  1.00  0.00     0.112 A 
HETATM    8  N6  UNL     1      20.566 -28.011  12.136  1.00  0.00    -0.337 N 
ATOM      9  H6  UNL     1      20.349 -27.644  13.063  1.00  0.00     0.167 HD
BRANCH   6  10
HETATM   10  O1  UNL     1      22.476 -27.013   9.257  1.00  0.00    -0.349 OA
BRANCH  10  11
HETATM   11  C2  UNL     1      22.689 -27.243   7.908  1.00  0.00     0.171 C 
HETATM   12  C1  UNL     1      24.069 -26.856   7.423  1.00  0.00     0.034 C 
ENDBRANCH  10  11
ENDBRANCH   6  10
BRANCH   7  13
HETATM   13  C19 UNL     1      21.905 -25.969  11.786  1.00  0.00     0.143 A 
HETATM   14  N7  UNL     1      23.181 -25.667  11.528  1.00  0.00    -0.308 N 
HETATM   15  S1  UNL     1      23.376 -24.142  12.187  1.00  0.00     0.024 SA
ATOM     16  H7  UNL     1      23.875 -26.235  11.041  1.00  0.00     0.176 HD
HETATM   17  C20 UNL     1      21.797 -23.934  12.782  1.00  0.00     0.160 A 
HETATM   18  N9  UNL     1      21.194 -25.067  12.436  1.00  0.00    -0.320 N 
ATOM     19  H9  UNL     1      20.214 -25.234  12.666  1.00  0.00     0.169 HD
BRANCH  17  20
HETATM   20  N8  UNL     1      21.268 -22.915  13.429  1.00  0.00    -0.379 N 
ATOM     21  H82 UNL     1      21.327 -22.723  14.429  1.00  0.00     0.158 HD
ATOM     22  H81 UNL     1      20.711 -22.137  13.078  1.00  0.00     0.158 HD
ENDBRANCH  17  20
ENDBRANCH   7  13
ENDBRANCH   1   3
BRANCH   1  23
HETATM   23  C7  UNL     1      18.690 -31.190  12.368  1.00  0.00     0.130 C 
HETATM   24  C8  UNL     1      17.216 -31.349  12.658  1.00  0.00     0.039 C 
BRANCH  23  25
HETATM   25  C9  UNL     1      19.470 -32.279  13.046  1.00  0.00     0.054 A 
HETATM   26  C10 UNL     1      18.804 -33.328  13.645  1.00  0.00     0.102 A 
HETATM   27  C11 UNL     1      19.515 -34.340  14.275  1.00  0.00     0.261 A 
HETATM   28  O2  UNL     1      18.859 -35.273  14.806  1.00  0.00    -0.268 OA
HETATM   29  N2  UNL     1      20.847 -34.260  14.279  1.00  0.00    -0.156 N 
HETATM   30  C12 UNL     1      21.523 -33.242  13.698  1.00  0.00     0.683 A 
ATOM     31  H2  UNL     1      21.378 -34.999  14.740  1.00  0.00     0.187 HD
HETATM   32  N5  UNL     1      20.809 -32.276  13.096  1.00  0.00    -0.193 N 
ATOM     33  H5  UNL     1      21.310 -31.505  12.655  1.00  0.00     0.184 HD
BRANCH  30  34
HETATM   34  N3  UNL     1      22.945 -33.236  13.748  1.00  0.00    -0.216 N 
HETATM   35  C13 UNL     1      23.470 -33.979  14.895  1.00  0.00     0.143 C 
HETATM   36  C14 UNL     1      24.943 -33.749  14.955  1.00  0.00     0.048 C 
HETATM   37  C15 UNL     1      25.700 -34.379  13.833  1.00  0.00     0.234 C 
HETATM   38  N4  UNL     1      24.945 -34.605  12.647  1.00  0.00    -0.074 N 
HETATM   39  C16 UNL     1      24.592 -33.402  11.938  1.00  0.00     0.252 C 
ATOM     40  H42 UNL     1      25.434 -35.254  12.030  1.00  0.00     0.277 HD
ATOM     41  H41 UNL     1      24.111 -35.157  12.852  1.00  0.00     0.277 HD
HETATM   42  C17 UNL     1      23.629 -32.534  12.711  1.00  0.00     0.168 C 
ENDBRANCH  30  34
ENDBRANCH  23  25
ENDBRANCH   1  23
TORSDOF 8
ENDMDL
MODEL 4
REMARK VINA RESULT: -7.385198200      4.756      8.855
REMARK  8 active torsions:
REMARK  status: ('A' for Active; 'I' for Inactive)
REMARK    1  A    between atoms: C2_2  and  O1_3 
REMARK    2  A    between atoms: O1_3  and  C3_4 
REMARK    3  A    between atoms: C6_7  and  N1_8 
REMARK    4  A    between atoms: N1_8  and  C7_10 
REMARK    5  A    between atoms: C7_10  and  C9_12 
REMARK    6  A    between atoms: C12_18  and  N3_19 
REMARK    7  A    between atoms: C18_32  and  C19_33 
REMARK    8  A    between atoms: C20_37  and  N8_38 
ROOT
HETATM    1  N1  UNL     1      20.159 -28.353  11.479  1.00  0.00    -0.367 N 
ATOM      2  H1  UNL     1      19.316 -27.783  11.550  1.00  0.00     0.161 HD
ENDROOT
BRANCH   1   3
HETATM    3  C6  UNL     1      20.948 -28.285  10.320  1.00  0.00     0.102 A 
HETATM    4  C5  UNL     1      21.856 -27.294  10.086  1.00  0.00     0.051 A 
HETATM    5  C4  UNL     1      22.624 -27.261   8.940  1.00  0.00     0.043 A 
HETATM    6  C3  UNL     1      22.458 -28.275   8.001  1.00  0.00     0.099 A 
HETATM    7  C18 UNL     1      21.542 -29.272   8.239  1.00  0.00     0.112 A 
HETATM    8  N6  UNL     1      20.827 -29.248   9.370  1.00  0.00    -0.337 N 
ATOM      9  H6  UNL     1      20.153 -29.997   9.529  1.00  0.00     0.167 HD
BRANCH   6  10
HETATM   10  O1  UNL     1      23.197 -28.291   6.839  1.00  0.00    -0.349 OA
BRANCH  10  11
HETATM   11  C2  UNL     1      24.124 -27.338   6.454  1.00  0.00     0.171 C 
HETATM   12  C1  UNL     1      25.144 -27.834   5.452  1.00  0.00     0.034 C 
ENDBRANCH  10  11
ENDBRANCH   6  10
BRANCH   7  13
HETATM   13  C19 UNL     1      21.360 -30.361   7.234  1.00  0.00     0.143 A 
HETATM   14  N7  UNL     1      20.126 -30.773   6.926  1.00  0.00    -0.308 N 
HETATM   15  S1  UNL     1      20.374 -31.974   5.789  1.00  0.00     0.024 SA
ATOM     16  H7  UNL     1      19.239 -30.433   7.299  1.00  0.00     0.176 HD
HETATM   17  C20 UNL     1      22.072 -31.912   5.740  1.00  0.00     0.160 A 
HETATM   18  N9  UNL     1      22.362 -30.955   6.616  1.00  0.00    -0.320 N 
ATOM     19  H9  UNL     1      23.329 -30.689   6.804  1.00  0.00     0.169 HD
BRANCH  17  20
HETATM   20  N8  UNL     1      22.920 -32.621   5.024  1.00  0.00    -0.379 N 
ATOM     21  H82 UNL     1      23.709 -32.273   4.480  1.00  0.00     0.158 HD
ATOM     22  H81 UNL     1      22.963 -33.628   4.872  1.00  0.00     0.158 HD
ENDBRANCH  17  20
ENDBRANCH   7  13
ENDBRANCH   1   3
BRANCH   1  23
HETATM   23  C7  UNL     1      20.525 -29.213  12.562  1.00  0.00     0.130 C 
HETATM   24  C8  UNL     1      21.874 -29.873  12.398  1.00  0.00     0.039 C 
BRANCH  23  25
HETATM   25  C9  UNL     1      19.470 -30.251  12.815  1.00  0.00     0.054 A 
HETATM   26  C10 UNL     1      19.832 -31.496  13.286  1.00  0.00     0.102 A 
HETATM   27  C11 UNL     1      18.866 -32.464  13.523  1.00  0.00     0.261 A 
HETATM   28  O2  UNL     1      19.250 -33.582  13.952  1.00  0.00    -0.268 OA
HETATM   29  N2  UNL     1      17.592 -32.148  13.281  1.00  0.00    -0.156 N 
HETATM   30  C12 UNL     1      17.212 -30.934  12.819  1.00  0.00     0.683 A 
ATOM     31  H2  UNL     1      16.874 -32.853  13.451  1.00  0.00     0.187 HD
HETATM   32  N5  UNL     1      18.168 -30.017  12.599  1.00  0.00    -0.193 N 
ATOM     33  H5  UNL     1      17.891 -29.100  12.251  1.00  0.00     0.184 HD
BRANCH  30  34
HETATM   34  N3  UNL     1      15.830 -30.682  12.589  1.00  0.00    -0.216 N 
HETATM   35  C13 UNL     1      15.134 -31.838  12.023  1.00  0.00     0.143 C 
HETATM   36  C14 UNL     1      13.755 -31.406  11.648  1.00  0.00     0.048 C 
HETATM   37  C15 UNL     1      12.883 -31.090  12.817  1.00  0.00     0.234 C 
HETATM   38  N4  UNL     1      13.576 -30.713  14.004  1.00  0.00    -0.074 N 
HETATM   39  C16 UNL     1      14.208 -29.421  13.928  1.00  0.00     0.252 C 
ATOM     40  H42 UNL     1      12.954 -30.761  14.811  1.00  0.00     0.277 HD
ATOM     41  H41 UNL     1      14.254 -31.429  14.265  1.00  0.00     0.277 HD
HETATM   42  C17 UNL     1      15.341 -29.386  12.931  1.00  0.00     0.168 C 
ENDBRANCH  30  34
ENDBRANCH  23  25
ENDBRANCH   1  23
TORSDOF 8
ENDMDL
MODEL 5
REMARK VINA RESULT: -7.364331724      4.198      5.715
REMARK  8 active torsions:
REMARK  status: ('A' for Active; 'I' for Inactive)
REMARK    1  A    between atoms: C2_2  and  O1_3 
REMARK    2  A    between atoms: O1_3  and  C3_4 
REMARK    3  A    between atoms: C6_7  and  N1_8 
REMARK    4  A    between atoms: N1_8  and  C7_10 
REMARK    5  A    between atoms: C7_10  and  C9_12 
REMARK    6  A    between atoms: C12_18  and  N3_19 
REMARK    7  A    between atoms: C18_32  and  C19_33 
REMARK    8  A    between atoms: C20_37  and  N8_38 
ROOT
HETATM    1  N1  UNL     1      20.573 -27.449  11.786  1.00  0.00    -0.367 N 
ATOM      2  H1  UNL     1      19.912 -26.674  11.761  1.00  0.00     0.161 HD
ENDROOT
BRANCH   1   3
HETATM    3  C6  UNL     1      20.161 -28.699  12.274  1.00  0.00     0.102 A 
HETATM    4  C5  UNL     1      21.027 -29.654  12.721  1.00  0.00     0.051 A 
HETATM    5  C4  UNL     1      20.589 -30.870  13.204  1.00  0.00     0.043 A 
HETATM    6  C3  UNL     1      19.220 -31.118  13.232  1.00  0.00     0.099 A 
HETATM    7  C18 UNL     1      18.350 -30.154  12.782  1.00  0.00     0.112 A 
HETATM    8  N6  UNL     1      18.836 -28.994  12.325  1.00  0.00    -0.337 N 
ATOM      9  H6  UNL     1      18.174 -28.292  11.996  1.00  0.00     0.167 HD
BRANCH   6  10
HETATM   10  O1  UNL     1      18.728 -32.315  13.703  1.00  0.00    -0.349 OA
BRANCH  10  11
HETATM   11  C2  UNL     1      19.449 -33.275  14.392  1.00  0.00     0.171 C 
HETATM   12  C1  UNL     1      19.836 -34.478  13.559  1.00  0.00     0.034 C 
ENDBRANCH  10  11
ENDBRANCH   6  10
BRANCH   7  13
HETATM   13  C19 UNL     1      16.880 -30.417  12.810  1.00  0.00     0.143 A 
HETATM   14  N7  UNL     1      16.365 -31.357  12.012  1.00  0.00    -0.308 N 
HETATM   15  S1  UNL     1      14.728 -31.323  12.354  1.00  0.00     0.024 SA
ATOM     16  H7  UNL     1      16.856 -31.956  11.348  1.00  0.00     0.176 HD
HETATM   17  C20 UNL     1      14.752 -30.091  13.524  1.00  0.00     0.160 A 
HETATM   18  N9  UNL     1      16.039 -29.765  13.590  1.00  0.00    -0.320 N 
ATOM     19  H9  UNL     1      16.366 -29.035  14.224  1.00  0.00     0.169 HD
BRANCH  17  20
HETATM   20  N8  UNL     1      13.761 -29.564  14.214  1.00  0.00    -0.379 N 
ATOM     21  H82 UNL     1      13.210 -28.742  13.971  1.00  0.00     0.158 HD
ATOM     22  H81 UNL     1      13.355 -29.860  15.102  1.00  0.00     0.158 HD
ENDBRANCH  17  20
ENDBRANCH   7  13
ENDBRANCH   1   3
BRANCH   1  23
HETATM   23  C7  UNL     1      21.912 -27.252  11.321  1.00  0.00     0.130 C 
HETATM   24  C8  UNL     1      22.390 -25.821  11.405  1.00  0.00     0.039 C 
BRANCH  23  25
HETATM   25  C9  UNL     1      22.088 -27.774   9.925  1.00  0.00     0.054 A 
HETATM   26  C10 UNL     1      22.761 -27.016   8.989  1.00  0.00     0.102 A 
HETATM   27  C11 UNL     1      22.929 -27.488   7.695  1.00  0.00     0.261 A 
HETATM   28  O2  UNL     1      23.551 -26.757   6.881  1.00  0.00    -0.268 OA
HETATM   29  N2  UNL     1      22.422 -28.685   7.395  1.00  0.00    -0.156 N 
HETATM   30  C12 UNL     1      21.758 -29.448   8.295  1.00  0.00     0.683 A 
ATOM     31  H2  UNL     1      22.539 -29.041   6.446  1.00  0.00     0.187 HD
HETATM   32  N5  UNL     1      21.610 -28.965   9.540  1.00  0.00    -0.193 N 
ATOM     33  H5  UNL     1      21.111 -29.532  10.225  1.00  0.00     0.184 HD
BRANCH  30  34
HETATM   34  N3  UNL     1      21.249 -30.714   7.890  1.00  0.00    -0.216 N 
HETATM   35  C13 UNL     1      20.944 -30.766   6.459  1.00  0.00     0.143 C 
HETATM   36  C14 UNL     1      20.248 -32.057   6.185  1.00  0.00     0.048 C 
HETATM   37  C15 UNL     1      21.121 -33.258   6.336  1.00  0.00     0.234 C 
HETATM   38  N4  UNL     1      22.239 -33.087   7.202  1.00  0.00    -0.074 N 
HETATM   39  C16 UNL     1      21.890 -32.974   8.595  1.00  0.00     0.252 C 
ATOM     40  H42 UNL     1      22.917 -33.837   7.063  1.00  0.00     0.277 HD
ATOM     41  H41 UNL     1      22.801 -32.288   6.908  1.00  0.00     0.277 HD
HETATM   42  C17 UNL     1      21.117 -31.713   8.899  1.00  0.00     0.168 C 
ENDBRANCH  30  34
ENDBRANCH  23  25
ENDBRANCH   1  23
TORSDOF 8
ENDMDL
