MODEL 1
REMARK VINA RESULT: -6.793337243      0.000      0.000
REMARK  9 active torsions:
REMARK  status: ('A' for Active; 'I' for Inactive)
REMARK    1  A    between atoms: C2_2  and  N1_3 
REMARK    2  A    between atoms: N1_3  and  C3_5 
REMARK    3  A    between atoms: N2_8  and  C6_9 
REMARK    4  A    between atoms: C13_24  and  N7_25 
REMARK    5  A    between atoms: N7_25  and  C14_27 
REMARK    6  A    between atoms: N8_30  and  C17_31 
REMARK    7  A    between atoms: C19_33  and  N9_34 
REMARK    8  A    between atoms: C20_38  and  C21_39 
REMARK    9  A    between atoms: C21_39  and  O1_40 
ROOT
HETATM    1  C6  UNL     1      19.152 -30.662  12.884  1.00  0.00     0.120 A 
HETATM    2  N3  UNL     1      19.912 -29.560  12.538  1.00  0.00    -0.338 N 
ATOM      3  H3  UNL     1      19.426 -28.705  12.266  1.00  0.00     0.168 HD
HETATM    4  C7  UNL     1      21.235 -29.552  12.541  1.00  0.00     0.183 A 
HETATM    5  N4  UNL     1      21.876 -30.648  12.890  1.00  0.00    -0.337 N 
ATOM      6  H4  UNL     1      22.896 -30.630  12.888  1.00  0.00     0.168 HD
HETATM    7  C8  UNL     1      21.263 -31.790  13.250  1.00  0.00     0.128 A 
HETATM    8  C9  UNL     1      19.861 -31.777  13.241  1.00  0.00     0.080 A 
HETATM    9  C10 UNL     1      19.215 -32.913  13.621  1.00  0.00     0.068 A 
HETATM   10  N5  UNL     1      17.951 -32.980  13.670  1.00  0.00    -0.397 N 
ATOM     11  H51 UNL     1      17.467 -33.832  13.955  1.00  0.00     0.156 HD
ATOM     12  H52 UNL     1      17.380 -32.179  13.402  1.00  0.00     0.156 HD
HETATM   13  C11 UNL     1      20.004 -34.020  13.991  1.00  0.00     0.115 A 
HETATM   14  C12 UNL     1      19.246 -35.157  14.463  1.00  0.00     0.105 C 
HETATM   15  N6  UNL     1      18.613 -36.051  14.871  1.00  0.00    -0.191 NA
HETATM   16  C13 UNL     1      21.368 -34.023  13.990  1.00  0.00     0.131 A 
HETATM   17  N8  UNL     1      21.989 -32.864  13.606  1.00  0.00    -0.289 N 
ENDROOT
BRANCH  16  18
HETATM   18  N7  UNL     1      22.133 -35.171  14.287  1.00  0.00    -0.370 N 
ATOM     19  H7  UNL     1      22.709 -35.078  15.124  1.00  0.00     0.161 HD
BRANCH  18  20
HETATM   20  C14 UNL     1      22.252 -36.421  13.646  1.00  0.00     0.083 A 
HETATM   21  C15 UNL     1      23.505 -36.884  12.998  1.00  0.00     0.027 A 
HETATM   22  C16 UNL     1      23.242 -37.392  14.357  1.00  0.00     0.027 A 
ENDBRANCH  18  20
ENDBRANCH  16  18
BRANCH  17  23
HETATM   23  C17 UNL     1      23.428 -32.759  13.569  1.00  0.00     0.233 C 
HETATM   24  C18 UNL     1      24.062 -33.294  12.313  1.00  0.00     0.089 C 
HETATM   25  C19 UNL     1      25.449 -33.672  12.786  1.00  0.00     0.218 C 
HETATM   26  C20 UNL     1      25.322 -33.688  14.261  1.00  0.00     0.178 C 
HETATM   27  O2  UNL     1      23.990 -33.535  14.606  1.00  0.00    -0.357 OA
BRANCH  25  28
HETATM   28  N9  UNL     1      26.432 -32.670  12.339  1.00  0.00    -0.072 N 
ATOM     29  H93 UNL     1      27.101 -33.064  11.676  1.00  0.00     0.274 HD
ATOM     30  H92 UNL     1      26.011 -31.969  11.730  1.00  0.00     0.274 HD
ATOM     31  H91 UNL     1      26.896 -32.247  13.142  1.00  0.00     0.274 HD
ENDBRANCH  25  28
BRANCH  26  32
HETATM   32  C21 UNL     1      25.998 -34.884  14.840  1.00  0.00     0.198 C 
BRANCH  32  33
HETATM   33  O1  UNL     1      27.358 -34.902  14.656  1.00  0.00    -0.398 OA
ATOM     34  H1  UNL     1      27.857 -34.675  15.433  1.00  0.00     0.209 HD
ENDBRANCH  32  33
ENDBRANCH  26  32
ENDBRANCH  17  23
BRANCH   1  35
HETATM   35  N2  UNL     1      17.748 -30.532  12.772  1.00  0.00    -0.364 N 
HETATM   36  C5  UNL     1      16.939 -31.061  11.711  1.00  0.00     0.126 C 
HETATM   37  C4  UNL     1      15.498 -30.846  12.060  1.00  0.00     0.046 C 
HETATM   38  C3  UNL     1      15.476 -30.044  13.322  1.00  0.00     0.096 C 
HETATM   39  C22 UNL     1      16.900 -29.803  13.668  1.00  0.00     0.149 C 
BRANCH  38  40
HETATM   40  N1  UNL     1      14.642 -28.879  13.241  1.00  0.00    -0.416 N 
ATOM     41  H1  UNL     1      15.028 -27.956  13.040  1.00  0.00     0.153 HD
BRANCH  40  42
HETATM   42  C2  UNL     1      13.252 -29.077  13.456  1.00  0.00     0.110 C 
HETATM   43  C1  UNL     1      13.108 -30.062  14.628  1.00  0.00     0.026 C 
ENDBRANCH  40  42
ENDBRANCH  38  40
ENDBRANCH   1  35
TORSDOF 9
ENDMDL
MODEL 2
REMARK VINA RESULT: -6.178464915      1.371      1.538
REMARK  9 active torsions:
REMARK  status: ('A' for Active; 'I' for Inactive)
REMARK    1  A    between atoms: C2_2  and  N1_3 
REMARK    2  A    between atoms: N1_3  and  C3_5 
REMARK    3  A    between atoms: N2_8  and  C6_9 
REMARK    4  A    between atoms: C13_24  and  N7_25 
REMARK    5  A    between atoms: N7_25  and  C14_27 
REMARK    6  A    between atoms: N8_30  and  C17_31 
REMARK    7  A    between atoms: C19_33  and  N9_34 
REMARK    8  A    between atoms: C20_38  and  C21_39 
REMARK    9  A    between atoms: C21_39  and  O1_40 
ROOT
HETATM    1  C6  UNL     1      18.864 -30.976  12.016  1.00  0.00     0.120 A 
HETATM    2  N3  UNL     1      19.420 -30.024  11.181  1.00  0.00    -0.338 N 
ATOM      3  H3  UNL     1      18.848 -29.222  10.915  1.00  0.00     0.168 HD
HETATM    4  C7  UNL     1      20.654 -30.094  10.709  1.00  0.00     0.183 A 
HETATM    5  N4  UNL     1      21.405 -31.123  11.044  1.00  0.00    -0.337 N 
ATOM      6  H4  UNL     1      22.354 -31.167  10.673  1.00  0.00     0.168 HD
HETATM    7  C8  UNL     1      20.991 -32.120  11.848  1.00  0.00     0.128 A 
HETATM    8  C9  UNL     1      19.681 -32.026  12.338  1.00  0.00     0.080 A 
HETATM    9  C10 UNL     1      19.245 -33.011  13.170  1.00  0.00     0.068 A 
HETATM   10  N5  UNL     1      18.086 -32.990  13.681  1.00  0.00    -0.397 N 
ATOM     11  H51 UNL     1      17.759 -33.727  14.305  1.00  0.00     0.156 HD
ATOM     12  H52 UNL     1      17.437 -32.234  13.461  1.00  0.00     0.156 HD
HETATM   13  C11 UNL     1      20.141 -34.054  13.473  1.00  0.00     0.115 A 
HETATM   14  C12 UNL     1      19.633 -35.012  14.429  1.00  0.00     0.105 C 
HETATM   15  N6  UNL     1      19.212 -35.756  15.227  1.00  0.00    -0.191 NA
HETATM   16  C13 UNL     1      21.412 -34.138  12.985  1.00  0.00     0.131 A 
HETATM   17  N8  UNL     1      21.823 -33.130  12.153  1.00  0.00    -0.289 N 
ENDROOT
BRANCH  16  18
HETATM   18  N7  UNL     1      22.261 -35.236  13.240  1.00  0.00    -0.370 N 
ATOM     19  H7  UNL     1      22.338 -35.888  12.461  1.00  0.00     0.161 HD
BRANCH  18  20
HETATM   20  C14 UNL     1      23.022 -35.601  14.370  1.00  0.00     0.083 A 
HETATM   21  C15 UNL     1      23.087 -36.990  14.890  1.00  0.00     0.027 A 
HETATM   22  C16 UNL     1      24.208 -36.555  14.037  1.00  0.00     0.027 A 
ENDBRANCH  18  20
ENDBRANCH  16  18
BRANCH  17  23
HETATM   23  C17 UNL     1      23.148 -33.121  11.582  1.00  0.00     0.233 C 
HETATM   24  C18 UNL     1      23.590 -34.441  11.005  1.00  0.00     0.089 C 
HETATM   25  C19 UNL     1      25.096 -34.352  11.109  1.00  0.00     0.218 C 
HETATM   26  C20 UNL     1      25.316 -33.233  12.052  1.00  0.00     0.178 C 
HETATM   27  O2  UNL     1      24.100 -32.841  12.587  1.00  0.00    -0.357 OA
BRANCH  25  28
HETATM   28  N9  UNL     1      25.684 -34.069   9.788  1.00  0.00    -0.072 N 
ATOM     29  H93 UNL     1      26.663 -34.354   9.739  1.00  0.00     0.274 HD
ATOM     30  H92 UNL     1      25.312 -34.686   9.066  1.00  0.00     0.274 HD
ATOM     31  H91 UNL     1      25.561 -33.086   9.549  1.00  0.00     0.274 HD
ENDBRANCH  25  28
BRANCH  26  32
HETATM   32  C21 UNL     1      26.370 -33.575  13.048  1.00  0.00     0.198 C 
BRANCH  32  33
HETATM   33  O1  UNL     1      27.579 -32.967  12.815  1.00  0.00    -0.398 OA
ATOM     34  H1  UNL     1      28.325 -33.552  12.878  1.00  0.00     0.209 HD
ENDBRANCH  32  33
ENDBRANCH  26  32
ENDBRANCH  17  23
BRANCH   1  35
HETATM   35  N2  UNL     1      17.511 -30.791  12.386  1.00  0.00    -0.364 N 
HETATM   36  C5  UNL     1      16.372 -31.322  11.695  1.00  0.00     0.126 C 
HETATM   37  C4  UNL     1      15.147 -31.034  12.507  1.00  0.00     0.046 C 
HETATM   38  C3  UNL     1      15.583 -30.187  13.660  1.00  0.00     0.096 C 
HETATM   39  C22 UNL     1      17.046 -29.995  13.484  1.00  0.00     0.149 C 
BRANCH  38  40
HETATM   40  N1  UNL     1      14.805 -28.991  13.814  1.00  0.00    -0.416 N 
ATOM     41  H1  UNL     1      15.238 -28.095  14.037  1.00  0.00     0.153 HD
BRANCH  40  42
HETATM   42  C2  UNL     1      13.401 -29.121  13.642  1.00  0.00     0.110 C 
HETATM   43  C1  UNL     1      12.884 -27.780  13.096  1.00  0.00     0.026 C 
ENDBRANCH  40  42
ENDBRANCH  38  40
ENDBRANCH   1  35
TORSDOF 9
ENDMDL
MODEL 3
REMARK VINA RESULT: -5.822217010      5.376      7.895
REMARK  9 active torsions:
REMARK  status: ('A' for Active; 'I' for Inactive)
REMARK    1  A    between atoms: C2_2  and  N1_3 
REMARK    2  A    between atoms: N1_3  and  C3_5 
REMARK    3  A    between atoms: N2_8  and  C6_9 
REMARK    4  A    between atoms: C13_24  and  N7_25 
REMARK    5  A    between atoms: N7_25  and  C14_27 
REMARK    6  A    between atoms: N8_30  and  C17_31 
REMARK    7  A    between atoms: C19_33  and  N9_34 
REMARK    8  A    between atoms: C20_38  and  C21_39 
REMARK    9  A    between atoms: C21_39  and  O1_40 
ROOT
HETATM    1  C6  UNL     1      22.041 -31.542   7.236  1.00  0.00     0.120 A 
HETATM    2  N3  UNL     1      21.561 -30.248   7.157  1.00  0.00    -0.338 N 
ATOM      3  H3  UNL     1      21.650 -29.753   6.269  1.00  0.00     0.168 HD
HETATM    4  C7  UNL     1      20.991 -29.614   8.169  1.00  0.00     0.183 A 
HETATM    5  N4  UNL     1      20.868 -30.239   9.322  1.00  0.00    -0.337 N 
ATOM      6  H4  UNL     1      20.428 -29.741  10.095  1.00  0.00     0.168 HD
HETATM    7  C8  UNL     1      21.290 -31.499   9.538  1.00  0.00     0.128 A 
HETATM    8  C9  UNL     1      21.890 -32.152   8.453  1.00  0.00     0.080 A 
HETATM    9  C10 UNL     1      22.308 -33.434   8.638  1.00  0.00     0.068 A 
HETATM   10  N5  UNL     1      22.833 -34.109   7.704  1.00  0.00    -0.397 N 
ATOM     11  H51 UNL     1      23.146 -35.070   7.842  1.00  0.00     0.156 HD
ATOM     12  H52 UNL     1      22.977 -33.693   6.783  1.00  0.00     0.156 HD
HETATM   13  C11 UNL     1      22.109 -34.008   9.909  1.00  0.00     0.115 A 
HETATM   14  C12 UNL     1      22.499 -35.397  10.000  1.00  0.00     0.105 C 
HETATM   15  N6  UNL     1      22.793 -36.528  10.039  1.00  0.00    -0.191 NA
HETATM   16  C13 UNL     1      21.529 -33.360  10.960  1.00  0.00     0.131 A 
HETATM   17  N8  UNL     1      21.117 -32.072  10.741  1.00  0.00    -0.289 N 
ENDROOT
BRANCH  16  18
HETATM   18  N7  UNL     1      21.416 -33.931  12.245  1.00  0.00    -0.370 N 
ATOM     19  H7  UNL     1      22.166 -33.664  12.883  1.00  0.00     0.161 HD
BRANCH  18  20
HETATM   20  C14 UNL     1      20.463 -34.800  12.814  1.00  0.00     0.083 A 
HETATM   21  C15 UNL     1      20.505 -35.232  14.234  1.00  0.00     0.027 A 
HETATM   22  C16 UNL     1      19.585 -34.126  13.911  1.00  0.00     0.027 A 
ENDBRANCH  18  20
ENDBRANCH  16  18
BRANCH  17  23
HETATM   23  C17 UNL     1      20.491 -31.296  11.784  1.00  0.00     0.233 C 
HETATM   24  C18 UNL     1      19.062 -30.912  11.506  1.00  0.00     0.089 C 
HETATM   25  C19 UNL     1      18.899 -29.653  12.330  1.00  0.00     0.218 C 
HETATM   26  C20 UNL     1      20.290 -29.258  12.642  1.00  0.00     0.178 C 
HETATM   27  O2  UNL     1      21.164 -30.064  11.932  1.00  0.00    -0.357 OA
BRANCH  25  28
HETATM   28  N9  UNL     1      18.130 -29.938  13.553  1.00  0.00    -0.072 N 
ATOM     29  H93 UNL     1      18.180 -30.924  13.813  1.00  0.00     0.274 HD
ATOM     30  H92 UNL     1      18.573 -29.541  14.382  1.00  0.00     0.274 HD
ATOM     31  H91 UNL     1      17.167 -29.621  13.448  1.00  0.00     0.274 HD
ENDBRANCH  25  28
BRANCH  26  32
HETATM   32  C21 UNL     1      20.482 -27.792  12.457  1.00  0.00     0.198 C 
BRANCH  32  33
HETATM   33  O1  UNL     1      21.193 -27.458  11.331  1.00  0.00    -0.398 OA
ATOM     34  H1  UNL     1      20.668 -27.061  10.645  1.00  0.00     0.209 HD
ENDBRANCH  32  33
ENDBRANCH  26  32
ENDBRANCH  17  23
BRANCH   1  35
HETATM   35  N2  UNL     1      22.680 -32.060   6.085  1.00  0.00    -0.364 N 
HETATM   36  C5  UNL     1      24.052 -31.850   5.723  1.00  0.00     0.126 C 
HETATM   37  C4  UNL     1      24.364 -32.704   4.531  1.00  0.00     0.046 C 
HETATM   38  C3  UNL     1      23.079 -33.341   4.109  1.00  0.00     0.096 C 
HETATM   39  C22 UNL     1      22.051 -32.834   5.056  1.00  0.00     0.149 C 
BRANCH  38  40
HETATM   40  N1  UNL     1      22.788 -33.169   2.715  1.00  0.00    -0.416 N 
ATOM     41  H1  UNL     1      23.427 -32.676   2.091  1.00  0.00     0.153 HD
BRANCH  40  42
HETATM   42  C2  UNL     1      21.565 -33.720   2.248  1.00  0.00     0.110 C 
HETATM   43  C1  UNL     1      20.724 -32.558   1.694  1.00  0.00     0.026 C 
ENDBRANCH  40  42
ENDBRANCH  38  40
ENDBRANCH   1  35
TORSDOF 9
ENDMDL
MODEL 4
REMARK VINA RESULT: -5.812857930      2.751      5.023
REMARK  9 active torsions:
REMARK  status: ('A' for Active; 'I' for Inactive)
REMARK    1  A    between atoms: C2_2  and  N1_3 
REMARK    2  A    between atoms: N1_3  and  C3_5 
REMARK    3  A    between atoms: N2_8  and  C6_9 
REMARK    4  A    between atoms: C13_24  and  N7_25 
REMARK    5  A    between atoms: N7_25  and  C14_27 
REMARK    6  A    between atoms: N8_30  and  C17_31 
REMARK    7  A    between atoms: C19_33  and  N9_34 
REMARK    8  A    between atoms: C20_38  and  C21_39 
REMARK    9  A    between atoms: C21_39  and  O1_40 
ROOT
HETATM    1  C6  UNL     1      22.618 -33.445  12.305  1.00  0.00     0.120 A 
HETATM    2  N3  UNL     1      22.720 -33.434  10.926  1.00  0.00    -0.338 N 
ATOM      3  H3  UNL     1      21.915 -33.116  10.385  1.00  0.00     0.168 HD
HETATM    4  C7  UNL     1      23.804 -33.813  10.268  1.00  0.00     0.183 A 
HETATM    5  N4  UNL     1      24.851 -34.226  10.953  1.00  0.00    -0.337 N 
ATOM      6  H4  UNL     1      25.680 -34.516  10.435  1.00  0.00     0.168 HD
HETATM    7  C8  UNL     1      24.888 -34.287  12.297  1.00  0.00     0.128 A 
HETATM    8  C9  UNL     1      23.731 -33.880  12.974  1.00  0.00     0.080 A 
HETATM    9  C10 UNL     1      23.749 -33.912  14.335  1.00  0.00     0.068 A 
HETATM   10  N5  UNL     1      22.758 -33.535  15.027  1.00  0.00    -0.397 N 
ATOM     11  H51 UNL     1      22.772 -33.559  16.046  1.00  0.00     0.156 HD
ATOM     12  H52 UNL     1      21.903 -33.214  14.573  1.00  0.00     0.156 HD
HETATM   13  C11 UNL     1      24.931 -34.356  14.961  1.00  0.00     0.115 A 
HETATM   14  C12 UNL     1      24.901 -34.279  16.404  1.00  0.00     0.105 C 
HETATM   15  N6  UNL     1      24.864 -34.177  17.568  1.00  0.00    -0.191 NA
HETATM   16  C13 UNL     1      26.049 -34.755  14.291  1.00  0.00     0.131 A 
HETATM   17  N8  UNL     1      26.001 -34.708  12.922  1.00  0.00    -0.289 N 
ENDROOT
BRANCH  16  18
HETATM   18  N7  UNL     1      27.190 -35.272  14.941  1.00  0.00    -0.370 N 
ATOM     19  H7  UNL     1      28.024 -34.695  14.833  1.00  0.00     0.161 HD
BRANCH  18  20
HETATM   20  C14 UNL     1      27.394 -36.435  15.713  1.00  0.00     0.083 A 
HETATM   21  C15 UNL     1      28.294 -37.538  15.293  1.00  0.00     0.027 A 
HETATM   22  C16 UNL     1      28.847 -36.570  16.258  1.00  0.00     0.027 A 
ENDBRANCH  18  20
ENDBRANCH  16  18
BRANCH  17  23
HETATM   23  C17 UNL     1      27.129 -35.108  12.116  1.00  0.00     0.233 C 
HETATM   24  C18 UNL     1      27.312 -36.597  11.991  1.00  0.00     0.089 C 
HETATM   25  C19 UNL     1      28.796 -36.720  11.725  1.00  0.00     0.218 C 
HETATM   26  C20 UNL     1      29.331 -35.395  12.112  1.00  0.00     0.178 C 
HETATM   27  O2  UNL     1      28.326 -34.656  12.713  1.00  0.00    -0.357 OA
BRANCH  25  28
HETATM   28  N9  UNL     1      29.039 -37.006  10.301  1.00  0.00    -0.072 N 
ATOM     29  H93 UNL     1      29.472 -37.920  10.165  1.00  0.00     0.274 HD
ATOM     30  H92 UNL     1      28.170 -37.173   9.792  1.00  0.00     0.274 HD
ATOM     31  H91 UNL     1      29.589 -36.258   9.878  1.00  0.00     0.274 HD
ENDBRANCH  25  28
BRANCH  26  32
HETATM   32  C21 UNL     1      30.581 -35.539  12.911  1.00  0.00     0.198 C 
BRANCH  32  33
HETATM   33  O1  UNL     1      31.715 -35.125  12.255  1.00  0.00    -0.398 OA
ATOM     34  H1  UNL     1      31.946 -34.218  12.416  1.00  0.00     0.209 HD
ENDBRANCH  32  33
ENDBRANCH  26  32
ENDBRANCH  17  23
BRANCH   1  35
HETATM   35  N2  UNL     1      21.372 -33.069  12.858  1.00  0.00    -0.364 N 
HETATM   36  C5  UNL     1      20.272 -33.951  13.124  1.00  0.00     0.126 C 
HETATM   37  C4  UNL     1      19.215 -33.185  13.859  1.00  0.00     0.046 C 
HETATM   38  C3  UNL     1      19.672 -31.761  13.909  1.00  0.00     0.096 C 
HETATM   39  C22 UNL     1      20.974 -31.734  13.194  1.00  0.00     0.149 C 
BRANCH  38  40
HETATM   40  N1  UNL     1      18.682 -30.829  13.450  1.00  0.00    -0.416 N 
ATOM     41  H1  UNL     1      18.265 -30.140  14.075  1.00  0.00     0.153 HD
BRANCH  40  42
HETATM   42  C2  UNL     1      18.314 -30.918  12.081  1.00  0.00     0.110 C 
HETATM   43  C1  UNL     1      16.810 -31.235  12.033  1.00  0.00     0.026 C 
ENDBRANCH  40  42
ENDBRANCH  38  40
ENDBRANCH   1  35
TORSDOF 9
ENDMDL
MODEL 5
REMARK VINA RESULT: -5.781880644      5.013      6.041
REMARK  9 active torsions:
REMARK  status: ('A' for Active; 'I' for Inactive)
REMARK    1  A    between atoms: C2_2  and  N1_3 
REMARK    2  A    between atoms: N1_3  and  C3_5 
REMARK    3  A    between atoms: N2_8  and  C6_9 
REMARK    4  A    between atoms: C13_24  and  N7_25 
REMARK    5  A    between atoms: N7_25  and  C14_27 
REMARK    6  A    between atoms: N8_30  and  C17_31 
REMARK    7  A    between atoms: C19_33  and  N9_34 
REMARK    8  A    between atoms: C20_38  and  C21_39 
REMARK    9  A    between atoms: C21_39  and  O1_40 
ROOT
HETATM    1  C6  UNL     1      20.888 -30.750   9.623  1.00  0.00     0.120 A 
HETATM    2  N3  UNL     1      20.779 -30.005   8.462  1.00  0.00    -0.338 N 
ATOM      3  H3  UNL     1      20.333 -29.089   8.518  1.00  0.00     0.168 HD
HETATM    4  C7  UNL     1      21.222 -30.414   7.285  1.00  0.00     0.183 A 
HETATM    5  N4  UNL     1      21.800 -31.594   7.198  1.00  0.00    -0.337 N 
ATOM      6  H4  UNL     1      22.136 -31.899   6.285  1.00  0.00     0.168 HD
HETATM    7  C8  UNL     1      21.972 -32.421   8.246  1.00  0.00     0.128 A 
HETATM    8  C9  UNL     1      21.497 -31.968   9.484  1.00  0.00     0.080 A 
HETATM    9  C10 UNL     1      21.677 -32.776  10.565  1.00  0.00     0.068 A 
HETATM   10  N5  UNL     1      21.305 -32.434  11.726  1.00  0.00    -0.397 N 
ATOM     11  H51 UNL     1      21.440 -33.039  12.536  1.00  0.00     0.156 HD
ATOM     12  H52 UNL     1      20.836 -31.540  11.877  1.00  0.00     0.156 HD
HETATM   13  C11 UNL     1      22.324 -34.009  10.357  1.00  0.00     0.115 A 
HETATM   14  C12 UNL     1      22.554 -34.769  11.565  1.00  0.00     0.105 C 
HETATM   15  N6  UNL     1      22.757 -35.350  12.559  1.00  0.00    -0.191 NA
HETATM   16  C13 UNL     1      22.777 -34.442   9.145  1.00  0.00     0.131 A 
HETATM   17  N8  UNL     1      22.584 -33.605   8.077  1.00  0.00    -0.289 N 
ENDROOT
BRANCH  16  18
HETATM   18  N7  UNL     1      23.349 -35.717   8.950  1.00  0.00    -0.370 N 
ATOM     19  H7  UNL     1      22.664 -36.464   8.837  1.00  0.00     0.161 HD
BRANCH  18  20
HETATM   20  C14 UNL     1      24.689 -36.153   8.883  1.00  0.00     0.083 A 
HETATM   21  C15 UNL     1      25.732 -35.720   9.847  1.00  0.00     0.027 A 
HETATM   22  C16 UNL     1      25.115 -37.037  10.093  1.00  0.00     0.027 A 
ENDBRANCH  18  20
ENDBRANCH  16  18
BRANCH  17  23
HETATM   23  C17 UNL     1      23.025 -33.965   6.752  1.00  0.00     0.233 C 
HETATM   24  C18 UNL     1      24.236 -33.212   6.269  1.00  0.00     0.089 C 
HETATM   25  C19 UNL     1      24.071 -33.261   4.766  1.00  0.00     0.218 C 
HETATM   26  C20 UNL     1      22.657 -33.657   4.583  1.00  0.00     0.178 C 
HETATM   27  O2  UNL     1      22.018 -33.651   5.812  1.00  0.00    -0.357 OA
BRANCH  25  28
HETATM   28  N9  UNL     1      24.990 -34.252   4.182  1.00  0.00    -0.072 N 
ATOM     29  H93 UNL     1      25.394 -34.862   4.894  1.00  0.00     0.274 HD
ATOM     30  H92 UNL     1      24.493 -34.961   3.641  1.00  0.00     0.274 HD
ATOM     31  H91 UNL     1      25.709 -33.786   3.628  1.00  0.00     0.274 HD
ENDBRANCH  25  28
BRANCH  26  32
HETATM   32  C21 UNL     1      22.007 -32.837   3.523  1.00  0.00     0.198 C 
BRANCH  32  33
HETATM   33  O1  UNL     1      21.629 -31.583   3.938  1.00  0.00    -0.398 OA
ATOM     34  H1  UNL     1      22.322 -30.935   3.890  1.00  0.00     0.209 HD
ENDBRANCH  32  33
ENDBRANCH  26  32
ENDBRANCH  17  23
BRANCH   1  35
HETATM   35  N2  UNL     1      20.311 -30.201  10.792  1.00  0.00    -0.364 N 
HETATM   36  C5  UNL     1      20.995 -29.405  11.770  1.00  0.00     0.126 C 
HETATM   37  C4  UNL     1      19.987 -28.891  12.752  1.00  0.00     0.046 C 
HETATM   38  C3  UNL     1      18.679 -29.522  12.397  1.00  0.00     0.096 C 
HETATM   39  C22 UNL     1      18.959 -30.394  11.228  1.00  0.00     0.149 C 
BRANCH  38  40
HETATM   40  N1  UNL     1      18.030 -30.153  13.511  1.00  0.00    -0.416 N 
ATOM     41  H1  UNL     1      18.477 -30.216  14.426  1.00  0.00     0.153 HD
BRANCH  40  42
HETATM   42  C2  UNL     1      16.734 -30.683  13.274  1.00  0.00     0.110 C 
HETATM   43  C1  UNL     1      15.718 -29.662  13.811  1.00  0.00     0.026 C 
ENDBRANCH  40  42
ENDBRANCH  38  40
ENDBRANCH   1  35
TORSDOF 9
ENDMDL
