MODEL 1
REMARK VINA RESULT: -7.745340321      0.000      0.000
REMARK  10 active torsions:
REMARK  status: ('A' for Active; 'I' for Inactive)
REMARK    1  A    between atoms: C2_2  and  C3_3 
REMARK    2  A    between atoms: C3_3  and  C4_4 
REMARK    3  A    between atoms: C4_4  and  O1_5 
REMARK    4  A    between atoms: O1_5  and  C5_6 
REMARK    5  A    between atoms: C6_9  and  N2_10 
REMARK    6  A    between atoms: N2_10  and  C7_12 
REMARK    7  A    between atoms: C8_14  and  C9_15 
REMARK    8  A    between atoms: C14_25  and  N6_26 
REMARK    9  A    between atoms: C17_35  and  C18_36 
REMARK   10  A    between atoms: C18_36  and  O2_37 
ROOT
HETATM    1  C7  UNL     1      19.902 -30.550  11.282  1.00  0.00     0.107 A 
HETATM    2  S1  UNL     1      18.297 -29.971  11.496  1.00  0.00    -0.048 SA
HETATM    3  C8  UNL     1      17.512 -30.661  12.872  1.00  0.00     0.121 A 
HETATM    4  N5  UNL     1      18.256 -31.514  13.539  1.00  0.00    -0.343 N 
ATOM      5  H5  UNL     1      17.819 -31.938  14.357  1.00  0.00     0.167 HD
HETATM    6  C13 UNL     1      19.512 -31.900  13.283  1.00  0.00     0.107 A 
HETATM    7  C14 UNL     1      20.073 -32.824  14.152  1.00  0.00     0.129 A 
HETATM    8  N7  UNL     1      21.339 -33.280  13.983  1.00  0.00    -0.337 N 
ATOM      9  H7  UNL     1      21.722 -33.961  14.638  1.00  0.00     0.168 HD
HETATM   10  C15 UNL     1      22.091 -32.846  12.960  1.00  0.00     0.182 A 
HETATM   11  N8  UNL     1      21.555 -31.953  12.117  1.00  0.00    -0.348 N 
ATOM     12  H8  UNL     1      22.128 -31.623  11.340  1.00  0.00     0.167 HD
HETATM   13  C16 UNL     1      20.292 -31.461  12.237  1.00  0.00     0.098 A 
ENDROOT
BRANCH   1  14
HETATM   14  N2  UNL     1      20.629 -30.149  10.318  1.00  0.00    -0.334 N 
ATOM     15  H2  UNL     1      20.753 -30.841   9.580  1.00  0.00     0.168 HD
BRANCH  14  16
HETATM   16  C6  UNL     1      21.284 -28.956  10.080  1.00  0.00     0.123 A 
HETATM   17  N1  UNL     1      21.563 -28.040  11.055  1.00  0.00    -0.307 N 
HETATM   18  C5  UNL     1      22.207 -26.886  10.825  1.00  0.00     0.227 A 
ATOM     19  H1  UNL     1      21.267 -28.244  12.010  1.00  0.00     0.171 HD
HETATM   20  N9  UNL     1      22.592 -26.634   9.554  1.00  0.00    -0.288 N 
HETATM   21  C19 UNL     1      22.348 -27.494   8.549  1.00  0.00     0.260 A 
ATOM     22  H9  UNL     1      23.083 -25.763   9.350  1.00  0.00     0.172 HD
HETATM   23  C17 UNL     1      21.686 -28.679   8.789  1.00  0.00     0.077 A 
HETATM   24  O3  UNL     1      22.708 -27.259   7.361  1.00  0.00    -0.267 OA
BRANCH  18  25
HETATM   25  O1  UNL     1      22.474 -25.973  11.848  1.00  0.00    -0.322 OA
BRANCH  25  26
HETATM   26  C4  UNL     1      21.412 -25.195  12.329  1.00  0.00     0.178 C 
BRANCH  26  27
HETATM   27  C3  UNL     1      21.854 -23.856  12.853  1.00  0.00     0.026 C 
BRANCH  27  28
HETATM   28  C2  UNL     1      23.324 -23.606  12.622  1.00  0.00    -0.002 C 
HETATM   29  C1  UNL     1      24.079 -23.576  13.931  1.00  0.00     0.005 C 
ENDBRANCH  27  28
ENDBRANCH  26  27
ENDBRANCH  25  26
ENDBRANCH  18  25
BRANCH  23  30
HETATM   30  C18 UNL     1      21.416 -29.649   7.666  1.00  0.00     0.212 C 
BRANCH  30  31
HETATM   31  O2  UNL     1      22.564 -29.969   6.992  1.00  0.00    -0.396 OA
ATOM     32  H2  UNL     1      22.831 -30.865   7.163  1.00  0.00     0.209 HD
ENDBRANCH  30  31
ENDBRANCH  23  30
ENDBRANCH  14  16
ENDBRANCH   1  14
BRANCH   3  33
HETATM   33  C9  UNL     1      16.140 -30.264  13.184  1.00  0.00     0.141 A 
HETATM   34  N3  UNL     1      15.779 -29.395  14.179  1.00  0.00    -0.349 N 
HETATM   35  C10 UNL     1      14.445 -29.262  14.179  1.00  0.00     0.107 A 
ATOM     36  H3  UNL     1      16.422 -28.926  14.816  1.00  0.00     0.167 HD
HETATM   37  C11 UNL     1      13.950 -30.058  13.169  1.00  0.00     0.109 A 
HETATM   38  N4  UNL     1      15.043 -30.653  12.587  1.00  0.00    -0.344 N 
HETATM   39  C12 UNL     1      14.879 -31.572  11.468  1.00  0.00     0.157 C 
ENDBRANCH   3  33
BRANCH   7  40
HETATM   40  N6  UNL     1      19.437 -33.312  15.176  1.00  0.00    -0.384 N 
ATOM     41  H62 UNL     1      18.554 -32.854  15.401  1.00  0.00     0.157 HD
ATOM     42  H61 UNL     1      19.786 -34.098  15.725  1.00  0.00     0.157 HD
ENDBRANCH   7  40
TORSDOF 10
ENDMDL
MODEL 2
REMARK VINA RESULT: -7.612448335      3.440      8.205
REMARK  10 active torsions:
REMARK  status: ('A' for Active; 'I' for Inactive)
REMARK    1  A    between atoms: C2_2  and  C3_3 
REMARK    2  A    between atoms: C3_3  and  C4_4 
REMARK    3  A    between atoms: C4_4  and  O1_5 
REMARK    4  A    between atoms: O1_5  and  C5_6 
REMARK    5  A    between atoms: C6_9  and  N2_10 
REMARK    6  A    between atoms: N2_10  and  C7_12 
REMARK    7  A    between atoms: C8_14  and  C9_15 
REMARK    8  A    between atoms: C14_25  and  N6_26 
REMARK    9  A    between atoms: C17_35  and  C18_36 
REMARK   10  A    between atoms: C18_36  and  O2_37 
ROOT
HETATM    1  C7  UNL     1      20.827 -29.763   8.823  1.00  0.00     0.107 A 
HETATM    2  S1  UNL     1      20.587 -31.377   8.280  1.00  0.00    -0.048 SA
HETATM    3  C8  UNL     1      21.639 -31.811   6.978  1.00  0.00     0.121 A 
HETATM    4  N5  UNL     1      22.453 -30.849   6.607  1.00  0.00    -0.343 N 
ATOM      5  H5  UNL     1      23.087 -31.076   5.840  1.00  0.00     0.167 HD
HETATM    6  C13 UNL     1      22.560 -29.611   7.104  1.00  0.00     0.107 A 
HETATM    7  C14 UNL     1      23.511 -28.783   6.527  1.00  0.00     0.129 A 
HETATM    8  N7  UNL     1      23.700 -27.510   6.955  1.00  0.00    -0.337 N 
ATOM      9  H7  UNL     1      24.406 -26.926   6.508  1.00  0.00     0.168 HD
HETATM   10  C15 UNL     1      22.965 -27.012   7.961  1.00  0.00     0.182 A 
HETATM   11  N8  UNL     1      22.044 -27.806   8.524  1.00  0.00    -0.348 N 
ATOM     12  H8  UNL     1      21.485 -27.427   9.289  1.00  0.00     0.167 HD
HETATM   13  C16 UNL     1      21.810 -29.090   8.135  1.00  0.00     0.098 A 
ENDROOT
BRANCH   1  14
HETATM   14  N2  UNL     1      20.139 -29.274   9.775  1.00  0.00    -0.334 N 
ATOM     15  H2  UNL     1      19.819 -28.321   9.604  1.00  0.00     0.168 HD
BRANCH  14  16
HETATM   16  C6  UNL     1      19.743 -29.786  10.995  1.00  0.00     0.123 A 
HETATM   17  N1  UNL     1      18.571 -30.464  11.184  1.00  0.00    -0.307 N 
HETATM   18  C5  UNL     1      18.190 -30.968  12.367  1.00  0.00     0.227 A 
ATOM     19  H1  UNL     1      17.953 -30.594  10.383  1.00  0.00     0.171 HD
HETATM   20  N9  UNL     1      19.023 -30.786  13.416  1.00  0.00    -0.288 N 
HETATM   21  C19 UNL     1      20.190 -30.128  13.296  1.00  0.00     0.260 A 
ATOM     22  H9  UNL     1      18.758 -31.159  14.328  1.00  0.00     0.172 HD
HETATM   23  C17 UNL     1      20.578 -29.611  12.080  1.00  0.00     0.077 A 
HETATM   24  O3  UNL     1      20.969 -29.957  14.277  1.00  0.00    -0.267 OA
BRANCH  18  25
HETATM   25  O1  UNL     1      16.984 -31.657  12.522  1.00  0.00    -0.322 OA
BRANCH  25  26
HETATM   26  C4  UNL     1      15.813 -30.903  12.677  1.00  0.00     0.178 C 
BRANCH  26  27
HETATM   27  C3  UNL     1      14.654 -31.447  11.888  1.00  0.00     0.026 C 
BRANCH  27  28
HETATM   28  C2  UNL     1      13.375 -31.470  12.687  1.00  0.00    -0.002 C 
HETATM   29  C1  UNL     1      12.388 -32.451  12.098  1.00  0.00     0.005 C 
ENDBRANCH  27  28
ENDBRANCH  26  27
ENDBRANCH  25  26
ENDBRANCH  18  25
BRANCH  23  30
HETATM   30  C18 UNL     1      21.888 -28.877  11.940  1.00  0.00     0.212 C 
BRANCH  30  31
HETATM   31  O2  UNL     1      21.706 -27.612  11.449  1.00  0.00    -0.396 OA
ATOM     32  H2  UNL     1      21.375 -27.023  12.117  1.00  0.00     0.209 HD
ENDBRANCH  30  31
ENDBRANCH  23  30
ENDBRANCH  14  16
ENDBRANCH   1  14
BRANCH   3  33
HETATM   33  C9  UNL     1      21.552 -33.155   6.409  1.00  0.00     0.141 A 
HETATM   34  N3  UNL     1      22.191 -34.260   6.903  1.00  0.00    -0.349 N 
HETATM   35  C10 UNL     1      21.887 -35.317   6.137  1.00  0.00     0.107 A 
ATOM     36  H3  UNL     1      22.800 -34.276   7.720  1.00  0.00     0.167 HD
HETATM   37  C11 UNL     1      21.042 -34.879   5.141  1.00  0.00     0.109 A 
HETATM   38  N4  UNL     1      20.868 -33.533   5.359  1.00  0.00    -0.344 N 
HETATM   39  C12 UNL     1      20.019 -32.741   4.479  1.00  0.00     0.157 C 
ENDBRANCH   3  33
BRANCH   7  40
HETATM   40  N6  UNL     1      24.279 -29.161   5.547  1.00  0.00    -0.384 N 
ATOM     41  H62 UNL     1      24.329 -30.168   5.394  1.00  0.00     0.157 HD
ATOM     42  H61 UNL     1      24.801 -28.505   4.965  1.00  0.00     0.157 HD
ENDBRANCH   7  40
TORSDOF 10
ENDMDL
MODEL 3
REMARK VINA RESULT: -7.560853432      3.293      8.162
REMARK  10 active torsions:
REMARK  status: ('A' for Active; 'I' for Inactive)
REMARK    1  A    between atoms: C2_2  and  C3_3 
REMARK    2  A    between atoms: C3_3  and  C4_4 
REMARK    3  A    between atoms: C4_4  and  O1_5 
REMARK    4  A    between atoms: O1_5  and  C5_6 
REMARK    5  A    between atoms: C6_9  and  N2_10 
REMARK    6  A    between atoms: N2_10  and  C7_12 
REMARK    7  A    between atoms: C8_14  and  C9_15 
REMARK    8  A    between atoms: C14_25  and  N6_26 
REMARK    9  A    between atoms: C17_35  and  C18_36 
REMARK   10  A    between atoms: C18_36  and  O2_37 
ROOT
HETATM    1  C7  UNL     1      20.759 -29.442   9.762  1.00  0.00     0.107 A 
HETATM    2  S1  UNL     1      20.426 -30.844   8.823  1.00  0.00    -0.048 SA
HETATM    3  C8  UNL     1      21.254 -30.849   7.305  1.00  0.00     0.121 A 
HETATM    4  N5  UNL     1      22.003 -29.789   7.104  1.00  0.00    -0.343 N 
ATOM      5  H5  UNL     1      22.505 -29.763   6.216  1.00  0.00     0.167 HD
HETATM    6  C13 UNL     1      22.194 -28.739   7.912  1.00  0.00     0.107 A 
HETATM    7  C14 UNL     1      23.045 -27.743   7.455  1.00  0.00     0.129 A 
HETATM    8  N7  UNL     1      23.306 -26.637   8.195  1.00  0.00    -0.337 N 
ATOM      9  H7  UNL     1      23.935 -25.922   7.830  1.00  0.00     0.168 HD
HETATM   10  C15 UNL     1      22.745 -26.475   9.402  1.00  0.00     0.182 A 
HETATM   11  N8  UNL     1      21.922 -27.433   9.850  1.00  0.00    -0.348 N 
ATOM     12  H8  UNL     1      21.495 -27.309  10.769  1.00  0.00     0.167 HD
HETATM   13  C16 UNL     1      21.622 -28.562   9.152  1.00  0.00     0.098 A 
ENDROOT
BRANCH   1  14
HETATM   14  N2  UNL     1      20.235 -29.272  10.908  1.00  0.00    -0.334 N 
ATOM     15  H2  UNL     1      20.335 -28.323  11.270  1.00  0.00     0.168 HD
BRANCH  14  16
HETATM   16  C6  UNL     1      19.556 -30.124  11.758  1.00  0.00     0.123 A 
HETATM   17  N1  UNL     1      18.202 -30.309  11.718  1.00  0.00    -0.307 N 
HETATM   18  C5  UNL     1      17.545 -31.143  12.537  1.00  0.00     0.227 A 
ATOM     19  H1  UNL     1      17.663 -29.785  11.029  1.00  0.00     0.171 HD
HETATM   20  N9  UNL     1      18.277 -31.828  13.444  1.00  0.00    -0.288 N 
HETATM   21  C19 UNL     1      19.612 -31.691  13.534  1.00  0.00     0.260 A 
ATOM     22  H9  UNL     1      17.803 -32.469  14.080  1.00  0.00     0.172 HD
HETATM   23  C17 UNL     1      20.285 -30.833  12.691  1.00  0.00     0.077 A 
HETATM   24  O3  UNL     1      20.298 -32.331  14.381  1.00  0.00    -0.267 OA
BRANCH  18  25
HETATM   25  O1  UNL     1      16.159 -31.306  12.467  1.00  0.00    -0.322 OA
BRANCH  25  26
HETATM   26  C4  UNL     1      15.353 -30.382  13.146  1.00  0.00     0.178 C 
BRANCH  26  27
HETATM   27  C3  UNL     1      13.886 -30.693  13.041  1.00  0.00     0.026 C 
BRANCH  27  28
HETATM   28  C2  UNL     1      13.563 -31.546  11.839  1.00  0.00    -0.002 C 
HETATM   29  C1  UNL     1      12.457 -32.526  12.153  1.00  0.00     0.005 C 
ENDBRANCH  27  28
ENDBRANCH  26  27
ENDBRANCH  25  26
ENDBRANCH  18  25
BRANCH  23  30
HETATM   30  C18 UNL     1      21.783 -30.680  12.785  1.00  0.00     0.212 C 
BRANCH  30  31
HETATM   31  O2  UNL     1      22.429 -31.833  12.426  1.00  0.00    -0.396 OA
ATOM     32  H2  UNL     1      22.911 -31.723  11.615  1.00  0.00     0.209 HD
ENDBRANCH  30  31
ENDBRANCH  23  30
ENDBRANCH  14  16
ENDBRANCH   1  14
BRANCH   3  33
HETATM   33  C9  UNL     1      21.071 -31.979   6.397  1.00  0.00     0.141 A 
HETATM   34  N3  UNL     1      20.198 -32.007   5.343  1.00  0.00    -0.349 N 
HETATM   35  C10 UNL     1      20.294 -33.195   4.729  1.00  0.00     0.107 A 
ATOM     36  H3  UNL     1      19.575 -31.247   5.069  1.00  0.00     0.167 HD
HETATM   37  C11 UNL     1      21.242 -33.934   5.402  1.00  0.00     0.109 A 
HETATM   38  N4  UNL     1      21.690 -33.132   6.424  1.00  0.00    -0.344 N 
HETATM   39  C12 UNL     1      22.713 -33.606   7.346  1.00  0.00     0.157 C 
ENDBRANCH   3  33
BRANCH   7  40
HETATM   40  N6  UNL     1      23.644 -27.796   6.302  1.00  0.00    -0.384 N 
ATOM     41  H62 UNL     1      24.251 -28.603   6.161  1.00  0.00     0.157 HD
ATOM     42  H61 UNL     1      23.525 -27.085   5.579  1.00  0.00     0.157 HD
ENDBRANCH   7  40
TORSDOF 10
ENDMDL
MODEL 4
REMARK VINA RESULT: -7.258740811      1.576      4.595
REMARK  10 active torsions:
REMARK  status: ('A' for Active; 'I' for Inactive)
REMARK    1  A    between atoms: C2_2  and  C3_3 
REMARK    2  A    between atoms: C3_3  and  C4_4 
REMARK    3  A    between atoms: C4_4  and  O1_5 
REMARK    4  A    between atoms: O1_5  and  C5_6 
REMARK    5  A    between atoms: C6_9  and  N2_10 
REMARK    6  A    between atoms: N2_10  and  C7_12 
REMARK    7  A    between atoms: C8_14  and  C9_15 
REMARK    8  A    between atoms: C14_25  and  N6_26 
REMARK    9  A    between atoms: C17_35  and  C18_36 
REMARK   10  A    between atoms: C18_36  and  O2_37 
ROOT
HETATM    1  C7  UNL     1      19.903 -29.520  12.322  1.00  0.00     0.107 A 
HETATM    2  S1  UNL     1      18.225 -29.148  12.359  1.00  0.00    -0.048 SA
HETATM    3  C8  UNL     1      17.289 -30.346  13.182  1.00  0.00     0.121 A 
HETATM    4  N5  UNL     1      17.998 -31.348  13.649  1.00  0.00    -0.343 N 
ATOM      5  H5  UNL     1      17.473 -32.072  14.140  1.00  0.00     0.167 HD
HETATM    6  C13 UNL     1      19.319 -31.544  13.564  1.00  0.00     0.107 A 
HETATM    7  C14 UNL     1      19.821 -32.697  14.149  1.00  0.00     0.129 A 
HETATM    8  N7  UNL     1      21.145 -32.991  14.118  1.00  0.00    -0.337 N 
ATOM      9  H7  UNL     1      21.483 -33.848  14.556  1.00  0.00     0.168 HD
HETATM   10  C15 UNL     1      22.014 -32.164  13.518  1.00  0.00     0.182 A 
HETATM   11  N8  UNL     1      21.537 -31.048  12.951  1.00  0.00    -0.348 N 
ATOM     12  H8  UNL     1      22.199 -30.420  12.494  1.00  0.00     0.167 HD
HETATM   13  C16 UNL     1      20.220 -30.703  12.949  1.00  0.00     0.098 A 
ENDROOT
BRANCH   1  14
HETATM   14  N2  UNL     1      20.742 -28.749  11.757  1.00  0.00    -0.334 N 
ATOM     15  H2  UNL     1      21.161 -28.065  12.386  1.00  0.00     0.168 HD
BRANCH  14  16
HETATM   16  C6  UNL     1      21.193 -28.659  10.454  1.00  0.00     0.123 A 
HETATM   17  N1  UNL     1      20.888 -29.573   9.484  1.00  0.00    -0.307 N 
HETATM   18  C5  UNL     1      21.320 -29.481   8.218  1.00  0.00     0.227 A 
ATOM     19  H1  UNL     1      20.301 -30.368   9.737  1.00  0.00     0.171 HD
HETATM   20  N9  UNL     1      22.097 -28.420   7.903  1.00  0.00    -0.288 N 
HETATM   21  C19 UNL     1      22.432 -27.486   8.810  1.00  0.00     0.260 A 
ATOM     22  H9  UNL     1      22.439 -28.326   6.947  1.00  0.00     0.172 HD
HETATM   23  C17 UNL     1      21.988 -27.584  10.111  1.00  0.00     0.077 A 
HETATM   24  O3  UNL     1      23.159 -26.494   8.516  1.00  0.00    -0.267 OA
BRANCH  18  25
HETATM   25  O1  UNL     1      20.987 -30.436   7.254  1.00  0.00    -0.322 OA
BRANCH  25  26
HETATM   26  C4  UNL     1      22.008 -30.909   6.418  1.00  0.00     0.178 C 
BRANCH  26  27
HETATM   27  C3  UNL     1      21.488 -31.610   5.193  1.00  0.00     0.026 C 
BRANCH  27  28
HETATM   28  C2  UNL     1      20.111 -32.189   5.404  1.00  0.00    -0.002 C 
HETATM   29  C1  UNL     1      19.661 -32.969   4.190  1.00  0.00     0.005 C 
ENDBRANCH  27  28
ENDBRANCH  26  27
ENDBRANCH  25  26
ENDBRANCH  18  25
BRANCH  23  30
HETATM   30  C18 UNL     1      22.358 -26.535  11.130  1.00  0.00     0.212 C 
BRANCH  30  31
HETATM   31  O2  UNL     1      21.251 -25.878  11.599  1.00  0.00    -0.396 OA
ATOM     32  H2  UNL     1      21.170 -25.963  12.542  1.00  0.00     0.209 HD
ENDBRANCH  30  31
ENDBRANCH  23  30
ENDBRANCH  14  16
ENDBRANCH   1  14
BRANCH   3  33
HETATM   33  C9  UNL     1      15.843 -30.167  13.296  1.00  0.00     0.141 A 
HETATM   34  N3  UNL     1      15.215 -29.434  14.266  1.00  0.00    -0.349 N 
HETATM   35  C10 UNL     1      13.891 -29.487  14.065  1.00  0.00     0.107 A 
ATOM     36  H3  UNL     1      15.680 -28.930  15.021  1.00  0.00     0.167 HD
HETATM   37  C11 UNL     1      13.672 -30.265  12.949  1.00  0.00     0.109 A 
HETATM   38  N4  UNL     1      14.915 -30.658  12.514  1.00  0.00    -0.344 N 
HETATM   39  C12 UNL     1      15.056 -31.504  11.336  1.00  0.00     0.157 C 
ENDBRANCH   3  33
BRANCH   7  40
HETATM   40  N6  UNL     1      19.072 -33.568  14.758  1.00  0.00    -0.384 N 
ATOM     41  H62 UNL     1      18.069 -33.462  14.608  1.00  0.00     0.157 HD
ATOM     42  H61 UNL     1      19.448 -34.311  15.347  1.00  0.00     0.157 HD
ENDBRANCH   7  40
TORSDOF 10
ENDMDL
MODEL 5
REMARK VINA RESULT: -7.230151870      3.834      7.546
REMARK  10 active torsions:
REMARK  status: ('A' for Active; 'I' for Inactive)
REMARK    1  A    between atoms: C2_2  and  C3_3 
REMARK    2  A    between atoms: C3_3  and  C4_4 
REMARK    3  A    between atoms: C4_4  and  O1_5 
REMARK    4  A    between atoms: O1_5  and  C5_6 
REMARK    5  A    between atoms: C6_9  and  N2_10 
REMARK    6  A    between atoms: N2_10  and  C7_12 
REMARK    7  A    between atoms: C8_14  and  C9_15 
REMARK    8  A    between atoms: C14_25  and  N6_26 
REMARK    9  A    between atoms: C17_35  and  C18_36 
REMARK   10  A    between atoms: C18_36  and  O2_37 
ROOT
HETATM    1  C7  UNL     1      21.005 -31.113   8.715  1.00  0.00     0.107 A 
HETATM    2  S1  UNL     1      20.612 -31.090   7.041  1.00  0.00    -0.048 SA
HETATM    3  C8  UNL     1      21.052 -32.550   6.227  1.00  0.00     0.121 A 
HETATM    4  N5  UNL     1      21.616 -33.445   7.006  1.00  0.00    -0.343 N 
ATOM      5  H5  UNL     1      21.887 -34.318   6.553  1.00  0.00     0.167 HD
HETATM    6  C13 UNL     1      21.879 -33.361   8.315  1.00  0.00     0.107 A 
HETATM    7  C14 UNL     1      22.486 -34.461   8.904  1.00  0.00     0.129 A 
HETATM    8  N7  UNL     1      22.797 -34.478  10.224  1.00  0.00    -0.337 N 
ATOM      9  H7  UNL     1      23.244 -35.301  10.627  1.00  0.00     0.168 HD
HETATM   10  C15 UNL     1      22.521 -33.423  11.005  1.00  0.00     0.182 A 
HETATM   11  N8  UNL     1      21.935 -32.357  10.443  1.00  0.00    -0.348 N 
ATOM     12  H8  UNL     1      21.726 -31.555  11.037  1.00  0.00     0.167 HD
HETATM   13  C16 UNL     1      21.602 -32.283   9.125  1.00  0.00     0.098 A 
ENDROOT
BRANCH   1  14
HETATM   14  N2  UNL     1      20.751 -30.121   9.470  1.00  0.00    -0.334 N 
ATOM     15  H2  UNL     1      21.178 -29.249   9.160  1.00  0.00     0.168 HD
BRANCH  14  16
HETATM   16  C6  UNL     1      20.009 -29.999  10.629  1.00  0.00     0.123 A 
HETATM   17  N1  UNL     1      18.907 -30.761  10.904  1.00  0.00    -0.307 N 
HETATM   18  C5  UNL     1      18.192 -30.648  12.032  1.00  0.00     0.227 A 
ATOM     19  H1  UNL     1      18.614 -31.453  10.213  1.00  0.00     0.171 HD
HETATM   20  N9  UNL     1      18.597 -29.726  12.934  1.00  0.00    -0.288 N 
HETATM   21  C19 UNL     1      19.672 -28.946  12.724  1.00  0.00     0.260 A 
ATOM     22  H9  UNL     1      18.072 -29.619  13.801  1.00  0.00     0.172 HD
HETATM   23  C17 UNL     1      20.405 -29.064  11.563  1.00  0.00     0.077 A 
HETATM   24  O3  UNL     1      20.052 -28.084  13.567  1.00  0.00    -0.267 OA
BRANCH  18  25
HETATM   25  O1  UNL     1      17.071 -31.445  12.278  1.00  0.00    -0.322 OA
BRANCH  25  26
HETATM   26  C4  UNL     1      15.876 -30.806  12.636  1.00  0.00     0.178 C 
BRANCH  26  27
HETATM   27  C3  UNL     1      14.655 -31.494  12.090  1.00  0.00     0.026 C 
BRANCH  27  28
HETATM   28  C2  UNL     1      13.397 -31.099  12.824  1.00  0.00    -0.002 C 
HETATM   29  C1  UNL     1      13.689 -30.047  13.868  1.00  0.00     0.005 C 
ENDBRANCH  27  28
ENDBRANCH  26  27
ENDBRANCH  25  26
ENDBRANCH  18  25
BRANCH  23  30
HETATM   30  C18 UNL     1      21.615 -28.194  11.326  1.00  0.00     0.212 C 
BRANCH  30  31
HETATM   31  O2  UNL     1      21.304 -26.864  11.423  1.00  0.00    -0.396 OA
ATOM     32  H2  UNL     1      21.141 -26.609  12.323  1.00  0.00     0.209 HD
ENDBRANCH  30  31
ENDBRANCH  23  30
ENDBRANCH  14  16
ENDBRANCH   1  14
BRANCH   3  33
HETATM   33  C9  UNL     1      20.780 -32.679   4.797  1.00  0.00     0.141 A 
HETATM   34  N3  UNL     1      21.603 -32.238   3.796  1.00  0.00    -0.349 N 
HETATM   35  C10 UNL     1      21.041 -32.522   2.612  1.00  0.00     0.107 A 
ATOM     36  H3  UNL     1      22.499 -31.770   3.930  1.00  0.00     0.167 HD
HETATM   37  C11 UNL     1      19.842 -33.153   2.863  1.00  0.00     0.109 A 
HETATM   38  N4  UNL     1      19.732 -33.224   4.232  1.00  0.00    -0.344 N 
HETATM   39  C12 UNL     1      18.568 -33.841   4.852  1.00  0.00     0.157 C 
ENDBRANCH   3  33
BRANCH   7  40
HETATM   40  N6  UNL     1      22.797 -35.537   8.245  1.00  0.00    -0.384 N 
ATOM     41  H62 UNL     1      22.158 -35.788   7.490  1.00  0.00     0.157 HD
ATOM     42  H61 UNL     1      23.621 -36.102   8.457  1.00  0.00     0.157 HD
ENDBRANCH   7  40
TORSDOF 10
ENDMDL
