MODEL 1
REMARK VINA RESULT: -7.049249711      0.000      0.000
REMARK  12 active torsions:
REMARK  status: ('A' for Active; 'I' for Inactive)
REMARK    1  A    between atoms: C2_2  and  C3_3 
REMARK    2  A    between atoms: C3_3  and  C4_4 
REMARK    3  A    between atoms: C4_4  and  O1_5 
REMARK    4  A    between atoms: O1_5  and  C5_6 
REMARK    5  A    between atoms: C5_6  and  C6_8 
REMARK    6  A    between atoms: C7_11  and  N2_12 
REMARK    7  A    between atoms: N2_12  and  C8_14 
REMARK    8  A    between atoms: C11_21  and  N5_22 
REMARK    9  A    between atoms: N5_22  and  C12_24 
REMARK   10  A    between atoms: C12_24  and  N6_26 
REMARK   11  A    between atoms: C12_24  and  C14_30 
REMARK   12  A    between atoms: C14_30  and  O3_31 
ROOT
HETATM    1  C8  UNL     1      21.212 -30.077   7.969  1.00  0.00     0.137 A 
HETATM    2  N3  UNL     1      20.697 -31.317   7.902  1.00  0.00    -0.337 N 
ATOM      3  H3  UNL     1      19.897 -31.555   8.487  1.00  0.00     0.168 HD
HETATM    4  C9  UNL     1      21.214 -32.254   7.080  1.00  0.00     0.182 A 
HETATM    5  N4  UNL     1      22.264 -31.992   6.290  1.00  0.00    -0.347 N 
ATOM      6  H4  UNL     1      22.637 -32.716   5.676  1.00  0.00     0.167 HD
HETATM    7  C10 UNL     1      22.827 -30.763   6.312  1.00  0.00     0.108 A 
HETATM    8  C11 UNL     1      23.925 -30.515   5.477  1.00  0.00     0.134 A 
HETATM    9  N7  UNL     1      24.429 -29.275   5.554  1.00  0.00    -0.331 N 
ATOM     10  H7  UNL     1      25.229 -29.035   4.969  1.00  0.00     0.168 HD
HETATM   11  C15 UNL     1      23.914 -28.324   6.382  1.00  0.00     0.079 A 
HETATM   12  C16 UNL     1      24.547 -26.965   6.396  1.00  0.00     0.089 C 
HETATM   13  N8  UNL     1      22.860 -28.583   7.174  1.00  0.00    -0.341 N 
ATOM     14  H8  UNL     1      22.486 -27.860   7.789  1.00  0.00     0.167 HD
HETATM   15  C17 UNL     1      22.310 -29.796   7.147  1.00  0.00     0.109 A 
ENDROOT
BRANCH   1  16
HETATM   16  N2  UNL     1      20.749 -29.173   8.734  1.00  0.00    -0.321 N 
ATOM     17  H2  UNL     1      20.531 -28.239   8.387  1.00  0.00     0.169 HD
BRANCH  16  18
HETATM   18  C7  UNL     1      20.544 -29.537  10.125  1.00  0.00     0.151 A 
HETATM   19  N1  UNL     1      19.624 -30.319  10.620  1.00  0.00    -0.331 N 
HETATM   20  C6  UNL     1      19.568 -30.553  11.913  1.00  0.00     0.123 A 
ATOM     21  H1  UNL     1      18.941 -30.753   9.998  1.00  0.00     0.168 HD
HETATM   22  C18 UNL     1      20.507 -29.945  12.687  1.00  0.00     0.015 A 
HETATM   23  S1  UNL     1      21.419 -29.066  11.505  1.00  0.00    -0.056 SA
HETATM   24  C19 UNL     1      20.749 -30.008  14.157  1.00  0.00     0.059 C 
BRANCH  20  25
HETATM   25  C5  UNL     1      18.528 -31.476  12.426  1.00  0.00     0.311 C 
HETATM   26  O2  UNL     1      18.837 -32.541  13.044  1.00  0.00    -0.258 OA
BRANCH  25  27
HETATM   27  O1  UNL     1      17.191 -31.227  12.260  1.00  0.00    -0.316 OA
BRANCH  27  28
HETATM   28  C4  UNL     1      16.600 -30.338  13.220  1.00  0.00     0.179 C 
BRANCH  28  29
HETATM   29  C3  UNL     1      15.126 -30.367  13.147  1.00  0.00     0.026 C 
BRANCH  29  30
HETATM   30  C2  UNL     1      14.606 -31.347  12.150  1.00  0.00    -0.002 C 
HETATM   31  C1  UNL     1      13.230 -31.838  12.398  1.00  0.00     0.005 C 
ENDBRANCH  29  30
ENDBRANCH  28  29
ENDBRANCH  27  28
ENDBRANCH  25  27
ENDBRANCH  20  25
ENDBRANCH  16  18
ENDBRANCH   1  16
BRANCH   8  32
HETATM   32  N5  UNL     1      24.329 -31.463   4.746  1.00  0.00    -0.341 N 
ATOM     33  H5  UNL     1      23.670 -31.750   4.022  1.00  0.00     0.163 HD
BRANCH  32  34
HETATM   34  C12 UNL     1      25.540 -32.195   4.757  1.00  0.00     0.214 C 
HETATM   35  C13 UNL     1      26.620 -31.685   5.647  1.00  0.00     0.073 C 
BRANCH  34  36
HETATM   36  N6  UNL     1      26.044 -32.208   3.382  1.00  0.00    -0.051 N 
ATOM     37  H63 UNL     1      25.713 -31.420   2.827  1.00  0.00     0.277 HD
ATOM     38  H62 UNL     1      27.041 -32.003   3.319  1.00  0.00     0.277 HD
ATOM     39  H61 UNL     1      25.795 -33.113   2.982  1.00  0.00     0.277 HD
ENDBRANCH  34  36
BRANCH  34  40
HETATM   40  C14 UNL     1      25.192 -33.657   5.075  1.00  0.00     0.225 C 
BRANCH  40  41
HETATM   41  O3  UNL     1      24.841 -33.715   6.408  1.00  0.00    -0.397 OA
ATOM     42  H3  UNL     1      25.358 -34.404   6.806  1.00  0.00     0.209 HD
ENDBRANCH  40  41
ENDBRANCH  34  40
ENDBRANCH  32  34
ENDBRANCH   8  32
TORSDOF 12
ENDMDL
MODEL 2
REMARK VINA RESULT: -6.932813000      5.444      6.932
REMARK  12 active torsions:
REMARK  status: ('A' for Active; 'I' for Inactive)
REMARK    1  A    between atoms: C2_2  and  C3_3 
REMARK    2  A    between atoms: C3_3  and  C4_4 
REMARK    3  A    between atoms: C4_4  and  O1_5 
REMARK    4  A    between atoms: O1_5  and  C5_6 
REMARK    5  A    between atoms: C5_6  and  C6_8 
REMARK    6  A    between atoms: C7_11  and  N2_12 
REMARK    7  A    between atoms: N2_12  and  C8_14 
REMARK    8  A    between atoms: C11_21  and  N5_22 
REMARK    9  A    between atoms: N5_22  and  C12_24 
REMARK   10  A    between atoms: C12_24  and  N6_26 
REMARK   11  A    between atoms: C12_24  and  C14_30 
REMARK   12  A    between atoms: C14_30  and  O3_31 
ROOT
HETATM    1  C8  UNL     1      22.347 -34.074  13.417  1.00  0.00     0.137 A 
HETATM    2  N3  UNL     1      22.342 -34.334  12.098  1.00  0.00    -0.337 N 
ATOM      3  H3  UNL     1      21.492 -34.167  11.561  1.00  0.00     0.168 HD
HETATM    4  C9  UNL     1      23.436 -34.812  11.468  1.00  0.00     0.182 A 
HETATM    5  N4  UNL     1      24.578 -35.048  12.126  1.00  0.00    -0.347 N 
ATOM      6  H4  UNL     1      25.393 -35.408  11.628  1.00  0.00     0.167 HD
HETATM    7  C10 UNL     1      24.647 -34.806  13.455  1.00  0.00     0.108 A 
HETATM    8  C11 UNL     1      25.854 -35.062  14.120  1.00  0.00     0.134 A 
HETATM    9  N7  UNL     1      25.844 -34.798  15.435  1.00  0.00    -0.331 N 
ATOM     10  H7  UNL     1      26.694 -34.964  15.973  1.00  0.00     0.168 HD
HETATM   11  C15 UNL     1      24.745 -34.317  16.079  1.00  0.00     0.079 A 
HETATM   12  C16 UNL     1      24.834 -34.052  17.552  1.00  0.00     0.089 C 
HETATM   13  N8  UNL     1      23.597 -34.078  15.421  1.00  0.00    -0.341 N 
ATOM     14  H8  UNL     1      22.783 -33.718  15.918  1.00  0.00     0.167 HD
HETATM   15  C17 UNL     1      23.538 -34.319  14.113  1.00  0.00     0.109 A 
ENDROOT
BRANCH   1  16
HETATM   16  N2  UNL     1      21.334 -33.625  14.040  1.00  0.00    -0.321 N 
ATOM     17  H2  UNL     1      20.904 -34.142  14.807  1.00  0.00     0.169 HD
BRANCH  16  18
HETATM   18  C7  UNL     1      20.820 -32.337  13.607  1.00  0.00     0.151 A 
HETATM   19  N1  UNL     1      19.608 -32.049  13.219  1.00  0.00    -0.331 N 
HETATM   20  C6  UNL     1      19.294 -30.825  12.854  1.00  0.00     0.123 A 
ATOM     21  H1  UNL     1      18.897 -32.780  13.198  1.00  0.00     0.168 HD
HETATM   22  C18 UNL     1      20.287 -29.896  12.905  1.00  0.00     0.015 A 
HETATM   23  S1  UNL     1      21.621 -30.842  13.476  1.00  0.00    -0.056 SA
HETATM   24  C19 UNL     1      20.275 -28.438  12.593  1.00  0.00     0.059 C 
BRANCH  20  25
HETATM   25  C5  UNL     1      17.896 -30.537  12.454  1.00  0.00     0.311 C 
HETATM   26  O2  UNL     1      17.368 -31.103  11.447  1.00  0.00    -0.258 OA
BRANCH  25  27
HETATM   27  O1  UNL     1      17.111 -29.653  13.144  1.00  0.00    -0.316 OA
BRANCH  27  28
HETATM   28  C4  UNL     1      15.994 -30.226  13.842  1.00  0.00     0.179 C 
BRANCH  28  29
HETATM   29  C3  UNL     1      14.720 -29.609  13.421  1.00  0.00     0.026 C 
BRANCH  29  30
HETATM   30  C2  UNL     1      13.623 -30.602  13.228  1.00  0.00    -0.002 C 
HETATM   31  C1  UNL     1      13.916 -31.697  12.274  1.00  0.00     0.005 C 
ENDBRANCH  29  30
ENDBRANCH  28  29
ENDBRANCH  27  28
ENDBRANCH  25  27
ENDBRANCH  20  25
ENDBRANCH  16  18
ENDBRANCH   1  16
BRANCH   8  32
HETATM   32  N5  UNL     1      26.816 -35.508  13.435  1.00  0.00    -0.341 N 
ATOM     33  H5  UNL     1      26.673 -36.450  13.069  1.00  0.00     0.163 HD
BRANCH  32  34
HETATM   34  C12 UNL     1      28.058 -34.928  13.086  1.00  0.00     0.214 C 
HETATM   35  C13 UNL     1      29.183 -35.136  14.041  1.00  0.00     0.073 C 
BRANCH  34  36
HETATM   36  N6  UNL     1      27.833 -33.487  12.947  1.00  0.00    -0.051 N 
ATOM     37  H63 UNL     1      28.693 -32.942  12.986  1.00  0.00     0.277 HD
ATOM     38  H62 UNL     1      27.548 -33.215  12.006  1.00  0.00     0.277 HD
ATOM     39  H61 UNL     1      27.157 -33.221  13.663  1.00  0.00     0.277 HD
ENDBRANCH  34  36
BRANCH  34  40
HETATM   40  C14 UNL     1      28.418 -35.419  11.677  1.00  0.00     0.225 C 
BRANCH  40  41
HETATM   41  O3  UNL     1      27.329 -35.176  10.866  1.00  0.00    -0.397 OA
ATOM     42  H3  UNL     1      27.498 -35.594  10.031  1.00  0.00     0.209 HD
ENDBRANCH  40  41
ENDBRANCH  34  40
ENDBRANCH  32  34
ENDBRANCH   8  32
TORSDOF 12
ENDMDL
MODEL 3
REMARK VINA RESULT: -6.829120996      1.510      1.619
REMARK  12 active torsions:
REMARK  status: ('A' for Active; 'I' for Inactive)
REMARK    1  A    between atoms: C2_2  and  C3_3 
REMARK    2  A    between atoms: C3_3  and  C4_4 
REMARK    3  A    between atoms: C4_4  and  O1_5 
REMARK    4  A    between atoms: O1_5  and  C5_6 
REMARK    5  A    between atoms: C5_6  and  C6_8 
REMARK    6  A    between atoms: C7_11  and  N2_12 
REMARK    7  A    between atoms: N2_12  and  C8_14 
REMARK    8  A    between atoms: C11_21  and  N5_22 
REMARK    9  A    between atoms: N5_22  and  C12_24 
REMARK   10  A    between atoms: C12_24  and  N6_26 
REMARK   11  A    between atoms: C12_24  and  C14_30 
REMARK   12  A    between atoms: C14_30  and  O3_31 
ROOT
HETATM    1  C8  UNL     1      21.434 -31.115   7.204  1.00  0.00     0.137 A 
HETATM    2  N3  UNL     1      21.165 -32.419   7.016  1.00  0.00    -0.337 N 
ATOM      3  H3  UNL     1      20.333 -32.822   7.447  1.00  0.00     0.168 HD
HETATM    4  C9  UNL     1      21.968 -33.207   6.270  1.00  0.00     0.182 A 
HETATM    5  N4  UNL     1      23.071 -32.726   5.682  1.00  0.00    -0.347 N 
ATOM      6  H4  UNL     1      23.663 -33.341   5.122  1.00  0.00     0.167 HD
HETATM    7  C10 UNL     1      23.397 -31.422   5.833  1.00  0.00     0.108 A 
HETATM    8  C11 UNL     1      24.557 -30.946   5.207  1.00  0.00     0.134 A 
HETATM    9  N7  UNL     1      24.813 -29.644   5.403  1.00  0.00    -0.331 N 
ATOM     10  H7  UNL     1      25.644 -29.239   4.972  1.00  0.00     0.168 HD
HETATM   11  C15 UNL     1      24.008 -28.842   6.155  1.00  0.00     0.079 A 
HETATM   12  C16 UNL     1      24.380 -27.399   6.314  1.00  0.00     0.089 C 
HETATM   13  N8  UNL     1      22.900 -29.321   6.746  1.00  0.00    -0.341 N 
ATOM     14  H8  UNL     1      22.307 -28.707   7.305  1.00  0.00     0.167 HD
HETATM   15  C17 UNL     1      22.586 -30.606   6.592  1.00  0.00     0.109 A 
ENDROOT
BRANCH   1  16
HETATM   16  N2  UNL     1      20.698 -30.347   7.900  1.00  0.00    -0.321 N 
ATOM     17  H2  UNL     1      20.139 -29.610   7.472  1.00  0.00     0.169 HD
BRANCH  16  18
HETATM   18  C7  UNL     1      20.693 -30.573   9.335  1.00  0.00     0.151 A 
HETATM   19  N1  UNL     1      20.084 -29.873  10.253  1.00  0.00    -0.331 N 
HETATM   20  C6  UNL     1      20.175 -30.207  11.521  1.00  0.00     0.123 A 
ATOM     21  H1  UNL     1      19.532 -29.058   9.983  1.00  0.00     0.168 HD
HETATM   22  C18 UNL     1      20.926 -31.303  11.814  1.00  0.00     0.015 A 
HETATM   23  S1  UNL     1      21.460 -31.791  10.240  1.00  0.00    -0.056 SA
HETATM   24  C19 UNL     1      21.217 -31.966  13.118  1.00  0.00     0.059 C 
BRANCH  20  25
HETATM   25  C5  UNL     1      19.438 -29.403  12.525  1.00  0.00     0.311 C 
HETATM   26  O2  UNL     1      20.035 -28.556  13.258  1.00  0.00    -0.258 OA
BRANCH  25  27
HETATM   27  O1  UNL     1      18.087 -29.532  12.709  1.00  0.00    -0.316 OA
BRANCH  27  28
HETATM   28  C4  UNL     1      17.625 -30.858  13.009  1.00  0.00     0.179 C 
BRANCH  28  29
HETATM   29  C3  UNL     1      16.498 -31.247  12.138  1.00  0.00     0.026 C 
BRANCH  29  30
HETATM   30  C2  UNL     1      15.166 -30.890  12.706  1.00  0.00    -0.002 C 
HETATM   31  C1  UNL     1      14.014 -31.639  12.150  1.00  0.00     0.005 C 
ENDBRANCH  29  30
ENDBRANCH  28  29
ENDBRANCH  27  28
ENDBRANCH  25  27
ENDBRANCH  20  25
ENDBRANCH  16  18
ENDBRANCH   1  16
BRANCH   8  32
HETATM   32  N5  UNL     1      25.238 -31.768   4.533  1.00  0.00    -0.341 N 
ATOM     33  H5  UNL     1      24.761 -32.135   3.708  1.00  0.00     0.163 HD
BRANCH  32  34
HETATM   34  C12 UNL     1      26.548 -32.268   4.722  1.00  0.00     0.214 C 
HETATM   35  C13 UNL     1      27.040 -32.332   6.127  1.00  0.00     0.073 C 
BRANCH  34  36
HETATM   36  N6  UNL     1      27.449 -31.405   3.957  1.00  0.00    -0.051 N 
ATOM     37  H63 UNL     1      27.741 -31.816   3.070  1.00  0.00     0.277 HD
ATOM     38  H62 UNL     1      26.986 -30.581   3.572  1.00  0.00     0.277 HD
ATOM     39  H61 UNL     1      28.232 -31.174   4.569  1.00  0.00     0.277 HD
ENDBRANCH  34  36
BRANCH  34  40
HETATM   40  C14 UNL     1      26.622 -33.640   4.037  1.00  0.00     0.225 C 
BRANCH  40  41
HETATM   41  O3  UNL     1      25.387 -34.238   4.179  1.00  0.00    -0.397 OA
ATOM     42  H3  UNL     1      25.248 -34.784   3.415  1.00  0.00     0.209 HD
ENDBRANCH  40  41
ENDBRANCH  34  40
ENDBRANCH  32  34
ENDBRANCH   8  32
TORSDOF 12
ENDMDL
MODEL 4
REMARK VINA RESULT: -6.793307537      5.651      6.678
REMARK  12 active torsions:
REMARK  status: ('A' for Active; 'I' for Inactive)
REMARK    1  A    between atoms: C2_2  and  C3_3 
REMARK    2  A    between atoms: C3_3  and  C4_4 
REMARK    3  A    between atoms: C4_4  and  O1_5 
REMARK    4  A    between atoms: O1_5  and  C5_6 
REMARK    5  A    between atoms: C5_6  and  C6_8 
REMARK    6  A    between atoms: C7_11  and  N2_12 
REMARK    7  A    between atoms: N2_12  and  C8_14 
REMARK    8  A    between atoms: C11_21  and  N5_22 
REMARK    9  A    between atoms: N5_22  and  C12_24 
REMARK   10  A    between atoms: C12_24  and  N6_26 
REMARK   11  A    between atoms: C12_24  and  C14_30 
REMARK   12  A    between atoms: C14_30  and  O3_31 
ROOT
HETATM    1  C8  UNL     1      23.039 -34.066  13.715  1.00  0.00     0.137 A 
HETATM    2  N3  UNL     1      23.316 -33.907  15.022  1.00  0.00    -0.337 N 
ATOM      3  H3  UNL     1      22.548 -33.786  15.682  1.00  0.00     0.168 HD
HETATM    4  C9  UNL     1      24.585 -33.904  15.480  1.00  0.00     0.182 A 
HETATM    5  N4  UNL     1      25.629 -34.060  14.655  1.00  0.00    -0.347 N 
ATOM      6  H4  UNL     1      26.580 -34.055  15.025  1.00  0.00     0.167 HD
HETATM    7  C10 UNL     1      25.416 -34.224  13.330  1.00  0.00     0.108 A 
HETATM    8  C11 UNL     1      26.526 -34.384  12.489  1.00  0.00     0.134 A 
HETATM    9  N7  UNL     1      26.235 -34.540  11.189  1.00  0.00    -0.331 N 
ATOM     10  H7  UNL     1      27.002 -34.662  10.528  1.00  0.00     0.168 HD
HETATM   11  C15 UNL     1      24.957 -34.544  10.718  1.00  0.00     0.079 A 
HETATM   12  C16 UNL     1      24.734 -34.727   9.247  1.00  0.00     0.089 C 
HETATM   13  N8  UNL     1      23.907 -34.389  11.543  1.00  0.00    -0.341 N 
ATOM     14  H8  UNL     1      22.956 -34.394  11.175  1.00  0.00     0.167 HD
HETATM   15  C17 UNL     1      24.125 -34.229  12.847  1.00  0.00     0.109 A 
ENDROOT
BRANCH   1  16
HETATM   16  N2  UNL     1      21.855 -34.073  13.253  1.00  0.00    -0.321 N 
ATOM     17  H2  UNL     1      21.387 -34.941  12.992  1.00  0.00     0.169 HD
BRANCH  16  18
HETATM   18  C7  UNL     1      21.201 -32.783  13.113  1.00  0.00     0.151 A 
HETATM   19  N1  UNL     1      19.951 -32.548  12.821  1.00  0.00    -0.331 N 
HETATM   20  C6  UNL     1      19.505 -31.314  12.730  1.00  0.00     0.123 A 
ATOM     21  H1  UNL     1      19.313 -33.328  12.661  1.00  0.00     0.168 HD
HETATM   22  C18 UNL     1      20.404 -30.318  12.955  1.00  0.00     0.015 A 
HETATM   23  S1  UNL     1      21.847 -31.219  13.285  1.00  0.00    -0.056 SA
HETATM   24  C19 UNL     1      20.239 -28.837  12.960  1.00  0.00     0.059 C 
BRANCH  20  25
HETATM   25  C5  UNL     1      18.070 -31.095  12.430  1.00  0.00     0.311 C 
HETATM   26  O2  UNL     1      17.661 -30.942  11.238  1.00  0.00    -0.258 OA
BRANCH  25  27
HETATM   27  O1  UNL     1      17.121 -31.048  13.417  1.00  0.00    -0.316 OA
BRANCH  27  28
HETATM   28  C4  UNL     1      16.220 -29.931  13.360  1.00  0.00     0.179 C 
BRANCH  28  29
HETATM   29  C3  UNL     1      14.812 -30.369  13.420  1.00  0.00     0.026 C 
BRANCH  29  30
HETATM   30  C2  UNL     1      14.426 -31.262  12.288  1.00  0.00    -0.002 C 
HETATM   31  C1  UNL     1      13.186 -32.048  12.491  1.00  0.00     0.005 C 
ENDBRANCH  29  30
ENDBRANCH  28  29
ENDBRANCH  27  28
ENDBRANCH  25  27
ENDBRANCH  20  25
ENDBRANCH  16  18
ENDBRANCH   1  16
BRANCH   8  32
HETATM   32  N5  UNL     1      27.671 -34.365  13.021  1.00  0.00    -0.341 N 
ATOM     33  H5  UNL     1      27.900 -33.493  13.500  1.00  0.00     0.163 HD
BRANCH  32  34
HETATM   34  C12 UNL     1      28.691 -35.345  13.070  1.00  0.00     0.214 C 
HETATM   35  C13 UNL     1      29.701 -35.311  11.974  1.00  0.00     0.073 C 
BRANCH  34  36
HETATM   36  N6  UNL     1      28.030 -36.651  13.046  1.00  0.00    -0.051 N 
ATOM     37  H63 UNL     1      28.682 -37.429  12.946  1.00  0.00     0.277 HD
ATOM     38  H62 UNL     1      27.644 -36.922  13.951  1.00  0.00     0.277 HD
ATOM     39  H61 UNL     1      27.329 -36.618  12.306  1.00  0.00     0.277 HD
ENDBRANCH  34  36
BRANCH  34  40
HETATM   40  C14 UNL     1      29.355 -35.252  14.451  1.00  0.00     0.225 C 
BRANCH  40  41
HETATM   41  O3  UNL     1      28.352 -35.324  15.395  1.00  0.00    -0.397 OA
ATOM     42  H3  UNL     1      28.220 -36.242  15.597  1.00  0.00     0.209 HD
ENDBRANCH  40  41
ENDBRANCH  34  40
ENDBRANCH  32  34
ENDBRANCH   8  32
TORSDOF 12
ENDMDL
MODEL 5
REMARK VINA RESULT: -6.718178980      5.737      6.774
REMARK  12 active torsions:
REMARK  status: ('A' for Active; 'I' for Inactive)
REMARK    1  A    between atoms: C2_2  and  C3_3 
REMARK    2  A    between atoms: C3_3  and  C4_4 
REMARK    3  A    between atoms: C4_4  and  O1_5 
REMARK    4  A    between atoms: O1_5  and  C5_6 
REMARK    5  A    between atoms: C5_6  and  C6_8 
REMARK    6  A    between atoms: C7_11  and  N2_12 
REMARK    7  A    between atoms: N2_12  and  C8_14 
REMARK    8  A    between atoms: C11_21  and  N5_22 
REMARK    9  A    between atoms: N5_22  and  C12_24 
REMARK   10  A    between atoms: C12_24  and  N6_26 
REMARK   11  A    between atoms: C12_24  and  C14_30 
REMARK   12  A    between atoms: C14_30  and  O3_31 
ROOT
HETATM    1  C8  UNL     1      23.006 -33.962  13.701  1.00  0.00     0.137 A 
HETATM    2  N3  UNL     1      23.212 -33.769  15.015  1.00  0.00    -0.337 N 
ATOM      3  H3  UNL     1      22.409 -33.627  15.629  1.00  0.00     0.168 HD
HETATM    4  C9  UNL     1      24.454 -33.758  15.543  1.00  0.00     0.182 A 
HETATM    5  N4  UNL     1      25.541 -33.940  14.781  1.00  0.00    -0.347 N 
ATOM      6  H4  UNL     1      26.470 -33.929  15.203  1.00  0.00     0.167 HD
HETATM    7  C10 UNL     1      25.400 -34.139  13.451  1.00  0.00     0.108 A 
HETATM    8  C11 UNL     1      26.554 -34.327  12.677  1.00  0.00     0.134 A 
HETATM    9  N7  UNL     1      26.334 -34.518  11.368  1.00  0.00    -0.331 N 
ATOM     10  H7  UNL     1      27.135 -34.660  10.754  1.00  0.00     0.168 HD
HETATM   11  C15 UNL     1      25.084 -34.529  10.828  1.00  0.00     0.079 A 
HETATM   12  C16 UNL     1      24.942 -34.752   9.352  1.00  0.00     0.089 C 
HETATM   13  N8  UNL     1      23.991 -34.348  11.589  1.00  0.00    -0.341 N 
ATOM     14  H8  UNL     1      23.062 -34.359  11.169  1.00  0.00     0.167 HD
HETATM   15  C17 UNL     1      24.138 -34.153  12.898  1.00  0.00     0.109 A 
ENDROOT
BRANCH   1  16
HETATM   16  N2  UNL     1      21.850 -33.977  13.174  1.00  0.00    -0.321 N 
ATOM     17  H2  UNL     1      21.417 -34.845  12.858  1.00  0.00     0.169 HD
BRANCH  16  18
HETATM   18  C7  UNL     1      21.174 -32.697  13.044  1.00  0.00     0.151 A 
HETATM   19  N1  UNL     1      19.913 -32.481  12.788  1.00  0.00    -0.331 N 
HETATM   20  C6  UNL     1      19.448 -31.254  12.702  1.00  0.00     0.123 A 
ATOM     21  H1  UNL     1      19.281 -33.271  12.654  1.00  0.00     0.168 HD
HETATM   22  C18 UNL     1      20.341 -30.245  12.892  1.00  0.00     0.015 A 
HETATM   23  S1  UNL     1      21.804 -31.124  13.183  1.00  0.00    -0.056 SA
HETATM   24  C19 UNL     1      20.155 -28.765  12.890  1.00  0.00     0.059 C 
BRANCH  20  25
HETATM   25  C5  UNL     1      18.002 -31.056  12.444  1.00  0.00     0.311 C 
HETATM   26  O2  UNL     1      17.551 -30.951  11.263  1.00  0.00    -0.258 OA
BRANCH  25  27
HETATM   27  O1  UNL     1      17.087 -30.979  13.461  1.00  0.00    -0.316 OA
BRANCH  27  28
HETATM   28  C4  UNL     1      16.157 -29.888  13.379  1.00  0.00     0.179 C 
BRANCH  28  29
HETATM   29  C3  UNL     1      14.761 -30.360  13.480  1.00  0.00     0.026 C 
BRANCH  29  30
HETATM   30  C2  UNL     1      14.375 -31.293  12.381  1.00  0.00    -0.002 C 
HETATM   31  C1  UNL     1      13.052 -31.943  12.533  1.00  0.00     0.005 C 
ENDBRANCH  29  30
ENDBRANCH  28  29
ENDBRANCH  27  28
ENDBRANCH  25  27
ENDBRANCH  20  25
ENDBRANCH  16  18
ENDBRANCH   1  16
BRANCH   8  32
HETATM   32  N5  UNL     1      27.668 -34.298  13.272  1.00  0.00    -0.341 N 
ATOM     33  H5  UNL     1      27.970 -33.366  13.557  1.00  0.00     0.163 HD
BRANCH  32  34
HETATM   34  C12 UNL     1      28.569 -35.335  13.610  1.00  0.00     0.214 C 
HETATM   35  C13 UNL     1      27.986 -36.695  13.782  1.00  0.00     0.073 C 
BRANCH  34  36
HETATM   36  N6  UNL     1      29.214 -34.947  14.867  1.00  0.00    -0.051 N 
ATOM     37  H63 UNL     1      29.709 -35.717  15.317  1.00  0.00     0.277 HD
ATOM     38  H62 UNL     1      30.019 -34.336  14.732  1.00  0.00     0.277 HD
ATOM     39  H61 UNL     1      28.492 -34.535  15.457  1.00  0.00     0.277 HD
ENDBRANCH  34  36
BRANCH  34  40
HETATM   40  C14 UNL     1      29.691 -35.332  12.562  1.00  0.00     0.225 C 
BRANCH  40  41
HETATM   41  O3  UNL     1      30.862 -35.662  13.212  1.00  0.00    -0.397 OA
ATOM     42  H3  UNL     1      30.629 -35.941  14.089  1.00  0.00     0.209 HD
ENDBRANCH  40  41
ENDBRANCH  34  40
ENDBRANCH  32  34
ENDBRANCH   8  32
TORSDOF 12
ENDMDL
