MODEL 1
REMARK VINA RESULT: -6.923983184      0.000      0.000
REMARK  11 active torsions:
REMARK  status: ('A' for Active; 'I' for Inactive)
REMARK    1  A    between atoms: C2_2  and  C3_6 
REMARK    2  A    between atoms: C3_6  and  N2_7 
REMARK    3  A    between atoms: N2_7  and  C4_9 
REMARK    4  A    between atoms: C4_9  and  O1_13 
REMARK    5  A    between atoms: O1_13  and  N4_14 
REMARK    6  A    between atoms: C5_16  and  N5_18 
REMARK    7  A    between atoms: N5_18  and  O2_20 
REMARK    8  A    between atoms: O2_20  and  C7_21 
REMARK       I    between atoms: C7_21  and  N6_23 
REMARK    9  A    between atoms: N6_23  and  C8_25 
REMARK   10  A    between atoms: C8_25  and  N7_26 
REMARK   11  A    between atoms: C10_30  and  N10_31 
ROOT
HETATM    1  N4  UNL     1      16.117   2.661  15.834  1.00  0.00    -0.244 N 
ATOM      2  H4  UNL     1      17.006   2.803  16.314  1.00  0.00     0.196 HD
HETATM    3  C5  UNL     1      15.469   3.658  15.362  1.00  0.00     0.118 C 
HETATM    4  C6  UNL     1      15.976   5.041  15.492  1.00  0.00     0.093 C 
ENDROOT
BRANCH   3   5
HETATM    5  N5  UNL     1      14.238   3.428  14.701  1.00  0.00    -0.243 N 
ATOM      6  H5  UNL     1      14.184   3.411  13.682  1.00  0.00     0.196 HD
BRANCH   5   7
HETATM    7  O2  UNL     1      13.117   3.228  15.473  1.00  0.00    -0.180 OA
BRANCH   7   8
HETATM    8  C7  UNL     1      11.931   3.779  15.054  1.00  0.00     0.384 C 
HETATM    9  O3  UNL     1      10.990   3.021  14.706  1.00  0.00    -0.236 OA
HETATM   10  N6  UNL     1      11.693   5.176  14.989  1.00  0.00    -0.309 N 
ATOM     11  H6  UNL     1      12.443   5.808  15.268  1.00  0.00     0.166 HD
BRANCH  10  12
HETATM   12  C8  UNL     1      10.444   5.748  14.548  1.00  0.00     0.405 C 
BRANCH  12  13
HETATM   13  N7  UNL     1      10.723   6.920  13.795  1.00  0.00     0.168 N 
HETATM   14  C9  UNL     1       9.736   7.933  13.769  1.00  0.00     0.408 C 
HETATM   15  N8  UNL     1       9.156   7.808  12.446  1.00  0.00    -0.114 NA
HETATM   16  N9  UNL     1      10.313   7.644  11.650  1.00  0.00    -0.084 NA
HETATM   17  C10 UNL     1      11.162   6.754  12.462  1.00  0.00     0.530 C 
BRANCH  17  18
HETATM   18  N10 UNL     1      10.904   5.389  12.036  1.00  0.00    -0.032 N 
ATOM     19 3H10 UNL     1      11.129   4.709  12.762  1.00  0.00     0.278 HD
ATOM     20 2H10 UNL     1       9.906   5.191  11.957  1.00  0.00     0.278 HD
ATOM     21 1H10 UNL     1      11.404   5.206  11.166  1.00  0.00     0.278 HD
ENDBRANCH  17  18
ENDBRANCH  12  13
ENDBRANCH  10  12
ENDBRANCH   7   8
ENDBRANCH   5   7
ENDBRANCH   3   5
BRANCH   1  22
HETATM   22  O1  UNL     1      15.602   1.402  15.686  1.00  0.00    -0.200 OA
BRANCH  22  23
HETATM   23  C4  UNL     1      15.831   0.487  16.708  1.00  0.00     0.237 C 
HETATM   24  N3  UNL     1      17.032   0.395  17.151  1.00  0.00    -0.364 N 
ATOM     25  H32 UNL     1      17.200  -0.276  17.901  1.00  0.00     0.159 HD
ATOM     26  H31 UNL     1      17.765   0.981  16.750  1.00  0.00     0.159 HD
BRANCH  23  27
HETATM   27  N2  UNL     1      14.814  -0.326  17.264  1.00  0.00    -0.350 N 
ATOM     28  H2  UNL     1      14.876  -1.341  17.195  1.00  0.00     0.163 HD
BRANCH  27  29
HETATM   29  C3  UNL     1      13.703   0.281  17.922  1.00  0.00     0.174 C 
BRANCH  29  30
HETATM   30  C2  UNL     1      12.539   0.426  17.015  1.00  0.00    -0.006 C 
HETATM   31  C1  UNL     1      11.220   0.807  17.649  1.00  0.00     0.064 C 
HETATM   32  N1  UNL     1      12.535   0.261  15.767  1.00  0.00    -0.405 N 
ATOM     33  H12 UNL     1      11.735   0.360  15.142  1.00  0.00     0.155 HD
ATOM     34  H11 UNL     1      13.425   0.004  15.339  1.00  0.00     0.155 HD
ENDBRANCH  29  30
ENDBRANCH  27  29
ENDBRANCH  23  27
ENDBRANCH  22  23
ENDBRANCH   1  22
TORSDOF 11
ENDMDL
MODEL 2
REMARK VINA RESULT: -6.851255928      2.266      3.805
REMARK  11 active torsions:
REMARK  status: ('A' for Active; 'I' for Inactive)
REMARK    1  A    between atoms: C2_2  and  C3_6 
REMARK    2  A    between atoms: C3_6  and  N2_7 
REMARK    3  A    between atoms: N2_7  and  C4_9 
REMARK    4  A    between atoms: C4_9  and  O1_13 
REMARK    5  A    between atoms: O1_13  and  N4_14 
REMARK    6  A    between atoms: C5_16  and  N5_18 
REMARK    7  A    between atoms: N5_18  and  O2_20 
REMARK    8  A    between atoms: O2_20  and  C7_21 
REMARK       I    between atoms: C7_21  and  N6_23 
REMARK    9  A    between atoms: N6_23  and  C8_25 
REMARK   10  A    between atoms: C8_25  and  N7_26 
REMARK   11  A    between atoms: C10_30  and  N10_31 
ROOT
HETATM    1  N4  UNL     1      12.468   2.772  15.193  1.00  0.00    -0.244 N 
ATOM      2  H4  UNL     1      13.352   2.383  14.866  1.00  0.00     0.196 HD
HETATM    3  C5  UNL     1      12.326   4.037  15.325  1.00  0.00     0.118 C 
HETATM    4  C6  UNL     1      13.427   4.974  15.014  1.00  0.00     0.093 C 
ENDROOT
BRANCH   3   5
HETATM    5  N5  UNL     1      11.086   4.547  15.779  1.00  0.00    -0.243 N 
ATOM      6  H5  UNL     1      10.754   4.357  16.724  1.00  0.00     0.196 HD
BRANCH   5   7
HETATM    7  O2  UNL     1      10.341   5.308  14.906  1.00  0.00    -0.180 OA
BRANCH   7   8
HETATM    8  C7  UNL     1      10.153   6.636  15.198  1.00  0.00     0.384 C 
HETATM    9  O3  UNL     1      10.942   7.489  14.715  1.00  0.00    -0.236 OA
HETATM   10  N6  UNL     1       9.106   7.119  16.023  1.00  0.00    -0.309 N 
ATOM     11  H6  UNL     1       8.456   6.443  16.424  1.00  0.00     0.166 HD
BRANCH  10  12
HETATM   12  C8  UNL     1       8.914   8.517  16.325  1.00  0.00     0.405 C 
BRANCH  12  13
HETATM   13  N7  UNL     1       7.809   8.996  15.570  1.00  0.00     0.168 N 
HETATM   14  C9  UNL     1       7.001   8.041  14.910  1.00  0.00     0.408 C 
HETATM   15  N8  UNL     1       7.386   8.174  13.519  1.00  0.00    -0.114 NA
HETATM   16  N9  UNL     1       7.434   9.580  13.376  1.00  0.00    -0.084 NA
HETATM   17  C10 UNL     1       8.051  10.029  14.637  1.00  0.00     0.530 C 
BRANCH  17  18
HETATM   18  N10 UNL     1       9.482  10.146  14.409  1.00  0.00    -0.032 N 
ATOM     19 3H10 UNL     1       9.719  10.968  13.854  1.00  0.00     0.278 HD
ATOM     20 2H10 UNL     1       9.990  10.393  15.258  1.00  0.00     0.278 HD
ATOM     21 1H10 UNL     1       9.829   9.284  13.988  1.00  0.00     0.278 HD
ENDBRANCH  17  18
ENDBRANCH  12  13
ENDBRANCH  10  12
ENDBRANCH   7   8
ENDBRANCH   5   7
ENDBRANCH   3   5
BRANCH   1  22
HETATM   22  O1  UNL     1      11.417   1.950  15.495  1.00  0.00    -0.200 OA
BRANCH  22  23
HETATM   23  C4  UNL     1      11.604   1.008  16.500  1.00  0.00     0.237 C 
HETATM   24  N3  UNL     1      10.724   0.967  17.434  1.00  0.00    -0.364 N 
ATOM     25  H32 UNL     1      10.861   0.276  18.172  1.00  0.00     0.159 HD
ATOM     26  H31 UNL     1       9.933   1.611  17.412  1.00  0.00     0.159 HD
BRANCH  23  27
HETATM   27  N2  UNL     1      12.701   0.114  16.532  1.00  0.00    -0.350 N 
ATOM     28  H2  UNL     1      12.842  -0.550  15.771  1.00  0.00     0.163 HD
BRANCH  27  29
HETATM   29  C3  UNL     1      13.610   0.147  17.631  1.00  0.00     0.174 C 
BRANCH  29  30
HETATM   30  C2  UNL     1      15.022   0.149  17.178  1.00  0.00    -0.006 C 
HETATM   31  C1  UNL     1      15.558   1.449  16.620  1.00  0.00     0.064 C 
HETATM   32  N1  UNL     1      15.821  -0.822  17.206  1.00  0.00    -0.405 N 
ATOM     33  H12 UNL     1      16.792  -0.821  16.894  1.00  0.00     0.155 HD
ATOM     34  H11 UNL     1      15.459  -1.699  17.583  1.00  0.00     0.155 HD
ENDBRANCH  29  30
ENDBRANCH  27  29
ENDBRANCH  23  27
ENDBRANCH  22  23
ENDBRANCH   1  22
TORSDOF 11
ENDMDL
MODEL 3
REMARK VINA RESULT: -6.800333184      2.547      4.666
REMARK  11 active torsions:
REMARK  status: ('A' for Active; 'I' for Inactive)
REMARK    1  A    between atoms: C2_2  and  C3_6 
REMARK    2  A    between atoms: C3_6  and  N2_7 
REMARK    3  A    between atoms: N2_7  and  C4_9 
REMARK    4  A    between atoms: C4_9  and  O1_13 
REMARK    5  A    between atoms: O1_13  and  N4_14 
REMARK    6  A    between atoms: C5_16  and  N5_18 
REMARK    7  A    between atoms: N5_18  and  O2_20 
REMARK    8  A    between atoms: O2_20  and  C7_21 
REMARK       I    between atoms: C7_21  and  N6_23 
REMARK    9  A    between atoms: N6_23  and  C8_25 
REMARK   10  A    between atoms: C8_25  and  N7_26 
REMARK   11  A    between atoms: C10_30  and  N10_31 
ROOT
HETATM    1  N4  UNL     1      10.807   3.157  15.943  1.00  0.00    -0.244 N 
ATOM      2  H4  UNL     1      10.242   3.164  16.791  1.00  0.00     0.196 HD
HETATM    3  C5  UNL     1      10.628   4.044  15.038  1.00  0.00     0.118 C 
HETATM    4  C6  UNL     1       9.606   5.102  15.185  1.00  0.00     0.093 C 
ENDROOT
BRANCH   3   5
HETATM    5  N5  UNL     1      11.430   4.009  13.872  1.00  0.00    -0.243 N 
ATOM      6  H5  UNL     1      11.393   3.215  13.233  1.00  0.00     0.196 HD
BRANCH   5   7
HETATM    7  O2  UNL     1      12.260   5.079  13.626  1.00  0.00    -0.180 OA
BRANCH   7   8
HETATM    8  C7  UNL     1      13.268   5.340  14.520  1.00  0.00     0.384 C 
HETATM    9  O3  UNL     1      14.120   4.448  14.765  1.00  0.00    -0.236 OA
HETATM   10  N6  UNL     1      13.414   6.577  15.201  1.00  0.00    -0.309 N 
ATOM     11  H6  UNL     1      12.733   7.313  15.016  1.00  0.00     0.166 HD
BRANCH  10  12
HETATM   12  C8  UNL     1      14.476   6.845  16.140  1.00  0.00     0.405 C 
BRANCH  12  13
HETATM   13  N7  UNL     1      15.407   7.729  15.531  1.00  0.00     0.168 N 
HETATM   14  C9  UNL     1      15.000   8.406  14.358  1.00  0.00     0.408 C 
HETATM   15  N8  UNL     1      15.707   7.711  13.301  1.00  0.00    -0.114 NA
HETATM   16  N9  UNL     1      16.994   7.573  13.872  1.00  0.00    -0.084 NA
HETATM   17  C10 UNL     1      16.708   7.237  15.278  1.00  0.00     0.530 C 
BRANCH  17  18
HETATM   18  N10 UNL     1      16.707   5.788  15.394  1.00  0.00    -0.032 N 
ATOM     19 3H10 UNL     1      15.834   5.433  15.783  1.00  0.00     0.278 HD
ATOM     20 2H10 UNL     1      16.659   5.328  14.485  1.00  0.00     0.278 HD
ATOM     21 1H10 UNL     1      17.520   5.492  15.934  1.00  0.00     0.278 HD
ENDBRANCH  17  18
ENDBRANCH  12  13
ENDBRANCH  10  12
ENDBRANCH   7   8
ENDBRANCH   5   7
ENDBRANCH   3   5
BRANCH   1  22
HETATM   22  O1  UNL     1      11.767   2.200  15.756  1.00  0.00    -0.200 OA
BRANCH  22  23
HETATM   23  C4  UNL     1      11.766   1.109  16.617  1.00  0.00     0.237 C 
HETATM   24  N3  UNL     1      10.778   1.008  17.432  1.00  0.00    -0.364 N 
ATOM     25  H32 UNL     1      10.778   0.208  18.064  1.00  0.00     0.159 HD
ATOM     26  H31 UNL     1      10.042   1.714  17.423  1.00  0.00     0.159 HD
BRANCH  23  27
HETATM   27  N2  UNL     1      12.788   0.130  16.631  1.00  0.00    -0.350 N 
ATOM     28  H2  UNL     1      12.849  -0.557  15.879  1.00  0.00     0.163 HD
BRANCH  27  29
HETATM   29  C3  UNL     1      13.733   0.106  17.699  1.00  0.00     0.174 C 
BRANCH  29  30
HETATM   30  C2  UNL     1      15.128   0.154  17.200  1.00  0.00    -0.006 C 
HETATM   31  C1  UNL     1      15.603   1.468  16.622  1.00  0.00     0.064 C 
HETATM   32  N1  UNL     1      15.961  -0.790  17.205  1.00  0.00    -0.405 N 
ATOM     33  H12 UNL     1      16.920  -0.758  16.861  1.00  0.00     0.155 HD
ATOM     34  H11 UNL     1      15.640  -1.677  17.595  1.00  0.00     0.155 HD
ENDBRANCH  29  30
ENDBRANCH  27  29
ENDBRANCH  23  27
ENDBRANCH  22  23
ENDBRANCH   1  22
TORSDOF 11
ENDMDL
MODEL 4
REMARK VINA RESULT: -6.794129211      0.977      1.472
REMARK  11 active torsions:
REMARK  status: ('A' for Active; 'I' for Inactive)
REMARK    1  A    between atoms: C2_2  and  C3_6 
REMARK    2  A    between atoms: C3_6  and  N2_7 
REMARK    3  A    between atoms: N2_7  and  C4_9 
REMARK    4  A    between atoms: C4_9  and  O1_13 
REMARK    5  A    between atoms: O1_13  and  N4_14 
REMARK    6  A    between atoms: C5_16  and  N5_18 
REMARK    7  A    between atoms: N5_18  and  O2_20 
REMARK    8  A    between atoms: O2_20  and  C7_21 
REMARK       I    between atoms: C7_21  and  N6_23 
REMARK    9  A    between atoms: N6_23  and  C8_25 
REMARK   10  A    between atoms: C8_25  and  N7_26 
REMARK   11  A    between atoms: C10_30  and  N10_31 
ROOT
HETATM    1  N4  UNL     1      15.960   3.040  15.689  1.00  0.00    -0.244 N 
ATOM      2  H4  UNL     1      16.816   3.343  16.152  1.00  0.00     0.196 HD
HETATM    3  C5  UNL     1      15.108   3.900  15.274  1.00  0.00     0.118 C 
HETATM    4  C6  UNL     1      15.328   5.352  15.448  1.00  0.00     0.093 C 
ENDROOT
BRANCH   3   5
HETATM    5  N5  UNL     1      13.929   3.448  14.633  1.00  0.00    -0.243 N 
ATOM      6  H5  UNL     1      13.920   3.240  13.635  1.00  0.00     0.196 HD
BRANCH   5   7
HETATM    7  O2  UNL     1      12.795   3.296  15.399  1.00  0.00    -0.180 OA
BRANCH   7   8
HETATM    8  C7  UNL     1      11.676   4.012  15.055  1.00  0.00     0.384 C 
HETATM    9  O3  UNL     1      10.599   3.401  14.833  1.00  0.00    -0.236 OA
HETATM   10  N6  UNL     1      11.655   5.425  14.931  1.00  0.00    -0.309 N 
ATOM     11  H6  UNL     1      12.517   5.939  15.107  1.00  0.00     0.166 HD
BRANCH  10  12
HETATM   12  C8  UNL     1      10.474   6.171  14.569  1.00  0.00     0.405 C 
BRANCH  12  13
HETATM   13  N7  UNL     1      10.534   6.470  13.181  1.00  0.00     0.168 N 
HETATM   14  C9  UNL     1      11.570   5.875  12.425  1.00  0.00     0.408 C 
HETATM   15  N8  UNL     1      12.501   6.964  12.205  1.00  0.00    -0.114 NA
HETATM   16  N9  UNL     1      11.620   8.018  11.869  1.00  0.00    -0.084 NA
HETATM   17  C10 UNL     1      10.494   7.832  12.802  1.00  0.00     0.530 C 
BRANCH  17  18
HETATM   18  N10 UNL     1      10.744   8.664  13.967  1.00  0.00    -0.032 N 
ATOM     19 3H10 UNL     1       9.914   9.178  14.260  1.00  0.00     0.278 HD
ATOM     20 2H10 UNL     1      10.880   8.112  14.814  1.00  0.00     0.278 HD
ATOM     21 1H10 UNL     1      11.534   9.282  13.777  1.00  0.00     0.278 HD
ENDBRANCH  17  18
ENDBRANCH  12  13
ENDBRANCH  10  12
ENDBRANCH   7   8
ENDBRANCH   5   7
ENDBRANCH   3   5
BRANCH   1  22
HETATM   22  O1  UNL     1      15.706   1.708  15.502  1.00  0.00    -0.200 OA
BRANCH  22  23
HETATM   23  C4  UNL     1      15.724   0.886  16.622  1.00  0.00     0.237 C 
HETATM   24  N3  UNL     1      16.874   0.511  17.054  1.00  0.00    -0.364 N 
ATOM     25  H32 UNL     1      16.887  -0.093  17.876  1.00  0.00     0.159 HD
ATOM     26  H31 UNL     1      17.720   0.820  16.573  1.00  0.00     0.159 HD
BRANCH  23  27
HETATM   27  N2  UNL     1      14.552   0.456  17.288  1.00  0.00    -0.350 N 
ATOM     28  H2  UNL     1      14.509   0.467  18.307  1.00  0.00     0.163 HD
BRANCH  27  29
HETATM   29  C3  UNL     1      13.430   0.007  16.530  1.00  0.00     0.174 C 
BRANCH  29  30
HETATM   30  C2  UNL     1      12.149   0.465  17.120  1.00  0.00    -0.006 C 
HETATM   31  C1  UNL     1      12.032   0.410  18.627  1.00  0.00     0.064 C 
HETATM   32  N1  UNL     1      11.144   0.893  16.494  1.00  0.00    -0.405 N 
ATOM     33  H12 UNL     1      10.263   1.207  16.900  1.00  0.00     0.155 HD
ATOM     34  H11 UNL     1      11.223   0.930  15.477  1.00  0.00     0.155 HD
ENDBRANCH  29  30
ENDBRANCH  27  29
ENDBRANCH  23  27
ENDBRANCH  22  23
ENDBRANCH   1  22
TORSDOF 11
ENDMDL
MODEL 5
REMARK VINA RESULT: -6.749125264      2.013      3.590
REMARK  11 active torsions:
REMARK  status: ('A' for Active; 'I' for Inactive)
REMARK    1  A    between atoms: C2_2  and  C3_6 
REMARK    2  A    between atoms: C3_6  and  N2_7 
REMARK    3  A    between atoms: N2_7  and  C4_9 
REMARK    4  A    between atoms: C4_9  and  O1_13 
REMARK    5  A    between atoms: O1_13  and  N4_14 
REMARK    6  A    between atoms: C5_16  and  N5_18 
REMARK    7  A    between atoms: N5_18  and  O2_20 
REMARK    8  A    between atoms: O2_20  and  C7_21 
REMARK       I    between atoms: C7_21  and  N6_23 
REMARK    9  A    between atoms: N6_23  and  C8_25 
REMARK   10  A    between atoms: C8_25  and  N7_26 
REMARK   11  A    between atoms: C10_30  and  N10_31 
ROOT
HETATM    1  N4  UNL     1      13.058   2.972  15.431  1.00  0.00    -0.244 N 
ATOM      2  H4  UNL     1      13.951   2.696  15.839  1.00  0.00     0.196 HD
HETATM    3  C5  UNL     1      12.894   4.155  14.970  1.00  0.00     0.118 C 
HETATM    4  C6  UNL     1      13.980   5.157  15.010  1.00  0.00     0.093 C 
ENDROOT
BRANCH   3   5
HETATM    5  N5  UNL     1      11.643   4.507  14.408  1.00  0.00    -0.243 N 
ATOM      6  H5  UNL     1      10.794   4.505  14.973  1.00  0.00     0.196 HD
BRANCH   5   7
HETATM    7  O2  UNL     1      11.606   4.853  13.077  1.00  0.00    -0.180 OA
BRANCH   7   8
HETATM    8  C7  UNL     1      11.317   6.155  12.750  1.00  0.00     0.384 C 
HETATM    9  O3  UNL     1      12.108   6.793  12.008  1.00  0.00    -0.236 OA
HETATM   10  N6  UNL     1      10.161   6.840  13.202  1.00  0.00    -0.309 N 
ATOM     11  H6  UNL     1       9.507   6.341  13.804  1.00  0.00     0.166 HD
BRANCH  10  12
HETATM   12  C8  UNL     1       9.863   8.209  12.854  1.00  0.00     0.405 C 
BRANCH  12  13
HETATM   13  N7  UNL     1       9.103   8.789  13.905  1.00  0.00     0.168 N 
HETATM   14  C9  UNL     1       7.958   8.089  14.351  1.00  0.00     0.408 C 
HETATM   15  N8  UNL     1       6.856   8.847  13.791  1.00  0.00    -0.114 NA
HETATM   16  N9  UNL     1       7.271  10.173  14.050  1.00  0.00    -0.084 NA
HETATM   17  C10 UNL     1       8.716  10.142  13.764  1.00  0.00     0.530 C 
BRANCH  17  18
HETATM   18  N10 UNL     1       8.900  10.554  12.383  1.00  0.00    -0.032 N 
ATOM     19 3H10 UNL     1       9.532  11.350  12.298  1.00  0.00     0.278 HD
ATOM     20 2H10 UNL     1       9.446   9.879  11.847  1.00  0.00     0.278 HD
ATOM     21 1H10 UNL     1       7.990  10.737  11.960  1.00  0.00     0.278 HD
ENDBRANCH  17  18
ENDBRANCH  12  13
ENDBRANCH  10  12
ENDBRANCH   7   8
ENDBRANCH   5   7
ENDBRANCH   3   5
BRANCH   1  22
HETATM   22  O1  UNL     1      12.019   2.084  15.369  1.00  0.00    -0.200 OA
BRANCH  22  23
HETATM   23  C4  UNL     1      11.896   1.162  16.402  1.00  0.00     0.237 C 
HETATM   24  N3  UNL     1      10.876   1.280  17.173  1.00  0.00    -0.364 N 
ATOM     25  H32 UNL     1      10.787   0.604  17.931  1.00  0.00     0.159 HD
ATOM     26  H31 UNL     1      10.202   2.028  17.008  1.00  0.00     0.159 HD
BRANCH  23  27
HETATM   27  N2  UNL     1      12.831   0.124  16.631  1.00  0.00    -0.350 N 
ATOM     28  H2  UNL     1      12.869  -0.678  16.003  1.00  0.00     0.163 HD
BRANCH  27  29
HETATM   29  C3  UNL     1      13.721   0.205  17.743  1.00  0.00     0.174 C 
BRANCH  29  30
HETATM   30  C2  UNL     1      15.141   0.150  17.317  1.00  0.00    -0.006 C 
HETATM   31  C1  UNL     1      15.796   1.463  16.949  1.00  0.00     0.064 C 
HETATM   32  N1  UNL     1      15.858  -0.881  17.225  1.00  0.00    -0.405 N 
ATOM     33  H12 UNL     1      16.834  -0.919  16.931  1.00  0.00     0.155 HD
ATOM     34  H11 UNL     1      15.416  -1.766  17.473  1.00  0.00     0.155 HD
ENDBRANCH  29  30
ENDBRANCH  27  29
ENDBRANCH  23  27
ENDBRANCH  22  23
ENDBRANCH   1  22
TORSDOF 11
ENDMDL
