MODEL 1
REMARK VINA RESULT: -6.193723479      0.000      0.000
REMARK  10 active torsions:
REMARK  status: ('A' for Active; 'I' for Inactive)
REMARK    1  A    between atoms: O1_2  and  C2_3 
REMARK    2  A    between atoms: C2_3  and  O2_4 
REMARK    3  A    between atoms: C4_7  and  O3_8 
REMARK    4  A    between atoms: O3_8  and  C5_9 
REMARK    5  A    between atoms: C8_14  and  N2_15 
REMARK    6  A    between atoms: N2_15  and  C9_17 
REMARK    7  A    between atoms: C10_21  and  O4_22 
REMARK    8  A    between atoms: C11_24  and  O5_25 
REMARK    9  A    between atoms: C12_27  and  C13_28 
REMARK   10  A    between atoms: C13_28  and  O6_29 
ROOT
HETATM    1  O3  UNL     1      10.612   6.659  14.545  1.00  0.00    -0.356 OA
ENDROOT
BRANCH   1   2
HETATM    2  C4  UNL     1      10.932   7.983  14.487  1.00  0.00     0.163 C 
HETATM    3  C3  UNL     1      11.440   8.249  13.057  1.00  0.00     0.136 C 
HETATM    4  C2  UNL     1      10.362   7.924  12.052  1.00  0.00     0.282 C 
HETATM    5  O7  UNL     1       9.093   7.914  12.527  1.00  0.00    -0.323 OA
HETATM    6  C12 UNL     1       8.749   8.690  13.581  1.00  0.00     0.182 C 
HETATM    7  C11 UNL     1       9.756   8.905  14.656  1.00  0.00     0.178 C 
BRANCH   4   8
HETATM    8  O1  UNL     1      10.558   8.662  10.878  1.00  0.00    -0.338 OA
HETATM    9  C1  UNL     1      11.396   9.753  11.098  1.00  0.00     0.208 C 
ENDBRANCH   4   8
BRANCH   4  10
HETATM   10  O2  UNL     1      10.645   6.584  11.662  1.00  0.00    -0.343 OA
ATOM     11  H2  UNL     1      10.843   6.147  12.482  1.00  0.00     0.215 HD
ENDBRANCH   4  10
BRANCH   6  12
HETATM   12  C13 UNL     1       8.212  10.072  13.166  1.00  0.00     0.199 C 
BRANCH  12  13
HETATM   13  O6  UNL     1       7.631  10.646  14.288  1.00  0.00    -0.398 OA
ATOM     14  H6  UNL     1       7.388  11.535  14.059  1.00  0.00     0.209 HD
ENDBRANCH  12  13
ENDBRANCH   6  12
BRANCH   7  15
HETATM   15  O5  UNL     1       9.172   8.826  15.902  1.00  0.00    -0.390 OA
ATOM     16  H5  UNL     1       8.660   9.593  16.128  1.00  0.00     0.210 HD
ENDBRANCH   7  15
ENDBRANCH   1   2
BRANCH   1  17
HETATM   17  C5  UNL     1      11.516   5.831  15.139  1.00  0.00     0.248 C 
HETATM   18  N1  UNL     1      12.873   6.255  14.915  1.00  0.00    -0.395 N 
HETATM   19  C6  UNL     1      13.875   5.343  15.308  1.00  0.00     0.118 C 
ATOM     20  H1  UNL     1      13.097   7.158  14.497  1.00  0.00     0.155 HD
HETATM   21  C7  UNL     1      13.587   3.896  15.087  1.00  0.00     0.047 C 
HETATM   22  C8  UNL     1      12.158   3.519  15.407  1.00  0.00     0.116 C 
HETATM   23  C10 UNL     1      11.304   4.445  14.558  1.00  0.00     0.189 C 
BRANCH  22  24
HETATM   24  N2  UNL     1      11.936   2.147  15.134  1.00  0.00    -0.379 N 
ATOM     25  H2  UNL     1      11.712   1.846  14.186  1.00  0.00     0.160 HD
BRANCH  24  26
HETATM   26  C9  UNL     1      12.026   1.193  16.175  1.00  0.00     0.169 C 
HETATM   27  N3  UNL     1      11.028   0.806  16.871  1.00  0.00    -0.396 N 
ATOM     28  H32 UNL     1      10.121   1.217  16.649  1.00  0.00     0.156 HD
ATOM     29  H31 UNL     1      11.093   0.118  17.621  1.00  0.00     0.156 HD
ENDBRANCH  24  26
ENDBRANCH  22  24
BRANCH  23  30
HETATM   30  O4  UNL     1      11.856   4.427  13.275  1.00  0.00    -0.389 OA
ATOM     31  H4  UNL     1      11.427   5.103  12.763  1.00  0.00     0.210 HD
ENDBRANCH  23  30
ENDBRANCH   1  17
TORSDOF 10
ENDMDL
MODEL 2
REMARK VINA RESULT: -5.719914020      2.791      4.133
REMARK  10 active torsions:
REMARK  status: ('A' for Active; 'I' for Inactive)
REMARK    1  A    between atoms: O1_2  and  C2_3 
REMARK    2  A    between atoms: C2_3  and  O2_4 
REMARK    3  A    between atoms: C4_7  and  O3_8 
REMARK    4  A    between atoms: O3_8  and  C5_9 
REMARK    5  A    between atoms: C8_14  and  N2_15 
REMARK    6  A    between atoms: N2_15  and  C9_17 
REMARK    7  A    between atoms: C10_21  and  O4_22 
REMARK    8  A    between atoms: C11_24  and  O5_25 
REMARK    9  A    between atoms: C12_27  and  C13_28 
REMARK   10  A    between atoms: C13_28  and  O6_29 
ROOT
HETATM    1  O3  UNL     1       9.920   6.888  16.486  1.00  0.00    -0.356 OA
ENDROOT
BRANCH   1   2
HETATM    2  C4  UNL     1      10.470   7.876  17.247  1.00  0.00     0.163 C 
HETATM    3  C3  UNL     1      10.045   9.210  16.606  1.00  0.00     0.136 C 
HETATM    4  C2  UNL     1       8.541   9.330  16.599  1.00  0.00     0.282 C 
HETATM    5  O7  UNL     1       7.881   8.555  17.494  1.00  0.00    -0.323 OA
HETATM    6  C12 UNL     1       8.471   8.197  18.657  1.00  0.00     0.182 C 
HETATM    7  C11 UNL     1       9.937   7.936  18.652  1.00  0.00     0.178 C 
BRANCH   4   8
HETATM    8  O1  UNL     1       8.163  10.677  16.577  1.00  0.00    -0.338 OA
HETATM    9  C1  UNL     1       9.210  11.505  16.976  1.00  0.00     0.208 C 
ENDBRANCH   4   8
BRANCH   4  10
HETATM   10  O2  UNL     1       8.162   8.850  15.312  1.00  0.00    -0.343 OA
ATOM     11  H2  UNL     1       7.695   8.044  15.500  1.00  0.00     0.215 HD
ENDBRANCH   4  10
BRANCH   6  12
HETATM   12  C13 UNL     1       8.180   9.173  19.811  1.00  0.00     0.199 C 
BRANCH  12  13
HETATM   13  O6  UNL     1       8.083   8.423  20.975  1.00  0.00    -0.398 OA
ATOM     14  H6  UNL     1       8.379   8.972  21.692  1.00  0.00     0.209 HD
ENDBRANCH  12  13
ENDBRANCH   6  12
BRANCH   7  15
HETATM   15  O5  UNL     1      10.242   6.820  19.402  1.00  0.00    -0.390 OA
ATOM     16  H5  UNL     1      10.410   7.014  20.316  1.00  0.00     0.210 HD
ENDBRANCH   7  15
ENDBRANCH   1   2
BRANCH   1  17
HETATM   17  C5  UNL     1      10.697   6.365  15.497  1.00  0.00     0.248 C 
HETATM   18  N1  UNL     1      10.302   6.824  14.191  1.00  0.00    -0.395 N 
HETATM   19  C6  UNL     1      10.910   6.171  13.099  1.00  0.00     0.118 C 
ATOM     20  H1  UNL     1       9.624   7.575  14.063  1.00  0.00     0.155 HD
HETATM   21  C7  UNL     1      11.144   4.704  13.243  1.00  0.00     0.047 C 
HETATM   22  C8  UNL     1      11.620   4.312  14.624  1.00  0.00     0.116 C 
HETATM   23  C10 UNL     1      10.568   4.855  15.575  1.00  0.00     0.189 C 
BRANCH  22  24
HETATM   24  N2  UNL     1      11.780   2.906  14.711  1.00  0.00    -0.379 N 
ATOM     25  H2  UNL     1      11.876   2.351  13.860  1.00  0.00     0.160 HD
BRANCH  24  26
HETATM   26  C9  UNL     1      11.808   2.273  15.976  1.00  0.00     0.169 C 
HETATM   27  N3  UNL     1      11.193   1.186  16.238  1.00  0.00    -0.396 N 
ATOM     28  H32 UNL     1      10.656   0.763  15.482  1.00  0.00     0.156 HD
ATOM     29  H31 UNL     1      11.213   0.729  17.150  1.00  0.00     0.156 HD
ENDBRANCH  24  26
ENDBRANCH  22  24
BRANCH  23  30
HETATM   30  O4  UNL     1       9.328   4.501  15.039  1.00  0.00    -0.389 OA
ATOM     31  H4  UNL     1       8.774   5.272  15.049  1.00  0.00     0.210 HD
ENDBRANCH  23  30
ENDBRANCH   1  17
TORSDOF 10
ENDMDL
MODEL 3
REMARK VINA RESULT: -5.661046622      1.409      2.978
REMARK  10 active torsions:
REMARK  status: ('A' for Active; 'I' for Inactive)
REMARK    1  A    between atoms: O1_2  and  C2_3 
REMARK    2  A    between atoms: C2_3  and  O2_4 
REMARK    3  A    between atoms: C4_7  and  O3_8 
REMARK    4  A    between atoms: O3_8  and  C5_9 
REMARK    5  A    between atoms: C8_14  and  N2_15 
REMARK    6  A    between atoms: N2_15  and  C9_17 
REMARK    7  A    between atoms: C10_21  and  O4_22 
REMARK    8  A    between atoms: C11_24  and  O5_25 
REMARK    9  A    between atoms: C12_27  and  C13_28 
REMARK   10  A    between atoms: C13_28  and  O6_29 
ROOT
HETATM    1  O3  UNL     1      11.700   6.941  15.128  1.00  0.00    -0.356 OA
ENDROOT
BRANCH   1   2
HETATM    2  C4  UNL     1      10.363   6.702  15.011  1.00  0.00     0.163 C 
HETATM    3  C3  UNL     1       9.692   7.363  16.230  1.00  0.00     0.136 C 
HETATM    4  C2  UNL     1       9.963   8.847  16.233  1.00  0.00     0.282 C 
HETATM    5  O7  UNL     1      10.304   9.390  15.039  1.00  0.00    -0.323 OA
HETATM    6  C12 UNL     1       9.863   8.839  13.885  1.00  0.00     0.182 C 
HETATM    7  C11 UNL     1       9.726   7.358  13.818  1.00  0.00     0.178 C 
BRANCH   4   8
HETATM    8  O1  UNL     1       8.954   9.522  16.931  1.00  0.00    -0.338 OA
HETATM    9  C1  UNL     1       7.925   8.656  17.298  1.00  0.00     0.208 C 
ENDBRANCH   4   8
BRANCH   4  10
HETATM   10  O2  UNL     1      11.107   8.990  17.069  1.00  0.00    -0.343 OA
ATOM     11  H2  UNL     1      11.826   8.701  16.519  1.00  0.00     0.215 HD
ENDBRANCH   4  10
BRANCH   6  12
HETATM   12  C13 UNL     1       8.540   9.449  13.389  1.00  0.00     0.199 C 
BRANCH  12  13
HETATM   13  O6  UNL     1       7.615   8.418  13.300  1.00  0.00    -0.398 OA
ATOM     14  H6  UNL     1       7.972   7.766  12.709  1.00  0.00     0.209 HD
ENDBRANCH  12  13
ENDBRANCH   6  12
BRANCH   7  15
HETATM   15  O5  UNL     1      10.189   6.874  12.614  1.00  0.00    -0.390 OA
ATOM     16  H5  UNL     1      11.130   6.952  12.512  1.00  0.00     0.210 HD
ENDBRANCH   7  15
ENDBRANCH   1   2
BRANCH   1  17
HETATM   17  C5  UNL     1      12.482   5.895  15.516  1.00  0.00     0.248 C 
HETATM   18  N1  UNL     1      13.854   6.059  15.110  1.00  0.00    -0.395 N 
HETATM   19  C6  UNL     1      14.684   4.933  15.280  1.00  0.00     0.118 C 
ATOM     20  H1  UNL     1      14.203   6.936  14.723  1.00  0.00     0.155 HD
HETATM   21  C7  UNL     1      14.069   3.601  15.011  1.00  0.00     0.047 C 
HETATM   22  C8  UNL     1      12.651   3.487  15.526  1.00  0.00     0.116 C 
HETATM   23  C10 UNL     1      11.903   4.643  14.885  1.00  0.00     0.189 C 
BRANCH  22  24
HETATM   24  N2  UNL     1      12.107   2.219  15.200  1.00  0.00    -0.379 N 
ATOM     25  H2  UNL     1      11.743   2.047  14.263  1.00  0.00     0.160 HD
BRANCH  24  26
HETATM   26  C9  UNL     1      12.070   1.193  16.173  1.00  0.00     0.169 C 
HETATM   27  N3  UNL     1      11.007   0.822  16.774  1.00  0.00    -0.396 N 
ATOM     28  H32 UNL     1      10.143   1.305  16.526  1.00  0.00     0.156 HD
ATOM     29  H31 UNL     1      10.980   0.082  17.475  1.00  0.00     0.156 HD
ENDBRANCH  24  26
ENDBRANCH  22  24
BRANCH  23  30
HETATM   30  O4  UNL     1      12.252   4.640  13.533  1.00  0.00    -0.389 OA
ATOM     31  H4  UNL     1      11.633   5.192  13.070  1.00  0.00     0.210 HD
ENDBRANCH  23  30
ENDBRANCH   1  17
TORSDOF 10
ENDMDL
MODEL 4
REMARK VINA RESULT: -5.621173864      2.096      2.745
REMARK  10 active torsions:
REMARK  status: ('A' for Active; 'I' for Inactive)
REMARK    1  A    between atoms: O1_2  and  C2_3 
REMARK    2  A    between atoms: C2_3  and  O2_4 
REMARK    3  A    between atoms: C4_7  and  O3_8 
REMARK    4  A    between atoms: O3_8  and  C5_9 
REMARK    5  A    between atoms: C8_14  and  N2_15 
REMARK    6  A    between atoms: N2_15  and  C9_17 
REMARK    7  A    between atoms: C10_21  and  O4_22 
REMARK    8  A    between atoms: C11_24  and  O5_25 
REMARK    9  A    between atoms: C12_27  and  C13_28 
REMARK   10  A    between atoms: C13_28  and  O6_29 
ROOT
HETATM    1  O3  UNL     1       9.839   6.325  15.377  1.00  0.00    -0.356 OA
ENDROOT
BRANCH   1   2
HETATM    2  C4  UNL     1      10.153   7.562  14.899  1.00  0.00     0.163 C 
HETATM    3  C3  UNL     1       8.913   8.063  14.134  1.00  0.00     0.136 C 
HETATM    4  C2  UNL     1       7.726   8.143  15.060  1.00  0.00     0.282 C 
HETATM    5  O7  UNL     1       8.011   8.221  16.383  1.00  0.00    -0.323 OA
HETATM    6  C12 UNL     1       9.167   8.782  16.804  1.00  0.00     0.182 C 
HETATM    7  C11 UNL     1      10.386   8.591  15.969  1.00  0.00     0.178 C 
BRANCH   4   8
HETATM    8  O1  UNL     1       6.806   9.088  14.588  1.00  0.00    -0.338 OA
HETATM    9  C1  UNL     1       7.397   9.957  13.673  1.00  0.00     0.208 C 
ENDBRANCH   4   8
BRANCH   4  10
HETATM   10  O2  UNL     1       7.058   6.899  14.877  1.00  0.00    -0.343 OA
ATOM     11  H2  UNL     1       7.765   6.282  14.728  1.00  0.00     0.215 HD
ENDBRANCH   4  10
BRANCH   6  12
HETATM   12  C13 UNL     1       9.039  10.287  17.098  1.00  0.00     0.199 C 
BRANCH  12  13
HETATM   13  O6  UNL     1       7.703  10.544  17.376  1.00  0.00    -0.398 OA
ATOM     14  H6  UNL     1       7.292   9.714  17.586  1.00  0.00     0.209 HD
ENDBRANCH  12  13
ENDBRANCH   6  12
BRANCH   7  15
HETATM   15  O5  UNL     1      11.485   8.324  16.757  1.00  0.00    -0.390 OA
ATOM     16  H5  UNL     1      12.297   8.662  16.400  1.00  0.00     0.210 HD
ENDBRANCH   7  15
ENDBRANCH   1   2
BRANCH   1  17
HETATM   17  C5  UNL     1      10.879   5.500  15.683  1.00  0.00     0.248 C 
HETATM   18  N1  UNL     1      12.083   5.854  14.977  1.00  0.00    -0.395 N 
HETATM   19  C6  UNL     1      13.144   4.929  15.068  1.00  0.00     0.118 C 
ATOM     20  H1  UNL     1      12.164   6.719  14.444  1.00  0.00     0.155 HD
HETATM   21  C7  UNL     1      12.774   3.484  15.065  1.00  0.00     0.047 C 
HETATM   22  C8  UNL     1      11.538   3.185  15.882  1.00  0.00     0.116 C 
HETATM   23  C10 UNL     1      10.458   4.090  15.313  1.00  0.00     0.189 C 
BRANCH  22  24
HETATM   24  N2  UNL     1      11.213   1.808  15.802  1.00  0.00    -0.379 N 
ATOM     25  H2  UNL     1      10.531   1.485  15.114  1.00  0.00     0.160 HD
BRANCH  24  26
HETATM   26  C9  UNL     1      11.832   0.882  16.673  1.00  0.00     0.169 C 
HETATM   27  N3  UNL     1      12.360  -0.213  16.285  1.00  0.00    -0.396 N 
ATOM     28  H32 UNL     1      12.325  -0.417  15.286  1.00  0.00     0.156 HD
ATOM     29  H31 UNL     1      12.807  -0.881  16.914  1.00  0.00     0.156 HD
ENDBRANCH  24  26
ENDBRANCH  22  24
BRANCH  23  30
HETATM   30  O4  UNL     1      10.533   3.969  13.923  1.00  0.00    -0.389 OA
ATOM     31  H4  UNL     1       9.968   4.631  13.541  1.00  0.00     0.210 HD
ENDBRANCH  23  30
ENDBRANCH   1  17
TORSDOF 10
ENDMDL
MODEL 5
REMARK VINA RESULT: -5.571697301      1.757      2.243
REMARK  10 active torsions:
REMARK  status: ('A' for Active; 'I' for Inactive)
REMARK    1  A    between atoms: O1_2  and  C2_3 
REMARK    2  A    between atoms: C2_3  and  O2_4 
REMARK    3  A    between atoms: C4_7  and  O3_8 
REMARK    4  A    between atoms: O3_8  and  C5_9 
REMARK    5  A    between atoms: C8_14  and  N2_15 
REMARK    6  A    between atoms: N2_15  and  C9_17 
REMARK    7  A    between atoms: C10_21  and  O4_22 
REMARK    8  A    between atoms: C11_24  and  O5_25 
REMARK    9  A    between atoms: C12_27  and  C13_28 
REMARK   10  A    between atoms: C13_28  and  O6_29 
ROOT
HETATM    1  O3  UNL     1      11.156   6.656  14.926  1.00  0.00    -0.356 OA
ENDROOT
BRANCH   1   2
HETATM    2  C4  UNL     1      10.338   7.238  15.848  1.00  0.00     0.163 C 
HETATM    3  C3  UNL     1      10.720   8.729  15.892  1.00  0.00     0.136 C 
HETATM    4  C2  UNL     1      10.517   9.360  14.537  1.00  0.00     0.282 C 
HETATM    5  O7  UNL     1       9.664   8.714  13.705  1.00  0.00    -0.323 OA
HETATM    6  C12 UNL     1       8.651   7.970  14.204  1.00  0.00     0.182 C 
HETATM    7  C11 UNL     1       8.883   7.224  15.472  1.00  0.00     0.178 C 
BRANCH   4   8
HETATM    8  O1  UNL     1      10.295  10.736  14.672  1.00  0.00    -0.338 OA
HETATM    9  C1  UNL     1       9.877  11.059  15.962  1.00  0.00     0.208 C 
ENDBRANCH   4   8
BRANCH   4  10
HETATM   10  O2  UNL     1      11.799   9.282  13.923  1.00  0.00    -0.343 OA
ATOM     11  H2  UNL     1      12.145   8.451  14.227  1.00  0.00     0.215 HD
ENDBRANCH   4  10
BRANCH   6  12
HETATM   12  C13 UNL     1       7.341   8.761  14.366  1.00  0.00     0.199 C 
BRANCH  12  13
HETATM   13  O6  UNL     1       6.358   7.863  14.756  1.00  0.00    -0.398 OA
ATOM     14  H6  UNL     1       5.557   8.105  14.307  1.00  0.00     0.209 HD
ENDBRANCH  12  13
ENDBRANCH   6  12
BRANCH   7  15
HETATM   15  O5  UNL     1       8.346   5.956  15.403  1.00  0.00    -0.390 OA
ATOM     16  H5  UNL     1       7.933   5.766  14.569  1.00  0.00     0.210 HD
ENDBRANCH   7  15
ENDBRANCH   1   2
BRANCH   1  17
HETATM   17  C5  UNL     1      12.038   5.724  15.384  1.00  0.00     0.248 C 
HETATM   18  N1  UNL     1      13.386   5.990  14.955  1.00  0.00    -0.395 N 
HETATM   19  C6  UNL     1      14.323   4.966  15.201  1.00  0.00     0.118 C 
ATOM     20  H1  UNL     1      13.647   6.865  14.500  1.00  0.00     0.155 HD
HETATM   21  C7  UNL     1      13.841   3.564  15.038  1.00  0.00     0.047 C 
HETATM   22  C8  UNL     1      12.443   3.351  15.573  1.00  0.00     0.116 C 
HETATM   23  C10 UNL     1      11.583   4.376  14.855  1.00  0.00     0.189 C 
BRANCH  22  24
HETATM   24  N2  UNL     1      12.025   2.016  15.349  1.00  0.00    -0.379 N 
ATOM     25  H2  UNL     1      11.665   1.742  14.434  1.00  0.00     0.160 HD
BRANCH  24  26
HETATM   26  C9  UNL     1      12.109   1.062  16.390  1.00  0.00     0.169 C 
HETATM   27  N3  UNL     1      12.447  -0.156  16.212  1.00  0.00    -0.396 N 
ATOM     28  H32 UNL     1      12.666  -0.441  15.258  1.00  0.00     0.156 HD
ATOM     29  H31 UNL     1      12.507  -0.843  16.964  1.00  0.00     0.156 HD
ENDBRANCH  24  26
ENDBRANCH  22  24
BRANCH  23  30
HETATM   30  O4  UNL     1      11.929   4.306  13.503  1.00  0.00    -0.389 OA
ATOM     31  H4  UNL     1      11.131   4.179  13.003  1.00  0.00     0.210 HD
ENDBRANCH  23  30
ENDBRANCH   1  17
TORSDOF 10
ENDMDL
