MODEL 1
REMARK VINA RESULT: -6.625489037      0.000      0.000
REMARK  9 active torsions:
REMARK  status: ('A' for Active; 'I' for Inactive)
REMARK    1  A    between atoms: N1_1  and  C1_4 
REMARK    2  A    between atoms: C2_7  and  S1_8 
REMARK    3  A    between atoms: S1_8  and  S2_9 
REMARK    4  A    between atoms: S2_9  and  C3_10 
REMARK    5  A    between atoms: C4_13  and  C5_14 
REMARK    6  A    between atoms: C5_14  and  N4_15 
REMARK    7  A    between atoms: C5_14  and  C6_19 
REMARK    8  A    between atoms: C7_22  and  N5_23 
REMARK    9  A    between atoms: C8_26  and  N6_27 
ROOT
HETATM    1  C1  UNL     1      11.570   3.936  15.044  1.00  0.00     0.678 A 
HETATM    2  N2  UNL     1      12.865   3.559  15.203  1.00  0.00    -0.183 N 
ATOM      3  H2  UNL     1      13.079   2.577  15.379  1.00  0.00     0.185 HD
HETATM    4  C2  UNL     1      13.865   4.443  15.136  1.00  0.00     0.133 A 
HETATM    5  C7  UNL     1      13.569   5.755  14.899  1.00  0.00     0.181 A 
HETATM    6  C8  UNL     1      12.273   6.177  14.730  1.00  0.00     0.151 A 
HETATM    7  N7  UNL     1      11.289   5.234  14.809  1.00  0.00    -0.175 N 
ATOM      8  H7  UNL     1      10.316   5.518  14.688  1.00  0.00     0.186 HD
ENDROOT
BRANCH   4   9
HETATM    9  S1  UNL     1      15.535   3.926  15.355  1.00  0.00    -0.035 SA
BRANCH   9  10
HETATM   10  S2  UNL     1      15.735   1.842  15.583  1.00  0.00    -0.064 SA
BRANCH  10  11
HETATM   11  C3  UNL     1      15.437   1.264  17.256  1.00  0.00     0.212 C 
HETATM   12  N3  UNL     1      16.188   0.004  17.444  1.00  0.00    -0.081 NA
HETATM   13  O1  UNL     1      15.183  -0.550  16.681  1.00  0.00    -0.275 OA
HETATM   14  C4  UNL     1      14.325   0.249  17.429  1.00  0.00     0.220 C 
BRANCH  14  15
HETATM   15  C5  UNL     1      13.001   0.592  16.826  1.00  0.00     0.316 C 
BRANCH  15  16
HETATM   16  N4  UNL     1      12.429  -0.499  16.066  1.00  0.00    -0.062 N 
ATOM     17  H43 UNL     1      13.111  -0.886  15.415  1.00  0.00     0.275 HD
ATOM     18  H42 UNL     1      12.280  -1.317  16.658  1.00  0.00     0.275 HD
ATOM     19  H41 UNL     1      11.569  -0.238  15.582  1.00  0.00     0.275 HD
ENDBRANCH  15  16
BRANCH  15  20
HETATM   20  C6  UNL     1      12.079   0.880  17.956  1.00  0.00     0.207 C 
HETATM   21  O2  UNL     1      12.406   0.543  19.142  1.00  0.00    -0.646 OA
HETATM   22  O3  UNL     1      10.875   1.504  17.749  1.00  0.00    -0.646 OA
ENDBRANCH  15  20
ENDBRANCH  14  15
ENDBRANCH  10  11
ENDBRANCH   9  10
ENDBRANCH   4   9
BRANCH   5  23
HETATM   23  N5  UNL     1      14.629   6.688  14.840  1.00  0.00    -0.109 N 
HETATM   24  O4  UNL     1      15.188   6.927  13.763  1.00  0.00    -0.532 OA
HETATM   25  O5  UNL     1      15.027   7.326  15.989  1.00  0.00    -0.532 OA
ENDBRANCH   5  23
BRANCH   1  26
HETATM   26  N1  UNL     1      10.586   3.113  15.105  1.00  0.00    -0.234 N 
ATOM     27  H12 UNL     1      10.690   2.293  15.703  1.00  0.00     0.174 HD
ATOM     28  H11 UNL     1       9.717   3.243  14.587  1.00  0.00     0.174 HD
ENDBRANCH   1  26
BRANCH   6  29
HETATM   29  N6  UNL     1      11.957   7.384  14.507  1.00  0.00    -0.383 N 
ATOM     30  H62 UNL     1      12.017   8.062  15.266  1.00  0.00     0.157 HD
ATOM     31  H61 UNL     1      11.642   7.722  13.599  1.00  0.00     0.157 HD
ENDBRANCH   6  29
TORSDOF 9
ENDMDL
MODEL 2
REMARK VINA RESULT: -6.389202135      2.982      7.026
REMARK  9 active torsions:
REMARK  status: ('A' for Active; 'I' for Inactive)
REMARK    1  A    between atoms: N1_1  and  C1_4 
REMARK    2  A    between atoms: C2_7  and  S1_8 
REMARK    3  A    between atoms: S1_8  and  S2_9 
REMARK    4  A    between atoms: S2_9  and  C3_10 
REMARK    5  A    between atoms: C4_13  and  C5_14 
REMARK    6  A    between atoms: C5_14  and  N4_15 
REMARK    7  A    between atoms: C5_14  and  C6_19 
REMARK    8  A    between atoms: C7_22  and  N5_23 
REMARK    9  A    between atoms: C8_26  and  N6_27 
ROOT
HETATM    1  C1  UNL     1      15.542   3.268  15.488  1.00  0.00     0.678 A 
HETATM    2  N2  UNL     1      14.194   3.286  15.332  1.00  0.00    -0.183 N 
ATOM      3  H2  UNL     1      13.762   4.062  14.830  1.00  0.00     0.185 HD
HETATM    4  C2  UNL     1      13.419   2.313  15.819  1.00  0.00     0.133 A 
HETATM    5  C7  UNL     1      14.006   1.276  16.488  1.00  0.00     0.181 A 
HETATM    6  C8  UNL     1      15.367   1.220  16.666  1.00  0.00     0.151 A 
HETATM    7  N7  UNL     1      16.113   2.240  16.150  1.00  0.00    -0.175 N 
ATOM      8  H7  UNL     1      17.126   2.225  16.267  1.00  0.00     0.186 HD
ENDROOT
BRANCH   4   9
HETATM    9  S1  UNL     1      11.671   2.366  15.607  1.00  0.00    -0.035 SA
BRANCH   9  10
HETATM   10  S2  UNL     1      10.928   4.319  15.336  1.00  0.00    -0.064 SA
BRANCH  10  11
HETATM   11  C3  UNL     1      11.472   5.096  13.814  1.00  0.00     0.212 C 
HETATM   12  N3  UNL     1      12.882   5.505  13.988  1.00  0.00    -0.081 NA
HETATM   13  O1  UNL     1      12.350   6.524  14.750  1.00  0.00    -0.275 OA
HETATM   14  C4  UNL     1      11.378   6.607  13.759  1.00  0.00     0.220 C 
BRANCH  14  15
HETATM   15  C5  UNL     1      10.064   7.214  14.132  1.00  0.00     0.316 C 
BRANCH  15  16
HETATM   16  N4  UNL     1      10.189   8.269  15.116  1.00  0.00    -0.062 N 
ATOM     17  H43 UNL     1       9.364   8.308  15.715  1.00  0.00     0.275 HD
ATOM     18  H42 UNL     1      10.892   8.032  15.816  1.00  0.00     0.275 HD
ATOM     19  H41 UNL     1      10.382   9.180  14.699  1.00  0.00     0.275 HD
ENDBRANCH  15  16
BRANCH  15  20
HETATM   20  C6  UNL     1       9.508   7.822  12.895  1.00  0.00     0.207 C 
HETATM   21  O2  UNL     1       8.515   8.618  12.971  1.00  0.00    -0.646 OA
HETATM   22  O3  UNL     1      10.045   7.542  11.663  1.00  0.00    -0.646 OA
ENDBRANCH  15  20
ENDBRANCH  14  15
ENDBRANCH  10  11
ENDBRANCH   9  10
ENDBRANCH   4   9
BRANCH   5  23
HETATM   23  N5  UNL     1      13.182   0.255  17.012  1.00  0.00    -0.109 N 
HETATM   24  O4  UNL     1      12.822  -0.684  16.292  1.00  0.00    -0.532 OA
HETATM   25  O5  UNL     1      12.790   0.316  18.326  1.00  0.00    -0.532 OA
ENDBRANCH   5  23
BRANCH   1  26
HETATM   26  N1  UNL     1      16.315   4.189  15.035  1.00  0.00    -0.234 N 
ATOM     27  H12 UNL     1      16.227   4.439  14.050  1.00  0.00     0.174 HD
ATOM     28  H11 UNL     1      17.002   4.674  15.612  1.00  0.00     0.174 HD
ENDBRANCH   1  26
BRANCH   6  29
HETATM   29  N6  UNL     1      15.950   0.277  17.280  1.00  0.00    -0.383 N 
ATOM     30  H62 UNL     1      15.644   0.031  18.221  1.00  0.00     0.157 HD
ATOM     31  H61 UNL     1      16.720  -0.259  16.881  1.00  0.00     0.157 HD
ENDBRANCH   6  29
TORSDOF 9
ENDMDL
MODEL 3
REMARK VINA RESULT: -6.306370535      2.008      6.019
REMARK  9 active torsions:
REMARK  status: ('A' for Active; 'I' for Inactive)
REMARK    1  A    between atoms: N1_1  and  C1_4 
REMARK    2  A    between atoms: C2_7  and  S1_8 
REMARK    3  A    between atoms: S1_8  and  S2_9 
REMARK    4  A    between atoms: S2_9  and  C3_10 
REMARK    5  A    between atoms: C4_13  and  C5_14 
REMARK    6  A    between atoms: C5_14  and  N4_15 
REMARK    7  A    between atoms: C5_14  and  C6_19 
REMARK    8  A    between atoms: C7_22  and  N5_23 
REMARK    9  A    between atoms: C8_26  and  N6_27 
ROOT
HETATM    1  C1  UNL     1      11.986   2.483  15.519  1.00  0.00     0.678 A 
HETATM    2  N2  UNL     1      13.093   3.200  15.200  1.00  0.00    -0.183 N 
ATOM      3  H2  UNL     1      12.989   4.072  14.680  1.00  0.00     0.185 HD
HETATM    4  C2  UNL     1      14.316   2.793  15.551  1.00  0.00     0.133 A 
HETATM    5  C7  UNL     1      14.447   1.625  16.248  1.00  0.00     0.181 A 
HETATM    6  C8  UNL     1      13.351   0.872  16.591  1.00  0.00     0.151 A 
HETATM    7  N7  UNL     1      12.125   1.332  16.208  1.00  0.00    -0.175 N 
ATOM      8  H7  UNL     1      11.293   0.793  16.449  1.00  0.00     0.186 HD
ENDROOT
BRANCH   4   9
HETATM    9  S1  UNL     1      15.737   3.741  15.117  1.00  0.00    -0.035 SA
BRANCH   9  10
HETATM   10  S2  UNL     1      15.566   5.775  15.636  1.00  0.00    -0.064 SA
BRANCH  10  11
HETATM   11  C3  UNL     1      15.072   6.832  14.273  1.00  0.00     0.212 C 
HETATM   12  N3  UNL     1      15.296   8.236  14.680  1.00  0.00    -0.081 NA
HETATM   13  O1  UNL     1      14.157   8.057  15.434  1.00  0.00    -0.275 OA
HETATM   14  C4  UNL     1      13.661   7.382  14.324  1.00  0.00     0.220 C 
BRANCH  14  15
HETATM   15  C5  UNL     1      12.562   6.394  14.551  1.00  0.00     0.316 C 
BRANCH  15  16
HETATM   16  N4  UNL     1      11.462   6.942  15.315  1.00  0.00    -0.062 N 
ATOM     17  H43 UNL     1      10.617   7.000  14.747  1.00  0.00     0.275 HD
ATOM     18  H42 UNL     1      11.142   6.278  16.021  1.00  0.00     0.275 HD
ATOM     19  H41 UNL     1      11.681   7.845  15.737  1.00  0.00     0.275 HD
ENDBRANCH  15  16
BRANCH  15  20
HETATM   20  C6  UNL     1      12.035   6.027  13.211  1.00  0.00     0.207 C 
HETATM   21  O2  UNL     1      11.431   4.916  13.050  1.00  0.00    -0.646 OA
HETATM   22  O3  UNL     1      12.187   6.865  12.134  1.00  0.00    -0.646 OA
ENDBRANCH  15  20
ENDBRANCH  14  15
ENDBRANCH  10  11
ENDBRANCH   9  10
ENDBRANCH   4   9
BRANCH   5  23
HETATM   23  N5  UNL     1      15.744   1.192  16.606  1.00  0.00    -0.109 N 
HETATM   24  O4  UNL     1      16.374   0.434  15.860  1.00  0.00    -0.532 OA
HETATM   25  O5  UNL     1      16.294   1.624  17.787  1.00  0.00    -0.532 OA
ENDBRANCH   5  23
BRANCH   1  26
HETATM   26  N1  UNL     1      10.797   2.845  15.195  1.00  0.00    -0.234 N 
ATOM     27  H12 UNL     1      10.159   3.107  15.946  1.00  0.00     0.174 HD
ATOM     28  H11 UNL     1      10.469   2.882  14.230  1.00  0.00     0.174 HD
ENDBRANCH   1  26
BRANCH   6  29
HETATM   29  N6  UNL     1      13.430  -0.216  17.238  1.00  0.00    -0.383 N 
ATOM     30  H62 UNL     1      14.301  -0.451  17.713  1.00  0.00     0.157 HD
ATOM     31  H61 UNL     1      12.660  -0.880  17.312  1.00  0.00     0.157 HD
ENDBRANCH   6  29
TORSDOF 9
ENDMDL
MODEL 4
REMARK VINA RESULT: -6.184661282      3.667      7.197
REMARK  9 active torsions:
REMARK  status: ('A' for Active; 'I' for Inactive)
REMARK    1  A    between atoms: N1_1  and  C1_4 
REMARK    2  A    between atoms: C2_7  and  S1_8 
REMARK    3  A    between atoms: S1_8  and  S2_9 
REMARK    4  A    between atoms: S2_9  and  C3_10 
REMARK    5  A    between atoms: C4_13  and  C5_14 
REMARK    6  A    between atoms: C5_14  and  N4_15 
REMARK    7  A    between atoms: C5_14  and  C6_19 
REMARK    8  A    between atoms: C7_22  and  N5_23 
REMARK    9  A    between atoms: C8_26  and  N6_27 
ROOT
HETATM    1  C1  UNL     1      15.388   3.112  15.370  1.00  0.00     0.678 A 
HETATM    2  N2  UNL     1      14.084   3.395  15.115  1.00  0.00    -0.183 N 
ATOM      3  H2  UNL     1      13.853   4.215  14.554  1.00  0.00     0.185 HD
HETATM    4  C2  UNL     1      13.097   2.624  15.581  1.00  0.00     0.133 A 
HETATM    5  C7  UNL     1      13.416   1.527  16.330  1.00  0.00     0.181 A 
HETATM    6  C8  UNL     1      14.722   1.206  16.608  1.00  0.00     0.151 A 
HETATM    7  N7  UNL     1      15.692   2.026  16.109  1.00  0.00    -0.175 N 
ATOM      8  H7  UNL     1      16.671   1.813  16.300  1.00  0.00     0.186 HD
ENDROOT
BRANCH   4   9
HETATM    9  S1  UNL     1      11.414   3.019  15.241  1.00  0.00    -0.035 SA
BRANCH   9  10
HETATM   10  S2  UNL     1      10.911   5.003  15.739  1.00  0.00    -0.064 SA
BRANCH  10  11
HETATM   11  C3  UNL     1      10.425   6.004  14.332  1.00  0.00     0.212 C 
HETATM   12  N3  UNL     1      11.443   7.060  14.150  1.00  0.00    -0.081 NA
HETATM   13  O1  UNL     1      10.835   7.644  15.240  1.00  0.00    -0.275 OA
HETATM   14  C4  UNL     1       9.641   7.262  14.639  1.00  0.00     0.220 C 
BRANCH  14  15
HETATM   15  C5  UNL     1       8.443   7.111  15.520  1.00  0.00     0.316 C 
BRANCH  15  16
HETATM   16  N4  UNL     1       8.484   7.975  16.680  1.00  0.00    -0.062 N 
ATOM     17  H43 UNL     1       8.581   8.952  16.403  1.00  0.00     0.275 HD
ATOM     18  H42 UNL     1       7.571   8.021  17.133  1.00  0.00     0.275 HD
ATOM     19  H41 UNL     1       9.209   7.711  17.348  1.00  0.00     0.275 HD
ENDBRANCH  15  16
BRANCH  15  20
HETATM   20  C6  UNL     1       7.263   7.509  14.709  1.00  0.00     0.207 C 
HETATM   21  O2  UNL     1       6.096   7.142  15.065  1.00  0.00    -0.646 OA
HETATM   22  O3  UNL     1       7.406   8.268  13.574  1.00  0.00    -0.646 OA
ENDBRANCH  15  20
ENDBRANCH  14  15
ENDBRANCH  10  11
ENDBRANCH   9  10
ENDBRANCH   4   9
BRANCH   5  23
HETATM   23  N5  UNL     1      12.368   0.721  16.830  1.00  0.00    -0.109 N 
HETATM   24  O4  UNL     1      12.159  -0.398  16.347  1.00  0.00    -0.532 OA
HETATM   25  O5  UNL     1      11.590   1.194  17.858  1.00  0.00    -0.532 OA
ENDBRANCH   5  23
BRANCH   1  26
HETATM   26  N1  UNL     1      16.360   3.834  14.939  1.00  0.00    -0.234 N 
ATOM     27  H12 UNL     1      16.971   3.431  14.229  1.00  0.00     0.174 HD
ATOM     28  H11 UNL     1      16.542   4.779  15.274  1.00  0.00     0.174 HD
ENDBRANCH   1  26
BRANCH   6  29
HETATM   29  N6  UNL     1      15.058   0.197  17.298  1.00  0.00    -0.383 N 
ATOM     30  H62 UNL     1      14.669   0.081  18.233  1.00  0.00     0.157 HD
ATOM     31  H61 UNL     1      15.707  -0.516  16.966  1.00  0.00     0.157 HD
ENDBRANCH   6  29
TORSDOF 9
ENDMDL
MODEL 5
REMARK VINA RESULT: -6.084437304      2.628      7.106
REMARK  9 active torsions:
REMARK  status: ('A' for Active; 'I' for Inactive)
REMARK    1  A    between atoms: N1_1  and  C1_4 
REMARK    2  A    between atoms: C2_7  and  S1_8 
REMARK    3  A    between atoms: S1_8  and  S2_9 
REMARK    4  A    between atoms: S2_9  and  C3_10 
REMARK    5  A    between atoms: C4_13  and  C5_14 
REMARK    6  A    between atoms: C5_14  and  N4_15 
REMARK    7  A    between atoms: C5_14  and  C6_19 
REMARK    8  A    between atoms: C7_22  and  N5_23 
REMARK    9  A    between atoms: C8_26  and  N6_27 
ROOT
HETATM    1  C1  UNL     1      15.515   3.266  15.458  1.00  0.00     0.678 A 
HETATM    2  N2  UNL     1      14.166   3.307  15.310  1.00  0.00    -0.183 N 
ATOM      3  H2  UNL     1      13.745   4.082  14.797  1.00  0.00     0.185 HD
HETATM    4  C2  UNL     1      13.377   2.357  15.819  1.00  0.00     0.133 A 
HETATM    5  C7  UNL     1      13.950   1.321  16.502  1.00  0.00     0.181 A 
HETATM    6  C8  UNL     1      15.310   1.243  16.672  1.00  0.00     0.151 A 
HETATM    7  N7  UNL     1      16.071   2.240  16.133  1.00  0.00    -0.175 N 
ATOM      8  H7  UNL     1      17.085   2.209  16.244  1.00  0.00     0.186 HD
ENDROOT
BRANCH   4   9
HETATM    9  S1  UNL     1      11.629   2.438  15.617  1.00  0.00    -0.035 SA
BRANCH   9  10
HETATM   10  S2  UNL     1      11.007   4.060  14.426  1.00  0.00    -0.064 SA
BRANCH  10  11
HETATM   11  C3  UNL     1      11.604   5.652  14.999  1.00  0.00     0.212 C 
HETATM   12  N3  UNL     1      10.587   6.220  15.910  1.00  0.00    -0.081 NA
HETATM   13  O1  UNL     1       9.893   6.486  14.751  1.00  0.00    -0.275 OA
HETATM   14  C4  UNL     1      11.125   6.867  14.231  1.00  0.00     0.220 C 
BRANCH  14  15
HETATM   15  C5  UNL     1      11.288   6.832  12.746  1.00  0.00     0.316 C 
BRANCH  15  16
HETATM   16  N4  UNL     1      10.133   7.346  12.040  1.00  0.00    -0.062 N 
ATOM     17  H43 UNL     1       9.296   6.813  12.274  1.00  0.00     0.275 HD
ATOM     18  H42 UNL     1       9.858   8.257  12.407  1.00  0.00     0.275 HD
ATOM     19  H41 UNL     1      10.271   7.386  11.030  1.00  0.00     0.275 HD
ENDBRANCH  15  16
BRANCH  15  20
HETATM   20  C6  UNL     1      12.438   7.715  12.421  1.00  0.00     0.207 C 
HETATM   21  O2  UNL     1      12.237   8.831  11.839  1.00  0.00    -0.646 OA
HETATM   22  O3  UNL     1      13.724   7.351  12.737  1.00  0.00    -0.646 OA
ENDBRANCH  15  20
ENDBRANCH  14  15
ENDBRANCH  10  11
ENDBRANCH   9  10
ENDBRANCH   4   9
BRANCH   5  23
HETATM   23  N5  UNL     1      13.110   0.324  17.049  1.00  0.00    -0.109 N 
HETATM   24  O4  UNL     1      12.702  -0.602  16.339  1.00  0.00    -0.532 OA
HETATM   25  O5  UNL     1      12.758   0.395  18.374  1.00  0.00    -0.532 OA
ENDBRANCH   5  23
BRANCH   1  26
HETATM   26  N1  UNL     1      16.301   4.165  14.983  1.00  0.00    -0.234 N 
ATOM     27  H12 UNL     1      16.980   3.878  14.279  1.00  0.00     0.174 HD
ATOM     28  H11 UNL     1      16.274   5.141  15.279  1.00  0.00     0.174 HD
ENDBRANCH   1  26
BRANCH   6  29
HETATM   29  N6  UNL     1      15.880   0.300  17.298  1.00  0.00    -0.383 N 
ATOM     30  H62 UNL     1      15.862  -0.641  16.905  1.00  0.00     0.157 HD
ATOM     31  H61 UNL     1      16.363   0.429  18.186  1.00  0.00     0.157 HD
ENDBRANCH   6  29
TORSDOF 9
ENDMDL
