MODEL 1
REMARK VINA RESULT: -7.003752394      0.000      0.000
REMARK  9 active torsions:
REMARK  status: ('A' for Active; 'I' for Inactive)
REMARK    1  A    between atoms: C2_2  and  N1_3 
REMARK    2  A    between atoms: C2_2  and  N6_23 
REMARK       I    between atoms: N1_3  and  C3_5 
REMARK    3  A    between atoms: C3_5  and  C4_7 
REMARK    4  A    between atoms: C4_7  and  O2_8 
REMARK    5  A    between atoms: C4_7  and  N2_10 
REMARK    6  A    between atoms: N2_10  and  N3_11 
REMARK       I    between atoms: N3_11  and  C5_13 
REMARK    7  A    between atoms: C5_13  and  C6_15 
REMARK    8  A    between atoms: N6_23  and  C8_26 
REMARK    9  A    between atoms: C8_26  and  O5_27 
ROOT
HETATM    1  C4  UNL     1      12.354   4.135  14.332  1.00  0.00     0.324 C 
ENDROOT
BRANCH   1   2
HETATM    2  C3  UNL     1      11.704   5.362  14.854  1.00  0.00     0.265 C 
HETATM    3  N1  UNL     1      10.638   5.931  14.122  1.00  0.00    -0.330 N 
ATOM      4  H1  UNL     1      10.321   5.507  13.251  1.00  0.00     0.164 HD
HETATM    5  O1  UNL     1      12.075   5.902  15.922  1.00  0.00    -0.269 OA
BRANCH   3   6
HETATM    6  C2  UNL     1      10.001   7.131  14.634  1.00  0.00     0.286 C 
HETATM    7  C1  UNL     1       8.787   6.794  15.462  1.00  0.00     0.063 C 
BRANCH   6   8
HETATM    8  N6  UNL     1       9.744   8.019  13.550  1.00  0.00    -0.018 N 
ATOM      9  H62 UNL     1       8.782   7.925  13.223  1.00  0.00     0.283 HD
ATOM     10  H61 UNL     1       9.717   8.987  13.871  1.00  0.00     0.283 HD
BRANCH   8  11
HETATM   11  C8  UNL     1      10.664   7.865  12.477  1.00  0.00     0.396 C 
HETATM   12  S2  UNL     1      11.211   9.461  11.853  1.00  0.00    -0.033 SA
BRANCH  11  13
HETATM   13  O5  UNL     1      10.115   7.202  11.384  1.00  0.00    -0.361 OA
ATOM     14  H5  UNL     1      10.695   6.542  11.023  1.00  0.00     0.213 HD
ENDBRANCH  11  13
ENDBRANCH   8  11
ENDBRANCH   6   8
ENDBRANCH   3   6
ENDBRANCH   1   2
BRANCH   1  15
HETATM   15  O2  UNL     1      11.708   2.988  14.794  1.00  0.00    -0.370 OA
ATOM     16  H2  UNL     1      12.039   2.211  14.359  1.00  0.00     0.212 HD
ENDBRANCH   1  15
BRANCH   1  17
HETATM   17  N2  UNL     1      13.744   4.155  14.777  1.00  0.00    -0.096 NA
BRANCH  17  18
HETATM   18  N3  UNL     1      13.966   2.898  15.394  1.00  0.00    -0.266 N 
HETATM   19  C5  UNL     1      15.212   2.547  15.927  1.00  0.00     0.288 C 
HETATM   20  O3  UNL     1      16.142   3.406  15.834  1.00  0.00    -0.264 OA
ATOM     21  H3  UNL     1      13.196   2.230  15.451  1.00  0.00     0.185 HD
BRANCH  19  22
HETATM   22  C6  UNL     1      15.556   1.299  16.580  1.00  0.00     0.165 A 
HETATM   23  N4  UNL     1      16.833   0.906  16.919  1.00  0.00    -0.233 N 
HETATM   24  O4  UNL     1      16.782  -0.232  17.473  1.00  0.00    -0.155 OA
ATOM     25  H4  UNL     1      17.683   1.445  16.750  1.00  0.00     0.197 HD
HETATM   26  N5  UNL     1      15.593  -0.705  17.571  1.00  0.00    -0.228 N 
HETATM   27  C7  UNL     1      14.787   0.248  17.010  1.00  0.00     0.157 A 
ATOM     28  H5  UNL     1      15.311  -1.597  17.977  1.00  0.00     0.198 HD
HETATM   29  S1  UNL     1      13.157   0.138  16.879  1.00  0.00    -0.056 SA
ENDBRANCH  19  22
ENDBRANCH  17  18
ENDBRANCH   1  17
TORSDOF 9
ENDMDL
MODEL 2
REMARK VINA RESULT: -6.979845399      1.767      1.899
REMARK  9 active torsions:
REMARK  status: ('A' for Active; 'I' for Inactive)
REMARK    1  A    between atoms: C2_2  and  N1_3 
REMARK    2  A    between atoms: C2_2  and  N6_23 
REMARK       I    between atoms: N1_3  and  C3_5 
REMARK    3  A    between atoms: C3_5  and  C4_7 
REMARK    4  A    between atoms: C4_7  and  O2_8 
REMARK    5  A    between atoms: C4_7  and  N2_10 
REMARK    6  A    between atoms: N2_10  and  N3_11 
REMARK       I    between atoms: N3_11  and  C5_13 
REMARK    7  A    between atoms: C5_13  and  C6_15 
REMARK    8  A    between atoms: N6_23  and  C8_26 
REMARK    9  A    between atoms: C8_26  and  O5_27 
ROOT
HETATM    1  C4  UNL     1      12.518   4.286  14.452  1.00  0.00     0.324 C 
ENDROOT
BRANCH   1   2
HETATM    2  C3  UNL     1      12.034   5.573  15.010  1.00  0.00     0.265 C 
HETATM    3  N1  UNL     1      11.061   5.549  16.033  1.00  0.00    -0.330 N 
ATOM      4  H1  UNL     1      10.697   4.662  16.383  1.00  0.00     0.164 HD
HETATM    5  O1  UNL     1      12.465   6.675  14.597  1.00  0.00    -0.269 OA
BRANCH   3   6
HETATM    6  C2  UNL     1      10.588   6.808  16.579  1.00  0.00     0.286 C 
HETATM    7  C1  UNL     1      10.906   6.920  18.049  1.00  0.00     0.063 C 
BRANCH   6   8
HETATM    8  N6  UNL     1       9.208   6.963  16.264  1.00  0.00    -0.018 N 
ATOM      9  H62 UNL     1       8.779   6.062  16.052  1.00  0.00     0.283 HD
ATOM     10  H61 UNL     1       8.670   7.212  17.094  1.00  0.00     0.283 HD
BRANCH   8  11
HETATM   11  C8  UNL     1       8.980   7.894  15.214  1.00  0.00     0.396 C 
HETATM   12  S2  UNL     1       7.224   8.055  14.854  1.00  0.00    -0.033 SA
BRANCH  11  13
HETATM   13  O5  UNL     1       9.576   7.515  14.015  1.00  0.00    -0.361 OA
ATOM     14  H5  UNL     1      10.340   6.966  14.140  1.00  0.00     0.213 HD
ENDBRANCH  11  13
ENDBRANCH   8  11
ENDBRANCH   6   8
ENDBRANCH   3   6
ENDBRANCH   1   2
BRANCH   1  15
HETATM   15  O2  UNL     1      11.814   3.209  14.991  1.00  0.00    -0.370 OA
ATOM     16  H2  UNL     1      12.295   2.810  15.707  1.00  0.00     0.212 HD
ENDBRANCH   1  15
BRANCH   1  17
HETATM   17  N2  UNL     1      13.938   4.181  14.767  1.00  0.00    -0.096 NA
BRANCH  17  18
HETATM   18  N3  UNL     1      14.103   2.906  15.365  1.00  0.00    -0.266 N 
HETATM   19  C5  UNL     1      15.315   2.515  15.950  1.00  0.00     0.288 C 
HETATM   20  O3  UNL     1      16.266   3.355  15.920  1.00  0.00    -0.264 OA
ATOM     21  H3  UNL     1      13.318   2.255  15.370  1.00  0.00     0.185 HD
BRANCH  19  22
HETATM   22  C6  UNL     1      15.600   1.247  16.589  1.00  0.00     0.165 A 
HETATM   23  N4  UNL     1      16.859   0.784  16.910  1.00  0.00    -0.233 N 
HETATM   24  O4  UNL     1      16.754  -0.354  17.457  1.00  0.00    -0.155 OA
ATOM     25  H4  UNL     1      17.733   1.279  16.735  1.00  0.00     0.197 HD
HETATM   26  N5  UNL     1      15.543  -0.764  17.566  1.00  0.00    -0.228 N 
HETATM   27  C7  UNL     1      14.781   0.234  17.021  1.00  0.00     0.157 A 
ATOM     28  H5  UNL     1      15.219  -1.643  17.969  1.00  0.00     0.198 HD
HETATM   29  S1  UNL     1      13.147   0.211  16.909  1.00  0.00    -0.056 SA
ENDBRANCH  19  22
ENDBRANCH  17  18
ENDBRANCH   1  17
TORSDOF 9
ENDMDL
MODEL 3
REMARK VINA RESULT: -6.978192634      2.233      2.618
REMARK  9 active torsions:
REMARK  status: ('A' for Active; 'I' for Inactive)
REMARK    1  A    between atoms: C2_2  and  N1_3 
REMARK    2  A    between atoms: C2_2  and  N6_23 
REMARK       I    between atoms: N1_3  and  C3_5 
REMARK    3  A    between atoms: C3_5  and  C4_7 
REMARK    4  A    between atoms: C4_7  and  O2_8 
REMARK    5  A    between atoms: C4_7  and  N2_10 
REMARK    6  A    between atoms: N2_10  and  N3_11 
REMARK       I    between atoms: N3_11  and  C5_13 
REMARK    7  A    between atoms: C5_13  and  C6_15 
REMARK    8  A    between atoms: N6_23  and  C8_26 
REMARK    9  A    between atoms: C8_26  and  O5_27 
ROOT
HETATM    1  C4  UNL     1      12.102   4.150  14.467  1.00  0.00     0.324 C 
ENDROOT
BRANCH   1   2
HETATM    2  C3  UNL     1      11.388   4.940  15.501  1.00  0.00     0.265 C 
HETATM    3  N1  UNL     1      10.622   6.055  15.096  1.00  0.00    -0.330 N 
ATOM      4  H1  UNL     1      10.560   6.313  14.112  1.00  0.00     0.164 HD
HETATM    5  O1  UNL     1      11.449   4.642  16.717  1.00  0.00    -0.269 OA
BRANCH   3   6
HETATM    6  C2  UNL     1       9.923   6.827  16.108  1.00  0.00     0.286 C 
HETATM    7  C1  UNL     1       8.571   7.275  15.615  1.00  0.00     0.063 C 
BRANCH   6   8
HETATM    8  N6  UNL     1      10.767   7.886  16.551  1.00  0.00    -0.018 N 
ATOM      9  H62 UNL     1      11.608   7.945  15.977  1.00  0.00     0.283 HD
ATOM     10  H61 UNL     1      10.355   8.794  16.336  1.00  0.00     0.283 HD
BRANCH   8  11
HETATM   11  C8  UNL     1      11.098   7.791  17.930  1.00  0.00     0.396 C 
HETATM   12  S2  UNL     1      12.876   7.904  18.183  1.00  0.00    -0.033 SA
BRANCH  11  13
HETATM   13  O5  UNL     1      10.714   6.580  18.498  1.00  0.00    -0.361 OA
ATOM     14  H5  UNL     1      10.274   6.686  19.333  1.00  0.00     0.213 HD
ENDBRANCH  11  13
ENDBRANCH   8  11
ENDBRANCH   6   8
ENDBRANCH   3   6
ENDBRANCH   1   2
BRANCH   1  15
HETATM   15  O2  UNL     1      11.628   2.839  14.420  1.00  0.00    -0.370 OA
ATOM     16  H2  UNL     1      10.741   2.808  14.081  1.00  0.00     0.212 HD
ENDBRANCH   1  15
BRANCH   1  17
HETATM   17  N2  UNL     1      13.521   4.170  14.806  1.00  0.00    -0.096 NA
BRANCH  17  18
HETATM   18  N3  UNL     1      13.786   2.918  15.417  1.00  0.00    -0.266 N 
HETATM   19  C5  UNL     1      15.058   2.586  15.899  1.00  0.00     0.288 C 
HETATM   20  O3  UNL     1      15.971   3.457  15.764  1.00  0.00    -0.264 OA
ATOM     21  H3  UNL     1      13.029   2.241  15.508  1.00  0.00     0.185 HD
BRANCH  19  22
HETATM   22  C6  UNL     1      15.446   1.346  16.541  1.00  0.00     0.165 A 
HETATM   23  N4  UNL     1      16.738   0.985  16.857  1.00  0.00    -0.233 N 
HETATM   24  O4  UNL     1      16.727  -0.156  17.408  1.00  0.00    -0.155 OA
ATOM     25  H4  UNL     1      17.571   1.547  16.676  1.00  0.00     0.197 HD
HETATM   26  N5  UNL     1      15.553  -0.660  17.524  1.00  0.00    -0.228 N 
HETATM   27  C7  UNL     1      14.712   0.273  16.980  1.00  0.00     0.157 A 
ATOM     28  H5  UNL     1      15.301  -1.561  17.931  1.00  0.00     0.198 HD
HETATM   29  S1  UNL     1      13.084   0.120  16.876  1.00  0.00    -0.056 SA
ENDBRANCH  19  22
ENDBRANCH  17  18
ENDBRANCH   1  17
TORSDOF 9
ENDMDL
MODEL 4
REMARK VINA RESULT: -6.972229998      1.474      1.921
REMARK  9 active torsions:
REMARK  status: ('A' for Active; 'I' for Inactive)
REMARK    1  A    between atoms: C2_2  and  N1_3 
REMARK    2  A    between atoms: C2_2  and  N6_23 
REMARK       I    between atoms: N1_3  and  C3_5 
REMARK    3  A    between atoms: C3_5  and  C4_7 
REMARK    4  A    between atoms: C4_7  and  O2_8 
REMARK    5  A    between atoms: C4_7  and  N2_10 
REMARK    6  A    between atoms: N2_10  and  N3_11 
REMARK       I    between atoms: N3_11  and  C5_13 
REMARK    7  A    between atoms: C5_13  and  C6_15 
REMARK    8  A    between atoms: N6_23  and  C8_26 
REMARK    9  A    between atoms: C8_26  and  O5_27 
ROOT
HETATM    1  C4  UNL     1      13.175   4.942  15.429  1.00  0.00     0.324 C 
ENDROOT
BRANCH   1   2
HETATM    2  C3  UNL     1      11.995   5.222  14.575  1.00  0.00     0.265 C 
HETATM    3  N1  UNL     1      11.529   6.551  14.470  1.00  0.00    -0.330 N 
ATOM      4  H1  UNL     1      11.995   7.306  14.973  1.00  0.00     0.164 HD
HETATM    5  O1  UNL     1      11.405   4.311  13.947  1.00  0.00    -0.269 OA
BRANCH   3   6
HETATM    6  C2  UNL     1      10.374   6.824  13.633  1.00  0.00     0.286 C 
HETATM    7  C1  UNL     1      10.758   7.636  12.422  1.00  0.00     0.063 C 
BRANCH   6   8
HETATM    8  N6  UNL     1       9.349   7.408  14.431  1.00  0.00    -0.018 N 
ATOM      9  H62 UNL     1       8.685   6.700  14.746  1.00  0.00     0.283 HD
ATOM     10  H61 UNL     1       9.716   7.706  15.335  1.00  0.00     0.283 HD
BRANCH   8  11
HETATM   11  C8  UNL     1       8.679   8.478  13.777  1.00  0.00     0.396 C 
HETATM   12  S2  UNL     1       8.706   9.973  14.777  1.00  0.00    -0.033 SA
BRANCH  11  13
HETATM   13  O5  UNL     1       7.335   8.210  13.537  1.00  0.00    -0.361 OA
ATOM     14  H5  UNL     1       6.781   8.402  14.284  1.00  0.00     0.213 HD
ENDBRANCH  11  13
ENDBRANCH   8  11
ENDBRANCH   6   8
ENDBRANCH   3   6
ENDBRANCH   1   2
BRANCH   1  15
HETATM   15  O2  UNL     1      13.764   6.126  15.874  1.00  0.00    -0.370 OA
ATOM     16  H2  UNL     1      13.812   6.149  16.822  1.00  0.00     0.212 HD
ENDBRANCH   1  15
BRANCH   1  17
HETATM   17  N2  UNL     1      14.119   4.168  14.630  1.00  0.00    -0.096 NA
BRANCH  17  18
HETATM   18  N3  UNL     1      14.209   2.903  15.264  1.00  0.00    -0.266 N 
HETATM   19  C5  UNL     1      15.373   2.489  15.925  1.00  0.00     0.288 C 
HETATM   20  O3  UNL     1      16.351   3.298  15.930  1.00  0.00    -0.264 OA
ATOM     21  H3  UNL     1      13.404   2.278  15.240  1.00  0.00     0.185 HD
BRANCH  19  22
HETATM   22  C6  UNL     1      15.580   1.228  16.607  1.00  0.00     0.165 A 
HETATM   23  N4  UNL     1      16.806   0.721  16.984  1.00  0.00    -0.233 N 
HETATM   24  O4  UNL     1      16.634  -0.396  17.557  1.00  0.00    -0.155 OA
ATOM     25  H4  UNL     1      17.707   1.173  16.827  1.00  0.00     0.197 HD
HETATM   26  N5  UNL     1      15.403  -0.751  17.634  1.00  0.00    -0.228 N 
HETATM   27  C7  UNL     1      14.704   0.264  17.036  1.00  0.00     0.157 A 
ATOM     28  H5  UNL     1      15.027  -1.603  18.049  1.00  0.00     0.198 HD
HETATM   29  S1  UNL     1      13.075   0.307  16.868  1.00  0.00    -0.056 SA
ENDBRANCH  19  22
ENDBRANCH  17  18
ENDBRANCH   1  17
TORSDOF 9
ENDMDL
MODEL 5
REMARK VINA RESULT: -6.926102424      2.694      3.094
REMARK  9 active torsions:
REMARK  status: ('A' for Active; 'I' for Inactive)
REMARK    1  A    between atoms: C2_2  and  N1_3 
REMARK    2  A    between atoms: C2_2  and  N6_23 
REMARK       I    between atoms: N1_3  and  C3_5 
REMARK    3  A    between atoms: C3_5  and  C4_7 
REMARK    4  A    between atoms: C4_7  and  O2_8 
REMARK    5  A    between atoms: C4_7  and  N2_10 
REMARK    6  A    between atoms: N2_10  and  N3_11 
REMARK       I    between atoms: N3_11  and  C5_13 
REMARK    7  A    between atoms: C5_13  and  C6_15 
REMARK    8  A    between atoms: N6_23  and  C8_26 
REMARK    9  A    between atoms: C8_26  and  O5_27 
ROOT
HETATM    1  C4  UNL     1      11.170   3.158  14.760  1.00  0.00     0.324 C 
ENDROOT
BRANCH   1   2
HETATM    2  C3  UNL     1      12.183   4.222  14.971  1.00  0.00     0.265 C 
HETATM    3  N1  UNL     1      11.881   5.285  15.851  1.00  0.00    -0.330 N 
ATOM      4  H1  UNL     1      10.983   5.321  16.333  1.00  0.00     0.164 HD
HETATM    5  O1  UNL     1      13.293   4.200  14.390  1.00  0.00    -0.269 OA
BRANCH   3   6
HETATM    6  C2  UNL     1      12.872   6.325  16.057  1.00  0.00     0.286 C 
HETATM    7  C1  UNL     1      12.553   7.148  17.279  1.00  0.00     0.063 C 
BRANCH   6   8
HETATM    8  N6  UNL     1      13.007   7.083  14.858  1.00  0.00    -0.018 N 
ATOM      9  H62 UNL     1      12.555   6.610  14.075  1.00  0.00     0.283 HD
ATOM     10  H61 UNL     1      12.437   7.927  14.895  1.00  0.00     0.283 HD
BRANCH   8  11
HETATM   11  C8  UNL     1      14.360   7.396  14.550  1.00  0.00     0.396 C 
HETATM   12  S2  UNL     1      14.465   8.522  13.151  1.00  0.00    -0.033 SA
BRANCH  11  13
HETATM   13  O5  UNL     1      15.107   6.279  14.191  1.00  0.00    -0.361 OA
ATOM     14  H5  UNL     1      15.929   6.503  13.772  1.00  0.00     0.213 HD
ENDBRANCH  11  13
ENDBRANCH   8  11
ENDBRANCH   6   8
ENDBRANCH   3   6
ENDBRANCH   1   2
BRANCH   1  15
HETATM   15  O2  UNL     1       9.880   3.687  14.747  1.00  0.00    -0.370 OA
ATOM     16  H2  UNL     1       9.445   3.548  15.580  1.00  0.00     0.212 HD
ENDBRANCH   1  15
BRANCH   1  17
HETATM   17  N2  UNL     1      11.319   2.194  15.846  1.00  0.00    -0.096 NA
BRANCH  17  18
HETATM   18  N3  UNL     1      12.697   1.862  15.876  1.00  0.00    -0.266 N 
HETATM   19  C5  UNL     1      13.226   0.992  16.839  1.00  0.00     0.288 C 
HETATM   20  O3  UNL     1      12.415   0.512  17.689  1.00  0.00    -0.264 OA
ATOM     21  H3  UNL     1      13.320   2.267  15.178  1.00  0.00     0.185 HD
BRANCH  19  22
HETATM   22  C6  UNL     1      14.609   0.580  16.967  1.00  0.00     0.165 A 
HETATM   23  N4  UNL     1      15.035  -0.605  17.530  1.00  0.00    -0.233 N 
HETATM   24  O4  UNL     1      16.300  -0.653  17.484  1.00  0.00    -0.155 OA
ATOM     25  H4  UNL     1      14.429  -1.327  17.920  1.00  0.00     0.197 HD
HETATM   26  N5  UNL     1      16.836   0.380  16.943  1.00  0.00    -0.228 N 
HETATM   27  C7  UNL     1      15.783   1.186  16.602  1.00  0.00     0.157 A 
ATOM     28  H5  UNL     1      17.829   0.561  16.798  1.00  0.00     0.198 HD
HETATM   29  S1  UNL     1      15.920   2.646  15.871  1.00  0.00    -0.056 SA
ENDBRANCH  19  22
ENDBRANCH  17  18
ENDBRANCH   1  17
TORSDOF 9
ENDMDL
