MODEL 1
REMARK VINA RESULT: -7.238922795      0.000      0.000
REMARK  11 active torsions:
REMARK  status: ('A' for Active; 'I' for Inactive)
REMARK    1  A    between atoms: C1_4  and  N2_5 
REMARK    2  A    between atoms: N2_5  and  C2_7 
REMARK    3  A    between atoms: C2_7  and  C3_11 
REMARK    4  A    between atoms: C3_11  and  O2_13 
REMARK    5  A    between atoms: O2_13  and  C4_14 
REMARK    6  A    between atoms: C4_14  and  O3_15 
REMARK    7  A    between atoms: O3_15  and  C5_16 
REMARK    8  A    between atoms: C8_22  and  O4_23 
REMARK    9  A    between atoms: O4_23  and  C9_24 
REMARK   10  A    between atoms: C11_29  and  O5_30 
REMARK   11  A    between atoms: C12_32  and  O6_33 
ROOT
HETATM    1  C5  UNL     1      16.259   5.377  15.310  1.00  0.00     0.473 C 
HETATM    2  N4  UNL     1      17.452   6.183  14.971  1.00  0.00    -0.025 N 
ATOM      3  H41 UNL     1      17.829   5.987  14.044  1.00  0.00     0.283 HD
ATOM      4  H42 UNL     1      18.286   5.922  15.498  1.00  0.00     0.283 HD
HETATM    5  C6  UNL     1      17.058   7.545  15.154  1.00  0.00     0.243 C 
HETATM    6  C7  UNL     1      15.627   7.710  15.618  1.00  0.00     0.088 C 
HETATM    7  C8  UNL     1      14.652   6.896  14.807  1.00  0.00     0.269 C 
HETATM    8  O7  UNL     1      15.240   5.701  14.450  1.00  0.00    -0.308 OA
ENDROOT
BRANCH   1   9
HETATM    9  O3  UNL     1      16.688   4.052  15.143  1.00  0.00    -0.314 OA
BRANCH   9  10
HETATM   10  C4  UNL     1      15.654   3.179  15.421  1.00  0.00     0.353 C 
BRANCH  10  11
HETATM   11  O2  UNL     1      15.956   2.331  16.521  1.00  0.00    -0.289 OA
BRANCH  11  12
HETATM   12  C3  UNL     1      15.621   0.992  16.509  1.00  0.00     0.329 C 
HETATM   13  O1  UNL     1      16.451   0.130  16.125  1.00  0.00    -0.256 OA
BRANCH  12  14
HETATM   14  C2  UNL     1      14.303   0.514  16.936  1.00  0.00     0.176 C 
HETATM   15  N3  UNL     1      14.165  -0.265  17.958  1.00  0.00    -0.380 N 
ATOM     16  H32 UNL     1      13.248  -0.599  18.255  1.00  0.00     0.157 HD
ATOM     17  H31 UNL     1      15.008  -0.540  18.462  1.00  0.00     0.157 HD
BRANCH  14  18
HETATM   18  N2  UNL     1      13.133   0.895  16.235  1.00  0.00    -0.334 N 
ATOM     19  H2  UNL     1      13.196   1.242  15.277  1.00  0.00     0.168 HD
BRANCH  18  20
HETATM   20  C1  UNL     1      11.879   0.790  16.872  1.00  0.00     0.175 C 
HETATM   21  N1  UNL     1      11.027   1.734  16.898  1.00  0.00    -0.395 N 
ATOM     22  H12 UNL     1      11.278   2.604  16.430  1.00  0.00     0.156 HD
ATOM     23  H11 UNL     1      10.120   1.658  17.359  1.00  0.00     0.156 HD
ENDBRANCH  18  20
ENDBRANCH  14  18
ENDBRANCH  12  14
ENDBRANCH  11  12
ENDBRANCH  10  11
ENDBRANCH   9  10
ENDBRANCH   1   9
BRANCH   7  24
HETATM   24  O4  UNL     1      13.483   6.612  15.472  1.00  0.00    -0.326 OA
BRANCH  24  25
HETATM   25  C9  UNL     1      12.479   6.071  14.776  1.00  0.00     0.354 C 
HETATM   26  N5  UNL     1      11.230   6.730  14.697  1.00  0.00    -0.044 N 
HETATM   27  C10 UNL     1      10.326   5.755  14.094  1.00  0.00     0.269 C 
ATOM     28  H52 UNL     1      10.902   7.103  15.588  1.00  0.00     0.280 HD
ATOM     29  H51 UNL     1      11.264   7.622  14.203  1.00  0.00     0.280 HD
HETATM   30  C11 UNL     1      11.019   4.417  14.146  1.00  0.00     0.176 C 
HETATM   31  C12 UNL     1      12.049   4.680  15.257  1.00  0.00     0.205 C 
BRANCH  30  32
HETATM   32  O5  UNL     1      10.217   3.383  14.547  1.00  0.00    -0.391 OA
ATOM     33  H5  UNL     1      10.424   2.549  14.143  1.00  0.00     0.210 HD
ENDBRANCH  30  32
BRANCH  31  34
HETATM   34  O6  UNL     1      11.337   4.733  16.435  1.00  0.00    -0.389 OA
ATOM     35  H6  UNL     1      11.039   3.875  16.713  1.00  0.00     0.210 HD
ENDBRANCH  31  34
ENDBRANCH  24  25
ENDBRANCH   7  24
TORSDOF 11
ENDMDL
MODEL 2
REMARK VINA RESULT: -6.898485042      1.649      1.909
REMARK  11 active torsions:
REMARK  status: ('A' for Active; 'I' for Inactive)
REMARK    1  A    between atoms: C1_4  and  N2_5 
REMARK    2  A    between atoms: N2_5  and  C2_7 
REMARK    3  A    between atoms: C2_7  and  C3_11 
REMARK    4  A    between atoms: C3_11  and  O2_13 
REMARK    5  A    between atoms: O2_13  and  C4_14 
REMARK    6  A    between atoms: C4_14  and  O3_15 
REMARK    7  A    between atoms: O3_15  and  C5_16 
REMARK    8  A    between atoms: C8_22  and  O4_23 
REMARK    9  A    between atoms: O4_23  and  C9_24 
REMARK   10  A    between atoms: C11_29  and  O5_30 
REMARK   11  A    between atoms: C12_32  and  O6_33 
ROOT
HETATM    1  C5  UNL     1      15.717   4.991  15.203  1.00  0.00     0.473 C 
HETATM    2  N4  UNL     1      16.922   5.824  15.400  1.00  0.00    -0.025 N 
ATOM      3  H41 UNL     1      17.508   5.901  14.569  1.00  0.00     0.283 HD
ATOM      4  H42 UNL     1      17.624   5.394  16.003  1.00  0.00     0.283 HD
HETATM    5  C6  UNL     1      16.443   7.082  15.884  1.00  0.00     0.243 C 
HETATM    6  C7  UNL     1      14.939   7.145  16.035  1.00  0.00     0.088 C 
HETATM    7  C8  UNL     1      14.207   6.638  14.818  1.00  0.00     0.269 C 
HETATM    8  O7  UNL     1      14.908   5.586  14.268  1.00  0.00    -0.308 OA
ENDROOT
BRANCH   1   9
HETATM    9  O3  UNL     1      16.225   3.763  14.754  1.00  0.00    -0.314 OA
BRANCH   9  10
HETATM   10  C4  UNL     1      15.478   2.722  15.270  1.00  0.00     0.353 C 
BRANCH  10  11
HETATM   11  O2  UNL     1      15.777   2.481  16.638  1.00  0.00    -0.289 OA
BRANCH  11  12
HETATM   12  C3  UNL     1      16.264   1.261  17.063  1.00  0.00     0.329 C 
HETATM   13  O1  UNL     1      17.494   1.101  17.268  1.00  0.00    -0.256 OA
BRANCH  12  14
HETATM   14  C2  UNL     1      15.387   0.110  17.295  1.00  0.00     0.176 C 
HETATM   15  N3  UNL     1      15.828  -1.103  17.215  1.00  0.00    -0.380 N 
ATOM     16  H32 UNL     1      15.218  -1.904  17.376  1.00  0.00     0.157 HD
ATOM     17  H31 UNL     1      16.813  -1.235  16.984  1.00  0.00     0.157 HD
BRANCH  14  18
HETATM   18  N2  UNL     1      14.020   0.294  17.616  1.00  0.00    -0.334 N 
ATOM     19  H2  UNL     1      13.749   0.637  18.538  1.00  0.00     0.168 HD
BRANCH  18  20
HETATM   20  C1  UNL     1      13.037   0.001  16.648  1.00  0.00     0.175 C 
HETATM   21  N1  UNL     1      12.173   0.845  16.250  1.00  0.00    -0.395 N 
ATOM     22  H12 UNL     1      12.206   1.777  16.662  1.00  0.00     0.156 HD
ATOM     23  H11 UNL     1      11.463   0.633  15.549  1.00  0.00     0.156 HD
ENDBRANCH  18  20
ENDBRANCH  14  18
ENDBRANCH  12  14
ENDBRANCH  11  12
ENDBRANCH  10  11
ENDBRANCH   9  10
ENDBRANCH   1   9
BRANCH   7  24
HETATM   24  O4  UNL     1      12.930   6.205  15.084  1.00  0.00    -0.326 OA
BRANCH  24  25
HETATM   25  C9  UNL     1      11.915   6.842  14.493  1.00  0.00     0.354 C 
HETATM   26  N5  UNL     1      10.581   6.566  14.874  1.00  0.00    -0.044 N 
HETATM   27  C10 UNL     1       9.756   7.231  13.869  1.00  0.00     0.269 C 
ATOM     28  H52 UNL     1      10.380   5.572  14.983  1.00  0.00     0.280 HD
ATOM     29  H51 UNL     1      10.361   6.835  15.833  1.00  0.00     0.280 HD
HETATM   30  C11 UNL     1      10.665   7.605  12.726  1.00  0.00     0.176 C 
HETATM   31  C12 UNL     1      11.837   6.639  12.975  1.00  0.00     0.205 C 
BRANCH  30  32
HETATM   32  O5  UNL     1      10.150   7.337  11.487  1.00  0.00    -0.391 OA
ATOM     33  H5  UNL     1      10.761   7.472  10.772  1.00  0.00     0.210 HD
ENDBRANCH  30  32
BRANCH  31  34
HETATM   34  O6  UNL     1      11.377   5.385  12.639  1.00  0.00    -0.389 OA
ATOM     35  H6  UNL     1      10.720   5.415  11.954  1.00  0.00     0.210 HD
ENDBRANCH  31  34
ENDBRANCH  24  25
ENDBRANCH   7  24
TORSDOF 11
ENDMDL
MODEL 3
REMARK VINA RESULT: -6.772441515      1.667      1.937
REMARK  11 active torsions:
REMARK  status: ('A' for Active; 'I' for Inactive)
REMARK    1  A    between atoms: C1_4  and  N2_5 
REMARK    2  A    between atoms: N2_5  and  C2_7 
REMARK    3  A    between atoms: C2_7  and  C3_11 
REMARK    4  A    between atoms: C3_11  and  O2_13 
REMARK    5  A    between atoms: O2_13  and  C4_14 
REMARK    6  A    between atoms: C4_14  and  O3_15 
REMARK    7  A    between atoms: O3_15  and  C5_16 
REMARK    8  A    between atoms: C8_22  and  O4_23 
REMARK    9  A    between atoms: O4_23  and  C9_24 
REMARK   10  A    between atoms: C11_29  and  O5_30 
REMARK   11  A    between atoms: C12_32  and  O6_33 
ROOT
HETATM    1  C5  UNL     1      15.152   4.171  15.407  1.00  0.00     0.473 C 
HETATM    2  N4  UNL     1      16.553   4.504  15.070  1.00  0.00    -0.025 N 
ATOM      3  H41 UNL     1      16.848   4.159  14.158  1.00  0.00     0.283 HD
ATOM      4  H42 UNL     1      17.240   3.990  15.622  1.00  0.00     0.283 HD
HETATM    5  C6  UNL     1      16.652   5.924  15.208  1.00  0.00     0.243 C 
HETATM    6  C7  UNL     1      15.361   6.587  15.637  1.00  0.00     0.088 C 
HETATM    7  C8  UNL     1      14.173   6.132  14.829  1.00  0.00     0.269 C 
HETATM    8  O7  UNL     1      14.315   4.797  14.517  1.00  0.00    -0.308 OA
ENDROOT
BRANCH   1   9
HETATM    9  O3  UNL     1      15.098   2.774  15.286  1.00  0.00    -0.314 OA
BRANCH   9  10
HETATM   10  C4  UNL     1      15.916   2.183  16.230  1.00  0.00     0.353 C 
BRANCH  10  11
HETATM   11  O2  UNL     1      16.017   0.779  16.041  1.00  0.00    -0.289 OA
BRANCH  11  12
HETATM   12  C3  UNL     1      15.303  -0.105  16.826  1.00  0.00     0.329 C 
HETATM   13  O1  UNL     1      15.871  -1.101  17.343  1.00  0.00    -0.256 OA
BRANCH  12  14
HETATM   14  C2  UNL     1      13.873   0.069  17.093  1.00  0.00     0.176 C 
HETATM   15  N3  UNL     1      13.398   0.020  18.294  1.00  0.00    -0.380 N 
ATOM     16  H32 UNL     1      12.402   0.140  18.480  1.00  0.00     0.157 HD
ATOM     17  H31 UNL     1      14.054  -0.143  19.057  1.00  0.00     0.157 HD
BRANCH  14  18
HETATM   18  N2  UNL     1      12.961   0.295  16.032  1.00  0.00    -0.334 N 
ATOM     19  H2  UNL     1      12.945  -0.330  15.225  1.00  0.00     0.168 HD
BRANCH  18  20
HETATM   20  C1  UNL     1      12.077   1.391  16.102  1.00  0.00     0.175 C 
HETATM   21  N1  UNL     1      12.146   2.397  15.326  1.00  0.00    -0.395 N 
ATOM     22  H12 UNL     1      12.885   2.394  14.624  1.00  0.00     0.156 HD
ATOM     23  H11 UNL     1      11.506   3.189  15.376  1.00  0.00     0.156 HD
ENDBRANCH  18  20
ENDBRANCH  14  18
ENDBRANCH  12  14
ENDBRANCH  11  12
ENDBRANCH  10  11
ENDBRANCH   9  10
ENDBRANCH   1   9
BRANCH   7  24
HETATM   24  O4  UNL     1      12.971   6.291  15.478  1.00  0.00    -0.326 OA
BRANCH  24  25
HETATM   25  C9  UNL     1      11.970   6.873  14.812  1.00  0.00     0.354 C 
HETATM   26  N5  UNL     1      10.626   6.590  15.153  1.00  0.00    -0.044 N 
HETATM   27  C10 UNL     1       9.832   7.181  14.080  1.00  0.00     0.269 C 
ATOM     28  H52 UNL     1      10.440   5.599  15.308  1.00  0.00     0.280 HD
ATOM     29  H51 UNL     1      10.362   6.906  16.086  1.00  0.00     0.280 HD
HETATM   30  C11 UNL     1      10.781   7.511  12.956  1.00  0.00     0.176 C 
HETATM   31  C12 UNL     1      11.959   6.586  13.305  1.00  0.00     0.205 C 
BRANCH  30  32
HETATM   32  O5  UNL     1      10.322   7.165  11.714  1.00  0.00    -0.391 OA
ATOM     33  H5  UNL     1      11.000   6.875  11.114  1.00  0.00     0.210 HD
ENDBRANCH  30  32
BRANCH  31  34
HETATM   34  O6  UNL     1      11.537   5.306  13.021  1.00  0.00    -0.389 OA
ATOM     35  H6  UNL     1      11.016   5.267  12.228  1.00  0.00     0.210 HD
ENDBRANCH  31  34
ENDBRANCH  24  25
ENDBRANCH   7  24
TORSDOF 11
ENDMDL
MODEL 4
REMARK VINA RESULT: -6.762881781      3.055      4.541
REMARK  11 active torsions:
REMARK  status: ('A' for Active; 'I' for Inactive)
REMARK    1  A    between atoms: C1_4  and  N2_5 
REMARK    2  A    between atoms: N2_5  and  C2_7 
REMARK    3  A    between atoms: C2_7  and  C3_11 
REMARK    4  A    between atoms: C3_11  and  O2_13 
REMARK    5  A    between atoms: O2_13  and  C4_14 
REMARK    6  A    between atoms: C4_14  and  O3_15 
REMARK    7  A    between atoms: O3_15  and  C5_16 
REMARK    8  A    between atoms: C8_22  and  O4_23 
REMARK    9  A    between atoms: O4_23  and  C9_24 
REMARK   10  A    between atoms: C11_29  and  O5_30 
REMARK   11  A    between atoms: C12_32  and  O6_33 
ROOT
HETATM    1  C5  UNL     1      11.414   4.529  14.457  1.00  0.00     0.473 C 
HETATM    2  N4  UNL     1      12.842   4.492  14.838  1.00  0.00    -0.025 N 
ATOM      3  H41 UNL     1      13.394   3.828  14.296  1.00  0.00     0.283 HD
ATOM      4  H42 UNL     1      13.012   4.071  15.752  1.00  0.00     0.283 HD
HETATM    5  C6  UNL     1      13.302   5.842  14.733  1.00  0.00     0.243 C 
HETATM    6  C7  UNL     1      12.231   6.819  14.296  1.00  0.00     0.088 C 
HETATM    7  C8  UNL     1      11.458   6.340  13.094  1.00  0.00     0.269 C 
HETATM    8  O7  UNL     1      11.306   4.971  13.163  1.00  0.00    -0.308 OA
ENDROOT
BRANCH   1   9
HETATM    9  O3  UNL     1      10.993   3.198  14.596  1.00  0.00    -0.314 OA
BRANCH   9  10
HETATM   10  C4  UNL     1      11.850   2.513  15.435  1.00  0.00     0.353 C 
BRANCH  10  11
HETATM   11  O2  UNL     1      11.296   2.336  16.730  1.00  0.00    -0.289 OA
BRANCH  11  12
HETATM   12  C3  UNL     1      11.417   1.138  17.407  1.00  0.00     0.329 C 
HETATM   13  O1  UNL     1      10.635   0.856  18.350  1.00  0.00    -0.256 OA
BRANCH  12  14
HETATM   14  C2  UNL     1      12.445   0.151  17.066  1.00  0.00     0.176 C 
HETATM   15  N3  UNL     1      12.291  -0.674  16.083  1.00  0.00    -0.380 N 
ATOM     16  H32 UNL     1      13.007  -1.362  15.845  1.00  0.00     0.157 HD
ATOM     17  H31 UNL     1      11.426  -0.616  15.545  1.00  0.00     0.157 HD
BRANCH  14  18
HETATM   18  N2  UNL     1      13.646   0.070  17.812  1.00  0.00    -0.334 N 
ATOM     19  H2  UNL     1      13.616  -0.042  18.826  1.00  0.00     0.168 HD
BRANCH  18  20
HETATM   20  C1  UNL     1      14.884   0.146  17.141  1.00  0.00     0.175 C 
HETATM   21  N1  UNL     1      15.820  -0.701  17.300  1.00  0.00    -0.395 N 
ATOM     22  H12 UNL     1      15.650  -1.468  17.951  1.00  0.00     0.156 HD
ATOM     23  H11 UNL     1      16.715  -0.646  16.814  1.00  0.00     0.156 HD
ENDBRANCH  18  20
ENDBRANCH  14  18
ENDBRANCH  12  14
ENDBRANCH  11  12
ENDBRANCH  10  11
ENDBRANCH   9  10
ENDBRANCH   1   9
BRANCH   7  24
HETATM   24  O4  UNL     1      10.208   6.901  12.982  1.00  0.00    -0.326 OA
BRANCH  24  25
HETATM   25  C9  UNL     1       9.806   7.734  13.946  1.00  0.00     0.354 C 
HETATM   26  N5  UNL     1       9.083   7.242  15.058  1.00  0.00    -0.044 N 
HETATM   27  C10 UNL     1       8.599   8.433  15.750  1.00  0.00     0.269 C 
ATOM     28  H52 UNL     1       8.348   6.579  14.812  1.00  0.00     0.280 HD
ATOM     29  H51 UNL     1       9.618   6.608  15.651  1.00  0.00     0.280 HD
HETATM   30  C11 UNL     1       8.786   9.598  14.811  1.00  0.00     0.176 C 
HETATM   31  C12 UNL     1       8.880   8.859  13.466  1.00  0.00     0.205 C 
BRANCH  30  32
HETATM   32  O5  UNL     1       7.716  10.450  14.753  1.00  0.00    -0.391 OA
ATOM     33  H5  UNL     1       6.878  10.038  14.929  1.00  0.00     0.210 HD
ENDBRANCH  30  32
BRANCH  31  34
HETATM   34  O6  UNL     1       7.610   8.406  13.187  1.00  0.00    -0.389 OA
ATOM     35  H6  UNL     1       7.055   8.395  13.959  1.00  0.00     0.210 HD
ENDBRANCH  31  34
ENDBRANCH  24  25
ENDBRANCH   7  24
TORSDOF 11
ENDMDL
MODEL 5
REMARK VINA RESULT: -6.723335978      2.061      2.698
REMARK  11 active torsions:
REMARK  status: ('A' for Active; 'I' for Inactive)
REMARK    1  A    between atoms: C1_4  and  N2_5 
REMARK    2  A    between atoms: N2_5  and  C2_7 
REMARK    3  A    between atoms: C2_7  and  C3_11 
REMARK    4  A    between atoms: C3_11  and  O2_13 
REMARK    5  A    between atoms: O2_13  and  C4_14 
REMARK    6  A    between atoms: C4_14  and  O3_15 
REMARK    7  A    between atoms: O3_15  and  C5_16 
REMARK    8  A    between atoms: C8_22  and  O4_23 
REMARK    9  A    between atoms: O4_23  and  C9_24 
REMARK   10  A    between atoms: C11_29  and  O5_30 
REMARK   11  A    between atoms: C12_32  and  O6_33 
ROOT
HETATM    1  C5  UNL     1      15.446   3.704  15.467  1.00  0.00     0.473 C 
HETATM    2  N4  UNL     1      16.738   4.188  14.933  1.00  0.00    -0.025 N 
ATOM      3  H41 UNL     1      16.929   3.878  13.981  1.00  0.00     0.283 HD
ATOM      4  H42 UNL     1      17.551   3.750  15.368  1.00  0.00     0.283 HD
HETATM    5  C6  UNL     1      16.704   5.610  15.078  1.00  0.00     0.243 C 
HETATM    6  C7  UNL     1      15.428   6.129  15.704  1.00  0.00     0.088 C 
HETATM    7  C8  UNL     1      14.188   5.549  15.073  1.00  0.00     0.269 C 
HETATM    8  O7  UNL     1      14.425   4.237  14.721  1.00  0.00    -0.308 OA
ENDROOT
BRANCH   1   9
HETATM    9  O3  UNL     1      15.525   2.310  15.331  1.00  0.00    -0.314 OA
BRANCH   9  10
HETATM   10  C4  UNL     1      15.504   1.710  16.575  1.00  0.00     0.353 C 
BRANCH  10  11
HETATM   11  O2  UNL     1      14.686   0.549  16.591  1.00  0.00    -0.289 OA
BRANCH  11  12
HETATM   12  C3  UNL     1      13.443   0.553  17.191  1.00  0.00     0.329 C 
HETATM   13  O1  UNL     1      13.308   0.173  18.382  1.00  0.00    -0.256 OA
BRANCH  12  14
HETATM   14  C2  UNL     1      12.237   0.994  16.485  1.00  0.00     0.176 C 
HETATM   15  N3  UNL     1      11.059   0.609  16.852  1.00  0.00    -0.380 N 
ATOM     16  H32 UNL     1      10.220   0.915  16.360  1.00  0.00     0.157 HD
ATOM     17  H31 UNL     1      10.993  -0.016  17.655  1.00  0.00     0.157 HD
BRANCH  14  18
HETATM   18  N2  UNL     1      12.329   1.862  15.369  1.00  0.00    -0.334 N 
ATOM     19  H2  UNL     1      13.057   1.724  14.668  1.00  0.00     0.168 HD
BRANCH  18  20
HETATM   20  C1  UNL     1      11.404   2.918  15.237  1.00  0.00     0.175 C 
HETATM   21  N1  UNL     1      11.309   3.639  14.193  1.00  0.00    -0.395 N 
ATOM     22  H12 UNL     1      11.943   3.429  13.422  1.00  0.00     0.156 HD
ATOM     23  H11 UNL     1      10.640   4.402  14.096  1.00  0.00     0.156 HD
ENDBRANCH  18  20
ENDBRANCH  14  18
ENDBRANCH  12  14
ENDBRANCH  11  12
ENDBRANCH  10  11
ENDBRANCH   9  10
ENDBRANCH   1   9
BRANCH   7  24
HETATM   24  O4  UNL     1      13.086   5.576  15.894  1.00  0.00    -0.326 OA
BRANCH  24  25
HETATM   25  C9  UNL     1      12.384   6.710  15.965  1.00  0.00     0.354 C 
HETATM   26  N5  UNL     1      11.161   6.748  16.676  1.00  0.00    -0.044 N 
HETATM   27  C10 UNL     1      10.564   8.035  16.331  1.00  0.00     0.269 C 
ATOM     28  H52 UNL     1      10.554   5.949  16.497  1.00  0.00     0.280 HD
ATOM     29  H51 UNL     1      11.262   6.596  17.680  1.00  0.00     0.280 HD
HETATM   30  C11 UNL     1      11.324   8.572  15.144  1.00  0.00     0.176 C 
HETATM   31  C12 UNL     1      11.953   7.276  14.606  1.00  0.00     0.205 C 
BRANCH  30  32
HETATM   32  O5  UNL     1      10.531   9.099  14.161  1.00  0.00    -0.391 OA
ATOM     33  H5  UNL     1      10.213   8.462  13.532  1.00  0.00     0.210 HD
ENDBRANCH  30  32
BRANCH  31  34
HETATM   34  O6  UNL     1      10.923   6.555  14.044  1.00  0.00    -0.389 OA
ATOM     35  H6  UNL     1      10.581   5.896  14.637  1.00  0.00     0.210 HD
ENDBRANCH  31  34
ENDBRANCH  24  25
ENDBRANCH   7  24
TORSDOF 11
ENDMDL
