MODEL 1
REMARK VINA RESULT: -7.704310889      0.000      0.000
REMARK  5 active torsions:
REMARK  status: ('A' for Active; 'I' for Inactive)
REMARK    1  A    between atoms: N1_2  and  C2_4 
REMARK    2  A    between atoms: C6_10  and  C7_11 
REMARK       I    between atoms: C7_11  and  N3_13 
REMARK    3  A    between atoms: C8_15  and  N4_16 
REMARK    4  A    between atoms: C8_15  and  C12_21 
REMARK    5  A    between atoms: N4_16  and  C9_18 
ROOT
HETATM    1  C7  UNL     1      -2.898   4.778  13.694  1.00  0.00     0.273 C 
HETATM    2  O1  UNL     1      -1.704   5.060  13.876  1.00  0.00    -0.266 OA
HETATM    3  N3  UNL     1      -3.656   3.975  14.585  1.00  0.00    -0.307 N 
ATOM      4  H3  UNL     1      -3.986   4.410  15.447  1.00  0.00     0.170 HD
HETATM    5  C8  UNL     1      -3.956   2.750  14.391  1.00  0.00     0.122 C 
ENDROOT
BRANCH   1   6
HETATM    6  C6  UNL     1      -3.604   5.280  12.500  1.00  0.00     0.101 A 
HETATM    7  N2  UNL     1      -4.744   5.985  12.581  1.00  0.00    -0.350 N 
HETATM    8  C5  UNL     1      -5.420   6.462  11.525  1.00  0.00     0.059 A 
ATOM      9  H2  UNL     1      -5.122   6.172  13.510  1.00  0.00     0.166 HD
HETATM   10  C4  UNL     1      -6.591   7.184  11.635  1.00  0.00     0.035 A 
HETATM   11  C19 UNL     1      -4.913   6.213  10.255  1.00  0.00     0.060 A 
HETATM   12  C3  UNL     1      -7.272   7.667  10.540  1.00  0.00     0.050 A 
HETATM   13  C2  UNL     1      -6.724   7.391   9.298  1.00  0.00     0.101 A 
HETATM   14  N5  UNL     1      -5.578   6.683   9.183  1.00  0.00    -0.341 N 
ATOM     15  H5  UNL     1      -5.204   6.499   8.252  1.00  0.00     0.167 HD
HETATM   16  C18 UNL     1      -3.741   5.490  10.138  1.00  0.00     0.034 A 
HETATM   17  C17 UNL     1      -3.083   5.022  11.235  1.00  0.00     0.037 A 
BRANCH  13  18
HETATM   18  N1  UNL     1      -7.323   7.818   8.241  1.00  0.00    -0.381 N 
HETATM   19  C1  UNL     1      -8.763   7.986   8.193  1.00  0.00     0.147 C 
ATOM     20  H1  UNL     1      -6.769   8.045   7.415  1.00  0.00     0.160 HD
ENDBRANCH  13  18
ENDBRANCH   1   6
BRANCH   5  21
HETATM   21  N4  UNL     1      -3.534   2.080  13.222  1.00  0.00    -0.371 N 
ATOM     22  H4  UNL     1      -2.588   2.215  12.867  1.00  0.00     0.161 HD
BRANCH  21  23
HETATM   23  C9  UNL     1      -4.448   1.205  12.535  1.00  0.00     0.075 C 
HETATM   24  C10 UNL     1      -4.788   1.828  11.198  1.00  0.00     0.031 C 
HETATM   25  C11 UNL     1      -3.906  -0.191  12.380  1.00  0.00     0.031 C 
ENDBRANCH  21  23
ENDBRANCH   5  21
BRANCH   5  26
HETATM   26  C12 UNL     1      -4.749   2.076  15.427  1.00  0.00     0.054 A 
HETATM   27  S1  UNL     1      -4.450   0.559  16.135  1.00  0.00    -0.098 SA
HETATM   28  C13 UNL     1      -5.771   0.480  17.211  1.00  0.00     0.051 A 
HETATM   29  C14 UNL     1      -6.416   1.665  16.979  1.00  0.00     0.015 A 
HETATM   30  C15 UNL     1      -5.886   2.490  16.055  1.00  0.00    -0.041 A 
HETATM   31  C16 UNL     1      -6.507   3.827  15.709  1.00  0.00     0.049 C 
ENDBRANCH   5  26
TORSDOF 5
ENDMDL
MODEL 2
REMARK VINA RESULT: -7.699631441      0.960      1.138
REMARK  5 active torsions:
REMARK  status: ('A' for Active; 'I' for Inactive)
REMARK    1  A    between atoms: N1_2  and  C2_4 
REMARK    2  A    between atoms: C6_10  and  C7_11 
REMARK       I    between atoms: C7_11  and  N3_13 
REMARK    3  A    between atoms: C8_15  and  N4_16 
REMARK    4  A    between atoms: C8_15  and  C12_21 
REMARK    5  A    between atoms: N4_16  and  C9_18 
ROOT
HETATM    1  C7  UNL     1      -2.577   3.835  12.551  1.00  0.00     0.273 C 
HETATM    2  O1  UNL     1      -1.361   3.699  12.351  1.00  0.00    -0.266 OA
HETATM    3  N3  UNL     1      -3.253   3.272  13.664  1.00  0.00    -0.307 N 
ATOM      4  H3  UNL     1      -3.146   3.737  14.565  1.00  0.00     0.170 HD
HETATM    5  C8  UNL     1      -3.985   2.227  13.623  1.00  0.00     0.122 C 
ENDROOT
BRANCH   1   6
HETATM    6  C6  UNL     1      -3.401   4.614  11.608  1.00  0.00     0.101 A 
HETATM    7  N2  UNL     1      -4.411   5.401  12.013  1.00  0.00    -0.350 N 
HETATM    8  C5  UNL     1      -5.186   6.127  11.193  1.00  0.00     0.059 A 
ATOM      9  H2  UNL     1      -4.602   5.450  13.014  1.00  0.00     0.166 HD
HETATM   10  C4  UNL     1      -6.219   6.928  11.634  1.00  0.00     0.035 A 
HETATM   11  C19 UNL     1      -4.933   6.066   9.828  1.00  0.00     0.060 A 
HETATM   12  C3  UNL     1      -7.005   7.667  10.779  1.00  0.00     0.050 A 
HETATM   13  C2  UNL     1      -6.711   7.570   9.429  1.00  0.00     0.101 A 
HETATM   14  N5  UNL     1      -5.701   6.787   8.989  1.00  0.00    -0.341 N 
ATOM     15  H5  UNL     1      -5.514   6.740   7.987  1.00  0.00     0.167 HD
HETATM   16  C18 UNL     1      -3.901   5.265   9.378  1.00  0.00     0.034 A 
HETATM   17  C17 UNL     1      -3.135   4.542  10.243  1.00  0.00     0.037 A 
BRANCH  13  18
HETATM   18  N1  UNL     1      -7.417   8.240   8.585  1.00  0.00    -0.381 N 
HETATM   19  C1  UNL     1      -8.779   7.864   8.259  1.00  0.00     0.147 C 
ATOM     20  H1  UNL     1      -7.006   9.058   8.134  1.00  0.00     0.160 HD
ENDBRANCH  13  18
ENDBRANCH   1   6
BRANCH   5  21
HETATM   21  N4  UNL     1      -4.180   1.530  12.411  1.00  0.00    -0.371 N 
ATOM     22  H4  UNL     1      -4.987   1.739  11.823  1.00  0.00     0.161 HD
BRANCH  21  23
HETATM   23  C9  UNL     1      -3.234   0.522  12.009  1.00  0.00     0.075 C 
HETATM   24  C10 UNL     1      -3.904  -0.830  12.121  1.00  0.00     0.031 C 
HETATM   25  C11 UNL     1      -2.685   0.762  10.628  1.00  0.00     0.031 C 
ENDBRANCH  21  23
ENDBRANCH   5  21
BRANCH   5  26
HETATM   26  C12 UNL     1      -4.607   1.788  14.878  1.00  0.00     0.054 A 
HETATM   27  S1  UNL     1      -4.280   0.365  15.752  1.00  0.00    -0.098 SA
HETATM   28  C13 UNL     1      -5.370   0.568  17.048  1.00  0.00     0.051 A 
HETATM   29  C14 UNL     1      -5.966   1.764  16.752  1.00  0.00     0.015 A 
HETATM   30  C15 UNL     1      -5.570   2.394  15.628  1.00  0.00    -0.041 A 
HETATM   31  C16 UNL     1      -6.154   3.722  15.193  1.00  0.00     0.049 C 
ENDBRANCH   5  26
TORSDOF 5
ENDMDL
MODEL 3
REMARK VINA RESULT: -7.599333960      2.147      2.942
REMARK  5 active torsions:
REMARK  status: ('A' for Active; 'I' for Inactive)
REMARK    1  A    between atoms: N1_2  and  C2_4 
REMARK    2  A    between atoms: C6_10  and  C7_11 
REMARK       I    between atoms: C7_11  and  N3_13 
REMARK    3  A    between atoms: C8_15  and  N4_16 
REMARK    4  A    between atoms: C8_15  and  C12_21 
REMARK    5  A    between atoms: N4_16  and  C9_18 
ROOT
HETATM    1  C7  UNL     1      -2.378   3.978  13.783  1.00  0.00     0.273 C 
HETATM    2  O1  UNL     1      -1.204   4.107  14.160  1.00  0.00    -0.266 OA
HETATM    3  N3  UNL     1      -3.417   3.490  14.617  1.00  0.00    -0.307 N 
ATOM      4  H3  UNL     1      -3.807   4.131  15.308  1.00  0.00     0.170 HD
HETATM    5  C8  UNL     1      -3.901   2.311  14.567  1.00  0.00     0.122 C 
ENDROOT
BRANCH   1   6
HETATM    6  C6  UNL     1      -2.757   4.337  12.403  1.00  0.00     0.101 A 
HETATM    7  N2  UNL     1      -2.037   3.956  11.335  1.00  0.00    -0.350 N 
HETATM    8  C5  UNL     1      -2.342   4.259  10.065  1.00  0.00     0.059 A 
ATOM      9  H2  UNL     1      -1.199   3.398  11.503  1.00  0.00     0.166 HD
HETATM   10  C4  UNL     1      -1.585   3.856   8.984  1.00  0.00     0.035 A 
HETATM   11  C19 UNL     1      -3.482   5.018   9.827  1.00  0.00     0.060 A 
HETATM   12  C3  UNL     1      -1.913   4.175   7.686  1.00  0.00     0.050 A 
HETATM   13  C2  UNL     1      -3.057   4.933   7.504  1.00  0.00     0.101 A 
HETATM   14  N5  UNL     1      -3.804   5.332   8.559  1.00  0.00    -0.341 N 
ATOM     15  H5  UNL     1      -4.641   5.891   8.387  1.00  0.00     0.167 HD
HETATM   16  C18 UNL     1      -4.244   5.426  10.905  1.00  0.00     0.034 A 
HETATM   17  C17 UNL     1      -3.901   5.099  12.182  1.00  0.00     0.037 A 
BRANCH  13  18
HETATM   18  N1  UNL     1      -3.409   5.260   6.310  1.00  0.00    -0.381 N 
HETATM   19  C1  UNL     1      -3.467   6.645   5.882  1.00  0.00     0.147 C 
ATOM     20  H1  UNL     1      -3.653   4.526   5.646  1.00  0.00     0.160 HD
ENDBRANCH  13  18
ENDBRANCH   1   6
BRANCH   5  21
HETATM   21  N4  UNL     1      -3.412   1.368  13.636  1.00  0.00    -0.371 N 
ATOM     22  H4  UNL     1      -2.409   1.205  13.551  1.00  0.00     0.161 HD
BRANCH  21  23
HETATM   23  C9  UNL     1      -4.338   0.638  12.810  1.00  0.00     0.075 C 
HETATM   24  C10 UNL     1      -4.677   1.492  11.608  1.00  0.00     0.031 C 
HETATM   25  C11 UNL     1      -3.811  -0.714  12.406  1.00  0.00     0.031 C 
ENDBRANCH  21  23
ENDBRANCH   5  21
BRANCH   5  26
HETATM   26  C12 UNL     1      -4.976   1.981  15.511  1.00  0.00     0.054 A 
HETATM   27  S1  UNL     1      -5.150   0.555  16.424  1.00  0.00    -0.098 SA
HETATM   28  C13 UNL     1      -6.599   0.919  17.248  1.00  0.00     0.051 A 
HETATM   29  C14 UNL     1      -6.906   2.166  16.776  1.00  0.00     0.015 A 
HETATM   30  C15 UNL     1      -6.065   2.714  15.876  1.00  0.00    -0.041 A 
HETATM   31  C16 UNL     1      -6.297   4.087  15.281  1.00  0.00     0.049 C 
ENDBRANCH   5  26
TORSDOF 5
ENDMDL
MODEL 4
REMARK VINA RESULT: -7.555724561      3.486      5.463
REMARK  5 active torsions:
REMARK  status: ('A' for Active; 'I' for Inactive)
REMARK    1  A    between atoms: N1_2  and  C2_4 
REMARK    2  A    between atoms: C6_10  and  C7_11 
REMARK       I    between atoms: C7_11  and  N3_13 
REMARK    3  A    between atoms: C8_15  and  N4_16 
REMARK    4  A    between atoms: C8_15  and  C12_21 
REMARK    5  A    between atoms: N4_16  and  C9_18 
ROOT
HETATM    1  C7  UNL     1      -4.532   2.293  11.488  1.00  0.00     0.273 C 
HETATM    2  O1  UNL     1      -5.427   2.501  10.656  1.00  0.00    -0.266 OA
HETATM    3  N3  UNL     1      -4.786   1.883  12.822  1.00  0.00    -0.307 N 
ATOM      4  H3  UNL     1      -5.030   0.905  12.977  1.00  0.00     0.170 HD
HETATM    5  C8  UNL     1      -4.732   2.645  13.844  1.00  0.00     0.122 C 
ENDROOT
BRANCH   1   6
HETATM    6  C6  UNL     1      -3.116   2.469  11.113  1.00  0.00     0.101 A 
HETATM    7  N2  UNL     1      -2.638   3.625  10.626  1.00  0.00    -0.350 N 
HETATM    8  C5  UNL     1      -1.360   3.831  10.272  1.00  0.00     0.059 A 
ATOM      9  H2  UNL     1      -3.291   4.401  10.517  1.00  0.00     0.166 HD
HETATM   10  C4  UNL     1      -0.893   5.030   9.773  1.00  0.00     0.035 A 
HETATM   11  C19 UNL     1      -0.462   2.780  10.418  1.00  0.00     0.060 A 
HETATM   12  C3  UNL     1       0.422   5.224   9.415  1.00  0.00     0.050 A 
HETATM   13  C2  UNL     1       1.275   4.145   9.579  1.00  0.00     0.101 A 
HETATM   14  N5  UNL     1       0.824   2.968  10.067  1.00  0.00    -0.341 N 
ATOM     15  H5  UNL     1       1.481   2.194  10.174  1.00  0.00     0.167 HD
HETATM   16  C18 UNL     1      -0.923   1.577  10.916  1.00  0.00     0.034 A 
HETATM   17  C17 UNL     1      -2.229   1.406  11.264  1.00  0.00     0.037 A 
BRANCH  13  18
HETATM   18  N1  UNL     1       2.515   4.273   9.259  1.00  0.00    -0.381 N 
HETATM   19  C1  UNL     1       3.257   3.198   8.629  1.00  0.00     0.147 C 
ATOM     20  H1  UNL     1       2.990   5.155   9.453  1.00  0.00     0.160 HD
ENDBRANCH  13  18
ENDBRANCH   1   6
BRANCH   5  21
HETATM   21  N4  UNL     1      -4.400   4.012  13.709  1.00  0.00    -0.371 N 
ATOM     22  H4  UNL     1      -4.869   4.586  13.009  1.00  0.00     0.161 HD
BRANCH  21  23
HETATM   23  C9  UNL     1      -3.397   4.588  14.565  1.00  0.00     0.075 C 
HETATM   24  C10 UNL     1      -2.038   4.143  14.072  1.00  0.00     0.031 C 
HETATM   25  C11 UNL     1      -3.499   6.089  14.647  1.00  0.00     0.031 C 
ENDBRANCH  21  23
ENDBRANCH   5  21
BRANCH   5  26
HETATM   26  C12 UNL     1      -5.028   2.046  15.151  1.00  0.00     0.054 A 
HETATM   27  S1  UNL     1      -4.442   0.573  15.770  1.00  0.00    -0.098 SA
HETATM   28  C13 UNL     1      -5.215   0.576  17.292  1.00  0.00     0.051 A 
HETATM   29  C14 UNL     1      -5.919   1.750  17.267  1.00  0.00     0.015 A 
HETATM   30  C15 UNL     1      -5.821   2.509  16.158  1.00  0.00    -0.041 A 
HETATM   31  C16 UNL     1      -6.551   3.828  16.011  1.00  0.00     0.049 C 
ENDBRANCH   5  26
TORSDOF 5
ENDMDL
MODEL 5
REMARK VINA RESULT: -7.453934541      3.507      5.856
REMARK  5 active torsions:
REMARK  status: ('A' for Active; 'I' for Inactive)
REMARK    1  A    between atoms: N1_2  and  C2_4 
REMARK    2  A    between atoms: C6_10  and  C7_11 
REMARK       I    between atoms: C7_11  and  N3_13 
REMARK    3  A    between atoms: C8_15  and  N4_16 
REMARK    4  A    between atoms: C8_15  and  C12_21 
REMARK    5  A    between atoms: N4_16  and  C9_18 
ROOT
HETATM    1  C7  UNL     1      -4.181   4.947  12.130  1.00  0.00     0.273 C 
HETATM    2  O1  UNL     1      -5.352   5.350  12.191  1.00  0.00    -0.266 OA
HETATM    3  N3  UNL     1      -3.827   3.629  11.740  1.00  0.00    -0.307 N 
ATOM      4  H3  UNL     1      -3.858   3.408  10.745  1.00  0.00     0.170 HD
HETATM    5  C8  UNL     1      -3.473   2.700  12.539  1.00  0.00     0.122 C 
ENDROOT
BRANCH   1   6
HETATM    6  C6  UNL     1      -3.067   5.851  12.474  1.00  0.00     0.101 A 
HETATM    7  N2  UNL     1      -3.034   6.552  13.619  1.00  0.00    -0.350 N 
HETATM    8  C5  UNL     1      -2.044   7.385  13.973  1.00  0.00     0.059 A 
ATOM      9  H2  UNL     1      -3.817   6.444  14.264  1.00  0.00     0.166 HD
HETATM   10  C4  UNL     1      -2.035   8.095  15.156  1.00  0.00     0.035 A 
HETATM   11  C19 UNL     1      -0.973   7.539  13.100  1.00  0.00     0.060 A 
HETATM   12  C3  UNL     1      -1.010   8.946  15.504  1.00  0.00     0.050 A 
HETATM   13  C2  UNL     1       0.032   9.063  14.599  1.00  0.00     0.101 A 
HETATM   14  N5  UNL     1       0.030   8.371  13.438  1.00  0.00    -0.341 N 
ATOM     15  H5  UNL     1       0.814   8.483  12.796  1.00  0.00     0.167 HD
HETATM   16  C18 UNL     1      -0.977   6.831  11.913  1.00  0.00     0.034 A 
HETATM   17  C17 UNL     1      -2.001   5.995  11.589  1.00  0.00     0.037 A 
BRANCH  13  18
HETATM   18  N1  UNL     1       1.016   9.847  14.876  1.00  0.00    -0.381 N 
HETATM   19  C1  UNL     1       0.832  11.064  15.644  1.00  0.00     0.147 C 
ATOM     20  H1  UNL     1       1.951   9.606  14.546  1.00  0.00     0.160 HD
ENDBRANCH  13  18
ENDBRANCH   1   6
BRANCH   5  21
HETATM   21  N4  UNL     1      -3.407   2.931  13.931  1.00  0.00    -0.371 N 
ATOM     22  H4  UNL     1      -2.624   3.450  14.328  1.00  0.00     0.161 HD
BRANCH  21  23
HETATM   23  C9  UNL     1      -4.451   2.430  14.786  1.00  0.00     0.075 C 
HETATM   24  C10 UNL     1      -3.808   1.681  15.933  1.00  0.00     0.031 C 
HETATM   25  C11 UNL     1      -5.372   3.518  15.273  1.00  0.00     0.031 C 
ENDBRANCH  21  23
ENDBRANCH   5  21
BRANCH   5  26
HETATM   26  C12 UNL     1      -3.143   1.394  11.955  1.00  0.00     0.054 A 
HETATM   27  S1  UNL     1      -4.124   0.004  11.907  1.00  0.00    -0.098 SA
HETATM   28  C13 UNL     1      -3.070  -1.061  11.092  1.00  0.00     0.051 A 
HETATM   29  C14 UNL     1      -1.965  -0.282  10.878  1.00  0.00     0.015 A 
HETATM   30  C15 UNL     1      -2.004   0.988  11.326  1.00  0.00    -0.041 A 
HETATM   31  C16 UNL     1      -0.846   1.947  11.150  1.00  0.00     0.049 C 
ENDBRANCH   5  26
TORSDOF 5
ENDMDL
