MODEL 1
REMARK VINA RESULT: -9.195005528      0.000      0.000
REMARK  6 active torsions:
REMARK  status: ('A' for Active; 'I' for Inactive)
REMARK    1  A    between atoms: C4_5  and  C5_6 
REMARK    2  A    between atoms: C5_6  and  O1_7 
REMARK    3  A    between atoms: C5_6  and  N2_9 
REMARK    4  A    between atoms: C7_12  and  N3_13 
REMARK    5  A    between atoms: N3_13  and  N4_15 
REMARK       I    between atoms: N4_15  and  C8_16 
REMARK    6  A    between atoms: C8_16  and  C9_18 
ROOT
HETATM    1  N2  UNL     1      -3.954   4.602  10.800  1.00  0.00    -0.255 N 
HETATM    2  C6  UNL     1      -3.847   3.148  10.951  1.00  0.00     0.284 A 
HETATM    3  O2  UNL     1      -4.168   2.268  10.106  1.00  0.00    -0.265 OA
HETATM    4  C7  UNL     1      -3.303   2.806  12.243  1.00  0.00     0.141 A 
HETATM    5  C15 UNL     1      -3.074   4.097  12.896  1.00  0.00     0.026 A 
HETATM    6  C16 UNL     1      -2.596   4.361  14.165  1.00  0.00     0.016 A 
HETATM    7  C17 UNL     1      -2.491   5.646  14.631  1.00  0.00     0.001 A 
HETATM    8  C18 UNL     1      -2.889   6.654  13.762  1.00  0.00     0.002 A 
HETATM    9  C19 UNL     1      -3.360   6.385  12.504  1.00  0.00     0.031 A 
HETATM   10  C20 UNL     1      -3.466   5.094  12.024  1.00  0.00     0.057 A 
ENDROOT
BRANCH   4  11
HETATM   11  N3  UNL     1      -3.039   1.677  12.779  1.00  0.00    -0.226 N 
ATOM     12  H3  UNL     1      -2.231   1.188  12.393  1.00  0.00     0.202 HD
BRANCH  11  13
HETATM   13  N4  UNL     1      -3.668   1.042  13.773  1.00  0.00    -0.281 NA
HETATM   14  C8  UNL     1      -4.297   0.407  14.767  1.00  0.00     0.345 C 
HETATM   15  O3  UNL     1      -4.310  -0.845  15.057  1.00  0.00    -0.249 OA
BRANCH  14  16
HETATM   16  C9  UNL     1      -5.125   1.253  15.700  1.00  0.00     0.048 A 
HETATM   17  C10 UNL     1      -5.510   2.489  15.268  1.00  0.00     0.018 A 
HETATM   18  C11 UNL     1      -6.292   3.244  16.136  1.00  0.00     0.001 A 
HETATM   19  C12 UNL     1      -6.661   2.759  17.381  1.00  0.00     0.000 A 
HETATM   20  C13 UNL     1      -6.243   1.513  17.755  1.00  0.00     0.001 A 
HETATM   21  C14 UNL     1      -5.463   0.746  16.904  1.00  0.00     0.018 A 
ENDBRANCH  14  16
ENDBRANCH  11  13
ENDBRANCH   4  11
BRANCH   1  22
HETATM   22  C5  UNL     1      -4.325   5.148   9.572  1.00  0.00     0.160 C 
BRANCH  22  23
HETATM   23  C4  UNL     1      -5.140   6.257   9.170  1.00  0.00     0.015 A 
HETATM   24  C3  UNL     1      -6.485   6.341   9.622  1.00  0.00     0.017 A 
HETATM   25  C2  UNL     1      -7.317   7.312   9.174  1.00  0.00     0.027 A 
HETATM   26  C1  UNL     1      -6.953   8.283   8.264  1.00  0.00     0.046 A 
HETATM   27  N1  UNL     1      -7.869   9.274   7.840  1.00  0.00    -0.102 NA
HETATM   28  C22 UNL     1      -5.656   8.225   7.809  1.00  0.00     0.027 A 
HETATM   29  C21 UNL     1      -4.801   7.232   8.265  1.00  0.00     0.017 A 
ENDBRANCH  22  23
BRANCH  22  30
HETATM   30  O1  UNL     1      -3.817   4.514   8.531  1.00  0.00    -0.345 OA
ATOM     31  H1  UNL     1      -3.168   3.871   8.795  1.00  0.00     0.219 HD
ENDBRANCH  22  30
ENDBRANCH   1  22
TORSDOF 6
ENDMDL
MODEL 2
REMARK VINA RESULT: -9.171231157      3.870      5.702
REMARK  6 active torsions:
REMARK  status: ('A' for Active; 'I' for Inactive)
REMARK    1  A    between atoms: C4_5  and  C5_6 
REMARK    2  A    between atoms: C5_6  and  O1_7 
REMARK    3  A    between atoms: C5_6  and  N2_9 
REMARK    4  A    between atoms: C7_12  and  N3_13 
REMARK    5  A    between atoms: N3_13  and  N4_15 
REMARK       I    between atoms: N4_15  and  C8_16 
REMARK    6  A    between atoms: C8_16  and  C9_18 
ROOT
HETATM    1  N2  UNL     1      -1.330   2.956  11.434  1.00  0.00    -0.255 N 
HETATM    2  C6  UNL     1      -2.263   3.977  11.920  1.00  0.00     0.284 A 
HETATM    3  O2  UNL     1      -2.022   5.200  12.113  1.00  0.00    -0.265 OA
HETATM    4  C7  UNL     1      -3.564   3.405  12.170  1.00  0.00     0.141 A 
HETATM    5  C15 UNL     1      -3.413   1.989  11.824  1.00  0.00     0.026 A 
HETATM    6  C16 UNL     1      -4.338   0.966  11.907  1.00  0.00     0.016 A 
HETATM    7  C17 UNL     1      -4.002  -0.322  11.581  1.00  0.00     0.001 A 
HETATM    8  C18 UNL     1      -2.692  -0.535  11.169  1.00  0.00     0.002 A 
HETATM    9  C19 UNL     1      -1.781   0.484  11.087  1.00  0.00     0.031 A 
HETATM   10  C20 UNL     1      -2.111   1.787  11.409  1.00  0.00     0.057 A 
ENDROOT
BRANCH   4  11
HETATM   11  N3  UNL     1      -4.653   3.926  12.587  1.00  0.00    -0.226 N 
ATOM     12  H3  UNL     1      -5.207   4.406  11.877  1.00  0.00     0.202 HD
BRANCH  11  13
HETATM   13  N4  UNL     1      -5.173   3.935  13.817  1.00  0.00    -0.281 NA
HETATM   14  C8  UNL     1      -5.694   3.944  15.049  1.00  0.00     0.345 C 
HETATM   15  O3  UNL     1      -6.174   4.926  15.726  1.00  0.00    -0.249 OA
BRANCH  14  16
HETATM   16  C9  UNL     1      -5.733   2.627  15.782  1.00  0.00     0.048 A 
HETATM   17  C10 UNL     1      -4.667   1.787  15.641  1.00  0.00     0.018 A 
HETATM   18  C11 UNL     1      -4.714   0.587  16.344  1.00  0.00     0.001 A 
HETATM   19  C12 UNL     1      -5.796   0.263  17.148  1.00  0.00     0.000 A 
HETATM   20  C13 UNL     1      -6.833   1.148  17.246  1.00  0.00     0.001 A 
HETATM   21  C14 UNL     1      -6.804   2.349  16.554  1.00  0.00     0.018 A 
ENDBRANCH  14  16
ENDBRANCH  11  13
ENDBRANCH   4  11
BRANCH   1  22
HETATM   22  C5  UNL     1      -0.059   3.327  11.000  1.00  0.00     0.160 C 
BRANCH  22  23
HETATM   23  C4  UNL     1       0.595   3.373   9.724  1.00  0.00     0.015 A 
HETATM   24  C3  UNL     1      -0.173   3.229   8.536  1.00  0.00     0.017 A 
HETATM   25  C2  UNL     1       0.421   3.155   7.321  1.00  0.00     0.027 A 
HETATM   26  C1  UNL     1       1.785   3.208   7.123  1.00  0.00     0.046 A 
HETATM   27  N1  UNL     1       2.343   3.130   5.825  1.00  0.00    -0.102 NA
HETATM   28  C22 UNL     1       2.553   3.346   8.256  1.00  0.00     0.027 A 
HETATM   29  C21 UNL     1       1.948   3.422   9.503  1.00  0.00     0.017 A 
ENDBRANCH  22  23
BRANCH  22  30
HETATM   30  O1  UNL     1       0.738   3.735  11.971  1.00  0.00    -0.345 OA
ATOM     31  H1  UNL     1       0.825   3.079  12.653  1.00  0.00     0.219 HD
ENDBRANCH  22  30
ENDBRANCH   1  22
TORSDOF 6
ENDMDL
MODEL 3
REMARK VINA RESULT: -9.049258499      3.208      6.898
REMARK  6 active torsions:
REMARK  status: ('A' for Active; 'I' for Inactive)
REMARK    1  A    between atoms: C4_5  and  C5_6 
REMARK    2  A    between atoms: C5_6  and  O1_7 
REMARK    3  A    between atoms: C5_6  and  N2_9 
REMARK    4  A    between atoms: C7_12  and  N3_13 
REMARK    5  A    between atoms: N3_13  and  N4_15 
REMARK       I    between atoms: N4_15  and  C8_16 
REMARK    6  A    between atoms: C8_16  and  C9_18 
ROOT
HETATM    1  N2  UNL     1      -4.333   5.189  14.317  1.00  0.00    -0.255 N 
HETATM    2  C6  UNL     1      -4.269   4.735  12.925  1.00  0.00     0.284 A 
HETATM    3  O2  UNL     1      -4.898   3.772  12.408  1.00  0.00    -0.265 OA
HETATM    4  C7  UNL     1      -3.359   5.554  12.161  1.00  0.00     0.141 A 
HETATM    5  C15 UNL     1      -2.854   6.535  13.124  1.00  0.00     0.026 A 
HETATM    6  C16 UNL     1      -1.924   7.541  12.941  1.00  0.00     0.016 A 
HETATM    7  C17 UNL     1      -1.533   8.344  13.980  1.00  0.00     0.001 A 
HETATM    8  C18 UNL     1      -2.119   8.089  15.214  1.00  0.00     0.002 A 
HETATM    9  C19 UNL     1      -3.041   7.091  15.388  1.00  0.00     0.031 A 
HETATM   10  C20 UNL     1      -3.445   6.279  14.346  1.00  0.00     0.057 A 
ENDROOT
BRANCH   4  11
HETATM   11  N3  UNL     1      -3.013   5.515  10.932  1.00  0.00    -0.226 N 
ATOM     12  H3  UNL     1      -2.979   6.419  10.460  1.00  0.00     0.202 HD
BRANCH  11  13
HETATM   13  N4  UNL     1      -2.689   4.464  10.173  1.00  0.00    -0.281 NA
HETATM   14  C8  UNL     1      -2.365   3.412   9.415  1.00  0.00     0.345 C 
HETATM   15  O3  UNL     1      -1.947   3.379   8.200  1.00  0.00    -0.249 OA
BRANCH  14  16
HETATM   16  C9  UNL     1      -2.506   2.049  10.043  1.00  0.00     0.048 A 
HETATM   17  C10 UNL     1      -1.367   1.404  10.430  1.00  0.00     0.018 A 
HETATM   18  C11 UNL     1      -1.522   0.157  11.028  1.00  0.00     0.001 A 
HETATM   19  C12 UNL     1      -2.776  -0.401  11.218  1.00  0.00     0.000 A 
HETATM   20  C13 UNL     1      -3.878   0.296  10.808  1.00  0.00     0.001 A 
HETATM   21  C14 UNL     1      -3.744   1.540  10.211  1.00  0.00     0.018 A 
ENDBRANCH  14  16
ENDBRANCH  11  13
ENDBRANCH   4  11
BRANCH   1  22
HETATM   22  C5  UNL     1      -5.260   4.622  15.191  1.00  0.00     0.160 C 
BRANCH  22  23
HETATM   23  C4  UNL     1      -5.405   3.335  15.806  1.00  0.00     0.015 A 
HETATM   24  C3  UNL     1      -4.329   2.407  15.756  1.00  0.00     0.017 A 
HETATM   25  C2  UNL     1      -4.467   1.145  16.226  1.00  0.00     0.027 A 
HETATM   26  C1  UNL     1      -5.629   0.650  16.782  1.00  0.00     0.046 A 
HETATM   27  N1  UNL     1      -5.708  -0.679  17.260  1.00  0.00    -0.102 NA
HETATM   28  C22 UNL     1      -6.688   1.527  16.842  1.00  0.00     0.027 A 
HETATM   29  C21 UNL     1      -6.550   2.821  16.361  1.00  0.00     0.017 A 
ENDBRANCH  22  23
BRANCH  22  30
HETATM   30  O1  UNL     1      -6.230   5.444  15.546  1.00  0.00    -0.345 OA
ATOM     31  H1  UNL     1      -6.421   6.077  14.863  1.00  0.00     0.219 HD
ENDBRANCH  22  30
ENDBRANCH   1  22
TORSDOF 6
ENDMDL
MODEL 4
REMARK VINA RESULT: -9.046786679      1.224      1.495
REMARK  6 active torsions:
REMARK  status: ('A' for Active; 'I' for Inactive)
REMARK    1  A    between atoms: C4_5  and  C5_6 
REMARK    2  A    between atoms: C5_6  and  O1_7 
REMARK    3  A    between atoms: C5_6  and  N2_9 
REMARK    4  A    between atoms: C7_12  and  N3_13 
REMARK    5  A    between atoms: N3_13  and  N4_15 
REMARK       I    between atoms: N4_15  and  C8_16 
REMARK    6  A    between atoms: C8_16  and  C9_18 
ROOT
HETATM    1  N2  UNL     1      -4.128   4.943  11.289  1.00  0.00    -0.255 N 
HETATM    2  C6  UNL     1      -4.309   3.492  11.385  1.00  0.00     0.284 A 
HETATM    3  O2  UNL     1      -5.109   2.778  10.721  1.00  0.00    -0.265 OA
HETATM    4  C7  UNL     1      -3.423   2.930  12.376  1.00  0.00     0.141 A 
HETATM    5  C15 UNL     1      -2.682   4.080  12.898  1.00  0.00     0.026 A 
HETATM    6  C16 UNL     1      -1.726   4.125  13.894  1.00  0.00     0.016 A 
HETATM    7  C17 UNL     1      -1.166   5.312  14.289  1.00  0.00     0.001 A 
HETATM    8  C18 UNL     1      -1.614   6.455  13.636  1.00  0.00     0.002 A 
HETATM    9  C19 UNL     1      -2.561   6.403  12.648  1.00  0.00     0.031 A 
HETATM   10  C20 UNL     1      -3.128   5.211  12.240  1.00  0.00     0.057 A 
ENDROOT
BRANCH   4  11
HETATM   11  N3  UNL     1      -3.247   1.728  12.771  1.00  0.00    -0.226 N 
ATOM     12  H3  UNL     1      -2.586   1.180  12.220  1.00  0.00     0.202 HD
BRANCH  11  13
HETATM   13  N4  UNL     1      -3.803   1.083  13.800  1.00  0.00    -0.281 NA
HETATM   14  C8  UNL     1      -4.360   0.437  14.831  1.00  0.00     0.345 C 
HETATM   15  O3  UNL     1      -4.323  -0.813  15.127  1.00  0.00    -0.249 OA
BRANCH  14  16
HETATM   16  C9  UNL     1      -5.159   1.267  15.803  1.00  0.00     0.048 A 
HETATM   17  C10 UNL     1      -5.593   2.493  15.390  1.00  0.00     0.018 A 
HETATM   18  C11 UNL     1      -6.347   3.232  16.295  1.00  0.00     0.001 A 
HETATM   19  C12 UNL     1      -6.642   2.743  17.558  1.00  0.00     0.000 A 
HETATM   20  C13 UNL     1      -6.178   1.507  17.912  1.00  0.00     0.001 A 
HETATM   21  C14 UNL     1      -5.425   0.755  17.023  1.00  0.00     0.018 A 
ENDBRANCH  14  16
ENDBRANCH  11  13
ENDBRANCH   4  11
BRANCH   1  22
HETATM   22  C5  UNL     1      -4.788   5.661  10.293  1.00  0.00     0.160 C 
BRANCH  22  23
HETATM   23  C4  UNL     1      -5.323   6.988  10.197  1.00  0.00     0.015 A 
HETATM   24  C3  UNL     1      -4.565   8.006   9.554  1.00  0.00     0.017 A 
HETATM   25  C2  UNL     1      -4.986   9.293   9.542  1.00  0.00     0.027 A 
HETATM   26  C1  UNL     1      -6.154   9.730  10.134  1.00  0.00     0.046 A 
HETATM   27  N1  UNL     1      -6.541  11.090  10.082  1.00  0.00    -0.102 NA
HETATM   28  C22 UNL     1      -6.906   8.766  10.765  1.00  0.00     0.027 A 
HETATM   29  C21 UNL     1      -6.478   7.446  10.779  1.00  0.00     0.017 A 
ENDBRANCH  22  23
BRANCH  22  30
HETATM   30  O1  UNL     1      -4.967   4.981   9.175  1.00  0.00    -0.345 OA
ATOM     31  H1  UNL     1      -5.237   4.087   9.348  1.00  0.00     0.219 HD
ENDBRANCH  22  30
ENDBRANCH   1  22
TORSDOF 6
ENDMDL
MODEL 5
REMARK VINA RESULT: -8.987645204      1.917      2.662
REMARK  6 active torsions:
REMARK  status: ('A' for Active; 'I' for Inactive)
REMARK    1  A    between atoms: C4_5  and  C5_6 
REMARK    2  A    between atoms: C5_6  and  O1_7 
REMARK    3  A    between atoms: C5_6  and  N2_9 
REMARK    4  A    between atoms: C7_12  and  N3_13 
REMARK    5  A    between atoms: N3_13  and  N4_15 
REMARK       I    between atoms: N4_15  and  C8_16 
REMARK    6  A    between atoms: C8_16  and  C9_18 
ROOT
HETATM    1  N2  UNL     1      -4.159   4.775  10.560  1.00  0.00    -0.255 N 
HETATM    2  C6  UNL     1      -4.158   4.262  11.934  1.00  0.00     0.284 A 
HETATM    3  O2  UNL     1      -4.908   4.620  12.881  1.00  0.00    -0.265 OA
HETATM    4  C7  UNL     1      -3.149   3.243  12.099  1.00  0.00     0.141 A 
HETATM    5  C15 UNL     1      -2.518   3.137  10.781  1.00  0.00     0.026 A 
HETATM    6  C16 UNL     1      -1.465   2.339  10.379  1.00  0.00     0.016 A 
HETATM    7  C17 UNL     1      -0.969   2.407   9.102  1.00  0.00     0.001 A 
HETATM    8  C18 UNL     1      -1.581   3.318   8.249  1.00  0.00     0.002 A 
HETATM    9  C19 UNL     1      -2.625   4.105   8.654  1.00  0.00     0.031 A 
HETATM   10  C20 UNL     1      -3.135   4.040   9.937  1.00  0.00     0.057 A 
ENDROOT
BRANCH   4  11
HETATM   11  N3  UNL     1      -2.814   2.539  13.110  1.00  0.00    -0.226 N 
ATOM     12  H3  UNL     1      -1.850   2.656  13.423  1.00  0.00     0.202 HD
BRANCH  11  13
HETATM   13  N4  UNL     1      -3.542   1.671  13.819  1.00  0.00    -0.281 NA
HETATM   14  C8  UNL     1      -4.271   0.803  14.529  1.00  0.00     0.345 C 
HETATM   15  O3  UNL     1      -4.414  -0.464  14.370  1.00  0.00    -0.249 OA
BRANCH  14  16
HETATM   16  C9  UNL     1      -5.057   1.360  15.689  1.00  0.00     0.048 A 
HETATM   17  C10 UNL     1      -5.770   2.505  15.484  1.00  0.00     0.018 A 
HETATM   18  C11 UNL     1      -6.506   2.990  16.561  1.00  0.00     0.001 A 
HETATM   19  C12 UNL     1      -6.510   2.337  17.783  1.00  0.00     0.000 A 
HETATM   20  C13 UNL     1      -5.774   1.194  17.924  1.00  0.00     0.001 A 
HETATM   21  C14 UNL     1      -5.035   0.696  16.862  1.00  0.00     0.018 A 
ENDBRANCH  14  16
ENDBRANCH  11  13
ENDBRANCH   4  11
BRANCH   1  22
HETATM   22  C5  UNL     1      -5.150   5.666  10.153  1.00  0.00     0.160 C 
BRANCH  22  23
HETATM   23  C4  UNL     1      -5.315   7.089  10.226  1.00  0.00     0.015 A 
HETATM   24  C3  UNL     1      -6.573   7.631  10.607  1.00  0.00     0.017 A 
HETATM   25  C2  UNL     1      -6.800   8.966  10.580  1.00  0.00     0.027 A 
HETATM   26  C1  UNL     1      -5.863   9.901  10.191  1.00  0.00     0.046 A 
HETATM   27  N1  UNL     1      -6.161  11.284  10.190  1.00  0.00    -0.102 NA
HETATM   28  C22 UNL     1      -4.636   9.404   9.816  1.00  0.00     0.027 A 
HETATM   29  C21 UNL     1      -4.401   8.037   9.843  1.00  0.00     0.017 A 
ENDBRANCH  22  23
BRANCH  22  30
HETATM   30  O1  UNL     1      -6.176   5.087   9.557  1.00  0.00    -0.345 OA
ATOM     31  H1  UNL     1      -5.907   4.324   9.058  1.00  0.00     0.219 HD
ENDBRANCH  22  30
ENDBRANCH   1  22
TORSDOF 6
ENDMDL
