MODEL 1
REMARK VINA RESULT: -9.585015662      0.000      0.000
REMARK  4 active torsions:
REMARK  status: ('A' for Active; 'I' for Inactive)
REMARK    1  A    between atoms: C6_6  and  N1_7 
REMARK    2  A    between atoms: C7_10  and  C8_11 
REMARK    3  A    between atoms: C15_18  and  N3_19 
REMARK       I    between atoms: N3_19  and  C16_21 
REMARK    4  A    between atoms: C16_21  and  C17_23 
ROOT
HETATM    1  C1  UNL     1      -6.401   0.208  17.212  1.00  0.00     0.018 C 
HETATM    2  C2  UNL     1      -5.711   1.041  16.679  1.00  0.00    -0.076 C 
HETATM    3  C3  UNL     1      -4.908   2.041  16.029  1.00  0.00     0.032 A 
HETATM    4  C4  UNL     1      -5.497   3.140  15.434  1.00  0.00     0.026 A 
HETATM    5  C5  UNL     1      -4.711   4.091  14.813  1.00  0.00     0.052 A 
HETATM    6  C6  UNL     1      -3.327   3.971  14.770  1.00  0.00     0.129 A 
HETATM    7  N5  UNL     1      -2.783   2.913  15.345  1.00  0.00    -0.349 N 
ATOM      8  H5  UNL     1      -1.768   2.809  15.325  1.00  0.00     0.167 HD
HETATM    9  C23 UNL     1      -3.528   1.960  15.964  1.00  0.00     0.110 A 
ENDROOT
BRANCH   6  10
HETATM   10  N1  UNL     1      -2.582   4.996  14.109  1.00  0.00    -0.223 N 
HETATM   11  N2  UNL     1      -2.816   6.312  14.224  1.00  0.00    -0.290 N 
HETATM   12  C7  UNL     1      -1.930   6.986  13.469  1.00  0.00     0.062 A 
ATOM     13  H2  UNL     1      -3.549   6.734  14.793  1.00  0.00     0.187 HD
HETATM   14  C14 UNL     1      -1.111   6.075  12.859  1.00  0.00     0.082 A 
HETATM   15  C15 UNL     1      -1.540   4.819  13.278  1.00  0.00     0.134 A 
BRANCH  12  16
HETATM   16  C8  UNL     1      -1.846   8.437  13.319  1.00  0.00    -0.008 A 
HETATM   17  C9  UNL     1      -2.060   9.067  12.110  1.00  0.00     0.014 A 
HETATM   18  C10 UNL     1      -1.981  10.435  11.965  1.00  0.00     0.001 A 
HETATM   19  C11 UNL     1      -1.680  11.238  13.046  1.00  0.00     0.000 A 
HETATM   20  C12 UNL     1      -1.467  10.612  14.252  1.00  0.00     0.001 A 
HETATM   21  C13 UNL     1      -1.545   9.243  14.397  1.00  0.00     0.014 A 
ENDBRANCH  12  16
BRANCH  15  22
HETATM   22  N3  UNL     1      -1.061   3.659  12.956  1.00  0.00    -0.307 N 
HETATM   23  C16 UNL     1      -1.434   3.029  11.734  1.00  0.00     0.257 C 
HETATM   24  O1  UNL     1      -1.025   3.570  10.678  1.00  0.00    -0.267 OA
ATOM     25  H3  UNL     1      -0.410   3.191  13.586  1.00  0.00     0.170 HD
BRANCH  23  26
HETATM   26  C17 UNL     1      -2.241   1.824  11.687  1.00  0.00     0.032 A 
HETATM   27  C18 UNL     1      -1.684   0.672  11.173  1.00  0.00     0.019 A 
HETATM   28  C19 UNL     1      -2.427  -0.474  11.120  1.00  0.00     0.027 A 
HETATM   29  C20 UNL     1      -3.733  -0.516  11.569  1.00  0.00     0.046 A 
HETATM   30  N4  UNL     1      -4.485  -1.713  11.504  1.00  0.00    -0.102 NA
HETATM   31  C21 UNL     1      -4.308   0.622  12.086  1.00  0.00     0.027 A 
HETATM   32  C22 UNL     1      -3.542   1.776  12.133  1.00  0.00     0.019 A 
ENDBRANCH  23  26
ENDBRANCH  15  22
ENDBRANCH   6  10
TORSDOF 4
ENDMDL
MODEL 2
REMARK VINA RESULT: -8.960397186      2.198      2.960
REMARK  4 active torsions:
REMARK  status: ('A' for Active; 'I' for Inactive)
REMARK    1  A    between atoms: C6_6  and  N1_7 
REMARK    2  A    between atoms: C7_10  and  C8_11 
REMARK    3  A    between atoms: C15_18  and  N3_19 
REMARK       I    between atoms: N3_19  and  C16_21 
REMARK    4  A    between atoms: C16_21  and  C17_23 
ROOT
HETATM    1  C1  UNL     1      -7.265   0.961  16.977  1.00  0.00     0.018 C 
HETATM    2  C2  UNL     1      -6.523   1.770  16.477  1.00  0.00    -0.076 C 
HETATM    3  C3  UNL     1      -5.658   2.744  15.869  1.00  0.00     0.032 A 
HETATM    4  C4  UNL     1      -6.157   3.961  15.443  1.00  0.00     0.026 A 
HETATM    5  C5  UNL     1      -5.313   4.886  14.861  1.00  0.00     0.052 A 
HETATM    6  C6  UNL     1      -3.959   4.622  14.689  1.00  0.00     0.129 A 
HETATM    7  N5  UNL     1      -3.502   3.454  15.102  1.00  0.00    -0.349 N 
ATOM      8  H5  UNL     1      -2.510   3.244  14.984  1.00  0.00     0.167 HD
HETATM    9  C23 UNL     1      -4.306   2.523  15.678  1.00  0.00     0.110 A 
ENDROOT
BRANCH   6  10
HETATM   10  N1  UNL     1      -3.149   5.630  14.077  1.00  0.00    -0.223 N 
HETATM   11  N2  UNL     1      -2.762   6.769  14.669  1.00  0.00    -0.290 N 
HETATM   12  C7  UNL     1      -2.014   7.482  13.809  1.00  0.00     0.062 A 
ATOM     13  H2  UNL     1      -2.999   7.050  15.620  1.00  0.00     0.187 HD
HETATM   14  C14 UNL     1      -1.921   6.777  12.640  1.00  0.00     0.082 A 
HETATM   15  C15 UNL     1      -2.648   5.605  12.829  1.00  0.00     0.134 A 
BRANCH  12  16
HETATM   16  C8  UNL     1      -1.399   8.782  14.067  1.00  0.00    -0.008 A 
HETATM   17  C9  UNL     1      -1.714   9.906  13.330  1.00  0.00     0.014 A 
HETATM   18  C10 UNL     1      -1.137  11.134  13.569  1.00  0.00     0.001 A 
HETATM   19  C11 UNL     1      -0.205  11.285  14.575  1.00  0.00     0.000 A 
HETATM   20  C12 UNL     1       0.110  10.167  15.312  1.00  0.00     0.001 A 
HETATM   21  C13 UNL     1      -0.467   8.938  15.072  1.00  0.00     0.014 A 
ENDBRANCH  12  16
BRANCH  15  22
HETATM   22  N3  UNL     1      -2.839   4.635  11.993  1.00  0.00    -0.307 N 
HETATM   23  C16 UNL     1      -1.849   3.628  11.803  1.00  0.00     0.257 C 
HETATM   24  O1  UNL     1      -1.650   2.851  12.769  1.00  0.00    -0.267 OA
ATOM     25  H3  UNL     1      -3.709   4.592  11.462  1.00  0.00     0.170 HD
BRANCH  23  26
HETATM   26  C17 UNL     1      -1.099   3.487  10.569  1.00  0.00     0.032 A 
HETATM   27  C18 UNL     1       0.217   3.893  10.544  1.00  0.00     0.019 A 
HETATM   28  C19 UNL     1       0.942   3.771   9.391  1.00  0.00     0.027 A 
HETATM   29  C20 UNL     1       0.391   3.247   8.238  1.00  0.00     0.046 A 
HETATM   30  N4  UNL     1       1.159   3.128   7.055  1.00  0.00    -0.102 NA
HETATM   31  C21 UNL     1      -0.922   2.835   8.241  1.00  0.00     0.027 A 
HETATM   32  C22 UNL     1      -1.643   2.967   9.417  1.00  0.00     0.019 A 
ENDBRANCH  23  26
ENDBRANCH  15  22
ENDBRANCH   6  10
TORSDOF 4
ENDMDL
MODEL 3
REMARK VINA RESULT: -8.768895577      3.099      7.108
REMARK  4 active torsions:
REMARK  status: ('A' for Active; 'I' for Inactive)
REMARK    1  A    between atoms: C6_6  and  N1_7 
REMARK    2  A    between atoms: C7_10  and  C8_11 
REMARK    3  A    between atoms: C15_18  and  N3_19 
REMARK       I    between atoms: N3_19  and  C16_21 
REMARK    4  A    between atoms: C16_21  and  C17_23 
ROOT
HETATM    1  C1  UNL     1      -2.829   8.393   7.614  1.00  0.00     0.018 C 
HETATM    2  C2  UNL     1      -3.068   7.504   8.395  1.00  0.00    -0.076 C 
HETATM    3  C3  UNL     1      -3.326   6.443   9.330  1.00  0.00     0.032 A 
HETATM    4  C4  UNL     1      -2.490   6.238  10.411  1.00  0.00     0.026 A 
HETATM    5  C5  UNL     1      -2.752   5.215  11.300  1.00  0.00     0.052 A 
HETATM    6  C6  UNL     1      -3.848   4.376  11.136  1.00  0.00     0.129 A 
HETATM    7  N5  UNL     1      -4.636   4.589  10.097  1.00  0.00    -0.349 N 
ATOM      8  H5  UNL     1      -5.446   3.984   9.961  1.00  0.00     0.167 HD
HETATM    9  C23 UNL     1      -4.405   5.587   9.203  1.00  0.00     0.110 A 
ENDROOT
BRANCH   6  10
HETATM   10  N1  UNL     1      -4.054   3.339  12.099  1.00  0.00    -0.223 N 
HETATM   11  N2  UNL     1      -4.643   3.504  13.292  1.00  0.00    -0.290 N 
HETATM   12  C7  UNL     1      -4.669   2.326  13.939  1.00  0.00     0.062 A 
ATOM     13  H2  UNL     1      -5.011   4.384  13.652  1.00  0.00     0.187 HD
HETATM   14  C14 UNL     1      -4.083   1.386  13.135  1.00  0.00     0.082 A 
HETATM   15  C15 UNL     1      -3.699   2.048  11.972  1.00  0.00     0.134 A 
BRANCH  12  16
HETATM   16  C8  UNL     1      -5.226   2.078  15.267  1.00  0.00    -0.008 A 
HETATM   17  C9  UNL     1      -4.875   0.975  16.020  1.00  0.00     0.014 A 
HETATM   18  C10 UNL     1      -5.397   0.738  17.273  1.00  0.00     0.001 A 
HETATM   19  C11 UNL     1      -6.308   1.613  17.828  1.00  0.00     0.000 A 
HETATM   20  C12 UNL     1      -6.659   2.713  17.080  1.00  0.00     0.001 A 
HETATM   21  C13 UNL     1      -6.136   2.950  15.826  1.00  0.00     0.014 A 
ENDBRANCH  12  16
BRANCH  15  22
HETATM   22  N3  UNL     1      -3.106   1.560  10.929  1.00  0.00    -0.307 N 
HETATM   23  C16 UNL     1      -1.688   1.621  10.801  1.00  0.00     0.257 C 
HETATM   24  O1  UNL     1      -1.023   0.915  11.598  1.00  0.00    -0.267 OA
ATOM     25  H3  UNL     1      -3.660   1.128  10.190  1.00  0.00     0.170 HD
BRANCH  23  26
HETATM   26  C17 UNL     1      -1.025   2.447   9.808  1.00  0.00     0.032 A 
HETATM   27  C18 UNL     1       0.263   2.872  10.054  1.00  0.00     0.019 A 
HETATM   28  C19 UNL     1       0.905   3.651   9.132  1.00  0.00     0.027 A 
HETATM   29  C20 UNL     1       0.300   4.030   7.950  1.00  0.00     0.046 A 
HETATM   30  N4  UNL     1       0.983   4.837   7.010  1.00  0.00    -0.102 NA
HETATM   31  C21 UNL     1      -0.986   3.616   7.685  1.00  0.00     0.027 A 
HETATM   32  C22 UNL     1      -1.624   2.828   8.629  1.00  0.00     0.019 A 
ENDBRANCH  23  26
ENDBRANCH  15  22
ENDBRANCH   6  10
TORSDOF 4
ENDMDL
MODEL 4
REMARK VINA RESULT: -8.596606199      3.810      6.702
REMARK  4 active torsions:
REMARK  status: ('A' for Active; 'I' for Inactive)
REMARK    1  A    between atoms: C6_6  and  N1_7 
REMARK    2  A    between atoms: C7_10  and  C8_11 
REMARK    3  A    between atoms: C15_18  and  N3_19 
REMARK       I    between atoms: N3_19  and  C16_21 
REMARK    4  A    between atoms: C16_21  and  C17_23 
ROOT
HETATM    1  C1  UNL     1      -2.774  -2.475  11.408  1.00  0.00     0.018 C 
HETATM    2  C2  UNL     1      -3.010  -1.301  11.263  1.00  0.00    -0.076 C 
HETATM    3  C3  UNL     1      -3.315   0.094  11.097  1.00  0.00     0.032 A 
HETATM    4  C4  UNL     1      -4.373   0.670  11.776  1.00  0.00     0.026 A 
HETATM    5  C5  UNL     1      -4.653   2.011  11.605  1.00  0.00     0.052 A 
HETATM    6  C6  UNL     1      -3.890   2.808  10.760  1.00  0.00     0.129 A 
HETATM    7  N5  UNL     1      -2.883   2.240  10.121  1.00  0.00    -0.349 N 
ATOM      8  H5  UNL     1      -2.311   2.809   9.497  1.00  0.00     0.167 HD
HETATM    9  C23 UNL     1      -2.582   0.922  10.266  1.00  0.00     0.110 A 
ENDROOT
BRANCH   6  10
HETATM   10  N1  UNL     1      -4.242   4.188  10.635  1.00  0.00    -0.223 N 
HETATM   11  N2  UNL     1      -5.137   4.678   9.765  1.00  0.00    -0.290 N 
HETATM   12  C7  UNL     1      -5.221   6.011   9.920  1.00  0.00     0.062 A 
ATOM     13  H2  UNL     1      -5.669   4.126   9.093  1.00  0.00     0.187 HD
HETATM   14  C14 UNL     1      -4.356   6.378  10.915  1.00  0.00     0.082 A 
HETATM   15  C15 UNL     1      -3.745   5.208  11.357  1.00  0.00     0.134 A 
BRANCH  12  16
HETATM   16  C8  UNL     1      -6.081   6.919   9.165  1.00  0.00    -0.008 A 
HETATM   17  C9  UNL     1      -7.452   6.941   9.326  1.00  0.00     0.014 A 
HETATM   18  C10 UNL     1      -8.266   7.796   8.615  1.00  0.00     0.001 A 
HETATM   19  C11 UNL     1      -7.728   8.676   7.699  1.00  0.00     0.000 A 
HETATM   20  C12 UNL     1      -6.362   8.656   7.537  1.00  0.00     0.001 A 
HETATM   21  C13 UNL     1      -5.547   7.800   8.248  1.00  0.00     0.014 A 
ENDBRANCH  12  16
BRANCH  15  22
HETATM   22  N3  UNL     1      -2.854   5.070  12.287  1.00  0.00    -0.307 N 
HETATM   23  C16 UNL     1      -3.015   5.705  13.552  1.00  0.00     0.257 C 
HETATM   24  O1  UNL     1      -3.944   5.277  14.279  1.00  0.00    -0.267 OA
ATOM     25  H3  UNL     1      -2.027   4.500  12.111  1.00  0.00     0.170 HD
BRANCH  23  26
HETATM   26  C17 UNL     1      -2.161   6.790  13.999  1.00  0.00     0.032 A 
HETATM   27  C18 UNL     1      -2.444   7.404  15.200  1.00  0.00     0.019 A 
HETATM   28  C19 UNL     1      -1.653   8.428  15.640  1.00  0.00     0.027 A 
HETATM   29  C20 UNL     1      -0.568   8.874  14.911  1.00  0.00     0.046 A 
HETATM   30  N4  UNL     1       0.238   9.936  15.384  1.00  0.00    -0.102 NA
HETATM   31  C21 UNL     1      -0.267   8.275  13.709  1.00  0.00     0.027 A 
HETATM   32  C22 UNL     1      -1.079   7.238  13.277  1.00  0.00     0.019 A 
ENDBRANCH  23  26
ENDBRANCH  15  22
ENDBRANCH   6  10
TORSDOF 4
ENDMDL
MODEL 5
REMARK VINA RESULT: -8.582953594      3.652      7.573
REMARK  4 active torsions:
REMARK  status: ('A' for Active; 'I' for Inactive)
REMARK    1  A    between atoms: C6_6  and  N1_7 
REMARK    2  A    between atoms: C7_10  and  C8_11 
REMARK    3  A    between atoms: C15_18  and  N3_19 
REMARK       I    between atoms: N3_19  and  C16_21 
REMARK    4  A    between atoms: C16_21  and  C17_23 
ROOT
HETATM    1  C1  UNL     1       3.353   3.219   8.723  1.00  0.00     0.018 C 
HETATM    2  C2  UNL     1       2.353   3.343   9.388  1.00  0.00    -0.076 C 
HETATM    3  C3  UNL     1       1.148   3.484  10.159  1.00  0.00     0.032 A 
HETATM    4  C4  UNL     1      -0.003   2.810   9.797  1.00  0.00     0.026 A 
HETATM    5  C5  UNL     1      -1.152   2.956  10.548  1.00  0.00     0.052 A 
HETATM    6  C6  UNL     1      -1.182   3.773  11.672  1.00  0.00     0.129 A 
HETATM    7  N5  UNL     1      -0.072   4.407  12.003  1.00  0.00    -0.349 N 
ATOM      8  H5  UNL     1      -0.076   5.010  12.826  1.00  0.00     0.167 HD
HETATM    9  C23 UNL     1       1.075   4.285  11.284  1.00  0.00     0.110 A 
ENDROOT
BRANCH   6  10
HETATM   10  N1  UNL     1      -2.410   3.873  12.399  1.00  0.00    -0.223 N 
HETATM   11  N2  UNL     1      -2.724   3.148  13.482  1.00  0.00    -0.290 N 
HETATM   12  C7  UNL     1      -3.950   3.498  13.909  1.00  0.00     0.062 A 
ATOM     13  H2  UNL     1      -2.127   2.442  13.913  1.00  0.00     0.187 HD
HETATM   14  C14 UNL     1      -4.428   4.472  13.075  1.00  0.00     0.082 A 
HETATM   15  C15 UNL     1      -3.437   4.697  12.124  1.00  0.00     0.134 A 
BRANCH  12  16
HETATM   16  C8  UNL     1      -4.658   2.943  15.060  1.00  0.00    -0.008 A 
HETATM   17  C9  UNL     1      -4.183   1.854  15.764  1.00  0.00     0.014 A 
HETATM   18  C10 UNL     1      -4.849   1.328  16.850  1.00  0.00     0.001 A 
HETATM   19  C11 UNL     1      -6.036   1.883  17.280  1.00  0.00     0.000 A 
HETATM   20  C12 UNL     1      -6.511   2.969  16.580  1.00  0.00     0.001 A 
HETATM   21  C13 UNL     1      -5.845   3.495  15.493  1.00  0.00     0.014 A 
ENDBRANCH  12  16
BRANCH  15  22
HETATM   22  N3  UNL     1      -3.449   5.532  11.134  1.00  0.00    -0.307 N 
HETATM   23  C16 UNL     1      -4.060   6.813  11.267  1.00  0.00     0.257 C 
HETATM   24  O1  UNL     1      -3.496   7.625  12.040  1.00  0.00    -0.267 OA
ATOM     25  H3  UNL     1      -3.016   5.271  10.249  1.00  0.00     0.170 HD
BRANCH  23  26
HETATM   26  C17 UNL     1      -5.271   7.181  10.556  1.00  0.00     0.032 A 
HETATM   27  C18 UNL     1      -5.207   7.367   9.192  1.00  0.00     0.019 A 
HETATM   28  C19 UNL     1      -6.335   7.714   8.503  1.00  0.00     0.027 A 
HETATM   29  C20 UNL     1      -7.550   7.887   9.136  1.00  0.00     0.046 A 
HETATM   30  N4  UNL     1      -8.707   8.247   8.404  1.00  0.00    -0.102 NA
HETATM   31  C21 UNL     1      -7.636   7.706  10.498  1.00  0.00     0.027 A 
HETATM   32  C22 UNL     1      -6.484   7.355  11.182  1.00  0.00     0.019 A 
ENDBRANCH  23  26
ENDBRANCH  15  22
ENDBRANCH   6  10
TORSDOF 4
ENDMDL
