MODEL 1
REMARK VINA RESULT: -8.404824482      0.000      0.000
REMARK  6 active torsions:
REMARK  status: ('A' for Active; 'I' for Inactive)
REMARK    1  A    between atoms: C5_7  and  N2_8 
REMARK    2  A    between atoms: N2_8  and  C6_9 
REMARK    3  A    between atoms: C6_9  and  O1_10 
REMARK    4  A    between atoms: C6_9  and  C7_12 
REMARK    5  A    between atoms: C8_15  and  C9_16 
REMARK    6  A    between atoms: C18_26  and  C19_27 
ROOT
HETATM    1  C9  UNL     1      -5.112   3.633  14.957  1.00  0.00    -0.008 A 
HETATM    2  C10 UNL     1      -6.052   4.401  15.589  1.00  0.00     0.014 A 
HETATM    3  C11 UNL     1      -6.861   3.885  16.612  1.00  0.00     0.002 A 
HETATM    4  C12 UNL     1      -6.745   2.582  17.026  1.00  0.00     0.023 A 
HETATM    5  C13 UNL     1      -5.805   1.799  16.401  1.00  0.00     0.045 A 
HETATM    6  C14 UNL     1      -5.674   0.437  16.821  1.00  0.00     0.099 C 
HETATM    7  N4  UNL     1      -5.590  -0.654  17.160  1.00  0.00    -0.191 NA
HETATM    8  C15 UNL     1      -5.010   2.306  15.396  1.00  0.00     0.036 A 
ENDROOT
BRANCH   1   9
HETATM    9  C8  UNL     1      -4.250   4.116  13.892  1.00  0.00     0.043 A 
HETATM   10  N3  UNL     1      -4.658   4.229  12.628  1.00  0.00    -0.350 N 
HETATM   11  C7  UNL     1      -3.841   4.686  11.626  1.00  0.00     0.111 A 
ATOM     12  H3  UNL     1      -5.616   3.965  12.397  1.00  0.00     0.166 HD
HETATM   13  C18 UNL     1      -2.573   5.037  11.867  1.00  0.00     0.023 A 
HETATM   14  C17 UNL     1      -2.096   4.937  13.207  1.00  0.00     0.018 A 
HETATM   15  C16 UNL     1      -2.959   4.477  14.173  1.00  0.00     0.031 A 
BRANCH  11  16
HETATM   16  C6  UNL     1      -4.462   4.868  10.284  1.00  0.00     0.246 C 
BRANCH  16  17
HETATM   17  N2  UNL     1      -5.282   5.784   9.927  1.00  0.00    -0.344 NA
BRANCH  17  18
HETATM   18  C5  UNL     1      -6.050   6.645   9.595  1.00  0.00     0.261 A 
HETATM   19  N1  UNL     1      -7.175   6.330   8.881  1.00  0.00    -0.326 N 
HETATM   20  C4  UNL     1      -8.006   7.303   8.503  1.00  0.00     0.094 A 
ATOM     21  H1  UNL     1      -7.377   5.360   8.640  1.00  0.00     0.169 HD
HETATM   22  C3  UNL     1      -7.753   8.620   8.818  1.00  0.00     0.041 A 
HETATM   23  C2  UNL     1      -6.624   8.948   9.536  1.00  0.00     0.010 A 
HETATM   24  C1  UNL     1      -6.381  10.384   9.862  1.00  0.00     0.068 C 
HETATM   25  N6  UNL     1      -5.800   7.977   9.909  1.00  0.00    -0.320 N 
ATOM     26  H6  UNL     1      -4.962   8.213  10.441  1.00  0.00     0.169 HD
ENDBRANCH  17  18
ENDBRANCH  16  17
BRANCH  16  27
HETATM   27  O1  UNL     1      -4.114   3.974   9.395  1.00  0.00    -0.334 OA
ATOM     28  H1  UNL     1      -3.633   4.268   8.630  1.00  0.00     0.220 HD
ENDBRANCH  16  27
ENDBRANCH  11  16
BRANCH  13  29
HETATM   29  C19 UNL     1      -1.540   5.278  10.891  1.00  0.00     0.044 A 
HETATM   30  C20 UNL     1      -0.991   6.388  10.316  1.00  0.00     0.032 A 
HETATM   31  C21 UNL     1      -0.146   6.000   9.295  1.00  0.00     0.019 A 
HETATM   32  C22 UNL     1      -0.176   4.629   9.241  1.00  0.00     0.088 A 
HETATM   33  N5  UNL     1      -1.003   4.224  10.188  1.00  0.00    -0.365 N 
ATOM     34  H5  UNL     1      -1.218   3.245  10.376  1.00  0.00     0.165 HD
ENDBRANCH  13  29
ENDBRANCH   1   9
TORSDOF 6
ENDMDL
MODEL 2
REMARK VINA RESULT: -8.265088534      0.483      1.237
REMARK  6 active torsions:
REMARK  status: ('A' for Active; 'I' for Inactive)
REMARK    1  A    between atoms: C5_7  and  N2_8 
REMARK    2  A    between atoms: N2_8  and  C6_9 
REMARK    3  A    between atoms: C6_9  and  O1_10 
REMARK    4  A    between atoms: C6_9  and  C7_12 
REMARK    5  A    between atoms: C8_15  and  C9_16 
REMARK    6  A    between atoms: C18_26  and  C19_27 
ROOT
HETATM    1  C9  UNL     1      -5.002   3.503  14.949  1.00  0.00    -0.008 A 
HETATM    2  C10 UNL     1      -5.937   4.320  15.525  1.00  0.00     0.014 A 
HETATM    3  C11 UNL     1      -6.790   3.864  16.542  1.00  0.00     0.002 A 
HETATM    4  C12 UNL     1      -6.723   2.575  17.006  1.00  0.00     0.023 A 
HETATM    5  C13 UNL     1      -5.788   1.744  16.438  1.00  0.00     0.045 A 
HETATM    6  C14 UNL     1      -5.708   0.396  16.911  1.00  0.00     0.099 C 
HETATM    7  N4  UNL     1      -5.665  -0.684  17.292  1.00  0.00    -0.191 NA
HETATM    8  C15 UNL     1      -4.951   2.191  15.439  1.00  0.00     0.036 A 
ENDROOT
BRANCH   1   9
HETATM    9  C8  UNL     1      -4.096   3.923  13.894  1.00  0.00     0.043 A 
HETATM   10  N3  UNL     1      -4.501   4.151  12.644  1.00  0.00    -0.350 N 
HETATM   11  C7  UNL     1      -3.643   4.547  11.650  1.00  0.00     0.111 A 
ATOM     12  H3  UNL     1      -5.488   4.026  12.418  1.00  0.00     0.166 HD
HETATM   13  C18 UNL     1      -2.337   4.717  11.885  1.00  0.00     0.023 A 
HETATM   14  C17 UNL     1      -1.862   4.489  13.209  1.00  0.00     0.018 A 
HETATM   15  C16 UNL     1      -2.767   4.098  14.168  1.00  0.00     0.031 A 
BRANCH  11  16
HETATM   16  C6  UNL     1      -4.251   4.876  10.330  1.00  0.00     0.246 C 
BRANCH  16  17
HETATM   17  N2  UNL     1      -4.959   5.901  10.037  1.00  0.00    -0.344 NA
BRANCH  17  18
HETATM   18  C5  UNL     1      -5.623   6.864   9.764  1.00  0.00     0.261 A 
HETATM   19  N1  UNL     1      -5.155   8.124  10.028  1.00  0.00    -0.326 N 
HETATM   20  C4  UNL     1      -5.916   9.180   9.736  1.00  0.00     0.094 A 
ATOM     21  H1  UNL     1      -4.233   8.254  10.444  1.00  0.00     0.169 HD
HETATM   22  C3  UNL     1      -7.165   9.026   9.173  1.00  0.00     0.041 A 
HETATM   23  C2  UNL     1      -7.645   7.764   8.904  1.00  0.00     0.010 A 
HETATM   24  C1  UNL     1      -8.999   7.634   8.292  1.00  0.00     0.068 C 
HETATM   25  N6  UNL     1      -6.884   6.716   9.196  1.00  0.00    -0.320 N 
ATOM     26  H6  UNL     1      -7.234   5.777   8.999  1.00  0.00     0.169 HD
ENDBRANCH  17  18
ENDBRANCH  16  17
BRANCH  16  27
HETATM   27  O1  UNL     1      -4.020   3.998   9.389  1.00  0.00    -0.334 OA
ATOM     28  H1  UNL     1      -3.936   4.312   8.496  1.00  0.00     0.220 HD
ENDBRANCH  16  27
ENDBRANCH  11  16
BRANCH  13  29
HETATM   29  C19 UNL     1      -1.293   4.870  10.903  1.00  0.00     0.044 A 
HETATM   30  C20 UNL     1      -0.615   5.928  10.367  1.00  0.00     0.032 A 
HETATM   31  C21 UNL     1       0.163   5.483   9.316  1.00  0.00     0.019 A 
HETATM   32  C22 UNL     1      -0.040   4.130   9.205  1.00  0.00     0.088 A 
HETATM   33  N5  UNL     1      -0.901   3.790  10.146  1.00  0.00    -0.365 N 
ATOM     34  H5  UNL     1      -1.236   2.838  10.296  1.00  0.00     0.165 HD
ENDBRANCH  13  29
ENDBRANCH   1   9
TORSDOF 6
ENDMDL
MODEL 3
REMARK VINA RESULT: -8.202748888      0.991      1.428
REMARK  6 active torsions:
REMARK  status: ('A' for Active; 'I' for Inactive)
REMARK    1  A    between atoms: C5_7  and  N2_8 
REMARK    2  A    between atoms: N2_8  and  C6_9 
REMARK    3  A    between atoms: C6_9  and  O1_10 
REMARK    4  A    between atoms: C6_9  and  C7_12 
REMARK    5  A    between atoms: C8_15  and  C9_16 
REMARK    6  A    between atoms: C18_26  and  C19_27 
ROOT
HETATM    1  C9  UNL     1      -5.148   3.658  15.054  1.00  0.00    -0.008 A 
HETATM    2  C10 UNL     1      -6.110   4.395  15.691  1.00  0.00     0.014 A 
HETATM    3  C11 UNL     1      -6.921   3.841  16.693  1.00  0.00     0.002 A 
HETATM    4  C12 UNL     1      -6.784   2.532  17.081  1.00  0.00     0.023 A 
HETATM    5  C13 UNL     1      -5.822   1.781  16.452  1.00  0.00     0.045 A 
HETATM    6  C14 UNL     1      -5.669   0.413  16.844  1.00  0.00     0.099 C 
HETATM    7  N4  UNL     1      -5.568  -0.683  17.161  1.00  0.00    -0.191 NA
HETATM    8  C15 UNL     1      -5.025   2.324  15.467  1.00  0.00     0.036 A 
ENDROOT
BRANCH   1   9
HETATM    9  C8  UNL     1      -4.283   4.181  14.010  1.00  0.00     0.043 A 
HETATM   10  N3  UNL     1      -4.602   4.131  12.717  1.00  0.00    -0.350 N 
HETATM   11  C7  UNL     1      -3.783   4.625  11.734  1.00  0.00     0.111 A 
ATOM     12  H3  UNL     1      -5.491   3.709  12.447  1.00  0.00     0.166 HD
HETATM   13  C18 UNL     1      -2.602   5.181  12.027  1.00  0.00     0.023 A 
HETATM   14  C17 UNL     1      -2.223   5.259  13.398  1.00  0.00     0.018 A 
HETATM   15  C16 UNL     1      -3.084   4.752  14.342  1.00  0.00     0.031 A 
BRANCH  11  16
HETATM   16  C6  UNL     1      -4.317   4.607  10.343  1.00  0.00     0.246 C 
BRANCH  16  17
HETATM   17  N2  UNL     1      -4.868   5.574   9.712  1.00  0.00    -0.344 NA
BRANCH  17  18
HETATM   18  C5  UNL     1      -5.386   6.480   9.117  1.00  0.00     0.261 A 
HETATM   19  N1  UNL     1      -4.617   7.429   8.497  1.00  0.00    -0.326 N 
HETATM   20  C4  UNL     1      -5.210   8.439   7.859  1.00  0.00     0.094 A 
ATOM     21  H1  UNL     1      -3.600   7.364   8.523  1.00  0.00     0.169 HD
HETATM   22  C3  UNL     1      -6.584   8.545   7.812  1.00  0.00     0.041 A 
HETATM   23  C2  UNL     1      -7.366   7.597   8.433  1.00  0.00     0.010 A 
HETATM   24  C1  UNL     1      -8.850   7.741   8.360  1.00  0.00     0.068 C 
HETATM   25  N6  UNL     1      -6.772   6.593   9.067  1.00  0.00    -0.320 N 
ATOM     26  H6  UNL     1      -7.346   5.887   9.528  1.00  0.00     0.169 HD
ENDBRANCH  17  18
ENDBRANCH  16  17
BRANCH  16  27
HETATM   27  O1  UNL     1      -4.197   3.459   9.728  1.00  0.00    -0.334 OA
ATOM     28  H1  UNL     1      -3.691   3.434   8.923  1.00  0.00     0.220 HD
ENDBRANCH  16  27
ENDBRANCH  11  16
BRANCH  13  29
HETATM   29  C19 UNL     1      -1.541   5.497  11.103  1.00  0.00     0.044 A 
HETATM   30  C20 UNL     1      -0.289   5.006  10.862  1.00  0.00     0.032 A 
HETATM   31  C21 UNL     1       0.356   5.832   9.963  1.00  0.00     0.019 A 
HETATM   32  C22 UNL     1      -0.512   6.847   9.647  1.00  0.00     0.088 A 
HETATM   33  N5  UNL     1      -1.622   6.632  10.330  1.00  0.00    -0.365 N 
ATOM     34  H5  UNL     1      -2.443   7.235  10.288  1.00  0.00     0.165 HD
ENDBRANCH  13  29
ENDBRANCH   1   9
TORSDOF 6
ENDMDL
MODEL 4
REMARK VINA RESULT: -8.193305691      2.903      5.298
REMARK  6 active torsions:
REMARK  status: ('A' for Active; 'I' for Inactive)
REMARK    1  A    between atoms: C5_7  and  N2_8 
REMARK    2  A    between atoms: N2_8  and  C6_9 
REMARK    3  A    between atoms: C6_9  and  O1_10 
REMARK    4  A    between atoms: C6_9  and  C7_12 
REMARK    5  A    between atoms: C8_15  and  C9_16 
REMARK    6  A    between atoms: C18_26  and  C19_27 
ROOT
HETATM    1  C9  UNL     1      -5.247   3.511  14.806  1.00  0.00    -0.008 A 
HETATM    2  C10 UNL     1      -6.093   4.342  15.491  1.00  0.00     0.014 A 
HETATM    3  C11 UNL     1      -6.805   3.905  16.618  1.00  0.00     0.002 A 
HETATM    4  C12 UNL     1      -6.684   2.621  17.085  1.00  0.00     0.023 A 
HETATM    5  C13 UNL     1      -5.839   1.776  16.408  1.00  0.00     0.045 A 
HETATM    6  C14 UNL     1      -5.705   0.432  16.883  1.00  0.00     0.099 C 
HETATM    7  N4  UNL     1      -5.619  -0.643  17.268  1.00  0.00    -0.191 NA
HETATM    8  C15 UNL     1      -5.140   2.204  15.301  1.00  0.00     0.036 A 
ENDROOT
BRANCH   1   9
HETATM    9  C8  UNL     1      -4.488   3.911  13.634  1.00  0.00     0.043 A 
HETATM   10  N3  UNL     1      -3.400   3.261  13.222  1.00  0.00    -0.350 N 
HETATM   11  C7  UNL     1      -2.686   3.642  12.115  1.00  0.00     0.111 A 
ATOM     12  H3  UNL     1      -3.086   2.447  13.751  1.00  0.00     0.166 HD
HETATM   13  C18 UNL     1      -3.045   4.705  11.387  1.00  0.00     0.023 A 
HETATM   14  C17 UNL     1      -4.206   5.428  11.789  1.00  0.00     0.018 A 
HETATM   15  C16 UNL     1      -4.886   4.999  12.904  1.00  0.00     0.031 A 
BRANCH  11  16
HETATM   16  C6  UNL     1      -1.559   2.757  11.705  1.00  0.00     0.246 C 
BRANCH  16  17
HETATM   17  N2  UNL     1      -0.405   3.117  11.284  1.00  0.00    -0.344 NA
BRANCH  17  18
HETATM   18  C5  UNL     1       0.677   3.456  10.889  1.00  0.00     0.261 A 
HETATM   19  N1  UNL     1       1.054   3.195   9.599  1.00  0.00    -0.326 N 
HETATM   20  C4  UNL     1       2.268   3.562   9.184  1.00  0.00     0.094 A 
ATOM     21  H1  UNL     1       0.414   2.724   8.961  1.00  0.00     0.169 HD
HETATM   22  C3  UNL     1       3.149   4.201  10.030  1.00  0.00     0.041 A 
HETATM   23  C2  UNL     1       2.779   4.468  11.330  1.00  0.00     0.010 A 
HETATM   24  C1  UNL     1       3.756   5.163  12.218  1.00  0.00     0.068 C 
HETATM   25  N6  UNL     1       1.570   4.101  11.738  1.00  0.00    -0.320 N 
ATOM     26  H6  UNL     1       1.290   4.296  12.700  1.00  0.00     0.169 HD
ENDBRANCH  17  18
ENDBRANCH  16  17
BRANCH  16  27
HETATM   27  O1  UNL     1      -1.811   1.476  11.792  1.00  0.00    -0.334 OA
ATOM     28  H1  UNL     1      -1.432   0.995  12.518  1.00  0.00     0.220 HD
ENDBRANCH  16  27
ENDBRANCH  11  16
BRANCH  13  29
HETATM   29  C19 UNL     1      -2.259   5.369  10.376  1.00  0.00     0.044 A 
HETATM   30  C20 UNL     1      -2.111   5.238   9.025  1.00  0.00     0.032 A 
HETATM   31  C21 UNL     1      -1.067   6.038   8.603  1.00  0.00     0.019 A 
HETATM   32  C22 UNL     1      -0.565   6.669   9.714  1.00  0.00     0.088 A 
HETATM   33  N5  UNL     1      -1.280   6.261  10.746  1.00  0.00    -0.365 N 
ATOM     34  H5  UNL     1      -1.124   6.571  11.705  1.00  0.00     0.165 HD
ENDBRANCH  13  29
ENDBRANCH   1   9
TORSDOF 6
ENDMDL
MODEL 5
REMARK VINA RESULT: -8.152261760      1.895      2.416
REMARK  6 active torsions:
REMARK  status: ('A' for Active; 'I' for Inactive)
REMARK    1  A    between atoms: C5_7  and  N2_8 
REMARK    2  A    between atoms: N2_8  and  C6_9 
REMARK    3  A    between atoms: C6_9  and  O1_10 
REMARK    4  A    between atoms: C6_9  and  C7_12 
REMARK    5  A    between atoms: C8_15  and  C9_16 
REMARK    6  A    between atoms: C18_26  and  C19_27 
ROOT
HETATM    1  C9  UNL     1      -4.499   3.387  14.829  1.00  0.00    -0.008 A 
HETATM    2  C10 UNL     1      -5.512   4.246  15.159  1.00  0.00     0.014 A 
HETATM    3  C11 UNL     1      -6.549   3.867  16.025  1.00  0.00     0.002 A 
HETATM    4  C12 UNL     1      -6.593   2.614  16.581  1.00  0.00     0.023 A 
HETATM    5  C13 UNL     1      -5.583   1.741  16.259  1.00  0.00     0.045 A 
HETATM    6  C14 UNL     1      -5.617   0.429  16.831  1.00  0.00     0.099 C 
HETATM    7  N4  UNL     1      -5.666  -0.621  17.286  1.00  0.00    -0.191 NA
HETATM    8  C15 UNL     1      -4.565   2.112  15.409  1.00  0.00     0.036 A 
ENDROOT
BRANCH   1   9
HETATM    9  C8  UNL     1      -3.403   3.726  13.938  1.00  0.00     0.043 A 
HETATM   10  N3  UNL     1      -3.404   3.415  12.641  1.00  0.00    -0.350 N 
HETATM   11  C7  UNL     1      -2.368   3.738  11.803  1.00  0.00     0.111 A 
ATOM     12  H3  UNL     1      -4.208   2.917  12.257  1.00  0.00     0.166 HD
HETATM   13  C18 UNL     1      -1.285   4.381  12.252  1.00  0.00     0.023 A 
HETATM   14  C17 UNL     1      -1.244   4.738  13.631  1.00  0.00     0.018 A 
HETATM   15  C16 UNL     1      -2.312   4.394  14.425  1.00  0.00     0.031 A 
BRANCH  11  16
HETATM   16  C6  UNL     1      -2.553   3.429  10.357  1.00  0.00     0.246 C 
BRANCH  16  17
HETATM   17  N2  UNL     1      -2.993   4.216   9.447  1.00  0.00    -0.344 NA
BRANCH  17  18
HETATM   18  C5  UNL     1      -3.405   4.955   8.596  1.00  0.00     0.261 A 
HETATM   19  N1  UNL     1      -2.852   4.944   7.343  1.00  0.00    -0.326 N 
HETATM   20  C4  UNL     1      -3.310   5.787   6.417  1.00  0.00     0.094 A 
ATOM     21  H1  UNL     1      -2.095   4.297   7.121  1.00  0.00     0.169 HD
HETATM   22  C3  UNL     1      -4.332   6.669   6.696  1.00  0.00     0.041 A 
HETATM   23  C2  UNL     1      -4.895   6.688   7.953  1.00  0.00     0.010 A 
HETATM   24  C1  UNL     1      -6.001   7.653   8.221  1.00  0.00     0.068 C 
HETATM   25  N6  UNL     1      -4.436   5.848   8.872  1.00  0.00    -0.320 N 
ATOM     26  H6  UNL     1      -4.849   5.857   9.805  1.00  0.00     0.169 HD
ENDBRANCH  17  18
ENDBRANCH  16  17
BRANCH  16  27
HETATM   27  O1  UNL     1      -2.225   2.212  10.012  1.00  0.00    -0.334 OA
ATOM     28  H1  UNL     1      -1.481   2.096   9.433  1.00  0.00     0.220 HD
ENDBRANCH  16  27
ENDBRANCH  11  16
BRANCH  13  29
HETATM   29  C19 UNL     1      -0.029   4.549  11.563  1.00  0.00     0.044 A 
HETATM   30  C20 UNL     1       0.454   5.423  10.631  1.00  0.00     0.032 A 
HETATM   31  C21 UNL     1       1.689   4.984  10.196  1.00  0.00     0.019 A 
HETATM   32  C22 UNL     1       1.968   3.821  10.870  1.00  0.00     0.088 A 
HETATM   33  N5  UNL     1       0.944   3.582  11.668  1.00  0.00    -0.365 N 
ATOM     34  H5  UNL     1       0.882   2.776  12.290  1.00  0.00     0.165 HD
ENDBRANCH  13  29
ENDBRANCH   1   9
TORSDOF 6
ENDMDL
