MODEL 1
REMARK VINA RESULT: -8.461124205      0.000      0.000
REMARK  5 active torsions:
REMARK  status: ('A' for Active; 'I' for Inactive)
REMARK    1  A    between atoms: O1_2  and  C2_3 
REMARK    2  A    between atoms: C5_6  and  C6_7 
REMARK    3  A    between atoms: C8_10  and  N1_11 
REMARK       I    between atoms: N1_11  and  C9_13 
REMARK       I    between atoms: C9_13  and  N2_15 
REMARK    4  A    between atoms: N2_15  and  C10_17 
REMARK    5  A    between atoms: N4_22  and  C13_23 
ROOT
HETATM    1  N1  UNL     1      -2.250   5.476  14.201  1.00  0.00    -0.288 N 
ATOM      2  H1  UNL     1      -2.219   5.822  15.160  1.00  0.00     0.172 HD
HETATM    3  C9  UNL     1      -1.892   4.148  13.929  1.00  0.00     0.340 C 
HETATM    4  O2  UNL     1      -0.887   3.948  13.195  1.00  0.00    -0.246 OA
HETATM    5  N2  UNL     1      -2.635   3.059  14.460  1.00  0.00    -0.140 N 
ATOM      6  H2  UNL     1      -2.850   3.042  15.457  1.00  0.00     0.189 HD
ENDROOT
BRANCH   1   7
HETATM    7  C8  UNL     1      -2.626   6.278  13.229  1.00  0.00     0.152 A 
HETATM    8  S1  UNL     1      -1.830   7.639  12.597  1.00  0.00    -0.063 SA
HETATM    9  C7  UNL     1      -2.979   8.066  11.406  1.00  0.00     0.083 A 
HETATM   10  C6  UNL     1      -3.943   7.096  11.575  1.00  0.00     0.051 A 
HETATM   11  N5  UNL     1      -3.737   6.207  12.504  1.00  0.00    -0.335 N 
ATOM     12  H5  UNL     1      -4.419   5.467  12.672  1.00  0.00     0.168 HD
BRANCH  10  13
HETATM   13  C5  UNL     1      -5.146   7.119  10.700  1.00  0.00    -0.009 A 
HETATM   14  C4  UNL     1      -6.345   7.519  11.213  1.00  0.00     0.016 A 
HETATM   15  C3  UNL     1      -7.484   7.549  10.416  1.00  0.00     0.037 A 
HETATM   16  C2  UNL     1      -7.443   7.182   9.097  1.00  0.00     0.068 A 
HETATM   17  C20 UNL     1      -6.239   6.776   8.569  1.00  0.00     0.037 A 
HETATM   18  C19 UNL     1      -5.101   6.751   9.383  1.00  0.00     0.016 A 
BRANCH  16  19
HETATM   19  O1  UNL     1      -8.605   7.221   8.315  1.00  0.00    -0.356 OA
HETATM   20  C1  UNL     1      -9.129   8.445   7.840  1.00  0.00     0.210 C 
ENDBRANCH  16  19
ENDBRANCH  10  13
ENDBRANCH   1   7
BRANCH   5  21
HETATM   21  C10 UNL     1      -3.047   2.078  13.701  1.00  0.00     0.693 A 
HETATM   22  N3  UNL     1      -2.513   1.686  12.533  1.00  0.00    -0.200 N 
HETATM   23  C11 UNL     1      -3.257   0.643  12.104  1.00  0.00     0.124 A 
ATOM     24  H3  UNL     1      -1.706   2.094  12.063  1.00  0.00     0.183 HD
HETATM   25  C12 UNL     1      -4.246   0.418  13.036  1.00  0.00     0.133 A 
HETATM   26  N4  UNL     1      -4.113   1.314  14.031  1.00  0.00    -0.157 N 
BRANCH  26  27
HETATM   27  C13 UNL     1      -4.918   1.451  15.203  1.00  0.00     0.056 A 
HETATM   28  C14 UNL     1      -4.843   0.483  16.182  1.00  0.00     0.030 A 
HETATM   29  C15 UNL     1      -5.610   0.580  17.337  1.00  0.00     0.002 A 
HETATM   30  C16 UNL     1      -6.462   1.637  17.542  1.00  0.00     0.000 A 
HETATM   31  C17 UNL     1      -6.544   2.610  16.569  1.00  0.00     0.002 A 
HETATM   32  C18 UNL     1      -5.774   2.513  15.410  1.00  0.00     0.030 A 
ENDBRANCH  26  27
ENDBRANCH   5  21
TORSDOF 5
ENDMDL
MODEL 2
REMARK VINA RESULT: -8.402139145      0.069      1.261
REMARK  5 active torsions:
REMARK  status: ('A' for Active; 'I' for Inactive)
REMARK    1  A    between atoms: O1_2  and  C2_3 
REMARK    2  A    between atoms: C5_6  and  C6_7 
REMARK    3  A    between atoms: C8_10  and  N1_11 
REMARK       I    between atoms: N1_11  and  C9_13 
REMARK       I    between atoms: C9_13  and  N2_15 
REMARK    4  A    between atoms: N2_15  and  C10_17 
REMARK    5  A    between atoms: N4_22  and  C13_23 
ROOT
HETATM    1  N1  UNL     1      -2.199   5.422  14.180  1.00  0.00    -0.288 N 
ATOM      2  H1  UNL     1      -2.149   5.764  15.139  1.00  0.00     0.172 HD
HETATM    3  C9  UNL     1      -1.860   4.092  13.897  1.00  0.00     0.340 C 
HETATM    4  O2  UNL     1      -0.868   3.884  13.146  1.00  0.00    -0.246 OA
HETATM    5  N2  UNL     1      -2.607   3.009  14.435  1.00  0.00    -0.140 N 
ATOM      6  H2  UNL     1      -2.807   2.990  15.434  1.00  0.00     0.189 HD
ENDROOT
BRANCH   1   7
HETATM    7  C8  UNL     1      -2.580   6.233  13.217  1.00  0.00     0.152 A 
HETATM    8  S1  UNL     1      -1.777   7.585  12.575  1.00  0.00    -0.063 SA
HETATM    9  C7  UNL     1      -2.940   8.032  11.406  1.00  0.00     0.083 A 
HETATM   10  C6  UNL     1      -3.914   7.074  11.588  1.00  0.00     0.051 A 
HETATM   11  N5  UNL     1      -3.704   6.179  12.510  1.00  0.00    -0.335 N 
ATOM     12  H5  UNL     1      -4.393   5.448  12.688  1.00  0.00     0.168 HD
BRANCH  10  13
HETATM   13  C5  UNL     1      -5.132   7.116  10.734  1.00  0.00    -0.009 A 
HETATM   14  C4  UNL     1      -5.048   6.756   9.422  1.00  0.00     0.016 A 
HETATM   15  C3  UNL     1      -6.172   6.787   8.603  1.00  0.00     0.037 A 
HETATM   16  C2  UNL     1      -7.395   7.177   9.083  1.00  0.00     0.068 A 
HETATM   17  C20 UNL     1      -7.490   7.544  10.406  1.00  0.00     0.037 A 
HETATM   18  C19 UNL     1      -6.351   7.507  11.218  1.00  0.00     0.016 A 
BRANCH  16  19
HETATM   19  O1  UNL     1      -8.511   7.200   8.238  1.00  0.00    -0.356 OA
HETATM   20  C1  UNL     1      -9.112   8.419   7.849  1.00  0.00     0.210 C 
ENDBRANCH  16  19
ENDBRANCH  10  13
ENDBRANCH   1   7
BRANCH   5  21
HETATM   21  C10 UNL     1      -3.042   2.037  13.678  1.00  0.00     0.693 A 
HETATM   22  N3  UNL     1      -2.538   1.650  12.495  1.00  0.00    -0.200 N 
HETATM   23  C11 UNL     1      -3.297   0.614  12.076  1.00  0.00     0.124 A 
ATOM     24  H3  UNL     1      -1.739   2.057  12.010  1.00  0.00     0.183 HD
HETATM   25  C12 UNL     1      -4.265   0.387  13.029  1.00  0.00     0.133 A 
HETATM   26  N4  UNL     1      -4.104   1.275  14.027  1.00  0.00    -0.157 N 
BRANCH  26  27
HETATM   27  C13 UNL     1      -4.881   1.407  15.219  1.00  0.00     0.056 A 
HETATM   28  C14 UNL     1      -5.730   2.486  15.347  1.00  0.00     0.030 A 
HETATM   29  C15 UNL     1      -6.502   2.651  16.490  1.00  0.00     0.002 A 
HETATM   30  C16 UNL     1      -6.448   1.750  17.524  1.00  0.00     0.000 A 
HETATM   31  C17 UNL     1      -5.603   0.667  17.407  1.00  0.00     0.002 A 
HETATM   32  C18 UNL     1      -4.827   0.502  16.259  1.00  0.00     0.030 A 
ENDBRANCH  26  27
ENDBRANCH   5  21
TORSDOF 5
ENDMDL
MODEL 3
REMARK VINA RESULT: -8.296868045      4.002      6.791
REMARK  5 active torsions:
REMARK  status: ('A' for Active; 'I' for Inactive)
REMARK    1  A    between atoms: O1_2  and  C2_3 
REMARK    2  A    between atoms: C5_6  and  C6_7 
REMARK    3  A    between atoms: C8_10  and  N1_11 
REMARK       I    between atoms: N1_11  and  C9_13 
REMARK       I    between atoms: C9_13  and  N2_15 
REMARK    4  A    between atoms: N2_15  and  C10_17 
REMARK    5  A    between atoms: N4_22  and  C13_23 
ROOT
HETATM    1  N1  UNL     1       0.557   4.634  12.619  1.00  0.00    -0.288 N 
ATOM      2  H1  UNL     1       1.311   4.132  13.087  1.00  0.00     0.172 HD
HETATM    3  C9  UNL     1       0.775   5.192  11.352  1.00  0.00     0.340 C 
HETATM    4  O2  UNL     1       0.697   6.446  11.239  1.00  0.00    -0.246 OA
HETATM    5  N2  UNL     1       1.074   4.377  10.227  1.00  0.00    -0.140 N 
ATOM      6  H2  UNL     1       1.811   3.675  10.302  1.00  0.00     0.189 HD
ENDROOT
BRANCH   1   7
HETATM    7  C8  UNL     1      -0.612   4.755  13.208  1.00  0.00     0.152 A 
HETATM    8  S1  UNL     1      -1.500   6.163  13.549  1.00  0.00    -0.063 SA
HETATM    9  C7  UNL     1      -2.848   5.430  14.300  1.00  0.00     0.083 A 
HETATM   10  C6  UNL     1      -2.520   4.093  14.240  1.00  0.00     0.051 A 
HETATM   11  N5  UNL     1      -1.384   3.783  13.684  1.00  0.00    -0.335 N 
ATOM     12  H5  UNL     1      -1.091   2.808  13.614  1.00  0.00     0.168 HD
BRANCH  10  13
HETATM   13  C5  UNL     1      -3.466   3.094  14.806  1.00  0.00    -0.009 A 
HETATM   14  C4  UNL     1      -4.793   3.396  14.894  1.00  0.00     0.016 A 
HETATM   15  C3  UNL     1      -5.698   2.481  15.419  1.00  0.00     0.037 A 
HETATM   16  C2  UNL     1      -5.291   1.250  15.864  1.00  0.00     0.068 A 
HETATM   17  C20 UNL     1      -3.954   0.935  15.782  1.00  0.00     0.037 A 
HETATM   18  C19 UNL     1      -3.056   1.866  15.250  1.00  0.00     0.016 A 
BRANCH  16  19
HETATM   19  O1  UNL     1      -6.222   0.345  16.390  1.00  0.00    -0.356 OA
HETATM   20  C1  UNL     1      -7.443   0.789  16.947  1.00  0.00     0.210 C 
ENDBRANCH  16  19
ENDBRANCH  10  13
ENDBRANCH   1   7
BRANCH   5  21
HETATM   21  C10 UNL     1       0.428   4.505   9.099  1.00  0.00     0.693 A 
HETATM   22  N3  UNL     1       0.776   5.274   8.055  1.00  0.00    -0.200 N 
HETATM   23  C11 UNL     1      -0.176   5.096   7.114  1.00  0.00     0.124 A 
ATOM     24  H3  UNL     1       1.597   5.875   7.986  1.00  0.00     0.183 HD
HETATM   25  C12 UNL     1      -1.100   4.205   7.612  1.00  0.00     0.133 A 
HETATM   26  N4  UNL     1      -0.721   3.838   8.849  1.00  0.00    -0.157 N 
BRANCH  26  27
HETATM   27  C13 UNL     1      -1.380   2.933   9.738  1.00  0.00     0.056 A 
HETATM   28  C14 UNL     1      -2.597   3.293  10.277  1.00  0.00     0.030 A 
HETATM   29  C15 UNL     1      -3.270   2.442  11.145  1.00  0.00     0.002 A 
HETATM   30  C16 UNL     1      -2.749   1.219  11.491  1.00  0.00     0.000 A 
HETATM   31  C17 UNL     1      -1.534   0.849  10.957  1.00  0.00     0.002 A 
HETATM   32  C18 UNL     1      -0.859   1.704  10.086  1.00  0.00     0.030 A 
ENDBRANCH  26  27
ENDBRANCH   5  21
TORSDOF 5
ENDMDL
MODEL 4
REMARK VINA RESULT: -8.189630295      0.828      1.046
REMARK  5 active torsions:
REMARK  status: ('A' for Active; 'I' for Inactive)
REMARK    1  A    between atoms: O1_2  and  C2_3 
REMARK    2  A    between atoms: C5_6  and  C6_7 
REMARK    3  A    between atoms: C8_10  and  N1_11 
REMARK       I    between atoms: N1_11  and  C9_13 
REMARK       I    between atoms: C9_13  and  N2_15 
REMARK    4  A    between atoms: N2_15  and  C10_17 
REMARK    5  A    between atoms: N4_22  and  C13_23 
ROOT
HETATM    1  N1  UNL     1      -1.849   5.510  14.163  1.00  0.00    -0.288 N 
ATOM      2  H1  UNL     1      -1.818   5.866  15.118  1.00  0.00     0.172 HD
HETATM    3  C9  UNL     1      -1.608   4.151  13.920  1.00  0.00     0.340 C 
HETATM    4  O2  UNL     1      -0.600   3.847  13.224  1.00  0.00    -0.246 OA
HETATM    5  N2  UNL     1      -2.467   3.143  14.436  1.00  0.00    -0.140 N 
ATOM      6  H2  UNL     1      -2.717   3.162  15.425  1.00  0.00     0.189 HD
ENDROOT
BRANCH   1   7
HETATM    7  C8  UNL     1      -2.114   6.329  13.169  1.00  0.00     0.152 A 
HETATM    8  S1  UNL     1      -1.060   7.350  12.312  1.00  0.00    -0.063 SA
HETATM    9  C7  UNL     1      -2.197   8.030  11.233  1.00  0.00     0.083 A 
HETATM   10  C6  UNL     1      -3.364   7.405  11.613  1.00  0.00     0.051 A 
HETATM   11  N5  UNL     1      -3.291   6.551  12.594  1.00  0.00    -0.335 N 
ATOM     12  H5  UNL     1      -4.126   6.061  12.916  1.00  0.00     0.168 HD
BRANCH  10  13
HETATM   13  C5  UNL     1      -4.623   7.736  10.893  1.00  0.00    -0.009 A 
HETATM   14  C4  UNL     1      -4.612   8.685   9.915  1.00  0.00     0.016 A 
HETATM   15  C3  UNL     1      -5.775   9.012   9.227  1.00  0.00     0.037 A 
HETATM   16  C2  UNL     1      -6.967   8.396   9.506  1.00  0.00     0.068 A 
HETATM   17  C20 UNL     1      -6.991   7.436  10.492  1.00  0.00     0.037 A 
HETATM   18  C19 UNL     1      -5.812   7.118  11.175  1.00  0.00     0.016 A 
BRANCH  16  19
HETATM   19  O1  UNL     1      -8.125   8.744   8.799  1.00  0.00    -0.356 OA
HETATM   20  C1  UNL     1      -8.978   7.755   8.258  1.00  0.00     0.210 C 
ENDBRANCH  16  19
ENDBRANCH  10  13
ENDBRANCH   1   7
BRANCH   5  21
HETATM   21  C10 UNL     1      -2.943   2.195  13.675  1.00  0.00     0.693 A 
HETATM   22  N3  UNL     1      -2.436   1.771  12.506  1.00  0.00    -0.200 N 
HETATM   23  C11 UNL     1      -3.247   0.781  12.074  1.00  0.00     0.124 A 
ATOM     24  H3  UNL     1      -1.603   2.126  12.037  1.00  0.00     0.183 HD
HETATM   25  C12 UNL     1      -4.248   0.619  13.005  1.00  0.00     0.133 A 
HETATM   26  N4  UNL     1      -4.056   1.501  14.003  1.00  0.00    -0.157 N 
BRANCH  26  27
HETATM   27  C13 UNL     1      -4.851   1.688  15.176  1.00  0.00     0.056 A 
HETATM   28  C14 UNL     1      -4.690   0.823  16.237  1.00  0.00     0.030 A 
HETATM   29  C15 UNL     1      -5.443   0.970  17.395  1.00  0.00     0.002 A 
HETATM   30  C16 UNL     1      -6.367   1.978  17.521  1.00  0.00     0.000 A 
HETATM   31  C17 UNL     1      -6.536   2.849  16.467  1.00  0.00     0.002 A 
HETATM   32  C18 UNL     1      -5.780   2.700  15.304  1.00  0.00     0.030 A 
ENDBRANCH  26  27
ENDBRANCH   5  21
TORSDOF 5
ENDMDL
MODEL 5
REMARK VINA RESULT: -8.156704573      3.797      6.304
REMARK  5 active torsions:
REMARK  status: ('A' for Active; 'I' for Inactive)
REMARK    1  A    between atoms: O1_2  and  C2_3 
REMARK    2  A    between atoms: C5_6  and  C6_7 
REMARK    3  A    between atoms: C8_10  and  N1_11 
REMARK       I    between atoms: N1_11  and  C9_13 
REMARK       I    between atoms: C9_13  and  N2_15 
REMARK    4  A    between atoms: N2_15  and  C10_17 
REMARK    5  A    between atoms: N4_22  and  C13_23 
ROOT
HETATM    1  N1  UNL     1       0.392   4.589  12.803  1.00  0.00    -0.288 N 
ATOM      2  H1  UNL     1       0.940   4.085  13.501  1.00  0.00     0.172 HD
HETATM    3  C9  UNL     1       0.940   4.836  11.536  1.00  0.00     0.340 C 
HETATM    4  O2  UNL     1       1.122   6.037  11.198  1.00  0.00    -0.246 OA
HETATM    5  N2  UNL     1       1.279   3.772  10.657  1.00  0.00    -0.140 N 
ATOM      6  H2  UNL     1       1.843   2.998  11.007  1.00  0.00     0.189 HD
ENDROOT
BRANCH   1   7
HETATM    7  C8  UNL     1      -0.820   5.003  13.098  1.00  0.00     0.152 A 
HETATM    8  S1  UNL     1      -1.548   6.503  12.774  1.00  0.00    -0.063 SA
HETATM    9  C7  UNL     1      -3.075   6.194  13.477  1.00  0.00     0.083 A 
HETATM   10  C6  UNL     1      -2.925   4.904  13.936  1.00  0.00     0.051 A 
HETATM   11  N5  UNL     1      -1.775   4.329  13.731  1.00  0.00    -0.335 N 
ATOM     12  H5  UNL     1      -1.610   3.374  14.051  1.00  0.00     0.168 HD
BRANCH  10  13
HETATM   13  C5  UNL     1      -4.067   4.252  14.631  1.00  0.00    -0.009 A 
HETATM   14  C4  UNL     1      -3.942   2.969  15.075  1.00  0.00     0.016 A 
HETATM   15  C3  UNL     1      -4.995   2.337  15.728  1.00  0.00     0.037 A 
HETATM   16  C2  UNL     1      -6.187   2.976  15.946  1.00  0.00     0.068 A 
HETATM   17  C20 UNL     1      -6.324   4.272  15.501  1.00  0.00     0.037 A 
HETATM   18  C19 UNL     1      -5.256   4.894  14.847  1.00  0.00     0.016 A 
BRANCH  16  19
HETATM   19  O1  UNL     1      -7.233   2.318  16.606  1.00  0.00    -0.356 OA
HETATM   20  C1  UNL     1      -7.140   0.948  16.943  1.00  0.00     0.210 C 
ENDBRANCH  16  19
ENDBRANCH  10  13
ENDBRANCH   1   7
BRANCH   5  21
HETATM   21  C10 UNL     1       0.885   3.762   9.412  1.00  0.00     0.693 A 
HETATM   22  N3  UNL     1       1.546   4.263   8.355  1.00  0.00    -0.200 N 
HETATM   23  C11 UNL     1       0.769   4.031   7.274  1.00  0.00     0.124 A 
ATOM     24  H3  UNL     1       2.453   4.728   8.367  1.00  0.00     0.183 HD
HETATM   25  C12 UNL     1      -0.367   3.382   7.702  1.00  0.00     0.133 A 
HETATM   26  N4  UNL     1      -0.292   3.214   9.035  1.00  0.00    -0.157 N 
BRANCH  26  27
HETATM   27  C13 UNL     1      -1.247   2.592   9.897  1.00  0.00     0.056 A 
HETATM   28  C14 UNL     1      -1.006   1.311  10.347  1.00  0.00     0.030 A 
HETATM   29  C15 UNL     1      -1.909   0.671  11.186  1.00  0.00     0.002 A 
HETATM   30  C16 UNL     1      -3.065   1.290  11.595  1.00  0.00     0.000 A 
HETATM   31  C17 UNL     1      -3.316   2.570  11.152  1.00  0.00     0.002 A 
HETATM   32  C18 UNL     1      -2.409   3.212  10.308  1.00  0.00     0.030 A 
ENDBRANCH  26  27
ENDBRANCH   5  21
TORSDOF 5
ENDMDL
