MODEL 1
REMARK VINA RESULT: -8.392364634      0.000      0.000
REMARK  4 active torsions:
REMARK  status: ('A' for Active; 'I' for Inactive)
REMARK    1  A    between atoms: C5_5  and  N1_6 
REMARK       I    between atoms: N1_6  and  C6_8 
REMARK    2  A    between atoms: C6_8  and  C7_10 
REMARK    3  A    between atoms: C10_13  and  N2_14 
REMARK    4  A    between atoms: C12_19  and  C13_20 
ROOT
HETATM    1  C7  UNL     1      -2.887   1.879  11.962  1.00  0.00     0.032 A 
HETATM    2  C8  UNL     1      -2.174   0.931  11.266  1.00  0.00     0.019 A 
HETATM    3  C9  UNL     1      -0.909   1.248  10.817  1.00  0.00     0.031 A 
HETATM    4  C10 UNL     1      -0.351   2.503  11.056  1.00  0.00     0.049 A 
HETATM    5  C20 UNL     1      -1.109   3.436  11.765  1.00  0.00     0.031 A 
HETATM    6  C21 UNL     1      -2.370   3.143  12.222  1.00  0.00     0.019 A 
ENDROOT
BRANCH   4   7
HETATM    7  N2  UNL     1       0.952   2.816  10.592  1.00  0.00    -0.192 N 
HETATM    8  C11 UNL     1       1.087   3.111   9.339  1.00  0.00     0.683 A 
HETATM    9  N3  UNL     1       2.369   3.404   8.957  1.00  0.00    -0.191 N 
HETATM   10  N5  UNL     1       0.083   3.145   8.453  1.00  0.00    -0.202 N 
HETATM   11  C12 UNL     1       2.677   3.736   7.691  1.00  0.00     0.062 A 
ATOM     12  H3  UNL     1       3.113   3.368   9.655  1.00  0.00     0.184 HD
HETATM   13  C18 UNL     1       1.633   3.765   6.797  1.00  0.00     0.048 A 
HETATM   14  C19 UNL     1       0.331   3.471   7.174  1.00  0.00     0.108 A 
ATOM     15  H5  UNL     1      -0.867   2.924   8.749  1.00  0.00     0.183 HD
ATOM     16  H2  UNL     1       1.754   2.809  11.222  1.00  0.00     0.184 HD
BRANCH  11  17
HETATM   17  C13 UNL     1       4.065   4.029   7.342  1.00  0.00     0.007 A 
HETATM   18  C14 UNL     1       5.074   3.098   7.572  1.00  0.00     0.016 A 
HETATM   19  C15 UNL     1       6.388   3.364   7.248  1.00  0.00     0.018 A 
HETATM   20  C16 UNL     1       6.731   4.569   6.684  1.00  0.00     0.087 A 
HETATM   21  N4  UNL     1       5.754   5.462   6.464  1.00  0.00    -0.374 N 
HETATM   22  C17 UNL     1       4.448   5.218   6.778  1.00  0.00     0.101 A 
ATOM     23  H4  UNL     1       5.997   6.360   6.045  1.00  0.00     0.164 HD
ENDBRANCH  11  17
ENDBRANCH   4   7
BRANCH   1  24
HETATM   24  C6  UNL     1      -4.202   1.554  12.489  1.00  0.00     0.257 C 
HETATM   25  N1  UNL     1      -4.964   2.538  13.119  1.00  0.00    -0.309 N 
ATOM     26  H1  UNL     1      -5.279   3.346  12.582  1.00  0.00     0.170 HD
HETATM   27  O1  UNL     1      -4.645   0.402  12.371  1.00  0.00    -0.267 OA
BRANCH  25  28
HETATM   28  C5  UNL     1      -5.286   2.447  14.391  1.00  0.00     0.107 A 
HETATM   29  C4  UNL     1      -6.181   3.296  14.972  1.00  0.00     0.049 A 
HETATM   30  C3  UNL     1      -6.499   3.212  16.322  1.00  0.00     0.012 A 
HETATM   31  C2  UNL     1      -5.891   2.249  17.081  1.00  0.00    -0.046 A 
HETATM   32  C1  UNL     1      -6.195   2.122  18.528  1.00  0.00     0.049 C 
HETATM   33  C22 UNL     1      -4.993   1.410  16.459  1.00  0.00     0.096 A 
HETATM   34  N6  UNL     1      -4.697   1.504  15.152  1.00  0.00    -0.352 N 
ATOM     35  H6  UNL     1      -4.025   0.860  14.735  1.00  0.00     0.166 HD
ENDBRANCH  25  28
ENDBRANCH   1  24
TORSDOF 4
ENDMDL
MODEL 2
REMARK VINA RESULT: -8.244371106      1.395      1.912
REMARK  4 active torsions:
REMARK  status: ('A' for Active; 'I' for Inactive)
REMARK    1  A    between atoms: C5_5  and  N1_6 
REMARK       I    between atoms: N1_6  and  C6_8 
REMARK    2  A    between atoms: C6_8  and  C7_10 
REMARK    3  A    between atoms: C10_13  and  N2_14 
REMARK    4  A    between atoms: C12_19  and  C13_20 
ROOT
HETATM    1  C7  UNL     1      -3.373   2.150  11.333  1.00  0.00     0.032 A 
HETATM    2  C8  UNL     1      -3.146   3.283  10.588  1.00  0.00     0.019 A 
HETATM    3  C9  UNL     1      -1.922   3.437   9.972  1.00  0.00     0.031 A 
HETATM    4  C10 UNL     1      -0.925   2.472  10.093  1.00  0.00     0.049 A 
HETATM    5  C20 UNL     1      -1.196   1.338  10.860  1.00  0.00     0.031 A 
HETATM    6  C21 UNL     1      -2.407   1.161  11.482  1.00  0.00     0.019 A 
ENDROOT
BRANCH   4   7
HETATM    7  N2  UNL     1       0.329   2.641   9.452  1.00  0.00    -0.192 N 
HETATM    8  C11 UNL     1       1.190   3.427  10.016  1.00  0.00     0.683 A 
HETATM    9  N3  UNL     1       2.378   3.544   9.345  1.00  0.00    -0.191 N 
HETATM   10  N5  UNL     1       0.981   4.086  11.162  1.00  0.00    -0.202 N 
HETATM   11  C12 UNL     1       3.379   4.318   9.801  1.00  0.00     0.062 A 
ATOM     12  H3  UNL     1       2.507   3.030   8.474  1.00  0.00     0.184 HD
HETATM   13  C18 UNL     1       3.146   4.986  10.980  1.00  0.00     0.048 A 
HETATM   14  C19 UNL     1       1.945   4.873  11.667  1.00  0.00     0.108 A 
ATOM     15  H5  UNL     1       0.091   3.991  11.651  1.00  0.00     0.183 HD
ATOM     16  H2  UNL     1       0.545   2.162   8.578  1.00  0.00     0.184 HD
BRANCH  11  17
HETATM   17  C13 UNL     1       4.621   4.411   9.037  1.00  0.00     0.007 A 
HETATM   18  C14 UNL     1       5.086   3.332   8.292  1.00  0.00     0.016 A 
HETATM   19  C15 UNL     1       6.258   3.408   7.567  1.00  0.00     0.018 A 
HETATM   20  C16 UNL     1       6.998   4.566   7.569  1.00  0.00     0.087 A 
HETATM   21  N4  UNL     1       6.544   5.603   8.290  1.00  0.00    -0.374 N 
HETATM   22  C17 UNL     1       5.388   5.547   9.013  1.00  0.00     0.101 A 
ATOM     23  H4  UNL     1       7.086   6.467   8.298  1.00  0.00     0.164 HD
ENDBRANCH  11  17
ENDBRANCH   4   7
BRANCH   1  24
HETATM   24  C6  UNL     1      -4.672   1.938  11.953  1.00  0.00     0.257 C 
HETATM   25  N1  UNL     1      -5.220   2.920  12.778  1.00  0.00    -0.309 N 
ATOM     26  H1  UNL     1      -5.456   3.830  12.382  1.00  0.00     0.170 HD
HETATM   27  O1  UNL     1      -5.290   0.885  11.740  1.00  0.00    -0.267 OA
BRANCH  25  28
HETATM   28  C5  UNL     1      -5.439   2.699  14.056  1.00  0.00     0.107 A 
HETATM   29  C4  UNL     1      -6.207   3.535  14.811  1.00  0.00     0.049 A 
HETATM   30  C3  UNL     1      -6.415   3.311  16.167  1.00  0.00     0.012 A 
HETATM   31  C2  UNL     1      -5.829   2.221  16.750  1.00  0.00    -0.046 A 
HETATM   32  C1  UNL     1      -6.020   1.941  18.195  1.00  0.00     0.049 C 
HETATM   33  C22 UNL     1      -5.061   1.399  15.954  1.00  0.00     0.096 A 
HETATM   34  N6  UNL     1      -4.870   1.630  14.644  1.00  0.00    -0.352 N 
ATOM     35  H6  UNL     1      -4.293   0.993  14.095  1.00  0.00     0.166 HD
ENDBRANCH  25  28
ENDBRANCH   1  24
TORSDOF 4
ENDMDL
MODEL 3
REMARK VINA RESULT: -8.078192554      1.478      1.942
REMARK  4 active torsions:
REMARK  status: ('A' for Active; 'I' for Inactive)
REMARK    1  A    between atoms: C5_5  and  N1_6 
REMARK       I    between atoms: N1_6  and  C6_8 
REMARK    2  A    between atoms: C6_8  and  C7_10 
REMARK    3  A    between atoms: C10_13  and  N2_14 
REMARK    4  A    between atoms: C12_19  and  C13_20 
ROOT
HETATM    1  C7  UNL     1      -3.480   2.643  11.176  1.00  0.00     0.032 A 
HETATM    2  C8  UNL     1      -2.607   1.588  11.305  1.00  0.00     0.019 A 
HETATM    3  C9  UNL     1      -1.412   1.628  10.618  1.00  0.00     0.031 A 
HETATM    4  C10 UNL     1      -1.082   2.711   9.805  1.00  0.00     0.049 A 
HETATM    5  C20 UNL     1      -1.996   3.760   9.702  1.00  0.00     0.031 A 
HETATM    6  C21 UNL     1      -3.192   3.743  10.376  1.00  0.00     0.019 A 
ENDROOT
BRANCH   4   7
HETATM    7  N2  UNL     1       0.153   2.742   9.107  1.00  0.00    -0.192 N 
HETATM    8  C11 UNL     1       1.135   3.381   9.656  1.00  0.00     0.683 A 
HETATM    9  N3  UNL     1       2.297   3.371   8.930  1.00  0.00    -0.191 N 
HETATM   10  N5  UNL     1       1.069   4.010  10.835  1.00  0.00    -0.202 N 
HETATM   11  C12 UNL     1       3.412   3.984   9.363  1.00  0.00     0.062 A 
ATOM     12  H3  UNL     1       2.316   2.884   8.034  1.00  0.00     0.184 HD
HETATM   13  C18 UNL     1       3.324   4.625  10.576  1.00  0.00     0.048 A 
HETATM   14  C19 UNL     1       2.153   4.640  11.319  1.00  0.00     0.108 A 
ATOM     15  H5  UNL     1       0.198   4.011  11.366  1.00  0.00     0.183 HD
ATOM     16  H2  UNL     1       0.262   2.277   8.206  1.00  0.00     0.184 HD
BRANCH  11  17
HETATM   17  C13 UNL     1       4.619   3.947   8.540  1.00  0.00     0.007 A 
HETATM   18  C14 UNL     1       4.804   2.954   7.584  1.00  0.00     0.016 A 
HETATM   19  C15 UNL     1       5.939   2.908   6.802  1.00  0.00     0.018 A 
HETATM   20  C16 UNL     1       6.924   3.855   6.955  1.00  0.00     0.087 A 
HETATM   21  N4  UNL     1       6.740   4.810   7.879  1.00  0.00    -0.374 N 
HETATM   22  C17 UNL     1       5.623   4.873   8.663  1.00  0.00     0.101 A 
ATOM     23  H4  UNL     1       7.463   5.518   8.002  1.00  0.00     0.164 HD
ENDBRANCH  11  17
ENDBRANCH   4   7
BRANCH   1  24
HETATM   24  C6  UNL     1      -4.725   2.649  11.927  1.00  0.00     0.257 C 
HETATM   25  N1  UNL     1      -4.874   3.495  13.026  1.00  0.00    -0.309 N 
ATOM     26  H1  UNL     1      -4.849   4.505  12.885  1.00  0.00     0.170 HD
HETATM   27  O1  UNL     1      -5.655   1.903  11.583  1.00  0.00    -0.267 OA
BRANCH  25  28
HETATM   28  C5  UNL     1      -5.046   3.020  14.240  1.00  0.00     0.107 A 
HETATM   29  C4  UNL     1      -4.078   2.302  14.878  1.00  0.00     0.049 A 
HETATM   30  C3  UNL     1      -4.275   1.780  16.150  1.00  0.00     0.012 A 
HETATM   31  C2  UNL     1      -5.475   1.996  16.772  1.00  0.00    -0.046 A 
HETATM   32  C1  UNL     1      -5.733   1.456  18.130  1.00  0.00     0.049 C 
HETATM   33  C22 UNL     1      -6.428   2.726  16.096  1.00  0.00     0.096 A 
HETATM   34  N6  UNL     1      -6.222   3.225  14.865  1.00  0.00    -0.352 N 
ATOM     35  H6  UNL     1      -6.957   3.759  14.403  1.00  0.00     0.166 HD
ENDBRANCH  25  28
ENDBRANCH   1  24
TORSDOF 4
ENDMDL
MODEL 4
REMARK VINA RESULT: -7.937469697      2.378     10.755
REMARK  4 active torsions:
REMARK  status: ('A' for Active; 'I' for Inactive)
REMARK    1  A    between atoms: C5_5  and  N1_6 
REMARK       I    between atoms: N1_6  and  C6_8 
REMARK    2  A    between atoms: C6_8  and  C7_10 
REMARK    3  A    between atoms: C10_13  and  N2_14 
REMARK    4  A    between atoms: C12_19  and  C13_20 
ROOT
HETATM    1  C7  UNL     1      -0.494   3.536   8.264  1.00  0.00     0.032 A 
HETATM    2  C8  UNL     1      -0.282   2.315   8.861  1.00  0.00     0.019 A 
HETATM    3  C9  UNL     1      -1.170   1.884   9.824  1.00  0.00     0.031 A 
HETATM    4  C10 UNL     1      -2.265   2.661  10.197  1.00  0.00     0.049 A 
HETATM    5  C20 UNL     1      -2.443   3.894   9.567  1.00  0.00     0.031 A 
HETATM    6  C21 UNL     1      -1.573   4.344   8.605  1.00  0.00     0.019 A 
ENDROOT
BRANCH   4   7
HETATM    7  N2  UNL     1      -3.173   2.205  11.187  1.00  0.00    -0.192 N 
HETATM    8  C11 UNL     1      -2.953   2.563  12.411  1.00  0.00     0.683 A 
HETATM    9  N3  UNL     1      -3.867   2.089  13.315  1.00  0.00    -0.191 N 
HETATM   10  N5  UNL     1      -1.934   3.335  12.807  1.00  0.00    -0.202 N 
HETATM   11  C12 UNL     1      -3.784   2.374  14.627  1.00  0.00     0.062 A 
ATOM     12  H3  UNL     1      -4.632   1.502  12.984  1.00  0.00     0.184 HD
HETATM   13  C18 UNL     1      -2.731   3.169  15.013  1.00  0.00     0.048 A 
HETATM   14  C19 UNL     1      -1.800   3.654  14.105  1.00  0.00     0.108 A 
ATOM     15  H5  UNL     1      -1.260   3.680  12.124  1.00  0.00     0.183 HD
ATOM     16  H2  UNL     1      -3.969   1.616  10.943  1.00  0.00     0.184 HD
BRANCH  11  17
HETATM   17  C13 UNL     1      -4.783   1.833  15.545  1.00  0.00     0.007 A 
HETATM   18  C14 UNL     1      -5.955   2.530  15.821  1.00  0.00     0.016 A 
HETATM   19  C15 UNL     1      -6.905   2.029  16.687  1.00  0.00     0.018 A 
HETATM   20  C16 UNL     1      -6.710   0.816  17.301  1.00  0.00     0.087 A 
HETATM   21  N4  UNL     1      -5.577   0.148  17.031  1.00  0.00    -0.374 N 
HETATM   22  C17 UNL     1      -4.625   0.627  16.177  1.00  0.00     0.101 A 
ATOM     23  H4  UNL     1      -5.422  -0.754  17.481  1.00  0.00     0.164 HD
ENDBRANCH  11  17
ENDBRANCH   4   7
BRANCH   1  24
HETATM   24  C6  UNL     1       0.398   3.993   7.211  1.00  0.00     0.257 C 
HETATM   25  N1  UNL     1       1.395   3.147   6.724  1.00  0.00    -0.309 N 
ATOM     26  H1  UNL     1       1.129   2.284   6.250  1.00  0.00     0.170 HD
HETATM   27  O1  UNL     1       0.265   5.134   6.744  1.00  0.00    -0.267 OA
BRANCH  25  28
HETATM   28  C5  UNL     1       2.670   3.438   6.864  1.00  0.00     0.107 A 
HETATM   29  C4  UNL     1       3.653   2.605   6.417  1.00  0.00     0.049 A 
HETATM   30  C3  UNL     1       4.999   2.905   6.589  1.00  0.00     0.012 A 
HETATM   31  C2  UNL     1       5.337   4.067   7.226  1.00  0.00    -0.046 A 
HETATM   32  C1  UNL     1       6.761   4.429   7.437  1.00  0.00     0.049 C 
HETATM   33  C22 UNL     1       4.316   4.883   7.663  1.00  0.00     0.096 A 
HETATM   34  N6  UNL     1       3.019   4.579   7.488  1.00  0.00    -0.352 N 
ATOM     35  H6  UNL     1       2.297   5.214   7.829  1.00  0.00     0.166 HD
ENDBRANCH  25  28
ENDBRANCH   1  24
TORSDOF 4
ENDMDL
MODEL 5
REMARK VINA RESULT: -7.870846623      7.392      8.594
REMARK  4 active torsions:
REMARK  status: ('A' for Active; 'I' for Inactive)
REMARK    1  A    between atoms: C5_5  and  N1_6 
REMARK       I    between atoms: N1_6  and  C6_8 
REMARK    2  A    between atoms: C6_8  and  C7_10 
REMARK    3  A    between atoms: C10_13  and  N2_14 
REMARK    4  A    between atoms: C12_19  and  C13_20 
ROOT
HETATM    1  C7  UNL     1      -2.313   5.606  13.958  1.00  0.00     0.032 A 
HETATM    2  C8  UNL     1      -1.059   5.973  13.528  1.00  0.00     0.019 A 
HETATM    3  C9  UNL     1      -0.620   7.255  13.780  1.00  0.00     0.031 A 
HETATM    4  C10 UNL     1      -1.420   8.173  14.457  1.00  0.00     0.049 A 
HETATM    5  C20 UNL     1      -2.686   7.761  14.875  1.00  0.00     0.031 A 
HETATM    6  C21 UNL     1      -3.145   6.490  14.636  1.00  0.00     0.019 A 
ENDROOT
BRANCH   4   7
HETATM    7  N2  UNL     1      -0.955   9.489  14.713  1.00  0.00    -0.192 N 
HETATM    8  C11 UNL     1      -1.336  10.427  13.906  1.00  0.00     0.683 A 
HETATM    9  N3  UNL     1      -0.852  11.672  14.211  1.00  0.00    -0.191 N 
HETATM   10  N5  UNL     1      -2.139  10.243  12.851  1.00  0.00    -0.202 N 
HETATM   11  C12 UNL     1      -1.158  12.754  13.475  1.00  0.00     0.062 A 
ATOM     12  H3  UNL     1      -0.242  11.780  15.021  1.00  0.00     0.184 HD
HETATM   13  C18 UNL     1      -1.984  12.545  12.396  1.00  0.00     0.048 A 
HETATM   14  C19 UNL     1      -2.479  11.288  12.079  1.00  0.00     0.108 A 
ATOM     15  H5  UNL     1      -2.492   9.311  12.634  1.00  0.00     0.183 HD
ATOM     16  H2  UNL     1      -0.344   9.689  15.504  1.00  0.00     0.184 HD
BRANCH  11  17
HETATM   17  C13 UNL     1      -0.604  14.055  13.844  1.00  0.00     0.007 A 
HETATM   18  C14 UNL     1      -0.800  15.172  13.038  1.00  0.00     0.016 A 
HETATM   19  C15 UNL     1      -0.281  16.404  13.376  1.00  0.00     0.018 A 
HETATM   20  C16 UNL     1       0.449  16.555  14.530  1.00  0.00     0.087 A 
HETATM   21  N4  UNL     1       0.634  15.474  15.304  1.00  0.00    -0.374 N 
HETATM   22  C17 UNL     1       0.129  14.246  14.987  1.00  0.00     0.101 A 
ATOM     23  H4  UNL     1       1.174  15.574  16.163  1.00  0.00     0.164 HD
ENDBRANCH  11  17
ENDBRANCH   4   7
BRANCH   1  24
HETATM   24  C6  UNL     1      -2.781   4.246  13.748  1.00  0.00     0.257 C 
HETATM   25  N1  UNL     1      -4.139   3.998  13.548  1.00  0.00    -0.309 N 
ATOM     26  H1  UNL     1      -4.600   4.380  12.722  1.00  0.00     0.170 HD
HETATM   27  O1  UNL     1      -1.969   3.309  13.743  1.00  0.00    -0.267 OA
BRANCH  25  28
HETATM   28  C5  UNL     1      -4.839   3.282  14.401  1.00  0.00     0.107 A 
HETATM   29  C4  UNL     1      -5.896   3.805  15.086  1.00  0.00     0.049 A 
HETATM   30  C3  UNL     1      -6.616   3.052  16.005  1.00  0.00     0.012 A 
HETATM   31  C2  UNL     1      -6.248   1.753  16.223  1.00  0.00    -0.046 A 
HETATM   32  C1  UNL     1      -6.985   0.909  17.196  1.00  0.00     0.049 C 
HETATM   33  C22 UNL     1      -5.176   1.259  15.511  1.00  0.00     0.096 A 
HETATM   34  N6  UNL     1      -4.490   2.001  14.625  1.00  0.00    -0.352 N 
ATOM     35  H6  UNL     1      -3.702   1.592  14.122  1.00  0.00     0.166 HD
ENDBRANCH  25  28
ENDBRANCH   1  24
TORSDOF 4
ENDMDL
