MODEL 1
REMARK VINA RESULT: -9.423597151      0.000      0.000
REMARK  5 active torsions:
REMARK  status: ('A' for Active; 'I' for Inactive)
REMARK    1  A    between atoms: C2_2  and  C3_3 
REMARK    2  A    between atoms: C2_2  and  O2_15 
REMARK    3  A    between atoms: C3_3  and  C4_4 
REMARK    4  A    between atoms: O2_15  and  C12_16 
REMARK       I    between atoms: C12_16  and  N3_18 
REMARK    5  A    between atoms: N3_18  and  C13_20 
ROOT
HETATM    1  O2  UNL     1      54.489  16.447 127.846  1.00  0.00    -0.299 OA
ENDROOT
BRANCH   1   2
HETATM    2  C2  UNL     1      53.510  15.452 128.046  1.00  0.00     0.131 C 
HETATM    3  C1  UNL     1      54.134  14.294 128.727  1.00  0.00     0.040 C 
BRANCH   2   4
HETATM    4  C3  UNL     1      52.262  16.010 128.533  1.00  0.00     0.070 C 
BRANCH   4   5
HETATM    5  C4  UNL     1      51.624  17.207 127.877  1.00  0.00     0.260 C 
HETATM    6  C5  UNL     1      51.435  17.015 126.454  1.00  0.00     0.282 C 
HETATM    7  C6  UNL     1      49.989  17.352 126.020  1.00  0.00     0.208 C 
HETATM    8  N1  UNL     1      52.190  17.709 125.505  1.00  0.00     0.120 N 
HETATM    9  O1  UNL     1      50.103  17.393 124.660  1.00  0.00    -0.360 OA
HETATM   10  C7  UNL     1      51.332  17.906 124.349  1.00  0.00     0.441 C 
HETATM   11  C8  UNL     1      52.790  18.937 125.834  1.00  0.00     0.277 C 
HETATM   12  C9  UNL     1      51.943  19.951 126.506  1.00  0.00     0.060 C 
HETATM   13  C10 UNL     1      51.896  19.636 127.945  1.00  0.00     0.274 C 
HETATM   14  N2  UNL     1      52.230  18.366 128.404  1.00  0.00     0.091 N 
HETATM   15  C11 UNL     1      51.965  18.353 129.859  1.00  0.00     0.310 C 
ENDBRANCH   4   5
ENDBRANCH   2   4
ENDBRANCH   1   2
BRANCH   1  16
HETATM   16  C12 UNL     1      55.550  16.673 128.717  1.00  0.00     0.361 C 
HETATM   17  O3  UNL     1      56.678  16.441 128.232  1.00  0.00    -0.238 OA
HETATM   18  N3  UNL     1      55.400  17.121 130.031  1.00  0.00    -0.328 N 
ATOM     19  H3  UNL     1      54.451  17.291 130.365  1.00  0.00     0.165 HD
BRANCH  18  20
HETATM   20  C13 UNL     1      56.483  17.364 130.954  1.00  0.00     0.036 C 
HETATM   21  C14 UNL     1      56.033  17.857 132.305  1.00  0.00     0.035 C 
HETATM   22  C15 UNL     1      57.238  18.035 133.184  1.00  0.00    -0.012 C 
HETATM   23  C16 UNL     1      58.129  19.119 132.640  1.00  0.00     0.009 C 
HETATM   24  C20 UNL     1      58.052  16.801 133.370  1.00  0.00     0.009 C 
HETATM   25  C17 UNL     1      58.566  18.664 131.263  1.00  0.00    -0.012 C 
HETATM   26  C18 UNL     1      59.383  17.379 131.396  1.00  0.00     0.009 C 
HETATM   27  C22 UNL     1      57.379  18.461 130.388  1.00  0.00     0.035 C 
HETATM   28  C19 UNL     1      58.509  16.328 132.006  1.00  0.00    -0.012 C 
HETATM   29  C21 UNL     1      57.276  16.095 131.159  1.00  0.00     0.035 C 
ENDBRANCH  18  20
ENDBRANCH   1  16
TORSDOF 5
ENDMDL
MODEL 2
REMARK VINA RESULT: -9.398272628      0.113      1.398
REMARK  5 active torsions:
REMARK  status: ('A' for Active; 'I' for Inactive)
REMARK    1  A    between atoms: C2_2  and  C3_3 
REMARK    2  A    between atoms: C2_2  and  O2_15 
REMARK    3  A    between atoms: C3_3  and  C4_4 
REMARK    4  A    between atoms: O2_15  and  C12_16 
REMARK       I    between atoms: C12_16  and  N3_18 
REMARK    5  A    between atoms: N3_18  and  C13_20 
ROOT
HETATM    1  O2  UNL     1      54.459  16.476 127.756  1.00  0.00    -0.299 OA
ENDROOT
BRANCH   1   2
HETATM    2  C2  UNL     1      53.491  15.480 127.996  1.00  0.00     0.131 C 
HETATM    3  C1  UNL     1      54.136  14.339 128.686  1.00  0.00     0.040 C 
BRANCH   2   4
HETATM    4  C3  UNL     1      52.250  16.040 128.497  1.00  0.00     0.070 C 
BRANCH   4   5
HETATM    5  C4  UNL     1      51.597  17.227 127.838  1.00  0.00     0.260 C 
HETATM    6  C5  UNL     1      51.408  17.027 126.416  1.00  0.00     0.282 C 
HETATM    7  C6  UNL     1      49.958  17.346 125.983  1.00  0.00     0.208 C 
HETATM    8  N1  UNL     1      52.153  17.726 125.463  1.00  0.00     0.120 N 
HETATM    9  O1  UNL     1      50.068  17.383 124.623  1.00  0.00    -0.360 OA
HETATM   10  C7  UNL     1      51.291  17.909 124.308  1.00  0.00     0.441 C 
HETATM   11  C8  UNL     1      52.740  18.962 125.786  1.00  0.00     0.277 C 
HETATM   12  C9  UNL     1      51.882  19.969 126.456  1.00  0.00     0.060 C 
HETATM   13  C10 UNL     1      51.842  19.660 127.896  1.00  0.00     0.274 C 
HETATM   14  N2  UNL     1      52.191  18.395 128.359  1.00  0.00     0.091 N 
HETATM   15  C11 UNL     1      51.929  18.385 129.815  1.00  0.00     0.310 C 
ENDBRANCH   4   5
ENDBRANCH   2   4
ENDBRANCH   1   2
BRANCH   1  16
HETATM   16  C12 UNL     1      55.534  16.728 128.602  1.00  0.00     0.361 C 
HETATM   17  O3  UNL     1      56.657  16.544 128.085  1.00  0.00    -0.238 OA
HETATM   18  N3  UNL     1      55.403  17.153 129.926  1.00  0.00    -0.328 N 
ATOM     19  H3  UNL     1      54.458  17.284 130.287  1.00  0.00     0.165 HD
BRANCH  18  20
HETATM   20  C13 UNL     1      56.502  17.422 130.824  1.00  0.00     0.036 C 
HETATM   21  C14 UNL     1      57.482  18.440 130.299  1.00  0.00     0.035 C 
HETATM   22  C15 UNL     1      58.551  18.663 131.329  1.00  0.00    -0.012 C 
HETATM   23  C16 UNL     1      59.352  17.406 131.535  1.00  0.00     0.009 C 
HETATM   24  C20 UNL     1      58.043  19.123 132.653  1.00  0.00     0.009 C 
HETATM   25  C17 UNL     1      58.380  16.353 132.028  1.00  0.00    -0.012 C 
HETATM   26  C18 UNL     1      57.806  16.794 133.374  1.00  0.00     0.009 C 
HETATM   27  C22 UNL     1      57.302  16.139 131.025  1.00  0.00     0.035 C 
HETATM   28  C19 UNL     1      57.073  18.083 133.173  1.00  0.00    -0.012 C 
HETATM   29  C21 UNL     1      55.972  17.921 132.147  1.00  0.00     0.035 C 
ENDBRANCH  18  20
ENDBRANCH   1  16
TORSDOF 5
ENDMDL
MODEL 3
REMARK VINA RESULT: -9.360166923      0.110      1.387
REMARK  5 active torsions:
REMARK  status: ('A' for Active; 'I' for Inactive)
REMARK    1  A    between atoms: C2_2  and  C3_3 
REMARK    2  A    between atoms: C2_2  and  O2_15 
REMARK    3  A    between atoms: C3_3  and  C4_4 
REMARK    4  A    between atoms: O2_15  and  C12_16 
REMARK       I    between atoms: C12_16  and  N3_18 
REMARK    5  A    between atoms: N3_18  and  C13_20 
ROOT
HETATM    1  O2  UNL     1      54.504  16.467 127.819  1.00  0.00    -0.299 OA
ENDROOT
BRANCH   1   2
HETATM    2  C2  UNL     1      53.507  15.488 128.007  1.00  0.00     0.131 C 
HETATM    3  C1  UNL     1      54.111  14.305 128.664  1.00  0.00     0.040 C 
BRANCH   2   4
HETATM    4  C3  UNL     1      52.273  16.062 128.511  1.00  0.00     0.070 C 
BRANCH   4   5
HETATM    5  C4  UNL     1      51.630  17.253 127.850  1.00  0.00     0.260 C 
HETATM    6  C5  UNL     1      51.434  17.050 126.429  1.00  0.00     0.282 C 
HETATM    7  C6  UNL     1      49.985  17.381 126.000  1.00  0.00     0.208 C 
HETATM    8  N1  UNL     1      52.182  17.738 125.471  1.00  0.00     0.120 N 
HETATM    9  O1  UNL     1      50.091  17.412 124.639  1.00  0.00    -0.360 OA
HETATM   10  C7  UNL     1      51.318  17.925 124.318  1.00  0.00     0.441 C 
HETATM   11  C8  UNL     1      52.782  18.970 125.788  1.00  0.00     0.277 C 
HETATM   12  C9  UNL     1      51.936  19.987 126.458  1.00  0.00     0.060 C 
HETATM   13  C10 UNL     1      51.897  19.683 127.898  1.00  0.00     0.274 C 
HETATM   14  N2  UNL     1      52.236  18.417 128.365  1.00  0.00     0.091 N 
HETATM   15  C11 UNL     1      51.979  18.414 129.821  1.00  0.00     0.310 C 
ENDBRANCH   4   5
ENDBRANCH   2   4
ENDBRANCH   1   2
BRANCH   1  16
HETATM   16  C12 UNL     1      55.573  16.658 128.689  1.00  0.00     0.361 C 
HETATM   17  O3  UNL     1      56.689  16.350 128.218  1.00  0.00    -0.238 OA
HETATM   18  N3  UNL     1      55.442  17.152 129.990  1.00  0.00    -0.328 N 
ATOM     19  H3  UNL     1      54.502  17.383 130.313  1.00  0.00     0.165 HD
BRANCH  18  20
HETATM   20  C13 UNL     1      56.533  17.360 130.912  1.00  0.00     0.036 C 
HETATM   21  C14 UNL     1      57.340  16.118 131.190  1.00  0.00     0.035 C 
HETATM   22  C15 UNL     1      58.462  16.466 132.126  1.00  0.00    -0.012 C 
HETATM   23  C16 UNL     1      57.917  16.896 133.461  1.00  0.00     0.009 C 
HETATM   24  C20 UNL     1      59.375  17.531 131.622  1.00  0.00     0.009 C 
HETATM   25  C17 UNL     1      57.069  18.125 133.204  1.00  0.00    -0.012 C 
HETATM   26  C18 UNL     1      57.958  19.240 132.655  1.00  0.00     0.009 C 
HETATM   27  C22 UNL     1      55.966  17.798 132.258  1.00  0.00     0.035 C 
HETATM   28  C19 UNL     1      58.553  18.775 131.363  1.00  0.00    -0.012 C 
HETATM   29  C21 UNL     1      57.468  18.414 130.370  1.00  0.00     0.035 C 
ENDBRANCH  18  20
ENDBRANCH   1  16
TORSDOF 5
ENDMDL
MODEL 4
REMARK VINA RESULT: -9.202827790      3.175      5.719
REMARK  5 active torsions:
REMARK  status: ('A' for Active; 'I' for Inactive)
REMARK    1  A    between atoms: C2_2  and  C3_3 
REMARK    2  A    between atoms: C2_2  and  O2_15 
REMARK    3  A    between atoms: C3_3  and  C4_4 
REMARK    4  A    between atoms: O2_15  and  C12_16 
REMARK       I    between atoms: C12_16  and  N3_18 
REMARK    5  A    between atoms: N3_18  and  C13_20 
ROOT
HETATM    1  O2  UNL     1      55.010  21.428 125.833  1.00  0.00    -0.299 OA
ENDROOT
BRANCH   1   2
HETATM    2  C2  UNL     1      53.930  22.233 125.417  1.00  0.00     0.131 C 
HETATM    3  C1  UNL     1      54.253  23.652 125.693  1.00  0.00     0.040 C 
BRANCH   2   4
HETATM    4  C3  UNL     1      53.424  21.831 124.118  1.00  0.00     0.070 C 
BRANCH   4   5
HETATM    5  C4  UNL     1      51.983  21.437 123.921  1.00  0.00     0.260 C 
HETATM    6  C5  UNL     1      51.717  20.089 124.380  1.00  0.00     0.282 C 
HETATM    7  C6  UNL     1      50.485  20.038 125.314  1.00  0.00     0.208 C 
HETATM    8  N1  UNL     1      51.450  19.042 123.493  1.00  0.00     0.120 N 
HETATM    9  O1  UNL     1      50.238  18.697 125.386  1.00  0.00    -0.360 OA
HETATM   10  C7  UNL     1      50.534  18.142 124.171  1.00  0.00     0.441 C 
HETATM   11  C8  UNL     1      50.948  19.311 122.207  1.00  0.00     0.277 C 
HETATM   12  C9  UNL     1      49.797  20.239 122.105  1.00  0.00     0.060 C 
HETATM   13  C10 UNL     1      50.309  21.620 122.147  1.00  0.00     0.274 C 
HETATM   14  N2  UNL     1      51.579  21.890 122.648  1.00  0.00     0.091 N 
HETATM   15  C11 UNL     1      51.731  23.361 122.659  1.00  0.00     0.310 C 
ENDBRANCH   4   5
ENDBRANCH   2   4
ENDBRANCH   1   2
BRANCH   1  16
HETATM   16  C12 UNL     1      54.860  20.241 126.543  1.00  0.00     0.361 C 
HETATM   17  O3  UNL     1      55.892  19.538 126.603  1.00  0.00    -0.238 OA
HETATM   18  N3  UNL     1      53.668  19.839 127.149  1.00  0.00    -0.328 N 
ATOM     19  H3  UNL     1      52.863  20.459 127.062  1.00  0.00     0.165 HD
BRANCH  18  20
HETATM   20  C13 UNL     1      53.486  18.614 127.891  1.00  0.00     0.036 C 
HETATM   21  C14 UNL     1      54.447  18.451 129.042  1.00  0.00     0.035 C 
HETATM   22  C15 UNL     1      54.138  17.167 129.756  1.00  0.00    -0.012 C 
HETATM   23  C16 UNL     1      54.392  15.990 128.853  1.00  0.00     0.009 C 
HETATM   24  C20 UNL     1      52.744  17.072 130.276  1.00  0.00     0.009 C 
HETATM   25  C17 UNL     1      53.463  16.149 127.667  1.00  0.00    -0.012 C 
HETATM   26  C18 UNL     1      52.016  16.090 128.154  1.00  0.00     0.009 C 
HETATM   27  C22 UNL     1      53.745  17.431 126.964  1.00  0.00     0.035 C 
HETATM   28  C19 UNL     1      51.793  17.222 129.107  1.00  0.00    -0.012 C 
HETATM   29  C21 UNL     1      52.082  18.551 128.442  1.00  0.00     0.035 C 
ENDBRANCH  18  20
ENDBRANCH   1  16
TORSDOF 5
ENDMDL
MODEL 5
REMARK VINA RESULT: -9.105903951      2.341      7.632
REMARK  5 active torsions:
REMARK  status: ('A' for Active; 'I' for Inactive)
REMARK    1  A    between atoms: C2_2  and  C3_3 
REMARK    2  A    between atoms: C2_2  and  O2_15 
REMARK    3  A    between atoms: C3_3  and  C4_4 
REMARK    4  A    between atoms: O2_15  and  C12_16 
REMARK       I    between atoms: C12_16  and  N3_18 
REMARK    5  A    between atoms: N3_18  and  C13_20 
ROOT
HETATM    1  O2  UNL     1      57.808  16.798 129.608  1.00  0.00    -0.299 OA
ENDROOT
BRANCH   1   2
HETATM    2  C2  UNL     1      58.244  16.083 130.742  1.00  0.00     0.131 C 
HETATM    3  C1  UNL     1      59.699  15.830 130.621  1.00  0.00     0.040 C 
BRANCH   2   4
HETATM    4  C3  UNL     1      57.689  16.623 131.969  1.00  0.00     0.070 C 
BRANCH   4   5
HETATM    5  C4  UNL     1      57.613  18.107 132.215  1.00  0.00     0.260 C 
HETATM    6  C5  UNL     1      58.920  18.695 132.419  1.00  0.00     0.282 C 
HETATM    7  C6  UNL     1      59.133  19.939 131.525  1.00  0.00     0.208 C 
HETATM    8  N1  UNL     1      59.336  19.164 133.668  1.00  0.00     0.120 N 
HETATM    9  O1  UNL     1      60.257  20.492 132.068  1.00  0.00    -0.360 OA
HETATM   10  C7  UNL     1      60.222  20.289 133.420  1.00  0.00     0.441 C 
HETATM   11  C8  UNL     1      58.389  19.542 134.636  1.00  0.00     0.277 C 
HETATM   12  C9  UNL     1      57.294  20.442 134.203  1.00  0.00     0.060 C 
HETATM   13  C10 UNL     1      56.249  19.626 133.561  1.00  0.00     0.274 C 
HETATM   14  N2  UNL     1      56.536  18.348 133.092  1.00  0.00     0.091 N 
HETATM   15  C11 UNL     1      55.319  17.860 132.408  1.00  0.00     0.310 C 
ENDBRANCH   4   5
ENDBRANCH   2   4
ENDBRANCH   1   2
BRANCH   1  16
HETATM   16  C12 UNL     1      56.522  16.707 129.085  1.00  0.00     0.361 C 
HETATM   17  O3  UNL     1      56.105  15.539 128.929  1.00  0.00    -0.238 OA
HETATM   18  N3  UNL     1      55.735  17.812 128.750  1.00  0.00    -0.328 N 
ATOM     19  H3  UNL     1      56.135  18.738 128.902  1.00  0.00     0.165 HD
BRANCH  18  20
HETATM   20  C13 UNL     1      54.399  17.745 128.208  1.00  0.00     0.036 C 
HETATM   21  C14 UNL     1      54.301  16.954 126.928  1.00  0.00     0.035 C 
HETATM   22  C15 UNL     1      52.866  16.924 126.484  1.00  0.00    -0.012 C 
HETATM   23  C16 UNL     1      52.396  18.310 126.134  1.00  0.00     0.009 C 
HETATM   24  C20 UNL     1      51.925  16.342 127.483  1.00  0.00     0.009 C 
HETATM   25  C17 UNL     1      52.520  19.137 127.397  1.00  0.00    -0.012 C 
HETATM   26  C18 UNL     1      51.593  18.560 128.466  1.00  0.00     0.009 C 
HETATM   27  C22 UNL     1      53.934  19.156 127.861  1.00  0.00     0.035 C 
HETATM   28  C19 UNL     1      52.024  17.156 128.755  1.00  0.00    -0.012 C 
HETATM   29  C21 UNL     1      53.466  17.121 129.217  1.00  0.00     0.035 C 
ENDBRANCH  18  20
ENDBRANCH   1  16
TORSDOF 5
ENDMDL
