MODEL 1
REMARK VINA RESULT: -10.420879694      0.000      0.000
REMARK  5 active torsions:
REMARK  status: ('A' for Active; 'I' for Inactive)
REMARK    1  A    between atoms: O1_1  and  C1_3 
REMARK    2  A    between atoms: C1_3  and  C2_4 
REMARK    3  A    between atoms: C5_7  and  C6_8 
REMARK    4  A    between atoms: N1_14  and  C11_15 
REMARK    5  A    between atoms: C11_15  and  C12_16 
ROOT
HETATM    1  C6  UNL     1      52.332  17.658 126.240  1.00  0.00     0.182 C 
HETATM    2  C7  UNL     1      51.287  16.669 126.651  1.00  0.00     0.208 C 
HETATM    3  O2  UNL     1      51.741  16.351 127.955  1.00  0.00    -0.351 OA
HETATM    4  C8  UNL     1      52.544  17.386 128.375  1.00  0.00     0.182 C 
HETATM    5  C9  UNL     1      52.188  17.952 129.721  1.00  0.00     0.090 C 
HETATM    6  C10 UNL     1      53.286  17.370 130.634  1.00  0.00     0.127 C 
HETATM    7  N1  UNL     1      54.404  17.387 129.808  1.00  0.00    -0.387 N 
HETATM    8  C22 UNL     1      54.009  17.013 128.500  1.00  0.00     0.190 C 
HETATM    9  O3  UNL     1      52.410  18.416 127.439  1.00  0.00    -0.341 OA
ENDROOT
BRANCH   7  10
HETATM   10  C11 UNL     1      55.477  18.230 129.971  1.00  0.00     0.068 C 
BRANCH  10  11
HETATM   11  C12 UNL     1      56.593  17.835 130.904  1.00  0.00    -0.007 C 
HETATM   12  C13 UNL     1      56.859  16.339 130.813  1.00  0.00     0.019 C 
HETATM   13  C14 UNL     1      58.022  16.019 131.706  1.00  0.00    -0.013 C 
HETATM   14  C15 UNL     1      57.803  16.460 133.137  1.00  0.00     0.009 C 
HETATM   15  C19 UNL     1      59.244  16.722 131.132  1.00  0.00     0.009 C 
HETATM   16  C16 UNL     1      57.524  17.948 133.172  1.00  0.00    -0.013 C 
HETATM   17  C17 UNL     1      58.720  18.675 132.638  1.00  0.00     0.009 C 
HETATM   18  C21 UNL     1      56.283  18.182 132.311  1.00  0.00     0.019 C 
HETATM   19  C18 UNL     1      59.021  18.216 131.235  1.00  0.00    -0.013 C 
HETATM   20  C20 UNL     1      57.829  18.576 130.385  1.00  0.00     0.019 C 
ENDBRANCH  10  11
ENDBRANCH   7  10
BRANCH   1  21
HETATM   21  C5  UNL     1      51.953  18.576 125.171  1.00  0.00    -0.027 A 
HETATM   22  C4  UNL     1      52.389  19.901 125.257  1.00  0.00     0.010 A 
HETATM   23  C3  UNL     1      52.070  20.826 124.285  1.00  0.00     0.010 A 
HETATM   24  C2  UNL     1      51.308  20.498 123.186  1.00  0.00    -0.035 A 
HETATM   25  C24 UNL     1      50.882  19.187 123.110  1.00  0.00     0.010 A 
HETATM   26  C23 UNL     1      51.192  18.252 124.071  1.00  0.00     0.010 A 
BRANCH  24  27
HETATM   27  C1  UNL     1      50.985  21.521 122.147  1.00  0.00     0.202 C 
BRANCH  27  28
HETATM   28  O1  UNL     1      49.692  21.305 121.712  1.00  0.00    -0.396 OA
ATOM     29  H1  UNL     1      49.727  20.975 120.821  1.00  0.00     0.209 HD
ENDBRANCH  27  28
ENDBRANCH  24  27
ENDBRANCH   1  21
TORSDOF 5
ENDMDL
MODEL 2
REMARK VINA RESULT: -10.231816694      0.117      1.386
REMARK  5 active torsions:
REMARK  status: ('A' for Active; 'I' for Inactive)
REMARK    1  A    between atoms: O1_1  and  C1_3 
REMARK    2  A    between atoms: C1_3  and  C2_4 
REMARK    3  A    between atoms: C5_7  and  C6_8 
REMARK    4  A    between atoms: N1_14  and  C11_15 
REMARK    5  A    between atoms: C11_15  and  C12_16 
ROOT
HETATM    1  C6  UNL     1      52.361  17.615 126.335  1.00  0.00     0.182 C 
HETATM    2  C7  UNL     1      51.348  16.587 126.729  1.00  0.00     0.208 C 
HETATM    3  O2  UNL     1      51.793  16.285 128.040  1.00  0.00    -0.351 OA
HETATM    4  C8  UNL     1      52.549  17.349 128.473  1.00  0.00     0.182 C 
HETATM    5  C9  UNL     1      52.150  17.900 129.814  1.00  0.00     0.090 C 
HETATM    6  C10 UNL     1      53.254  17.359 130.744  1.00  0.00     0.127 C 
HETATM    7  N1  UNL     1      54.384  17.420 129.936  1.00  0.00    -0.387 N 
HETATM    8  C22 UNL     1      54.024  17.032 128.621  1.00  0.00     0.190 C 
HETATM    9  O3  UNL     1      52.390  18.375 127.536  1.00  0.00    -0.341 OA
ENDROOT
BRANCH   7  10
HETATM   10  C11 UNL     1      55.422  18.303 130.117  1.00  0.00     0.068 C 
BRANCH  10  11
HETATM   11  C12 UNL     1      56.635  17.869 130.897  1.00  0.00    -0.007 C 
HETATM   12  C13 UNL     1      57.882  18.571 130.376  1.00  0.00     0.019 C 
HETATM   13  C14 UNL     1      59.042  18.156 131.233  1.00  0.00    -0.013 C 
HETATM   14  C15 UNL     1      59.228  16.655 131.284  1.00  0.00     0.009 C 
HETATM   15  C19 UNL     1      58.785  18.690 132.635  1.00  0.00     0.009 C 
HETATM   16  C16 UNL     1      57.957  16.004 131.789  1.00  0.00    -0.013 C 
HETATM   17  C17 UNL     1      57.688  16.487 133.181  1.00  0.00     0.009 C 
HETATM   18  C21 UNL     1      56.844  16.404 130.821  1.00  0.00     0.019 C 
HETATM   19  C18 UNL     1      57.565  17.988 133.192  1.00  0.00    -0.013 C 
HETATM   20  C20 UNL     1      56.381  18.343 132.330  1.00  0.00     0.019 C 
ENDBRANCH  10  11
ENDBRANCH   7  10
BRANCH   1  21
HETATM   21  C5  UNL     1      51.964  18.520 125.261  1.00  0.00    -0.027 A 
HETATM   22  C4  UNL     1      52.371  19.854 125.341  1.00  0.00     0.010 A 
HETATM   23  C3  UNL     1      52.034  20.768 124.364  1.00  0.00     0.010 A 
HETATM   24  C2  UNL     1      51.282  20.417 123.264  1.00  0.00    -0.035 A 
HETATM   25  C24 UNL     1      50.884  19.097 123.195  1.00  0.00     0.010 A 
HETATM   26  C23 UNL     1      51.213  18.174 124.161  1.00  0.00     0.010 A 
BRANCH  24  27
HETATM   27  C1  UNL     1      50.938  21.427 122.220  1.00  0.00     0.202 C 
BRANCH  27  28
HETATM   28  O1  UNL     1      49.630  21.220 121.828  1.00  0.00    -0.396 OA
ATOM     29  H1  UNL     1      49.384  20.333 122.061  1.00  0.00     0.209 HD
ENDBRANCH  27  28
ENDBRANCH  24  27
ENDBRANCH   1  21
TORSDOF 5
ENDMDL
MODEL 3
REMARK VINA RESULT: -10.111716727      0.163      1.413
REMARK  5 active torsions:
REMARK  status: ('A' for Active; 'I' for Inactive)
REMARK    1  A    between atoms: O1_1  and  C1_3 
REMARK    2  A    between atoms: C1_3  and  C2_4 
REMARK    3  A    between atoms: C5_7  and  C6_8 
REMARK    4  A    between atoms: N1_14  and  C11_15 
REMARK    5  A    between atoms: C11_15  and  C12_16 
ROOT
HETATM    1  C6  UNL     1      52.355  17.611 126.317  1.00  0.00     0.182 C 
HETATM    2  C7  UNL     1      51.351  16.598 126.768  1.00  0.00     0.208 C 
HETATM    3  O2  UNL     1      51.849  16.310 128.063  1.00  0.00    -0.351 OA
HETATM    4  C8  UNL     1      52.633  17.373 128.448  1.00  0.00     0.182 C 
HETATM    5  C9  UNL     1      52.297  17.946 129.797  1.00  0.00     0.090 C 
HETATM    6  C10 UNL     1      53.435  17.408 130.686  1.00  0.00     0.127 C 
HETATM    7  N1  UNL     1      54.530  17.446 129.830  1.00  0.00    -0.387 N 
HETATM    8  C22 UNL     1      54.110  17.044 128.538  1.00  0.00     0.190 C 
HETATM    9  O3  UNL     1      52.443  18.387 127.504  1.00  0.00    -0.341 OA
ENDROOT
BRANCH   7  10
HETATM   10  C11 UNL     1      55.582  18.321 129.954  1.00  0.00     0.068 C 
BRANCH  10  11
HETATM   11  C12 UNL     1      56.729  17.977 130.868  1.00  0.00    -0.007 C 
HETATM   12  C13 UNL     1      56.390  18.342 132.307  1.00  0.00     0.019 C 
HETATM   13  C14 UNL     1      57.535  17.912 133.178  1.00  0.00    -0.013 C 
HETATM   14  C15 UNL     1      58.856  18.510 132.748  1.00  0.00     0.009 C 
HETATM   15  C19 UNL     1      57.611  16.393 133.111  1.00  0.00     0.009 C 
HETATM   16  C16 UNL     1      59.138  18.135 131.307  1.00  0.00    -0.013 C 
HETATM   17  C17 UNL     1      59.247  16.645 131.210  1.00  0.00     0.009 C 
HETATM   18  C21 UNL     1      57.974  18.677 130.478  1.00  0.00     0.019 C 
HETATM   19  C18 UNL     1      57.975  16.000 131.695  1.00  0.00    -0.013 C 
HETATM   20  C20 UNL     1      56.869  16.455 130.779  1.00  0.00     0.019 C 
ENDBRANCH  10  11
ENDBRANCH   7  10
BRANCH   1  21
HETATM   21  C5  UNL     1      51.921  18.504 125.248  1.00  0.00    -0.027 A 
HETATM   22  C4  UNL     1      52.354  19.832 125.284  1.00  0.00     0.010 A 
HETATM   23  C3  UNL     1      51.983  20.735 124.309  1.00  0.00     0.010 A 
HETATM   24  C2  UNL     1      51.172  20.380 123.254  1.00  0.00    -0.035 A 
HETATM   25  C24 UNL     1      50.749  19.066 123.227  1.00  0.00     0.010 A 
HETATM   26  C23 UNL     1      51.111  18.153 124.192  1.00  0.00     0.010 A 
BRANCH  24  27
HETATM   27  C1  UNL     1      50.794  21.378 122.211  1.00  0.00     0.202 C 
BRANCH  27  28
HETATM   28  O1  UNL     1      49.532  21.064 121.745  1.00  0.00    -0.396 OA
ATOM     29  H1  UNL     1      49.518  21.199 120.805  1.00  0.00     0.209 HD
ENDBRANCH  27  28
ENDBRANCH  24  27
ENDBRANCH   1  21
TORSDOF 5
ENDMDL
MODEL 4
REMARK VINA RESULT: -9.898604471      0.872      1.208
REMARK  5 active torsions:
REMARK  status: ('A' for Active; 'I' for Inactive)
REMARK    1  A    between atoms: O1_1  and  C1_3 
REMARK    2  A    between atoms: C1_3  and  C2_4 
REMARK    3  A    between atoms: C5_7  and  C6_8 
REMARK    4  A    between atoms: N1_14  and  C11_15 
REMARK    5  A    between atoms: C11_15  and  C12_16 
ROOT
HETATM    1  C6  UNL     1      51.754  17.990 125.808  1.00  0.00     0.182 C 
HETATM    2  C7  UNL     1      50.748  16.922 126.100  1.00  0.00     0.208 C 
HETATM    3  O2  UNL     1      51.221  16.469 127.357  1.00  0.00    -0.351 OA
HETATM    4  C8  UNL     1      51.988  17.475 127.896  1.00  0.00     0.182 C 
HETATM    5  C9  UNL     1      51.619  17.864 129.300  1.00  0.00     0.090 C 
HETATM    6  C10 UNL     1      52.743  17.220 130.136  1.00  0.00     0.127 C 
HETATM    7  N1  UNL     1      53.855  17.376 129.316  1.00  0.00    -0.387 N 
HETATM    8  C22 UNL     1      53.466  17.145 127.974  1.00  0.00     0.190 C 
HETATM    9  O3  UNL     1      51.810  18.604 127.089  1.00  0.00    -0.341 OA
ENDROOT
BRANCH   7  10
HETATM   10  C11 UNL     1      54.897  18.232 129.577  1.00  0.00     0.068 C 
BRANCH  10  11
HETATM   11  C12 UNL     1      56.062  17.751 130.402  1.00  0.00    -0.007 C 
HETATM   12  C13 UNL     1      56.215  16.241 130.279  1.00  0.00     0.019 C 
HETATM   13  C14 UNL     1      57.428  15.831 131.062  1.00  0.00    -0.013 C 
HETATM   14  C15 UNL     1      57.369  16.269 132.509  1.00  0.00     0.009 C 
HETATM   15  C19 UNL     1      58.639  16.457 130.384  1.00  0.00     0.009 C 
HETATM   16  C16 UNL     1      57.198  17.772 132.577  1.00  0.00    -0.013 C 
HETATM   17  C17 UNL     1      58.389  18.422 131.942  1.00  0.00     0.009 C 
HETATM   18  C21 UNL     1      55.904  18.101 131.834  1.00  0.00     0.019 C 
HETATM   19  C18 UNL     1      58.530  17.961 130.515  1.00  0.00    -0.013 C 
HETATM   20  C20 UNL     1      57.295  18.411 129.779  1.00  0.00     0.019 C 
ENDBRANCH  10  11
ENDBRANCH   7  10
BRANCH   1  21
HETATM   21  C5  UNL     1      51.335  19.014 124.856  1.00  0.00    -0.027 A 
HETATM   22  C4  UNL     1      50.097  18.859 124.226  1.00  0.00     0.010 A 
HETATM   23  C3  UNL     1      49.635  19.786 123.314  1.00  0.00     0.010 A 
HETATM   24  C2  UNL     1      50.363  20.905 122.977  1.00  0.00    -0.035 A 
HETATM   25  C24 UNL     1      51.585  21.048 123.603  1.00  0.00     0.010 A 
HETATM   26  C23 UNL     1      52.060  20.134 124.516  1.00  0.00     0.010 A 
BRANCH  24  27
HETATM   27  C1  UNL     1      49.833  21.892 121.990  1.00  0.00     0.202 C 
BRANCH  27  28
HETATM   28  O1  UNL     1      48.639  21.410 121.490  1.00  0.00    -0.396 OA
ATOM     29  H1  UNL     1      48.006  21.386 122.197  1.00  0.00     0.209 HD
ENDBRANCH  27  28
ENDBRANCH  24  27
ENDBRANCH   1  21
TORSDOF 5
ENDMDL
MODEL 5
REMARK VINA RESULT: -9.832884064      2.613      9.075
REMARK  5 active torsions:
REMARK  status: ('A' for Active; 'I' for Inactive)
REMARK    1  A    between atoms: O1_1  and  C1_3 
REMARK    2  A    between atoms: C1_3  and  C2_4 
REMARK    3  A    between atoms: C5_7  and  C6_8 
REMARK    4  A    between atoms: N1_14  and  C11_15 
REMARK    5  A    between atoms: C11_15  and  C12_16 
ROOT
HETATM    1  C6  UNL     1      55.645  17.894 130.348  1.00  0.00     0.182 C 
HETATM    2  C7  UNL     1      54.964  18.281 131.623  1.00  0.00     0.208 C 
HETATM    3  O2  UNL     1      53.621  18.357 131.179  1.00  0.00    -0.351 OA
HETATM    4  C8  UNL     1      53.524  17.607 130.030  1.00  0.00     0.182 C 
HETATM    5  C9  UNL     1      52.414  16.594 130.032  1.00  0.00     0.090 C 
HETATM    6  C10 UNL     1      51.359  17.247 129.117  1.00  0.00     0.127 C 
HETATM    7  N1  UNL     1      52.142  17.869 128.150  1.00  0.00    -0.387 N 
HETATM    8  C22 UNL     1      53.281  18.430 128.780  1.00  0.00     0.190 C 
HETATM    9  O3  UNL     1      54.728  16.908 129.894  1.00  0.00    -0.341 OA
ENDROOT
BRANCH   7  10
HETATM   10  C11 UNL     1      52.230  17.459 126.842  1.00  0.00     0.068 C 
BRANCH  10  11
HETATM   11  C12 UNL     1      51.288  18.039 125.819  1.00  0.00    -0.007 C 
HETATM   12  C13 UNL     1      51.092  19.529 126.061  1.00  0.00     0.019 C 
HETATM   13  C14 UNL     1      50.205  20.064 124.974  1.00  0.00    -0.013 C 
HETATM   14  C15 UNL     1      48.882  19.335 124.884  1.00  0.00     0.009 C 
HETATM   15  C19 UNL     1      50.961  19.923 123.661  1.00  0.00     0.009 C 
HETATM   16  C16 UNL     1      49.131  17.858 124.663  1.00  0.00    -0.013 C 
HETATM   17  C17 UNL     1      49.851  17.680 123.362  1.00  0.00     0.009 C 
HETATM   18  C21 UNL     1      49.966  17.372 125.847  1.00  0.00     0.019 C 
HETATM   19  C18 UNL     1      51.146  18.448 123.378  1.00  0.00    -0.013 C 
HETATM   20  C20 UNL     1      51.997  17.860 124.474  1.00  0.00     0.019 C 
ENDBRANCH  10  11
ENDBRANCH   7  10
BRANCH   1  21
HETATM   21  C5  UNL     1      56.943  17.244 130.492  1.00  0.00    -0.027 A 
HETATM   22  C4  UNL     1      57.086  15.944 129.999  1.00  0.00     0.010 A 
HETATM   23  C3  UNL     1      58.283  15.266 130.099  1.00  0.00     0.010 A 
HETATM   24  C2  UNL     1      59.394  15.828 130.688  1.00  0.00    -0.035 A 
HETATM   25  C24 UNL     1      59.243  17.112 131.173  1.00  0.00     0.010 A 
HETATM   26  C23 UNL     1      58.056  17.802 131.080  1.00  0.00     0.010 A 
BRANCH  24  27
HETATM   27  C1  UNL     1      60.678  15.070 130.776  1.00  0.00     0.202 C 
BRANCH  27  28
HETATM   28  O1  UNL     1      61.452  15.396 129.680  1.00  0.00    -0.396 OA
ATOM     29  H1  UNL     1      62.219  14.835 129.678  1.00  0.00     0.209 HD
ENDBRANCH  27  28
ENDBRANCH  24  27
ENDBRANCH   1  21
TORSDOF 5
ENDMDL
