MODEL 1
REMARK VINA RESULT: -9.069182030      0.000      0.000
REMARK  12 active torsions:
REMARK  status: ('A' for Active; 'I' for Inactive)
REMARK    1  A    between atoms: C5_5  and  C6_6 
REMARK       I    between atoms: C6_6  and  N1_8 
REMARK    2  A    between atoms: N1_8  and  C7_10 
REMARK    3  A    between atoms: C7_10  and  C8_11 
REMARK    4  A    between atoms: C8_11  and  C9_12 
REMARK    5  A    between atoms: C9_12  and  N2_13 
REMARK       I    between atoms: N2_13  and  C10_15 
REMARK    6  A    between atoms: C10_15  and  C11_17 
REMARK    7  A    between atoms: C12_18  and  C13_19 
REMARK    8  A    between atoms: C13_19  and  N3_20 
REMARK    9  A    between atoms: C16_25  and  C17_26 
REMARK   10  A    between atoms: C23_33  and  S1_34 
REMARK   11  A    between atoms: S1_34  and  N5_37 
REMARK   12  A    between atoms: N5_37  and  C25_39 
ROOT
HETATM    1  C1  UNL     1      15.742  22.193  14.060  1.00  0.00     0.018 C 
HETATM    2  C2  UNL     1      15.421  21.626  15.075  1.00  0.00    -0.076 C 
HETATM    3  C3  UNL     1      15.007  20.974  16.312  1.00  0.00     0.041 A 
HETATM    4  C4  UNL     1      13.775  20.357  16.334  1.00  0.00     0.039 A 
HETATM    5  C5  UNL     1      13.281  19.780  17.506  1.00  0.00     0.033 A 
HETATM    6  C21 UNL     1      14.075  19.856  18.623  1.00  0.00     0.018 A 
HETATM    7  C22 UNL     1      15.307  20.477  18.577  1.00  0.00     0.028 A 
HETATM    8  C23 UNL     1      15.819  21.060  17.409  1.00  0.00     0.098 A 
ENDROOT
BRANCH   8   9
HETATM    9  S1  UNL     1      17.406  21.715  17.408  1.00  0.00     0.266 S 
HETATM   10  O4  UNL     1      18.188  21.292  16.167  1.00  0.00    -0.200 OA
HETATM   11  O5  UNL     1      18.240  21.159  18.565  1.00  0.00    -0.200 OA
BRANCH   9  12
HETATM   12  N5  UNL     1      17.531  23.409  17.508  1.00  0.00    -0.272 N 
HETATM   13  C24 UNL     1      16.373  24.042  18.222  1.00  0.00     0.170 C 
BRANCH  12  14
HETATM   14  C25 UNL     1      18.564  24.231  17.036  1.00  0.00     0.092 A 
HETATM   15  C26 UNL     1      19.828  24.355  17.524  1.00  0.00     0.051 A 
HETATM   16  C27 UNL     1      20.520  23.681  18.638  1.00  0.00     0.072 C 
HETATM   17  N6  UNL     1      20.435  25.326  16.788  1.00  0.00    -0.301 N 
HETATM   18  N7  UNL     1      19.629  25.812  15.878  1.00  0.00    -0.299 N 
ATOM     19  H6  UNL     1      21.396  25.636  16.928  1.00  0.00     0.187 HD
HETATM   20  C28 UNL     1      19.885  26.855  14.896  1.00  0.00     0.177 C 
HETATM   21  C29 UNL     1      18.448  25.150  16.003  1.00  0.00     0.053 A 
HETATM   22  C30 UNL     1      17.259  25.393  15.157  1.00  0.00     0.072 C 
ENDBRANCH  12  14
ENDBRANCH   9  12
ENDBRANCH   8   9
BRANCH   5  23
HETATM   23  C6  UNL     1      11.956  19.144  17.482  1.00  0.00     0.251 C 
HETATM   24  O1  UNL     1      11.228  19.250  18.514  1.00  0.00    -0.268 OA
HETATM   25  N1  UNL     1      11.478  18.439  16.374  1.00  0.00    -0.357 N 
ATOM     26  H1  UNL     1      12.085  18.381  15.557  1.00  0.00     0.162 HD
BRANCH  25  27
HETATM   27  C7  UNL     1      10.198  17.789  16.293  1.00  0.00     0.124 C 
BRANCH  27  28
HETATM   28  C8  UNL     1      10.341  16.295  16.170  1.00  0.00     0.039 C 
BRANCH  28  29
HETATM   29  C9  UNL     1      10.970  15.921  14.836  1.00  0.00     0.124 C 
BRANCH  29  30
HETATM   30  N2  UNL     1      10.108  16.278  13.743  1.00  0.00    -0.358 N 
HETATM   31  C10 UNL     1      10.551  15.997  12.390  1.00  0.00     0.240 C 
HETATM   32  O2  UNL     1      11.673  15.464  12.288  1.00  0.00    -0.269 OA
ATOM     33  H2  UNL     1       9.206  16.720  13.914  1.00  0.00     0.162 HD
BRANCH  31  34
HETATM   34  C11 UNL     1       9.697  16.339  11.292  1.00  0.00     0.072 C 
HETATM   35  C12 UNL     1       9.740  17.297  10.450  1.00  0.00     0.000 C 
BRANCH  35  36
HETATM   36  C13 UNL     1      10.735  18.369  10.387  1.00  0.00     0.176 C 
BRANCH  36  37
HETATM   37  N3  UNL     1      10.389  19.423  11.365  1.00  0.00    -0.292 N 
HETATM   38  N4  UNL     1       9.313  20.191  11.251  1.00  0.00    -0.302 N 
HETATM   39  C14 UNL     1       9.297  21.008  12.294  1.00  0.00     0.038 A 
ATOM     40  H4  UNL     1       8.624  20.158  10.499  1.00  0.00     0.186 HD
HETATM   41  C15 UNL     1       8.281  22.066  12.630  1.00  0.00     0.070 C 
HETATM   42  C16 UNL     1      10.386  20.761  13.095  1.00  0.00     0.057 A 
HETATM   43  C19 UNL     1      11.074  19.720  12.456  1.00  0.00     0.041 A 
HETATM   44  C20 UNL     1      12.320  19.128  12.967  1.00  0.00     0.071 C 
BRANCH  42  45
HETATM   45  C17 UNL     1      10.768  21.407  14.331  1.00  0.00     0.159 C 
HETATM   46  C18 UNL     1      11.871  22.422  14.317  1.00  0.00     0.097 C 
HETATM   47  O3  UNL     1      10.180  21.118  15.390  1.00  0.00    -0.293 OA
ENDBRANCH  42  45
ENDBRANCH  36  37
ENDBRANCH  35  36
ENDBRANCH  31  34
ENDBRANCH  29  30
ENDBRANCH  28  29
ENDBRANCH  27  28
ENDBRANCH  25  27
ENDBRANCH   5  23
TORSDOF 12
ENDMDL
MODEL 2
REMARK VINA RESULT: -9.017636618      0.947      1.535
REMARK  12 active torsions:
REMARK  status: ('A' for Active; 'I' for Inactive)
REMARK    1  A    between atoms: C5_5  and  C6_6 
REMARK       I    between atoms: C6_6  and  N1_8 
REMARK    2  A    between atoms: N1_8  and  C7_10 
REMARK    3  A    between atoms: C7_10  and  C8_11 
REMARK    4  A    between atoms: C8_11  and  C9_12 
REMARK    5  A    between atoms: C9_12  and  N2_13 
REMARK       I    between atoms: N2_13  and  C10_15 
REMARK    6  A    between atoms: C10_15  and  C11_17 
REMARK    7  A    between atoms: C12_18  and  C13_19 
REMARK    8  A    between atoms: C13_19  and  N3_20 
REMARK    9  A    between atoms: C16_25  and  C17_26 
REMARK   10  A    between atoms: C23_33  and  S1_34 
REMARK   11  A    between atoms: S1_34  and  N5_37 
REMARK   12  A    between atoms: N5_37  and  C25_39 
ROOT
HETATM    1  C1  UNL     1      15.886  22.324  14.154  1.00  0.00     0.018 C 
HETATM    2  C2  UNL     1      15.575  21.764  15.175  1.00  0.00    -0.076 C 
HETATM    3  C3  UNL     1      15.173  21.119  16.421  1.00  0.00     0.041 A 
HETATM    4  C4  UNL     1      13.937  20.510  16.462  1.00  0.00     0.039 A 
HETATM    5  C5  UNL     1      13.455  19.942  17.642  1.00  0.00     0.033 A 
HETATM    6  C21 UNL     1      14.264  20.018  18.748  1.00  0.00     0.018 A 
HETATM    7  C22 UNL     1      15.499  20.631  18.684  1.00  0.00     0.028 A 
HETATM    8  C23 UNL     1      15.999  21.206  17.507  1.00  0.00     0.098 A 
ENDROOT
BRANCH   8   9
HETATM    9  S1  UNL     1      17.590  21.850  17.483  1.00  0.00     0.266 S 
HETATM   10  O4  UNL     1      18.361  21.400  16.244  1.00  0.00    -0.200 OA
HETATM   11  O5  UNL     1      18.429  21.310  18.643  1.00  0.00    -0.200 OA
BRANCH   9  12
HETATM   12  N5  UNL     1      17.726  23.545  17.550  1.00  0.00    -0.272 N 
HETATM   13  C24 UNL     1      16.628  24.191  18.343  1.00  0.00     0.170 C 
BRANCH  12  14
HETATM   14  C25 UNL     1      18.722  24.358  16.990  1.00  0.00     0.092 A 
HETATM   15  C26 UNL     1      20.014  24.501  17.393  1.00  0.00     0.051 A 
HETATM   16  C27 UNL     1      20.779  23.864  18.480  1.00  0.00     0.072 C 
HETATM   17  N6  UNL     1      20.567  25.453  16.593  1.00  0.00    -0.301 N 
HETATM   18  N7  UNL     1      19.701  25.909  15.722  1.00  0.00    -0.299 N 
ATOM     19  H6  UNL     1      21.533  25.772  16.663  1.00  0.00     0.187 HD
HETATM   20  C28 UNL     1      19.888  26.925  14.697  1.00  0.00     0.177 C 
HETATM   21  C29 UNL     1      18.535  25.245  15.941  1.00  0.00     0.053 A 
HETATM   22  C30 UNL     1      17.293  25.458  15.166  1.00  0.00     0.072 C 
ENDBRANCH  12  14
ENDBRANCH   9  12
ENDBRANCH   8   9
BRANCH   5  23
HETATM   23  C6  UNL     1      12.126  19.314  17.638  1.00  0.00     0.251 C 
HETATM   24  O1  UNL     1      11.446  19.358  18.707  1.00  0.00    -0.268 OA
HETATM   25  N1  UNL     1      11.593  18.682  16.511  1.00  0.00    -0.357 N 
ATOM     26  H1  UNL     1      12.164  18.674  15.666  1.00  0.00     0.162 HD
BRANCH  25  27
HETATM   27  C7  UNL     1      10.307  18.044  16.447  1.00  0.00     0.124 C 
BRANCH  27  28
HETATM   28  C8  UNL     1      10.399  16.575  16.766  1.00  0.00     0.039 C 
BRANCH  28  29
HETATM   29  C9  UNL     1      10.312  15.741  15.497  1.00  0.00     0.124 C 
BRANCH  29  30
HETATM   30  N2  UNL     1      11.384  16.062  14.596  1.00  0.00    -0.358 N 
HETATM   31  C10 UNL     1      11.363  15.493  13.261  1.00  0.00     0.240 C 
HETATM   32  O2  UNL     1      10.397  14.748  13.006  1.00  0.00    -0.269 OA
ATOM     33  H2  UNL     1      12.143  16.677  14.888  1.00  0.00     0.162 HD
BRANCH  31  34
HETATM   34  C11 UNL     1      12.421  15.814  12.349  1.00  0.00     0.072 C 
HETATM   35  C12 UNL     1      12.464  16.598  11.343  1.00  0.00     0.000 C 
BRANCH  35  36
HETATM   36  C13 UNL     1      11.373  17.422  10.822  1.00  0.00     0.176 C 
BRANCH  36  37
HETATM   37  N3  UNL     1      11.130  18.558  11.739  1.00  0.00    -0.292 N 
HETATM   38  N4  UNL     1      12.108  19.254  12.304  1.00  0.00    -0.302 N 
HETATM   39  C14 UNL     1      11.546  20.198  13.044  1.00  0.00     0.038 A 
ATOM     40  H4  UNL     1      13.108  19.092  12.189  1.00  0.00     0.186 HD
HETATM   41  C15 UNL     1      12.223  21.251  13.878  1.00  0.00     0.070 C 
HETATM   42  C16 UNL     1      10.177  20.107  12.953  1.00  0.00     0.057 A 
HETATM   43  C19 UNL     1       9.944  19.025  12.093  1.00  0.00     0.041 A 
HETATM   44  C20 UNL     1       8.604  18.558  11.709  1.00  0.00     0.071 C 
BRANCH  42  45
HETATM   45  C17 UNL     1       9.169  20.929  13.587  1.00  0.00     0.159 C 
HETATM   46  C18 UNL     1       8.552  22.057  12.816  1.00  0.00     0.097 C 
HETATM   47  O3  UNL     1       8.823  20.692  14.759  1.00  0.00    -0.293 OA
ENDBRANCH  42  45
ENDBRANCH  36  37
ENDBRANCH  35  36
ENDBRANCH  31  34
ENDBRANCH  29  30
ENDBRANCH  28  29
ENDBRANCH  27  28
ENDBRANCH  25  27
ENDBRANCH   5  23
TORSDOF 12
ENDMDL
MODEL 3
REMARK VINA RESULT: -8.988409930      2.062      3.178
REMARK  12 active torsions:
REMARK  status: ('A' for Active; 'I' for Inactive)
REMARK    1  A    between atoms: C5_5  and  C6_6 
REMARK       I    between atoms: C6_6  and  N1_8 
REMARK    2  A    between atoms: N1_8  and  C7_10 
REMARK    3  A    between atoms: C7_10  and  C8_11 
REMARK    4  A    between atoms: C8_11  and  C9_12 
REMARK    5  A    between atoms: C9_12  and  N2_13 
REMARK       I    between atoms: N2_13  and  C10_15 
REMARK    6  A    between atoms: C10_15  and  C11_17 
REMARK    7  A    between atoms: C12_18  and  C13_19 
REMARK    8  A    between atoms: C13_19  and  N3_20 
REMARK    9  A    between atoms: C16_25  and  C17_26 
REMARK   10  A    between atoms: C23_33  and  S1_34 
REMARK   11  A    between atoms: S1_34  and  N5_37 
REMARK   12  A    between atoms: N5_37  and  C25_39 
ROOT
HETATM    1  C1  UNL     1      15.125  21.568  13.036  1.00  0.00     0.018 C 
HETATM    2  C2  UNL     1      14.876  21.415  14.206  1.00  0.00    -0.076 C 
HETATM    3  C3  UNL     1      14.539  21.256  15.616  1.00  0.00     0.041 A 
HETATM    4  C4  UNL     1      13.494  20.417  15.939  1.00  0.00     0.039 A 
HETATM    5  C5  UNL     1      13.067  20.277  17.261  1.00  0.00     0.033 A 
HETATM    6  C21 UNL     1      13.732  21.008  18.213  1.00  0.00     0.018 A 
HETATM    7  C22 UNL     1      14.777  21.841  17.867  1.00  0.00     0.028 A 
HETATM    8  C23 UNL     1      15.220  21.993  16.546  1.00  0.00     0.098 A 
ENDROOT
BRANCH   8   9
HETATM    9  S1  UNL     1      16.597  22.963  16.214  1.00  0.00     0.266 S 
HETATM   10  O4  UNL     1      16.283  24.056  15.196  1.00  0.00    -0.200 OA
HETATM   11  O5  UNL     1      17.703  22.150  15.538  1.00  0.00    -0.200 OA
BRANCH   9  12
HETATM   12  N5  UNL     1      17.324  23.733  17.546  1.00  0.00    -0.272 N 
HETATM   13  C24 UNL     1      16.480  24.834  18.119  1.00  0.00     0.170 C 
BRANCH  12  14
HETATM   14  C25 UNL     1      18.557  23.445  18.148  1.00  0.00     0.092 A 
HETATM   15  C26 UNL     1      18.821  22.540  19.130  1.00  0.00     0.051 A 
HETATM   16  C27 UNL     1      17.954  21.584  19.841  1.00  0.00     0.072 C 
HETATM   17  N6  UNL     1      20.140  22.676  19.439  1.00  0.00    -0.301 N 
HETATM   18  N7  UNL     1      20.709  23.605  18.711  1.00  0.00    -0.299 N 
ATOM     19  H6  UNL     1      20.624  22.124  20.146  1.00  0.00     0.187 HD
HETATM   20  C28 UNL     1      22.092  24.058  18.730  1.00  0.00     0.177 C 
HETATM   21  C29 UNL     1      19.748  24.108  17.892  1.00  0.00     0.053 A 
HETATM   22  C30 UNL     1      19.973  25.182  16.900  1.00  0.00     0.072 C 
ENDBRANCH  12  14
ENDBRANCH   9  12
ENDBRANCH   8   9
BRANCH   5  23
HETATM   23  C6  UNL     1      11.941  19.378  17.553  1.00  0.00     0.251 C 
HETATM   24  O1  UNL     1      10.788  19.891  17.673  1.00  0.00    -0.268 OA
HETATM   25  N1  UNL     1      12.096  17.997  17.700  1.00  0.00    -0.357 N 
ATOM     26  H1  UNL     1      13.036  17.617  17.588  1.00  0.00     0.162 HD
BRANCH  25  27
HETATM   27  C7  UNL     1      11.038  17.069  17.994  1.00  0.00     0.124 C 
BRANCH  27  28
HETATM   28  C8  UNL     1      11.118  15.843  17.124  1.00  0.00     0.039 C 
BRANCH  28  29
HETATM   29  C9  UNL     1      10.349  16.051  15.827  1.00  0.00     0.124 C 
BRANCH  29  30
HETATM   30  N2  UNL     1      11.159  16.730  14.853  1.00  0.00    -0.358 N 
HETATM   31  C10 UNL     1      10.706  18.012  14.345  1.00  0.00     0.240 C 
HETATM   32  O2  UNL     1       9.621  18.421  14.803  1.00  0.00    -0.269 OA
ATOM     33  H2  UNL     1      12.033  16.320  14.525  1.00  0.00     0.162 HD
BRANCH  31  34
HETATM   34  C11 UNL     1      11.509  18.704  13.382  1.00  0.00     0.072 C 
HETATM   35  C12 UNL     1      11.409  19.872  12.877  1.00  0.00     0.000 C 
BRANCH  35  36
HETATM   36  C13 UNL     1      10.379  20.870  13.165  1.00  0.00     0.176 C 
BRANCH  36  37
HETATM   37  N3  UNL     1       9.385  20.885  12.071  1.00  0.00    -0.292 N 
HETATM   38  N4  UNL     1       9.404  20.022  11.063  1.00  0.00    -0.302 N 
HETATM   39  C14 UNL     1       8.374  20.304  10.279  1.00  0.00     0.038 A 
ATOM     40  H4  UNL     1      10.087  19.278  10.919  1.00  0.00     0.186 HD
HETATM   41  C15 UNL     1       7.955  19.612   9.011  1.00  0.00     0.070 C 
HETATM   42  C16 UNL     1       7.677  21.371  10.793  1.00  0.00     0.057 A 
HETATM   43  C19 UNL     1       8.367  21.722  11.963  1.00  0.00     0.041 A 
HETATM   44  C20 UNL     1       7.970  22.830  12.845  1.00  0.00     0.071 C 
BRANCH  42  45
HETATM   45  C17 UNL     1       6.490  22.015  10.274  1.00  0.00     0.159 C 
HETATM   46  C18 UNL     1       6.633  23.109   9.260  1.00  0.00     0.097 C 
HETATM   47  O3  UNL     1       5.366  21.656  10.671  1.00  0.00    -0.293 OA
ENDBRANCH  42  45
ENDBRANCH  36  37
ENDBRANCH  35  36
ENDBRANCH  31  34
ENDBRANCH  29  30
ENDBRANCH  28  29
ENDBRANCH  27  28
ENDBRANCH  25  27
ENDBRANCH   5  23
TORSDOF 12
ENDMDL
MODEL 4
REMARK VINA RESULT: -8.839387732      1.343      1.852
REMARK  12 active torsions:
REMARK  status: ('A' for Active; 'I' for Inactive)
REMARK    1  A    between atoms: C5_5  and  C6_6 
REMARK       I    between atoms: C6_6  and  N1_8 
REMARK    2  A    between atoms: N1_8  and  C7_10 
REMARK    3  A    between atoms: C7_10  and  C8_11 
REMARK    4  A    between atoms: C8_11  and  C9_12 
REMARK    5  A    between atoms: C9_12  and  N2_13 
REMARK       I    between atoms: N2_13  and  C10_15 
REMARK    6  A    between atoms: C10_15  and  C11_17 
REMARK    7  A    between atoms: C12_18  and  C13_19 
REMARK    8  A    between atoms: C13_19  and  N3_20 
REMARK    9  A    between atoms: C16_25  and  C17_26 
REMARK   10  A    between atoms: C23_33  and  S1_34 
REMARK   11  A    between atoms: S1_34  and  N5_37 
REMARK   12  A    between atoms: N5_37  and  C25_39 
ROOT
HETATM    1  C1  UNL     1      15.064  21.613  13.342  1.00  0.00     0.018 C 
HETATM    2  C2  UNL     1      14.896  21.396  14.516  1.00  0.00    -0.076 C 
HETATM    3  C3  UNL     1      14.658  21.160  15.936  1.00  0.00     0.041 A 
HETATM    4  C4  UNL     1      13.659  20.276  16.284  1.00  0.00     0.039 A 
HETATM    5  C5  UNL     1      13.323  20.061  17.622  1.00  0.00     0.033 A 
HETATM    6  C21 UNL     1      14.030  20.764  18.564  1.00  0.00     0.018 A 
HETATM    7  C22 UNL     1      15.028  21.643  18.193  1.00  0.00     0.028 A 
HETATM    8  C23 UNL     1      15.379  21.871  16.855  1.00  0.00     0.098 A 
ENDROOT
BRANCH   8   9
HETATM    9  S1  UNL     1      16.705  22.896  16.484  1.00  0.00     0.266 S 
HETATM   10  O4  UNL     1      16.309  23.995  15.500  1.00  0.00    -0.200 OA
HETATM   11  O5  UNL     1      17.809  22.136  15.747  1.00  0.00    -0.200 OA
BRANCH   9  12
HETATM   12  N5  UNL     1      17.460  23.670  17.798  1.00  0.00    -0.272 N 
HETATM   13  C24 UNL     1      16.619  24.756  18.402  1.00  0.00     0.170 C 
BRANCH  12  14
HETATM   14  C25 UNL     1      18.714  23.394  18.363  1.00  0.00     0.092 A 
HETATM   15  C26 UNL     1      19.012  22.513  19.357  1.00  0.00     0.051 A 
HETATM   16  C27 UNL     1      18.170  21.575  20.121  1.00  0.00     0.072 C 
HETATM   17  N6  UNL     1      20.341  22.654  19.615  1.00  0.00    -0.301 N 
HETATM   18  N7  UNL     1      20.884  23.565  18.846  1.00  0.00    -0.299 N 
ATOM     19  H6  UNL     1      20.849  22.119  20.318  1.00  0.00     0.187 HD
HETATM   20  C28 UNL     1      22.267  24.017  18.805  1.00  0.00     0.177 C 
HETATM   21  C29 UNL     1      19.895  24.049  18.049  1.00  0.00     0.053 A 
HETATM   22  C30 UNL     1      20.085  25.099  17.024  1.00  0.00     0.072 C 
ENDBRANCH  12  14
ENDBRANCH   9  12
ENDBRANCH   8   9
BRANCH   5  23
HETATM   23  C6  UNL     1      12.243  19.116  17.941  1.00  0.00     0.251 C 
HETATM   24  O1  UNL     1      11.644  19.253  19.050  1.00  0.00    -0.268 OA
HETATM   25  N1  UNL     1      11.858  18.090  17.074  1.00  0.00    -0.357 N 
ATOM     26  H1  UNL     1      12.354  18.015  16.187  1.00  0.00     0.162 HD
BRANCH  25  27
HETATM   27  C7  UNL     1      10.817  17.131  17.333  1.00  0.00     0.124 C 
BRANCH  27  28
HETATM   28  C8  UNL     1       9.880  17.000  16.162  1.00  0.00     0.039 C 
BRANCH  28  29
HETATM   29  C9  UNL     1      10.539  16.225  15.029  1.00  0.00     0.124 C 
BRANCH  29  30
HETATM   30  N2  UNL     1       9.845  16.439  13.789  1.00  0.00    -0.358 N 
HETATM   31  C10 UNL     1      10.483  16.018  12.555  1.00  0.00     0.240 C 
HETATM   32  O2  UNL     1      11.611  15.503  12.678  1.00  0.00    -0.269 OA
ATOM     33  H2  UNL     1       8.924  16.876  13.776  1.00  0.00     0.162 HD
BRANCH  31  34
HETATM   34  C11 UNL     1       9.797  16.216  11.313  1.00  0.00     0.072 C 
HETATM   35  C12 UNL     1       9.947  17.085  10.390  1.00  0.00     0.000 C 
BRANCH  35  36
HETATM   36  C13 UNL     1      10.918  18.179  10.361  1.00  0.00     0.176 C 
BRANCH  36  37
HETATM   37  N3  UNL     1      10.500  19.236  11.309  1.00  0.00    -0.292 N 
HETATM   38  N4  UNL     1       9.417  19.981  11.131  1.00  0.00    -0.302 N 
HETATM   39  C14 UNL     1       9.331  20.808  12.162  1.00  0.00     0.038 A 
ATOM     40  H4  UNL     1       8.770  19.927  10.344  1.00  0.00     0.186 HD
HETATM   41  C15 UNL     1       8.279  21.848  12.434  1.00  0.00     0.070 C 
HETATM   42  C16 UNL     1      10.380  20.589  13.022  1.00  0.00     0.057 A 
HETATM   43  C19 UNL     1      11.121  19.556  12.431  1.00  0.00     0.041 A 
HETATM   44  C20 UNL     1      12.349  18.994  13.013  1.00  0.00     0.071 C 
BRANCH  42  45
HETATM   45  C17 UNL     1      10.685  21.255  14.270  1.00  0.00     0.159 C 
HETATM   46  C18 UNL     1      10.019  20.790  15.530  1.00  0.00     0.097 C 
HETATM   47  O3  UNL     1      11.493  22.201  14.287  1.00  0.00    -0.293 OA
ENDBRANCH  42  45
ENDBRANCH  36  37
ENDBRANCH  35  36
ENDBRANCH  31  34
ENDBRANCH  29  30
ENDBRANCH  28  29
ENDBRANCH  27  28
ENDBRANCH  25  27
ENDBRANCH   5  23
TORSDOF 12
ENDMDL
MODEL 5
REMARK VINA RESULT: -8.802437257      3.878     12.694
REMARK  12 active torsions:
REMARK  status: ('A' for Active; 'I' for Inactive)
REMARK    1  A    between atoms: C5_5  and  C6_6 
REMARK       I    between atoms: C6_6  and  N1_8 
REMARK    2  A    between atoms: N1_8  and  C7_10 
REMARK    3  A    between atoms: C7_10  and  C8_11 
REMARK    4  A    between atoms: C8_11  and  C9_12 
REMARK    5  A    between atoms: C9_12  and  N2_13 
REMARK       I    between atoms: N2_13  and  C10_15 
REMARK    6  A    between atoms: C10_15  and  C11_17 
REMARK    7  A    between atoms: C12_18  and  C13_19 
REMARK    8  A    between atoms: C13_19  and  N3_20 
REMARK    9  A    between atoms: C16_25  and  C17_26 
REMARK   10  A    between atoms: C23_33  and  S1_34 
REMARK   11  A    between atoms: S1_34  and  N5_37 
REMARK   12  A    between atoms: N5_37  and  C25_39 
ROOT
HETATM    1  C1  UNL     1      18.545  21.769  19.144  1.00  0.00     0.018 C 
HETATM    2  C2  UNL     1      18.625  22.589  18.265  1.00  0.00    -0.076 C 
HETATM    3  C3  UNL     1      18.700  23.611  17.226  1.00  0.00     0.041 A 
HETATM    4  C4  UNL     1      19.654  24.597  17.360  1.00  0.00     0.039 A 
HETATM    5  C5  UNL     1      19.733  25.649  16.446  1.00  0.00     0.033 A 
HETATM    6  C21 UNL     1      18.824  25.653  15.417  1.00  0.00     0.018 A 
HETATM    7  C22 UNL     1      17.879  24.654  15.302  1.00  0.00     0.028 A 
HETATM    8  C23 UNL     1      17.786  23.589  16.209  1.00  0.00     0.098 A 
ENDROOT
BRANCH   8   9
HETATM    9  S1  UNL     1      16.654  22.329  15.932  1.00  0.00     0.266 S 
HETATM   10  O4  UNL     1      17.239  20.961  16.279  1.00  0.00    -0.200 OA
HETATM   11  O5  UNL     1      16.310  22.205  14.446  1.00  0.00    -0.200 OA
BRANCH   9  12
HETATM   12  N5  UNL     1      15.168  22.445  16.753  1.00  0.00    -0.272 N 
HETATM   13  C24 UNL     1      15.088  23.643  17.653  1.00  0.00     0.170 C 
BRANCH  12  14
HETATM   14  C25 UNL     1      14.058  21.593  16.662  1.00  0.00     0.092 A 
HETATM   15  C26 UNL     1      13.071  21.599  15.725  1.00  0.00     0.051 A 
HETATM   16  C27 UNL     1      12.854  22.437  14.532  1.00  0.00     0.072 C 
HETATM   17  N6  UNL     1      12.177  20.642  16.097  1.00  0.00    -0.301 N 
HETATM   18  N7  UNL     1      12.548  20.045  17.203  1.00  0.00    -0.299 N 
ATOM     19  H6  UNL     1      11.328  20.417  15.581  1.00  0.00     0.187 HD
HETATM   20  C28 UNL     1      11.879  18.976  17.930  1.00  0.00     0.177 C 
HETATM   21  C29 UNL     1      13.721  20.615  17.585  1.00  0.00     0.053 A 
HETATM   22  C30 UNL     1      14.486  20.227  18.790  1.00  0.00     0.072 C 
ENDBRANCH  12  14
ENDBRANCH   9  12
ENDBRANCH   8   9
BRANCH   5  23
HETATM   23  C6  UNL     1      20.760  26.683  16.638  1.00  0.00     0.251 C 
HETATM   24  O1  UNL     1      20.502  27.857  16.237  1.00  0.00    -0.268 OA
HETATM   25  N1  UNL     1      21.991  26.420  17.243  1.00  0.00    -0.357 N 
ATOM     26  H1  UNL     1      22.162  25.466  17.563  1.00  0.00     0.162 HD
BRANCH  25  27
HETATM   27  C7  UNL     1      23.038  27.384  17.452  1.00  0.00     0.124 C 
BRANCH  27  28
HETATM   28  C8  UNL     1      24.008  27.408  16.300  1.00  0.00     0.039 C 
BRANCH  28  29
HETATM   29  C9  UNL     1      24.992  26.251  16.400  1.00  0.00     0.124 C 
BRANCH  29  30
HETATM   30  N2  UNL     1      25.651  26.246  17.677  1.00  0.00    -0.358 N 
HETATM   31  C10 UNL     1      26.275  25.016  18.131  1.00  0.00     0.240 C 
HETATM   32  O2  UNL     1      26.175  24.043  17.359  1.00  0.00    -0.269 OA
ATOM     33  H2  UNL     1      25.680  27.087  18.252  1.00  0.00     0.162 HD
BRANCH  31  34
HETATM   34  C11 UNL     1      26.944  25.001  19.398  1.00  0.00     0.072 C 
HETATM   35  C12 UNL     1      26.689  24.381  20.484  1.00  0.00     0.000 C 
BRANCH  35  36
HETATM   36  C13 UNL     1      25.571  23.471  20.736  1.00  0.00     0.176 C 
BRANCH  36  37
HETATM   37  N3  UNL     1      24.369  24.253  21.099  1.00  0.00    -0.292 N 
HETATM   38  N4  UNL     1      24.287  24.984  22.203  1.00  0.00    -0.302 N 
HETATM   39  C14 UNL     1      23.093  25.560  22.209  1.00  0.00     0.038 A 
ATOM     40  H4  UNL     1      25.009  25.085  22.916  1.00  0.00     0.186 HD
HETATM   41  C15 UNL     1      22.516  26.491  23.240  1.00  0.00     0.070 C 
HETATM   42  C16 UNL     1      22.393  25.191  21.085  1.00  0.00     0.057 A 
HETATM   43  C19 UNL     1      23.259  24.338  20.385  1.00  0.00     0.041 A 
HETATM   44  C20 UNL     1      22.918  23.697  19.107  1.00  0.00     0.071 C 
BRANCH  42  45
HETATM   45  C17 UNL     1      21.060  25.578  20.678  1.00  0.00     0.159 C 
HETATM   46  C18 UNL     1      19.904  24.681  21.006  1.00  0.00     0.097 C 
HETATM   47  O3  UNL     1      20.885  26.647  20.065  1.00  0.00    -0.293 OA
ENDBRANCH  42  45
ENDBRANCH  36  37
ENDBRANCH  35  36
ENDBRANCH  31  34
ENDBRANCH  29  30
ENDBRANCH  28  29
ENDBRANCH  27  28
ENDBRANCH  25  27
ENDBRANCH   5  23
TORSDOF 12
ENDMDL
