MODEL 1
REMARK VINA RESULT: -9.642647546      0.000      0.000
REMARK  12 active torsions:
REMARK  status: ('A' for Active; 'I' for Inactive)
REMARK    1  A    between atoms: C2_2  and  C3_3 
REMARK    2  A    between atoms: C5_5  and  C6_6 
REMARK       I    between atoms: C6_6  and  N1_8 
REMARK    3  A    between atoms: N1_8  and  C7_10 
REMARK    4  A    between atoms: C7_10  and  C8_11 
REMARK       I    between atoms: C8_11  and  N2_13 
REMARK    5  A    between atoms: N2_13  and  C9_15 
REMARK    6  A    between atoms: N3_18  and  C12_19 
REMARK    7  A    between atoms: C12_19  and  C13_20 
REMARK    8  A    between atoms: N4_23  and  C16_24 
REMARK    9  A    between atoms: C16_24  and  C17_25 
REMARK   10  A    between atoms: C17_25  and  C18_26 
REMARK   11  A    between atoms: N5_29  and  C21_30 
REMARK   12  A    between atoms: C24_37  and  N8_38 
ROOT
HETATM    1  C13 UNL     1      18.548  22.180  18.769  1.00  0.00     0.055 A 
HETATM    2  C14 UNL     1      18.898  21.427  19.865  1.00  0.00     0.047 A 
HETATM    3  C15 UNL     1      19.598  22.295  20.676  1.00  0.00     0.112 A 
HETATM    4  N4  UNL     1      19.651  23.490  20.082  1.00  0.00    -0.303 N 
HETATM    5  N9  UNL     1      19.016  23.407  18.939  1.00  0.00    -0.301 N 
ATOM      6  H9  UNL     1      18.900  24.175  18.277  1.00  0.00     0.187 HD
ENDROOT
BRANCH   4   7
HETATM    7  C16 UNL     1      20.291  24.699  20.567  1.00  0.00     0.148 C 
BRANCH   7   8
HETATM    8  C17 UNL     1      21.653  24.503  21.137  1.00  0.00     0.026 C 
BRANCH   8   9
HETATM    9  C18 UNL     1      22.549  25.686  20.870  1.00  0.00    -0.010 C 
HETATM   10  C19 UNL     1      21.802  26.893  20.371  1.00  0.00     0.024 C 
HETATM   11  C20 UNL     1      22.480  27.430  19.116  1.00  0.00     0.125 C 
HETATM   12  N5  UNL     1      22.590  26.379  18.132  1.00  0.00    -0.365 N 
HETATM   13  C30 UNL     1      23.408  25.251  18.532  1.00  0.00     0.125 C 
HETATM   14  C31 UNL     1      23.733  25.302  20.007  1.00  0.00     0.024 C 
BRANCH  12  15
HETATM   15  C21 UNL     1      21.959  26.425  16.902  1.00  0.00     0.132 A 
HETATM   16  N6  UNL     1      20.766  25.763  16.808  1.00  0.00    -0.337 N 
HETATM   17  C22 UNL     1      20.011  25.718  15.720  1.00  0.00     0.182 A 
ATOM     18  H6  UNL     1      20.434  25.268  17.635  1.00  0.00     0.168 HD
HETATM   19  N7  UNL     1      20.454  26.369  14.636  1.00  0.00    -0.360 N 
HETATM   20  C23 UNL     1      21.602  27.047  14.611  1.00  0.00     0.122 A 
ATOM     21  H7  UNL     1      19.885  26.345  13.789  1.00  0.00     0.166 HD
HETATM   22  C24 UNL     1      22.393  27.082  15.779  1.00  0.00     0.090 A 
BRANCH  22  23
HETATM   23  N8  UNL     1      23.581  27.794  15.709  1.00  0.00    -0.377 N 
HETATM   24  C25 UNL     1      24.845  27.033  15.643  1.00  0.00     0.123 C 
HETATM   25  C26 UNL     1      25.778  27.574  16.730  1.00  0.00     0.020 C 
HETATM   26  C27 UNL     1      26.240  28.925  16.219  1.00  0.00     0.003 C 
HETATM   27  C28 UNL     1      25.278  29.489  15.214  1.00  0.00     0.020 C 
HETATM   28  C29 UNL     1      23.817  29.208  15.655  1.00  0.00     0.123 C 
ENDBRANCH  22  23
ENDBRANCH  12  15
ENDBRANCH   8   9
ENDBRANCH   7   8
ENDBRANCH   4   7
BRANCH   1  29
HETATM   29  C12 UNL     1      17.774  21.662  17.594  1.00  0.00     0.330 C 
BRANCH  29  30
HETATM   30  N3  UNL     1      16.474  22.236  17.457  1.00  0.00     0.094 N 
HETATM   31  C11 UNL     1      15.726  21.363  16.552  1.00  0.00     0.275 C 
HETATM   32  C10 UNL     1      15.022  20.255  17.284  1.00  0.00     0.055 C 
HETATM   33  C9  UNL     1      13.941  20.817  18.183  1.00  0.00     0.087 C 
HETATM   34  C33 UNL     1      14.254  22.282  18.410  1.00  0.00     0.055 C 
HETATM   35  C32 UNL     1      15.755  22.369  18.715  1.00  0.00     0.275 C 
BRANCH  33  36
HETATM   36  N2  UNL     1      12.622  20.650  17.593  1.00  0.00    -0.355 N 
HETATM   37  C8  UNL     1      11.787  19.553  17.974  1.00  0.00     0.235 C 
HETATM   38  O2  UNL     1      12.216  18.739  18.823  1.00  0.00    -0.272 OA
ATOM     39  H2  UNL     1      12.290  21.321  16.900  1.00  0.00     0.162 HD
BRANCH  37  40
HETATM   40  C7  UNL     1      10.447  19.413  17.361  1.00  0.00     0.225 C 
BRANCH  40  41
HETATM   41  N1  UNL     1      10.069  20.564  16.599  1.00  0.00    -0.352 N 
HETATM   42  C6  UNL     1       9.558  20.445  15.275  1.00  0.00     0.222 C 
HETATM   43  O1  UNL     1       9.419  19.330  14.730  1.00  0.00    -0.273 OA
ATOM     44  H1  UNL     1      10.168  21.491  17.014  1.00  0.00     0.162 HD
BRANCH  42  45
HETATM   45  C5  UNL     1       9.169  21.666  14.488  1.00  0.00     0.086 A 
HETATM   46  C3  UNL     1       8.805  21.543  13.073  1.00  0.00     0.021 A 
HETATM   47  C4  UNL     1      10.167  22.047  13.409  1.00  0.00     0.024 A 
BRANCH  46  48
HETATM   48  C2  UNL     1       7.845  22.544  12.539  1.00  0.00    -0.031 C 
HETATM   49  C1  UNL     1       7.272  22.290  11.362  1.00  0.00     0.007 C 
ENDBRANCH  46  48
ENDBRANCH  42  45
ENDBRANCH  40  41
ENDBRANCH  37  40
ENDBRANCH  33  36
ENDBRANCH  29  30
ENDBRANCH   1  29
TORSDOF 12
ENDMDL
MODEL 2
REMARK VINA RESULT: -9.525258024      2.673      3.470
REMARK  12 active torsions:
REMARK  status: ('A' for Active; 'I' for Inactive)
REMARK    1  A    between atoms: C2_2  and  C3_3 
REMARK    2  A    between atoms: C5_5  and  C6_6 
REMARK       I    between atoms: C6_6  and  N1_8 
REMARK    3  A    between atoms: N1_8  and  C7_10 
REMARK    4  A    between atoms: C7_10  and  C8_11 
REMARK       I    between atoms: C8_11  and  N2_13 
REMARK    5  A    between atoms: N2_13  and  C9_15 
REMARK    6  A    between atoms: N3_18  and  C12_19 
REMARK    7  A    between atoms: C12_19  and  C13_20 
REMARK    8  A    between atoms: N4_23  and  C16_24 
REMARK    9  A    between atoms: C16_24  and  C17_25 
REMARK   10  A    between atoms: C17_25  and  C18_26 
REMARK   11  A    between atoms: N5_29  and  C21_30 
REMARK   12  A    between atoms: C24_37  and  N8_38 
ROOT
HETATM    1  C13 UNL     1      16.942  22.416  19.457  1.00  0.00     0.055 A 
HETATM    2  C14 UNL     1      18.026  21.670  19.058  1.00  0.00     0.047 A 
HETATM    3  C15 UNL     1      19.116  22.325  19.592  1.00  0.00     0.112 A 
HETATM    4  N4  UNL     1      18.686  23.395  20.266  1.00  0.00    -0.303 N 
HETATM    5  N9  UNL     1      17.380  23.437  20.177  1.00  0.00    -0.301 N 
ATOM      6  H9  UNL     1      16.787  24.152  20.600  1.00  0.00     0.187 HD
ENDROOT
BRANCH   4   7
HETATM    7  C16 UNL     1      19.481  24.377  20.981  1.00  0.00     0.148 C 
BRANCH   7   8
HETATM    8  C17 UNL     1      20.953  24.157  20.921  1.00  0.00     0.026 C 
BRANCH   8   9
HETATM    9  C18 UNL     1      21.650  25.236  20.131  1.00  0.00    -0.010 C 
HETATM   10  C19 UNL     1      20.786  26.444  19.890  1.00  0.00     0.024 C 
HETATM   11  C20 UNL     1      20.814  26.805  18.409  1.00  0.00     0.125 C 
HETATM   12  N5  UNL     1      20.428  25.659  17.620  1.00  0.00    -0.365 N 
HETATM   13  C30 UNL     1      21.310  24.515  17.732  1.00  0.00     0.125 C 
HETATM   14  C31 UNL     1      22.286  24.681  18.873  1.00  0.00     0.024 C 
BRANCH  12  15
HETATM   15  C21 UNL     1      19.298  25.636  16.822  1.00  0.00     0.132 A 
HETATM   16  N6  UNL     1      18.222  24.951  17.315  1.00  0.00    -0.337 N 
HETATM   17  C22 UNL     1      17.051  24.842  16.705  1.00  0.00     0.182 A 
ATOM     18  H6  UNL     1      18.329  24.490  18.219  1.00  0.00     0.168 HD
HETATM   19  N7  UNL     1      16.918  25.448  15.518  1.00  0.00    -0.360 N 
HETATM   20  C23 UNL     1      17.897  26.143  14.939  1.00  0.00     0.122 A 
ATOM     21  H7  UNL     1      16.023  25.375  15.033  1.00  0.00     0.166 HD
HETATM   22  C24 UNL     1      19.138  26.247  15.605  1.00  0.00     0.090 A 
BRANCH  22  23
HETATM   23  N8  UNL     1      20.131  26.975  14.967  1.00  0.00    -0.377 N 
HETATM   24  C25 UNL     1      21.373  26.271  14.585  1.00  0.00     0.123 C 
HETATM   25  C26 UNL     1      22.557  27.076  15.127  1.00  0.00     0.020 C 
HETATM   26  C27 UNL     1      22.644  28.300  14.234  1.00  0.00     0.003 C 
HETATM   27  C28 UNL     1      21.330  28.588  13.568  1.00  0.00     0.020 C 
HETATM   28  C29 UNL     1      20.163  28.350  14.562  1.00  0.00     0.123 C 
ENDBRANCH  22  23
ENDBRANCH  12  15
ENDBRANCH   8   9
ENDBRANCH   7   8
ENDBRANCH   4   7
BRANCH   1  29
HETATM   29  C12 UNL     1      15.519  22.098  19.107  1.00  0.00     0.330 C 
BRANCH  29  30
HETATM   30  N3  UNL     1      15.374  21.311  17.925  1.00  0.00     0.094 N 
HETATM   31  C11 UNL     1      14.755  20.051  18.337  1.00  0.00     0.275 C 
HETATM   32  C10 UNL     1      13.253  20.124  18.321  1.00  0.00     0.055 C 
HETATM   33  C9  UNL     1      12.747  20.304  16.906  1.00  0.00     0.087 C 
HETATM   34  C33 UNL     1      13.898  20.830  16.073  1.00  0.00     0.055 C 
HETATM   35  C32 UNL     1      14.563  21.941  16.895  1.00  0.00     0.275 C 
BRANCH  33  36
HETATM   36  N2  UNL     1      12.238  19.054  16.363  1.00  0.00    -0.355 N 
HETATM   37  C8  UNL     1      10.947  18.567  16.741  1.00  0.00     0.235 C 
HETATM   38  O2  UNL     1      10.267  19.237  17.552  1.00  0.00    -0.272 OA
ATOM     39  H2  UNL     1      12.807  18.520  15.707  1.00  0.00     0.162 HD
BRANCH  37  40
HETATM   40  C7  UNL     1      10.454  17.296  16.168  1.00  0.00     0.225 C 
BRANCH  40  41
HETATM   41  N1  UNL     1      11.064  16.987  14.910  1.00  0.00    -0.352 N 
HETATM   42  C6  UNL     1      10.451  17.348  13.677  1.00  0.00     0.222 C 
HETATM   43  O1  UNL     1       9.356  17.950  13.647  1.00  0.00    -0.273 OA
ATOM     44  H1  UNL     1      11.959  16.498  14.898  1.00  0.00     0.162 HD
BRANCH  42  45
HETATM   45  C5  UNL     1      11.106  17.014  12.366  1.00  0.00     0.086 A 
HETATM   46  C3  UNL     1      12.568  16.968  12.265  1.00  0.00     0.021 A 
HETATM   47  C4  UNL     1      11.864  18.173  11.744  1.00  0.00     0.024 A 
BRANCH  46  48
HETATM   48  C2  UNL     1      13.141  16.047  11.250  1.00  0.00    -0.031 C 
HETATM   49  C1  UNL     1      14.467  15.925  11.198  1.00  0.00     0.007 C 
ENDBRANCH  46  48
ENDBRANCH  42  45
ENDBRANCH  40  41
ENDBRANCH  37  40
ENDBRANCH  33  36
ENDBRANCH  29  30
ENDBRANCH   1  29
TORSDOF 12
ENDMDL
MODEL 3
REMARK VINA RESULT: -9.278435481      1.918      3.550
REMARK  12 active torsions:
REMARK  status: ('A' for Active; 'I' for Inactive)
REMARK    1  A    between atoms: C2_2  and  C3_3 
REMARK    2  A    between atoms: C5_5  and  C6_6 
REMARK       I    between atoms: C6_6  and  N1_8 
REMARK    3  A    between atoms: N1_8  and  C7_10 
REMARK    4  A    between atoms: C7_10  and  C8_11 
REMARK       I    between atoms: C8_11  and  N2_13 
REMARK    5  A    between atoms: N2_13  and  C9_15 
REMARK    6  A    between atoms: N3_18  and  C12_19 
REMARK    7  A    between atoms: C12_19  and  C13_20 
REMARK    8  A    between atoms: N4_23  and  C16_24 
REMARK    9  A    between atoms: C16_24  and  C17_25 
REMARK   10  A    between atoms: C17_25  and  C18_26 
REMARK   11  A    between atoms: N5_29  and  C21_30 
REMARK   12  A    between atoms: C24_37  and  N8_38 
ROOT
HETATM    1  C13 UNL     1      18.167  23.931  17.947  1.00  0.00     0.055 A 
HETATM    2  C14 UNL     1      19.106  22.927  17.970  1.00  0.00     0.047 A 
HETATM    3  C15 UNL     1      19.955  23.268  19.001  1.00  0.00     0.112 A 
HETATM    4  N4  UNL     1      19.531  24.410  19.549  1.00  0.00    -0.303 N 
HETATM    5  N9  UNL     1      18.456  24.796  18.907  1.00  0.00    -0.301 N 
ATOM      6  H9  UNL     1      17.922  25.640  19.115  1.00  0.00     0.187 HD
ENDROOT
BRANCH   4   7
HETATM    7  C16 UNL     1      20.121  25.142  20.654  1.00  0.00     0.148 C 
BRANCH   7   8
HETATM    8  C17 UNL     1      21.421  24.603  21.141  1.00  0.00     0.026 C 
BRANCH   8   9
HETATM    9  C18 UNL     1      22.551  25.575  20.916  1.00  0.00    -0.010 C 
HETATM   10  C19 UNL     1      22.088  26.915  20.411  1.00  0.00     0.024 C 
HETATM   11  C20 UNL     1      22.901  27.307  19.183  1.00  0.00     0.125 C 
HETATM   12  N5  UNL     1      22.820  26.263  18.189  1.00  0.00    -0.365 N 
HETATM   13  C30 UNL     1      23.373  24.987  18.598  1.00  0.00     0.125 C 
HETATM   14  C31 UNL     1      23.656  24.959  20.081  1.00  0.00     0.024 C 
BRANCH  12  15
HETATM   15  C21 UNL     1      22.251  26.448  16.942  1.00  0.00     0.132 A 
HETATM   16  N6  UNL     1      20.962  26.016  16.794  1.00  0.00    -0.337 N 
HETATM   17  C22 UNL     1      20.249  26.131  15.684  1.00  0.00     0.182 A 
ATOM     18  H6  UNL     1      20.517  25.573  17.598  1.00  0.00     0.168 HD
HETATM   19  N7  UNL     1      20.839  26.713  14.631  1.00  0.00    -0.360 N 
HETATM   20  C23 UNL     1      22.091  27.171  14.658  1.00  0.00     0.122 A 
ATOM     21  H7  UNL     1      20.305  26.809  13.767  1.00  0.00     0.166 HD
HETATM   22  C24 UNL     1      22.834  27.038  15.851  1.00  0.00     0.090 A 
BRANCH  22  23
HETATM   23  N8  UNL     1      24.134  27.524  15.835  1.00  0.00    -0.377 N 
HETATM   24  C25 UNL     1      24.335  28.979  15.993  1.00  0.00     0.123 C 
HETATM   25  C26 UNL     1      25.231  29.458  14.848  1.00  0.00     0.020 C 
HETATM   26  C27 UNL     1      26.618  28.947  15.192  1.00  0.00     0.003 C 
HETATM   27  C28 UNL     1      26.553  27.769  16.120  1.00  0.00     0.020 C 
HETATM   28  C29 UNL     1      25.385  26.832  15.717  1.00  0.00     0.123 C 
ENDBRANCH  22  23
ENDBRANCH  12  15
ENDBRANCH   8   9
ENDBRANCH   7   8
ENDBRANCH   4   7
BRANCH   1  29
HETATM   29  C12 UNL     1      17.026  24.003  16.977  1.00  0.00     0.330 C 
BRANCH  29  30
HETATM   30  N3  UNL     1      16.808  22.796  16.246  1.00  0.00     0.094 N 
HETATM   31  C11 UNL     1      15.789  22.044  16.977  1.00  0.00     0.275 C 
HETATM   32  C10 UNL     1      14.395  22.408  16.544  1.00  0.00     0.055 C 
HETATM   33  C9  UNL     1      14.160  21.990  15.108  1.00  0.00     0.087 C 
HETATM   34  C33 UNL     1      15.517  21.805  14.460  1.00  0.00     0.055 C 
HETATM   35  C32 UNL     1      16.371  23.010  14.875  1.00  0.00     0.275 C 
BRANCH  33  36
HETATM   36  N2  UNL     1      13.375  20.768  15.035  1.00  0.00    -0.355 N 
HETATM   37  C8  UNL     1      12.009  20.805  14.613  1.00  0.00     0.235 C 
HETATM   38  O2  UNL     1      11.503  21.910  14.313  1.00  0.00    -0.272 OA
ATOM     39  H2  UNL     1      13.802  19.877  15.286  1.00  0.00     0.162 HD
BRANCH  37  40
HETATM   40  C7  UNL     1      11.237  19.544  14.541  1.00  0.00     0.225 C 
BRANCH  40  41
HETATM   41  N1  UNL     1      11.408  18.729  15.706  1.00  0.00    -0.352 N 
HETATM   42  C6  UNL     1      10.805  19.072  16.949  1.00  0.00     0.222 C 
HETATM   43  O1  UNL     1      10.101  20.097  17.069  1.00  0.00    -0.273 OA
ATOM     44  H1  UNL     1      11.975  17.884  15.643  1.00  0.00     0.162 HD
BRANCH  42  45
HETATM   45  C5  UNL     1      10.998  18.205  18.162  1.00  0.00     0.086 A 
HETATM   46  C3  UNL     1      12.332  17.694  18.495  1.00  0.00     0.021 A 
HETATM   47  C4  UNL     1      11.367  16.768  17.839  1.00  0.00     0.024 A 
BRANCH  46  48
HETATM   48  C2  UNL     1      12.614  17.444  19.933  1.00  0.00    -0.031 C 
HETATM   49  C1  UNL     1      13.000  18.478  20.680  1.00  0.00     0.007 C 
ENDBRANCH  46  48
ENDBRANCH  42  45
ENDBRANCH  40  41
ENDBRANCH  37  40
ENDBRANCH  33  36
ENDBRANCH  29  30
ENDBRANCH   1  29
TORSDOF 12
ENDMDL
MODEL 4
REMARK VINA RESULT: -9.275637211      2.054      4.457
REMARK  12 active torsions:
REMARK  status: ('A' for Active; 'I' for Inactive)
REMARK    1  A    between atoms: C2_2  and  C3_3 
REMARK    2  A    between atoms: C5_5  and  C6_6 
REMARK       I    between atoms: C6_6  and  N1_8 
REMARK    3  A    between atoms: N1_8  and  C7_10 
REMARK    4  A    between atoms: C7_10  and  C8_11 
REMARK       I    between atoms: C8_11  and  N2_13 
REMARK    5  A    between atoms: N2_13  and  C9_15 
REMARK    6  A    between atoms: N3_18  and  C12_19 
REMARK    7  A    between atoms: C12_19  and  C13_20 
REMARK    8  A    between atoms: N4_23  and  C16_24 
REMARK    9  A    between atoms: C16_24  and  C17_25 
REMARK   10  A    between atoms: C17_25  and  C18_26 
REMARK   11  A    between atoms: N5_29  and  C21_30 
REMARK   12  A    between atoms: C24_37  and  N8_38 
ROOT
HETATM    1  C13 UNL     1      17.306  23.735  16.360  1.00  0.00     0.055 A 
HETATM    2  C14 UNL     1      16.747  24.544  17.321  1.00  0.00     0.047 A 
HETATM    3  C15 UNL     1      17.670  24.559  18.345  1.00  0.00     0.112 A 
HETATM    4  N4  UNL     1      18.711  23.797  17.997  1.00  0.00    -0.303 N 
HETATM    5  N9  UNL     1      18.479  23.310  16.803  1.00  0.00    -0.301 N 
ATOM      6  H9  UNL     1      19.110  22.693  16.290  1.00  0.00     0.187 HD
ENDROOT
BRANCH   4   7
HETATM    7  C16 UNL     1      19.908  23.518  18.767  1.00  0.00     0.148 C 
BRANCH   7   8
HETATM    8  C17 UNL     1      21.158  24.125  18.228  1.00  0.00     0.026 C 
BRANCH   8   9
HETATM    9  C18 UNL     1      22.109  24.520  19.328  1.00  0.00    -0.010 C 
HETATM   10  C19 UNL     1      21.955  25.954  19.757  1.00  0.00     0.024 C 
HETATM   11  C20 UNL     1      23.319  26.634  19.766  1.00  0.00     0.125 C 
HETATM   12  N5  UNL     1      23.947  26.489  18.475  1.00  0.00    -0.365 N 
HETATM   13  C30 UNL     1      24.226  25.121  18.082  1.00  0.00     0.125 C 
HETATM   14  C31 UNL     1      23.536  24.135  18.995  1.00  0.00     0.024 C 
BRANCH  12  15
HETATM   15  C21 UNL     1      24.255  27.561  17.657  1.00  0.00     0.132 A 
HETATM   16  N6  UNL     1      25.455  28.175  17.890  1.00  0.00    -0.337 N 
HETATM   17  C22 UNL     1      25.927  29.199  17.195  1.00  0.00     0.182 A 
ATOM     18  H6  UNL     1      26.027  27.819  18.656  1.00  0.00     0.168 HD
HETATM   19  N7  UNL     1      25.170  29.663  16.192  1.00  0.00    -0.360 N 
HETATM   20  C23 UNL     1      23.983  29.145  15.873  1.00  0.00     0.122 A 
ATOM     21  H7  UNL     1      25.518  30.452  15.645  1.00  0.00     0.166 HD
HETATM   22  C24 UNL     1      23.497  28.055  16.627  1.00  0.00     0.090 A 
BRANCH  22  23
HETATM   23  N8  UNL     1      22.257  27.549  16.266  1.00  0.00    -0.377 N 
HETATM   24  C25 UNL     1      22.163  26.766  15.016  1.00  0.00     0.123 C 
HETATM   25  C26 UNL     1      21.025  27.354  14.177  1.00  0.00     0.020 C 
HETATM   26  C27 UNL     1      19.751  26.917  14.877  1.00  0.00     0.003 C 
HETATM   27  C28 UNL     1      20.001  26.598  16.322  1.00  0.00     0.020 C 
HETATM   28  C29 UNL     1      20.990  27.625  16.934  1.00  0.00     0.123 C 
ENDBRANCH  22  23
ENDBRANCH  12  15
ENDBRANCH   8   9
ENDBRANCH   7   8
ENDBRANCH   4   7
BRANCH   1  29
HETATM   29  C12 UNL     1      16.660  23.405  15.048  1.00  0.00     0.330 C 
BRANCH  29  30
HETATM   30  N3  UNL     1      15.945  22.169  15.047  1.00  0.00     0.094 N 
HETATM   31  C11 UNL     1      14.945  22.267  16.111  1.00  0.00     0.275 C 
HETATM   32  C10 UNL     1      13.655  22.868  15.624  1.00  0.00     0.055 C 
HETATM   33  C9  UNL     1      12.991  21.953  14.616  1.00  0.00     0.087 C 
HETATM   34  C33 UNL     1      14.054  21.012  14.086  1.00  0.00     0.055 C 
HETATM   35  C32 UNL     1      15.290  21.870  13.784  1.00  0.00     0.275 C 
BRANCH  33  36
HETATM   36  N2  UNL     1      11.892  21.214  15.217  1.00  0.00    -0.355 N 
HETATM   37  C8  UNL     1      10.607  21.183  14.589  1.00  0.00     0.235 C 
HETATM   38  O2  UNL     1      10.448  21.808  13.516  1.00  0.00    -0.272 OA
ATOM     39  H2  UNL     1      12.038  20.714  16.093  1.00  0.00     0.162 HD
BRANCH  37  40
HETATM   40  C7  UNL     1       9.509  20.417  15.220  1.00  0.00     0.225 C 
BRANCH  40  41
HETATM   41  N1  UNL     1       9.884  19.861  16.484  1.00  0.00    -0.352 N 
HETATM   42  C6  UNL     1      10.216  18.483  16.622  1.00  0.00     0.222 C 
HETATM   43  O1  UNL     1      10.194  17.708  15.641  1.00  0.00    -0.273 OA
ATOM     44  H1  UNL     1       9.915  20.465  17.306  1.00  0.00     0.162 HD
BRANCH  42  45
HETATM   45  C5  UNL     1      10.605  17.915  17.958  1.00  0.00     0.086 A 
HETATM   46  C3  UNL     1      11.886  18.287  18.570  1.00  0.00     0.021 A 
HETATM   47  C4  UNL     1      11.783  16.959  17.901  1.00  0.00     0.024 A 
BRANCH  46  48
HETATM   48  C2  UNL     1      11.948  18.275  20.054  1.00  0.00    -0.031 C 
HETATM   49  C1  UNL     1      13.075  18.689  20.633  1.00  0.00     0.007 C 
ENDBRANCH  46  48
ENDBRANCH  42  45
ENDBRANCH  40  41
ENDBRANCH  37  40
ENDBRANCH  33  36
ENDBRANCH  29  30
ENDBRANCH   1  29
TORSDOF 12
ENDMDL
MODEL 5
REMARK VINA RESULT: -9.197591462      2.796      5.550
REMARK  12 active torsions:
REMARK  status: ('A' for Active; 'I' for Inactive)
REMARK    1  A    between atoms: C2_2  and  C3_3 
REMARK    2  A    between atoms: C5_5  and  C6_6 
REMARK       I    between atoms: C6_6  and  N1_8 
REMARK    3  A    between atoms: N1_8  and  C7_10 
REMARK    4  A    between atoms: C7_10  and  C8_11 
REMARK       I    between atoms: C8_11  and  N2_13 
REMARK    5  A    between atoms: N2_13  and  C9_15 
REMARK    6  A    between atoms: N3_18  and  C12_19 
REMARK    7  A    between atoms: C12_19  and  C13_20 
REMARK    8  A    between atoms: N4_23  and  C16_24 
REMARK    9  A    between atoms: C16_24  and  C17_25 
REMARK   10  A    between atoms: C17_25  and  C18_26 
REMARK   11  A    between atoms: N5_29  and  C21_30 
REMARK   12  A    between atoms: C24_37  and  N8_38 
ROOT
HETATM    1  C13 UNL     1      14.934  21.337  15.481  1.00  0.00     0.055 A 
HETATM    2  C14 UNL     1      15.565  22.115  14.539  1.00  0.00     0.047 A 
HETATM    3  C15 UNL     1      16.643  22.661  15.203  1.00  0.00     0.112 A 
HETATM    4  N4  UNL     1      16.638  22.223  16.465  1.00  0.00    -0.303 N 
HETATM    5  N9  UNL     1      15.608  21.429  16.618  1.00  0.00    -0.301 N 
ATOM      6  H9  UNL     1      15.361  20.951  17.485  1.00  0.00     0.187 HD
ENDROOT
BRANCH   4   7
HETATM    7  C16 UNL     1      17.577  22.544  17.524  1.00  0.00     0.148 C 
BRANCH   7   8
HETATM    8  C17 UNL     1      17.796  21.456  18.519  1.00  0.00     0.026 C 
BRANCH   8   9
HETATM    9  C18 UNL     1      18.113  22.004  19.887  1.00  0.00    -0.010 C 
HETATM   10  C19 UNL     1      17.615  23.409  20.093  1.00  0.00     0.024 C 
HETATM   11  C20 UNL     1      18.744  24.277  20.637  1.00  0.00     0.125 C 
HETATM   12  N5  UNL     1      19.887  24.199  19.759  1.00  0.00    -0.365 N 
HETATM   13  C30 UNL     1      20.472  22.879  19.634  1.00  0.00     0.125 C 
HETATM   14  C31 UNL     1      19.577  21.820  20.234  1.00  0.00     0.024 C 
BRANCH  12  15
HETATM   15  C21 UNL     1      20.391  25.289  19.073  1.00  0.00     0.132 A 
HETATM   16  N6  UNL     1      19.723  25.649  17.934  1.00  0.00    -0.337 N 
HETATM   17  C22 UNL     1      20.044  26.679  17.164  1.00  0.00     0.182 A 
ATOM     18  H6  UNL     1      18.920  25.084  17.658  1.00  0.00     0.168 HD
HETATM   19  N7  UNL     1      21.101  27.416  17.531  1.00  0.00    -0.360 N 
HETATM   20  C23 UNL     1      21.827  27.159  18.620  1.00  0.00     0.122 A 
ATOM     21  H7  UNL     1      21.363  28.212  16.950  1.00  0.00     0.166 HD
HETATM   22  C24 UNL     1      21.469  26.058  19.427  1.00  0.00     0.090 A 
BRANCH  22  23
HETATM   23  N8  UNL     1      22.253  25.823  20.547  1.00  0.00    -0.377 N 
HETATM   24  C25 UNL     1      23.565  25.173  20.354  1.00  0.00     0.123 C 
HETATM   25  C26 UNL     1      23.646  23.981  21.313  1.00  0.00     0.020 C 
HETATM   26  C27 UNL     1      23.838  24.593  22.688  1.00  0.00     0.003 C 
HETATM   27  C28 UNL     1      23.343  26.009  22.732  1.00  0.00     0.020 C 
HETATM   28  C29 UNL     1      22.023  26.140  21.927  1.00  0.00     0.123 C 
ENDBRANCH  22  23
ENDBRANCH  12  15
ENDBRANCH   8   9
ENDBRANCH   7   8
ENDBRANCH   4   7
BRANCH   1  29
HETATM   29  C12 UNL     1      13.690  20.540  15.228  1.00  0.00     0.330 C 
BRANCH  29  30
HETATM   30  N3  UNL     1      12.854  21.078  14.203  1.00  0.00     0.094 N 
HETATM   31  C11 UNL     1      12.867  20.112  13.105  1.00  0.00     0.275 C 
HETATM   32  C10 UNL     1      11.795  19.068  13.254  1.00  0.00     0.055 C 
HETATM   33  C9  UNL     1      10.423  19.697  13.137  1.00  0.00     0.087 C 
HETATM   34  C33 UNL     1      10.579  21.182  13.397  1.00  0.00     0.055 C 
HETATM   35  C32 UNL     1      11.484  21.320  14.628  1.00  0.00     0.275 C 
BRANCH  33  36
HETATM   36  N2  UNL     1       9.840  19.455  11.827  1.00  0.00    -0.355 N 
HETATM   37  C8  UNL     1       8.898  18.396  11.633  1.00  0.00     0.235 C 
HETATM   38  O2  UNL     1       8.590  17.681  12.613  1.00  0.00    -0.272 OA
ATOM     39  H2  UNL     1      10.105  20.046  11.039  1.00  0.00     0.162 HD
BRANCH  37  40
HETATM   40  C7  UNL     1       8.317  18.178  10.289  1.00  0.00     0.225 C 
BRANCH  40  41
HETATM   41  N1  UNL     1       7.322  19.152   9.957  1.00  0.00    -0.352 N 
HETATM   42  C6  UNL     1       7.670  20.398   9.363  1.00  0.00     0.222 C 
HETATM   43  O1  UNL     1       8.858  20.687   9.107  1.00  0.00    -0.273 OA
ATOM     44  H1  UNL     1       6.341  18.948  10.150  1.00  0.00     0.162 HD
BRANCH  42  45
HETATM   45  C5  UNL     1       6.611  21.410   9.023  1.00  0.00     0.086 A 
HETATM   46  C3  UNL     1       6.848  22.835   9.277  1.00  0.00     0.021 A 
HETATM   47  C4  UNL     1       5.990  22.082  10.235  1.00  0.00     0.024 A 
BRANCH  46  48
HETATM   48  C2  UNL     1       6.152  23.799   8.385  1.00  0.00    -0.031 C 
HETATM   49  C1  UNL     1       6.879  24.768   7.828  1.00  0.00     0.007 C 
ENDBRANCH  46  48
ENDBRANCH  42  45
ENDBRANCH  40  41
ENDBRANCH  37  40
ENDBRANCH  33  36
ENDBRANCH  29  30
ENDBRANCH   1  29
TORSDOF 12
ENDMDL
