MODEL 1
REMARK VINA RESULT: -9.475253638      0.000      0.000
REMARK  12 active torsions:
REMARK  status: ('A' for Active; 'I' for Inactive)
REMARK    1  A    between atoms: C2_2  and  C3_3 
REMARK    2  A    between atoms: C3_3  and  C4_4 
REMARK    3  A    between atoms: C4_4  and  C5_5 
REMARK       I    between atoms: C5_5  and  N1_7 
REMARK    4  A    between atoms: C6_9  and  C7_10 
REMARK    5  A    between atoms: C6_9  and  C14_21 
REMARK       I    between atoms: C7_10  and  N2_12 
REMARK    6  A    between atoms: N2_12  and  N3_14 
REMARK       I    between atoms: N4_23  and  C16_24 
REMARK    7  A    between atoms: C16_24  and  C17_26 
REMARK    8  A    between atoms: C17_26  and  C18_27 
REMARK    9  A    between atoms: N5_29  and  C20_30 
REMARK   10  A    between atoms: C20_30  and  C21_31 
REMARK       I    between atoms: C21_31  and  N6_33 
REMARK   11  A    between atoms: C27_42  and  C28_43 
REMARK   12  A    between atoms: C28_43  and  C29_44 
ROOT
HETATM    1  C14 UNL     1      10.514  18.767  16.434  1.00  0.00     0.082 A 
HETATM    2  C15 UNL     1      11.625  19.320  15.843  1.00  0.00     0.133 A 
HETATM    3  N4  UNL     1      11.289  20.491  15.213  1.00  0.00    -0.280 N 
HETATM    4  C16 UNL     1      12.234  21.326  14.604  1.00  0.00     0.231 C 
HETATM    5  O3  UNL     1      11.921  22.378  14.016  1.00  0.00    -0.273 OA
HETATM    6  C27 UNL     1       9.992  20.671  15.400  1.00  0.00     0.090 A 
HETATM    7  N9  UNL     1       9.526  19.632  16.138  1.00  0.00    -0.342 N 
ATOM      8  H9  UNL     1       8.555  19.521  16.430  1.00  0.00     0.167 HD
ENDROOT
BRANCH   1   9
HETATM    9  C6  UNL     1      10.376  17.507  17.145  1.00  0.00     0.133 C 
HETATM   10  N1  UNL     1      10.828  17.342  18.300  1.00  0.00    -0.321 N 
HETATM   11  C5  UNL     1      11.577  18.120  19.185  1.00  0.00     0.222 C 
ATOM     12  H1  UNL     1      10.594  16.427  18.684  1.00  0.00     0.169 HD
HETATM   13  O1  UNL     1      11.083  18.747  20.169  1.00  0.00    -0.273 OA
BRANCH  11  14
HETATM   14  C4  UNL     1      13.073  18.268  19.024  1.00  0.00     0.103 C 
BRANCH  14  15
HETATM   15  C3  UNL     1      13.608  19.468  19.744  1.00  0.00     0.009 C 
BRANCH  15  16
HETATM   16  C2  UNL     1      14.375  20.385  18.803  1.00  0.00    -0.004 C 
HETATM   17  C1  UNL     1      15.053  19.555  17.720  1.00  0.00     0.005 C 
ENDBRANCH  15  16
ENDBRANCH  14  15
ENDBRANCH  11  14
BRANCH   9  18
HETATM   18  C7  UNL     1       9.624  16.407  16.559  1.00  0.00     0.289 C 
HETATM   19  O2  UNL     1       9.829  16.001  15.416  1.00  0.00    -0.264 OA
HETATM   20  N2  UNL     1       8.584  15.735  17.319  1.00  0.00    -0.259 N 
ATOM     21  H2  UNL     1       8.397  16.052  18.270  1.00  0.00     0.191 HD
BRANCH  20  22
HETATM   22  N3  UNL     1       7.842  14.697  16.819  1.00  0.00    -0.283 N 
HETATM   23  C8  UNL     1       8.222  13.402  17.222  1.00  0.00     0.088 C 
HETATM   24  C9  UNL     1       7.234  12.330  16.853  1.00  0.00     0.051 C 
HETATM   25  C10 UNL     1       5.909  12.734  17.456  1.00  0.00    -0.009 C 
HETATM   26  C11 UNL     1       4.905  11.647  17.071  1.00  0.00     0.010 C 
HETATM   27  C12 UNL     1       5.448  14.106  17.040  1.00  0.00     0.051 C 
HETATM   28  C13 UNL     1       6.526  14.953  16.411  1.00  0.00     0.088 C 
ENDBRANCH  20  22
ENDBRANCH   9  18
ENDBRANCH   1   9
BRANCH   6  29
HETATM   29  C28 UNL     1       9.091  21.725  14.874  1.00  0.00     0.076 C 
BRANCH  29  30
HETATM   30  C29 UNL     1       8.855  21.474  13.410  1.00  0.00     0.003 C 
HETATM   31  C30 UNL     1       8.143  22.566  12.669  1.00  0.00     0.005 C 
ENDBRANCH  29  30
ENDBRANCH   6  29
BRANCH   4  32
HETATM   32  C17 UNL     1      13.702  20.984  14.644  1.00  0.00     0.130 C 
BRANCH  32  33
HETATM   33  C18 UNL     1      14.481  22.224  14.912  1.00  0.00     0.111 C 
HETATM   34  C19 UNL     1      15.947  21.932  15.182  1.00  0.00     0.156 C 
HETATM   35  N5  UNL     1      16.268  23.101  16.046  1.00  0.00    -0.324 N 
HETATM   36  C26 UNL     1      15.051  23.356  16.727  1.00  0.00     0.191 C 
HETATM   37  N7  UNL     1      14.886  24.022  17.967  1.00  0.00    -0.063 NA
HETATM   38  N8  UNL     1      14.037  22.867  16.096  1.00  0.00    -0.358 N 
ATOM     39  H8  UNL     1      13.066  22.932  16.401  1.00  0.00     0.162 HD
BRANCH  35  40
HETATM   40  C20 UNL     1      17.569  23.643  16.093  1.00  0.00     0.167 C 
BRANCH  40  41
HETATM   41  C21 UNL     1      18.045  24.232  17.329  1.00  0.00     0.259 C 
HETATM   42  O4  UNL     1      18.200  25.474  17.466  1.00  0.00    -0.267 OA
HETATM   43  N6  UNL     1      18.356  23.407  18.450  1.00  0.00    -0.347 N 
HETATM   44  C22 UNL     1      18.215  21.977  18.506  1.00  0.00     0.126 C 
HETATM   45  C25 UNL     1      18.880  23.903  19.701  1.00  0.00     0.126 C 
HETATM   46  C23 UNL     1      18.738  21.541  19.819  1.00  0.00     0.021 C 
HETATM   47  C24 UNL     1      18.908  22.762  20.653  1.00  0.00     0.021 C 
ENDBRANCH  40  41
ENDBRANCH  35  40
ENDBRANCH  32  33
ENDBRANCH   4  32
TORSDOF 12
ENDMDL
MODEL 2
REMARK VINA RESULT: -9.462554208      0.970      1.345
REMARK  12 active torsions:
REMARK  status: ('A' for Active; 'I' for Inactive)
REMARK    1  A    between atoms: C2_2  and  C3_3 
REMARK    2  A    between atoms: C3_3  and  C4_4 
REMARK    3  A    between atoms: C4_4  and  C5_5 
REMARK       I    between atoms: C5_5  and  N1_7 
REMARK    4  A    between atoms: C6_9  and  C7_10 
REMARK    5  A    between atoms: C6_9  and  C14_21 
REMARK       I    between atoms: C7_10  and  N2_12 
REMARK    6  A    between atoms: N2_12  and  N3_14 
REMARK       I    between atoms: N4_23  and  C16_24 
REMARK    7  A    between atoms: C16_24  and  C17_26 
REMARK    8  A    between atoms: C17_26  and  C18_27 
REMARK    9  A    between atoms: N5_29  and  C20_30 
REMARK   10  A    between atoms: C20_30  and  C21_31 
REMARK       I    between atoms: C21_31  and  N6_33 
REMARK   11  A    between atoms: C27_42  and  C28_43 
REMARK   12  A    between atoms: C28_43  and  C29_44 
ROOT
HETATM    1  C14 UNL     1      10.725  18.672  16.549  1.00  0.00     0.082 A 
HETATM    2  C15 UNL     1      11.777  19.258  15.888  1.00  0.00     0.133 A 
HETATM    3  N4  UNL     1      11.362  20.409  15.267  1.00  0.00    -0.280 N 
HETATM    4  C16 UNL     1      12.237  21.270  14.595  1.00  0.00     0.231 C 
HETATM    5  O3  UNL     1      11.851  22.302  14.016  1.00  0.00    -0.273 OA
HETATM    6  C27 UNL     1      10.072  20.543  15.528  1.00  0.00     0.090 A 
HETATM    7  N9  UNL     1       9.688  19.496  16.303  1.00  0.00    -0.342 N 
ATOM      8  H9  UNL     1       8.741  19.354  16.653  1.00  0.00     0.167 HD
ENDROOT
BRANCH   1   9
HETATM    9  C6  UNL     1      10.675  17.417  17.279  1.00  0.00     0.133 C 
HETATM   10  N1  UNL     1      11.113  17.309  18.446  1.00  0.00    -0.321 N 
HETATM   11  C5  UNL     1      11.776  18.160  19.332  1.00  0.00     0.222 C 
ATOM     12  H1  UNL     1      10.948  16.383  18.841  1.00  0.00     0.169 HD
HETATM   13  O1  UNL     1      11.210  18.761  20.295  1.00  0.00    -0.273 OA
BRANCH  11  14
HETATM   14  C4  UNL     1      13.258  18.429  19.200  1.00  0.00     0.103 C 
BRANCH  14  15
HETATM   15  C3  UNL     1      13.640  19.781  19.720  1.00  0.00     0.009 C 
BRANCH  15  16
HETATM   16  C2  UNL     1      14.626  20.476  18.790  1.00  0.00    -0.004 C 
HETATM   17  C1  UNL     1      15.064  19.511  17.696  1.00  0.00     0.005 C 
ENDBRANCH  15  16
ENDBRANCH  14  15
ENDBRANCH  11  14
BRANCH   9  18
HETATM   18  C7  UNL     1      10.030  16.249  16.698  1.00  0.00     0.289 C 
HETATM   19  O2  UNL     1       9.242  16.328  15.757  1.00  0.00    -0.264 OA
HETATM   20  N2  UNL     1      10.300  14.919  17.219  1.00  0.00    -0.259 N 
ATOM     21  H2  UNL     1      10.952  14.827  17.998  1.00  0.00     0.191 HD
BRANCH  20  22
HETATM   22  N3  UNL     1       9.721  13.784  16.715  1.00  0.00    -0.283 N 
HETATM   23  C8  UNL     1       8.364  13.578  17.030  1.00  0.00     0.088 C 
HETATM   24  C9  UNL     1       7.716  12.463  16.255  1.00  0.00     0.051 C 
HETATM   25  C10 UNL     1       7.904  12.786  14.792  1.00  0.00    -0.009 C 
HETATM   26  C11 UNL     1       7.253  11.647  14.007  1.00  0.00     0.010 C 
HETATM   27  C12 UNL     1       9.343  12.996  14.398  1.00  0.00     0.051 C 
HETATM   28  C13 UNL     1      10.276  13.206  15.566  1.00  0.00     0.088 C 
ENDBRANCH  20  22
ENDBRANCH   9  18
ENDBRANCH   1   9
BRANCH   6  29
HETATM   29  C28 UNL     1       9.103  21.556  15.046  1.00  0.00     0.076 C 
BRANCH  29  30
HETATM   30  C29 UNL     1       8.826  21.307  13.589  1.00  0.00     0.003 C 
HETATM   31  C30 UNL     1       8.347  22.492  12.805  1.00  0.00     0.005 C 
ENDBRANCH  29  30
ENDBRANCH   6  29
BRANCH   4  32
HETATM   32  C17 UNL     1      13.717  20.983  14.552  1.00  0.00     0.130 C 
BRANCH  32  33
HETATM   33  C18 UNL     1      14.463  22.239  14.839  1.00  0.00     0.111 C 
HETATM   34  C19 UNL     1      15.934  21.982  15.111  1.00  0.00     0.156 C 
HETATM   35  N5  UNL     1      16.222  23.148  15.991  1.00  0.00    -0.324 N 
HETATM   36  C26 UNL     1      14.996  23.364  16.669  1.00  0.00     0.191 C 
HETATM   37  N7  UNL     1      14.809  24.010  17.916  1.00  0.00    -0.063 NA
HETATM   38  N8  UNL     1      13.997  22.856  16.028  1.00  0.00    -0.358 N 
ATOM     39  H8  UNL     1      13.024  22.893  16.330  1.00  0.00     0.162 HD
BRANCH  35  40
HETATM   40  C20 UNL     1      17.509  23.723  16.050  1.00  0.00     0.167 C 
BRANCH  40  41
HETATM   41  C21 UNL     1      17.973  24.287  17.301  1.00  0.00     0.259 C 
HETATM   42  O4  UNL     1      18.120  25.527  17.466  1.00  0.00    -0.267 OA
HETATM   43  N6  UNL     1      18.283  23.439  18.406  1.00  0.00    -0.347 N 
HETATM   44  C22 UNL     1      18.149  22.008  18.430  1.00  0.00     0.126 C 
HETATM   45  C25 UNL     1      18.796  23.911  19.671  1.00  0.00     0.126 C 
HETATM   46  C23 UNL     1      18.667  21.546  19.736  1.00  0.00     0.021 C 
HETATM   47  C24 UNL     1      18.825  22.750  20.597  1.00  0.00     0.021 C 
ENDBRANCH  40  41
ENDBRANCH  35  40
ENDBRANCH  32  33
ENDBRANCH   4  32
TORSDOF 12
ENDMDL
MODEL 3
REMARK VINA RESULT: -9.316764593      1.777      2.132
REMARK  12 active torsions:
REMARK  status: ('A' for Active; 'I' for Inactive)
REMARK    1  A    between atoms: C2_2  and  C3_3 
REMARK    2  A    between atoms: C3_3  and  C4_4 
REMARK    3  A    between atoms: C4_4  and  C5_5 
REMARK       I    between atoms: C5_5  and  N1_7 
REMARK    4  A    between atoms: C6_9  and  C7_10 
REMARK    5  A    between atoms: C6_9  and  C14_21 
REMARK       I    between atoms: C7_10  and  N2_12 
REMARK    6  A    between atoms: N2_12  and  N3_14 
REMARK       I    between atoms: N4_23  and  C16_24 
REMARK    7  A    between atoms: C16_24  and  C17_26 
REMARK    8  A    between atoms: C17_26  and  C18_27 
REMARK    9  A    between atoms: N5_29  and  C20_30 
REMARK   10  A    between atoms: C20_30  and  C21_31 
REMARK       I    between atoms: C21_31  and  N6_33 
REMARK   11  A    between atoms: C27_42  and  C28_43 
REMARK   12  A    between atoms: C28_43  and  C29_44 
ROOT
HETATM    1  C14 UNL     1      10.522  18.735  16.390  1.00  0.00     0.082 A 
HETATM    2  C15 UNL     1      11.627  19.296  15.796  1.00  0.00     0.133 A 
HETATM    3  N4  UNL     1      11.284  20.472  15.178  1.00  0.00    -0.280 N 
HETATM    4  C16 UNL     1      12.222  21.314  14.570  1.00  0.00     0.231 C 
HETATM    5  O3  UNL     1      11.902  22.370  13.994  1.00  0.00    -0.273 OA
HETATM    6  C27 UNL     1       9.988  20.647  15.376  1.00  0.00     0.090 A 
HETATM    7  N9  UNL     1       9.529  19.600  16.109  1.00  0.00    -0.342 N 
ATOM      8  H9  UNL     1       8.561  19.485  16.407  1.00  0.00     0.167 HD
ENDROOT
BRANCH   1   9
HETATM    9  C6  UNL     1      10.392  17.469  17.091  1.00  0.00     0.133 C 
HETATM   10  N1  UNL     1      10.837  17.300  18.247  1.00  0.00    -0.321 N 
HETATM   11  C5  UNL     1      11.572  18.079  19.144  1.00  0.00     0.222 C 
ATOM     12  H1  UNL     1      10.610  16.380  18.623  1.00  0.00     0.169 HD
HETATM   13  O1  UNL     1      11.064  18.695  20.129  1.00  0.00    -0.273 OA
BRANCH  11  14
HETATM   14  C4  UNL     1      13.067  18.244  18.995  1.00  0.00     0.103 C 
BRANCH  14  15
HETATM   15  C3  UNL     1      13.587  19.431  19.746  1.00  0.00     0.009 C 
BRANCH  15  16
HETATM   16  C2  UNL     1      14.333  20.388  18.826  1.00  0.00    -0.004 C 
HETATM   17  C1  UNL     1      15.044  19.598  17.735  1.00  0.00     0.005 C 
ENDBRANCH  15  16
ENDBRANCH  14  15
ENDBRANCH  11  14
BRANCH   9  18
HETATM   18  C7  UNL     1       9.656  16.365  16.491  1.00  0.00     0.289 C 
HETATM   19  O2  UNL     1       8.893  15.650  17.138  1.00  0.00    -0.264 OA
HETATM   20  N2  UNL     1       9.799  16.064  15.077  1.00  0.00    -0.259 N 
ATOM     21  H2  UNL     1      10.424  16.644  14.518  1.00  0.00     0.191 HD
BRANCH  20  22
HETATM   22  N3  UNL     1       9.135  15.037  14.458  1.00  0.00    -0.283 N 
HETATM   23  C8  UNL     1       8.066  15.397  13.615  1.00  0.00     0.088 C 
HETATM   24  C9  UNL     1       7.539  14.266  12.775  1.00  0.00     0.051 C 
HETATM   25  C10 UNL     1       8.711  13.728  11.988  1.00  0.00    -0.009 C 
HETATM   26  C11 UNL     1       8.173  12.573  11.142  1.00  0.00     0.010 C 
HETATM   27  C12 UNL     1       9.875  13.309  12.846  1.00  0.00     0.051 C 
HETATM   28  C13 UNL     1       9.813  13.826  14.263  1.00  0.00     0.088 C 
ENDBRANCH  20  22
ENDBRANCH   9  18
ENDBRANCH   1   9
BRANCH   6  29
HETATM   29  C28 UNL     1       9.080  21.703  14.866  1.00  0.00     0.076 C 
BRANCH  29  30
HETATM   30  C29 UNL     1       8.848  21.475  13.398  1.00  0.00     0.003 C 
HETATM   31  C30 UNL     1       8.131  22.574  12.673  1.00  0.00     0.005 C 
ENDBRANCH  29  30
ENDBRANCH   6  29
BRANCH   4  32
HETATM   32  C17 UNL     1      13.692  20.976  14.597  1.00  0.00     0.130 C 
BRANCH  32  33
HETATM   33  C18 UNL     1      14.469  22.213  14.883  1.00  0.00     0.111 C 
HETATM   34  C19 UNL     1      15.933  21.919  15.154  1.00  0.00     0.156 C 
HETATM   35  N5  UNL     1      16.250  23.077  16.034  1.00  0.00    -0.324 N 
HETATM   36  C26 UNL     1      15.030  23.324  16.713  1.00  0.00     0.191 C 
HETATM   37  N7  UNL     1      14.859  23.974  17.960  1.00  0.00    -0.063 NA
HETATM   38  N8  UNL     1      14.019  22.841  16.072  1.00  0.00    -0.358 N 
ATOM     39  H8  UNL     1      13.047  22.903  16.374  1.00  0.00     0.162 HD
BRANCH  35  40
HETATM   40  C20 UNL     1      17.551  23.620  16.093  1.00  0.00     0.167 C 
BRANCH  40  41
HETATM   41  C21 UNL     1      18.009  24.226  17.327  1.00  0.00     0.259 C 
HETATM   42  O4  UNL     1      18.132  25.472  17.459  1.00  0.00    -0.267 OA
HETATM   43  N6  UNL     1      18.337  23.413  18.453  1.00  0.00    -0.347 N 
HETATM   44  C22 UNL     1      18.231  21.981  18.515  1.00  0.00     0.126 C 
HETATM   45  C25 UNL     1      18.845  23.928  19.703  1.00  0.00     0.126 C 
HETATM   46  C23 UNL     1      18.761  21.563  19.832  1.00  0.00     0.021 C 
HETATM   47  C24 UNL     1      18.899  22.792  20.660  1.00  0.00     0.021 C 
ENDBRANCH  40  41
ENDBRANCH  35  40
ENDBRANCH  32  33
ENDBRANCH   4  32
TORSDOF 12
ENDMDL
MODEL 4
REMARK VINA RESULT: -9.267556374      1.323      1.770
REMARK  12 active torsions:
REMARK  status: ('A' for Active; 'I' for Inactive)
REMARK    1  A    between atoms: C2_2  and  C3_3 
REMARK    2  A    between atoms: C3_3  and  C4_4 
REMARK    3  A    between atoms: C4_4  and  C5_5 
REMARK       I    between atoms: C5_5  and  N1_7 
REMARK    4  A    between atoms: C6_9  and  C7_10 
REMARK    5  A    between atoms: C6_9  and  C14_21 
REMARK       I    between atoms: C7_10  and  N2_12 
REMARK    6  A    between atoms: N2_12  and  N3_14 
REMARK       I    between atoms: N4_23  and  C16_24 
REMARK    7  A    between atoms: C16_24  and  C17_26 
REMARK    8  A    between atoms: C17_26  and  C18_27 
REMARK    9  A    between atoms: N5_29  and  C20_30 
REMARK   10  A    between atoms: C20_30  and  C21_31 
REMARK       I    between atoms: C21_31  and  N6_33 
REMARK   11  A    between atoms: C27_42  and  C28_43 
REMARK   12  A    between atoms: C28_43  and  C29_44 
ROOT
HETATM    1  C14 UNL     1      10.755  18.708  16.568  1.00  0.00     0.082 A 
HETATM    2  C15 UNL     1      11.809  19.268  15.888  1.00  0.00     0.133 A 
HETATM    3  N4  UNL     1      11.409  20.423  15.265  1.00  0.00    -0.280 N 
HETATM    4  C16 UNL     1      12.293  21.261  14.575  1.00  0.00     0.231 C 
HETATM    5  O3  UNL     1      11.920  22.297  13.994  1.00  0.00    -0.273 OA
HETATM    6  C27 UNL     1      10.127  20.585  15.543  1.00  0.00     0.090 A 
HETATM    7  N9  UNL     1       9.732  19.552  16.331  1.00  0.00    -0.342 N 
ATOM      8  H9  UNL     1       8.787  19.432  16.695  1.00  0.00     0.167 HD
ENDROOT
BRANCH   1   9
HETATM    9  C6  UNL     1      10.690  17.459  17.307  1.00  0.00     0.133 C 
HETATM   10  N1  UNL     1      11.095  17.363  18.487  1.00  0.00    -0.321 N 
HETATM   11  C5  UNL     1      11.729  18.225  19.384  1.00  0.00     0.222 C 
ATOM     12  H1  UNL     1      10.922  16.440  18.886  1.00  0.00     0.169 HD
HETATM   13  O1  UNL     1      11.132  18.831  20.325  1.00  0.00    -0.273 OA
BRANCH  11  14
HETATM   14  C4  UNL     1      13.212  18.500  19.292  1.00  0.00     0.103 C 
BRANCH  14  15
HETATM   15  C3  UNL     1      13.529  19.960  19.398  1.00  0.00     0.009 C 
BRANCH  15  16
HETATM   16  C2  UNL     1      14.870  20.286  18.756  1.00  0.00    -0.004 C 
HETATM   17  C1  UNL     1      15.183  19.258  17.676  1.00  0.00     0.005 C 
ENDBRANCH  15  16
ENDBRANCH  14  15
ENDBRANCH  11  14
BRANCH   9  18
HETATM   18  C7  UNL     1      10.066  16.283  16.718  1.00  0.00     0.289 C 
HETATM   19  O2  UNL     1       9.248  16.357  15.803  1.00  0.00    -0.264 OA
HETATM   20  N2  UNL     1      10.396  14.952  17.199  1.00  0.00    -0.259 N 
ATOM     21  H2  UNL     1      11.074  14.864  17.956  1.00  0.00     0.191 HD
BRANCH  20  22
HETATM   22  N3  UNL     1       9.840  13.810  16.686  1.00  0.00    -0.283 N 
HETATM   23  C8  UNL     1       8.497  13.558  17.025  1.00  0.00     0.088 C 
HETATM   24  C9  UNL     1       7.866  12.438  16.243  1.00  0.00     0.051 C 
HETATM   25  C10 UNL     1       8.014  12.793  14.782  1.00  0.00    -0.009 C 
HETATM   26  C11 UNL     1       7.380  11.649  13.990  1.00  0.00     0.010 C 
HETATM   27  C12 UNL     1       9.437  13.053  14.364  1.00  0.00     0.051 C 
HETATM   28  C13 UNL     1      10.388  13.269  15.516  1.00  0.00     0.088 C 
ENDBRANCH  20  22
ENDBRANCH   9  18
ENDBRANCH   1   9
BRANCH   6  29
HETATM   29  C28 UNL     1       9.171  21.615  15.068  1.00  0.00     0.076 C 
BRANCH  29  30
HETATM   30  C29 UNL     1       8.870  21.363  13.616  1.00  0.00     0.003 C 
HETATM   31  C30 UNL     1       8.307  22.526  12.856  1.00  0.00     0.005 C 
ENDBRANCH  29  30
ENDBRANCH   6  29
BRANCH   4  32
HETATM   32  C17 UNL     1      13.766  20.943  14.513  1.00  0.00     0.130 C 
BRANCH  32  33
HETATM   33  C18 UNL     1      14.538  22.133  14.965  1.00  0.00     0.111 C 
HETATM   34  C19 UNL     1      15.906  21.756  15.505  1.00  0.00     0.156 C 
HETATM   35  N5  UNL     1      16.110  22.888  16.450  1.00  0.00    -0.324 N 
HETATM   36  C26 UNL     1      14.797  23.195  16.890  1.00  0.00     0.191 C 
HETATM   37  N7  UNL     1      14.426  23.843  18.094  1.00  0.00    -0.063 NA
HETATM   38  N8  UNL     1      13.903  22.774  16.059  1.00  0.00    -0.358 N 
ATOM     39  H8  UNL     1      12.895  22.887  16.172  1.00  0.00     0.162 HD
BRANCH  35  40
HETATM   40  C20 UNL     1      17.402  23.357  16.765  1.00  0.00     0.167 C 
BRANCH  40  41
HETATM   41  C21 UNL     1      18.216  22.609  17.702  1.00  0.00     0.259 C 
HETATM   42  O4  UNL     1      18.156  21.355  17.794  1.00  0.00    -0.267 OA
HETATM   43  N6  UNL     1      19.131  23.284  18.564  1.00  0.00    -0.347 N 
HETATM   44  C22 UNL     1      19.372  24.701  18.590  1.00  0.00     0.126 C 
HETATM   45  C25 UNL     1      19.945  22.624  19.559  1.00  0.00     0.126 C 
HETATM   46  C23 UNL     1      20.323  24.959  19.694  1.00  0.00     0.021 C 
HETATM   47  C24 UNL     1      20.869  23.643  20.120  1.00  0.00     0.021 C 
ENDBRANCH  40  41
ENDBRANCH  35  40
ENDBRANCH  32  33
ENDBRANCH   4  32
TORSDOF 12
ENDMDL
MODEL 5
REMARK VINA RESULT: -8.902792240      5.469     13.989
REMARK  12 active torsions:
REMARK  status: ('A' for Active; 'I' for Inactive)
REMARK    1  A    between atoms: C2_2  and  C3_3 
REMARK    2  A    between atoms: C3_3  and  C4_4 
REMARK    3  A    between atoms: C4_4  and  C5_5 
REMARK       I    between atoms: C5_5  and  N1_7 
REMARK    4  A    between atoms: C6_9  and  C7_10 
REMARK    5  A    between atoms: C6_9  and  C14_21 
REMARK       I    between atoms: C7_10  and  N2_12 
REMARK    6  A    between atoms: N2_12  and  N3_14 
REMARK       I    between atoms: N4_23  and  C16_24 
REMARK    7  A    between atoms: C16_24  and  C17_26 
REMARK    8  A    between atoms: C17_26  and  C18_27 
REMARK    9  A    between atoms: N5_29  and  C20_30 
REMARK   10  A    between atoms: C20_30  and  C21_31 
REMARK       I    between atoms: C21_31  and  N6_33 
REMARK   11  A    between atoms: C27_42  and  C28_43 
REMARK   12  A    between atoms: C28_43  and  C29_44 
ROOT
HETATM    1  C14 UNL     1      23.276  25.508  18.546  1.00  0.00     0.082 A 
HETATM    2  C15 UNL     1      22.236  24.633  18.752  1.00  0.00     0.133 A 
HETATM    3  N4  UNL     1      21.456  25.065  19.795  1.00  0.00    -0.280 N 
HETATM    4  C16 UNL     1      20.270  24.425  20.174  1.00  0.00     0.231 C 
HETATM    5  O3  UNL     1      19.577  24.810  21.134  1.00  0.00    -0.273 OA
HETATM    6  C27 UNL     1      21.995  26.187  20.240  1.00  0.00     0.090 A 
HETATM    7  N9  UNL     1      23.092  26.456  19.486  1.00  0.00    -0.342 N 
ATOM      8  H9  UNL     1      23.695  27.268  19.613  1.00  0.00     0.167 HD
ENDROOT
BRANCH   1   9
HETATM    9  C6  UNL     1      24.382  25.426  17.608  1.00  0.00     0.133 C 
HETATM   10  N1  UNL     1      24.529  26.252  16.680  1.00  0.00    -0.321 N 
HETATM   11  C5  UNL     1      23.794  27.339  16.202  1.00  0.00     0.222 C 
ATOM     12  H1  UNL     1      25.386  26.095  16.150  1.00  0.00     0.169 HD
HETATM   13  O1  UNL     1      24.076  28.550  16.453  1.00  0.00    -0.273 OA
BRANCH  11  14
HETATM   14  C4  UNL     1      22.578  27.139  15.328  1.00  0.00     0.103 C 
BRANCH  14  15
HETATM   15  C3  UNL     1      22.163  28.399  14.632  1.00  0.00     0.009 C 
BRANCH  15  16
HETATM   16  C2  UNL     1      20.825  28.229  13.926  1.00  0.00    -0.004 C 
HETATM   17  C1  UNL     1      19.965  27.232  14.693  1.00  0.00     0.005 C 
ENDBRANCH  15  16
ENDBRANCH  14  15
ENDBRANCH  11  14
BRANCH   9  18
HETATM   18  C7  UNL     1      25.413  24.412  17.769  1.00  0.00     0.289 C 
HETATM   19  O2  UNL     1      26.520  24.504  17.241  1.00  0.00    -0.264 OA
HETATM   20  N2  UNL     1      25.168  23.230  18.578  1.00  0.00    -0.259 N 
ATOM     21  H2  UNL     1      24.258  23.131  19.029  1.00  0.00     0.191 HD
BRANCH  20  22
HETATM   22  N3  UNL     1      26.098  22.241  18.763  1.00  0.00    -0.283 N 
HETATM   23  C8  UNL     1      26.874  22.321  19.935  1.00  0.00     0.088 C 
HETATM   24  C9  UNL     1      27.695  21.091  20.213  1.00  0.00     0.051 C 
HETATM   25  C10 UNL     1      26.732  19.929  20.261  1.00  0.00    -0.009 C 
HETATM   26  C11 UNL     1      27.570  18.679  20.534  1.00  0.00     0.010 C 
HETATM   27  C12 UNL     1      25.891  19.788  19.020  1.00  0.00     0.051 C 
HETATM   28  C13 UNL     1      25.895  21.007  18.131  1.00  0.00     0.088 C 
ENDBRANCH  20  22
ENDBRANCH   9  18
ENDBRANCH   1   9
BRANCH   6  29
HETATM   29  C28 UNL     1      21.615  27.034  21.397  1.00  0.00     0.076 C 
BRANCH  29  30
HETATM   30  C29 UNL     1      22.312  26.517  22.625  1.00  0.00     0.003 C 
HETATM   31  C30 UNL     1      21.865  27.112  23.927  1.00  0.00     0.005 C 
ENDBRANCH  29  30
ENDBRANCH   6  29
BRANCH   4  32
HETATM   32  C17 UNL     1      19.766  23.225  19.412  1.00  0.00     0.130 C 
BRANCH  32  33
HETATM   33  C18 UNL     1      18.358  23.472  18.995  1.00  0.00     0.111 C 
HETATM   34  C19 UNL     1      17.835  22.385  18.074  1.00  0.00     0.156 C 
HETATM   35  N5  UNL     1      16.825  23.177  17.319  1.00  0.00    -0.324 N 
HETATM   36  C26 UNL     1      17.384  24.479  17.282  1.00  0.00     0.191 C 
HETATM   37  N7  UNL     1      17.111  25.503  16.340  1.00  0.00    -0.063 NA
HETATM   38  N8  UNL     1      18.249  24.657  18.223  1.00  0.00    -0.358 N 
ATOM     39  H8  UNL     1      18.773  25.517  18.387  1.00  0.00     0.162 HD
BRANCH  35  40
HETATM   40  C20 UNL     1      15.672  22.571  16.777  1.00  0.00     0.167 C 
BRANCH  40  41
HETATM   41  C21 UNL     1      15.718  22.048  15.426  1.00  0.00     0.259 C 
HETATM   42  O4  UNL     1      16.746  22.138  14.704  1.00  0.00    -0.267 OA
HETATM   43  N6  UNL     1      14.578  21.401  14.863  1.00  0.00    -0.347 N 
HETATM   44  C22 UNL     1      13.328  21.168  15.532  1.00  0.00     0.126 C 
HETATM   45  C25 UNL     1      14.519  20.894  13.512  1.00  0.00     0.126 C 
HETATM   46  C23 UNL     1      12.414  20.555  14.543  1.00  0.00     0.021 C 
HETATM   47  C24 UNL     1      13.239  20.153  13.373  1.00  0.00     0.021 C 
ENDBRANCH  40  41
ENDBRANCH  35  40
ENDBRANCH  32  33
ENDBRANCH   4  32
TORSDOF 12
ENDMDL
