MODEL 1
REMARK VINA RESULT: -8.221190080      0.000      0.000
REMARK  16 active torsions:
REMARK  status: ('A' for Active; 'I' for Inactive)
REMARK    1  A    between atoms: N1_2  and  C2_4 
REMARK    2  A    between atoms: C3_9  and  S1_10 
REMARK    3  A    between atoms: S1_10  and  C4_11 
REMARK    4  A    between atoms: C4_11  and  C5_12 
REMARK    5  A    between atoms: C5_12  and  C6_13 
REMARK    6  A    between atoms: C6_13  and  C7_14 
REMARK    7  A    between atoms: C7_14  and  C8_15 
REMARK    8  A    between atoms: C8_15  and  C9_16 
REMARK    9  A    between atoms: C9_16  and  C10_17 
REMARK   10  A    between atoms: C10_17  and  C11_18 
REMARK       I    between atoms: C11_18  and  N4_20 
REMARK       I    between atoms: N5_23  and  C14_24 
REMARK   11  A    between atoms: C14_24  and  C15_26 
REMARK   12  A    between atoms: C15_26  and  N6_27 
REMARK   13  A    between atoms: C15_26  and  C16_31 
REMARK   14  A    between atoms: C16_31  and  C17_32 
REMARK       I    between atoms: N7_35  and  C20_36 
REMARK   15  A    between atoms: C20_36  and  O4_38 
REMARK   16  A    between atoms: O4_38  and  C21_39 
ROOT
HETATM    1  C11 UNL     1      20.746  27.300  16.388  1.00  0.00     0.219 C 
HETATM    2  O1  UNL     1      20.712  28.415  15.762  1.00  0.00    -0.273 OA
HETATM    3  N4  UNL     1      19.823  26.319  16.022  1.00  0.00    -0.349 N 
HETATM    4  C12 UNL     1      19.843  25.017  16.704  1.00  0.00     0.145 C 
HETATM    5  C13 UNL     1      19.369  24.042  15.614  1.00  0.00     0.145 C 
HETATM    6  N5  UNL     1      17.933  24.354  15.439  1.00  0.00    -0.347 N 
HETATM    7  C14 UNL     1      17.047  23.277  15.576  1.00  0.00     0.250 C 
HETATM    8  O2  UNL     1      17.529  22.098  15.816  1.00  0.00    -0.271 OA
HETATM    9  C27 UNL     1      17.623  25.708  15.139  1.00  0.00     0.145 C 
HETATM   10  C28 UNL     1      18.857  26.587  14.984  1.00  0.00     0.145 C 
ENDROOT
BRANCH   7  11
HETATM   11  C15 UNL     1      15.582  23.308  15.478  1.00  0.00     0.275 C 
BRANCH  11  12
HETATM   12  N6  UNL     1      14.994  23.844  16.703  1.00  0.00    -0.066 N 
ATOM     13  H63 UNL     1      14.740  23.103  17.357  1.00  0.00     0.275 HD
ATOM     14  H62 UNL     1      15.688  24.324  17.277  1.00  0.00     0.275 HD
ATOM     15  H61 UNL     1      14.201  24.448  16.489  1.00  0.00     0.275 HD
ENDBRANCH  11  12
BRANCH  11  16
HETATM   16  C16 UNL     1      14.938  21.984  15.258  1.00  0.00     0.047 C 
BRANCH  16  17
HETATM   17  C17 UNL     1      13.828  21.920  14.276  1.00  0.00    -0.009 C 
HETATM   18  C18 UNL     1      13.698  20.449  13.857  1.00  0.00     0.024 C 
HETATM   19  C19 UNL     1      13.187  19.586  14.990  1.00  0.00     0.128 C 
HETATM   20  N7  UNL     1      11.993  20.223  15.501  1.00  0.00    -0.328 N 
HETATM   21  C20 UNL     1      11.355  19.760  16.678  1.00  0.00     0.363 C 
HETATM   22  C25 UNL     1      11.489  21.350  14.745  1.00  0.00     0.128 C 
HETATM   23  O3  UNL     1      10.306  20.330  17.133  1.00  0.00    -0.238 OA
HETATM   24  C26 UNL     1      12.530  22.440  14.770  1.00  0.00     0.024 C 
BRANCH  21  25
HETATM   25  O4  UNL     1      11.828  18.685  17.381  1.00  0.00    -0.294 OA
BRANCH  25  26
HETATM   26  C21 UNL     1      12.575  18.719  18.555  1.00  0.00     0.061 C 
HETATM   27  C22 UNL     1      13.411  19.971  18.686  1.00  0.00     0.046 C 
HETATM   28  C23 UNL     1      13.506  17.520  18.552  1.00  0.00     0.046 C 
HETATM   29  C24 UNL     1      11.738  18.598  19.820  1.00  0.00     0.046 C 
ENDBRANCH  25  26
ENDBRANCH  21  25
ENDBRANCH  16  17
ENDBRANCH  11  16
ENDBRANCH   7  11
BRANCH   1  30
HETATM   30  C10 UNL     1      21.779  27.177  17.448  1.00  0.00     0.103 C 
BRANCH  30  31
HETATM   31  C9  UNL     1      23.144  26.870  16.841  1.00  0.00     0.009 C 
BRANCH  31  32
HETATM   32  C8  UNL     1      24.245  27.461  17.652  1.00  0.00     0.000 C 
BRANCH  32  33
HETATM   33  C7  UNL     1      24.969  26.431  18.492  1.00  0.00     0.000 C 
BRANCH  33  34
HETATM   34  C6  UNL     1      24.933  25.045  17.835  1.00  0.00     0.001 C 
BRANCH  34  35
HETATM   35  C5  UNL     1      24.615  23.994  18.827  1.00  0.00     0.010 C 
BRANCH  35  36
HETATM   36  C4  UNL     1      23.198  23.608  19.023  1.00  0.00     0.081 C 
BRANCH  36  37
HETATM   37  S1  UNL     1      22.221  24.454  20.221  1.00  0.00    -0.103 SA
BRANCH  37  38
HETATM   38  C3  UNL     1      20.479  24.147  20.178  1.00  0.00     0.130 A 
HETATM   39  N3  UNL     1      19.505  25.040  20.374  1.00  0.00    -0.286 N 
HETATM   40  N2  UNL     1      18.292  24.719  20.257  1.00  0.00    -0.279 N 
ATOM     41  H3  UNL     1      19.747  25.999  20.624  1.00  0.00     0.188 HD
HETATM   42  C2  UNL     1      17.989  23.457  19.929  1.00  0.00     0.161 A 
ATOM     43  H2  UNL     1      17.556  25.408  20.408  1.00  0.00     0.189 HD
HETATM   44  S2  UNL     1      19.537  22.754  19.797  1.00  0.00    -0.027 SA
BRANCH  42  45
HETATM   45  N1  UNL     1      16.794  22.938  19.762  1.00  0.00    -0.374 N 
HETATM   46  C1  UNL     1      16.653  21.664  19.113  1.00  0.00     0.148 C 
ATOM     47  H1  UNL     1      15.969  23.438  20.093  1.00  0.00     0.161 HD
ENDBRANCH  42  45
ENDBRANCH  37  38
ENDBRANCH  36  37
ENDBRANCH  35  36
ENDBRANCH  34  35
ENDBRANCH  33  34
ENDBRANCH  32  33
ENDBRANCH  31  32
ENDBRANCH  30  31
ENDBRANCH   1  30
TORSDOF 16
ENDMDL
MODEL 2
REMARK VINA RESULT: -7.996048855      3.582     11.217
REMARK  16 active torsions:
REMARK  status: ('A' for Active; 'I' for Inactive)
REMARK    1  A    between atoms: N1_2  and  C2_4 
REMARK    2  A    between atoms: C3_9  and  S1_10 
REMARK    3  A    between atoms: S1_10  and  C4_11 
REMARK    4  A    between atoms: C4_11  and  C5_12 
REMARK    5  A    between atoms: C5_12  and  C6_13 
REMARK    6  A    between atoms: C6_13  and  C7_14 
REMARK    7  A    between atoms: C7_14  and  C8_15 
REMARK    8  A    between atoms: C8_15  and  C9_16 
REMARK    9  A    between atoms: C9_16  and  C10_17 
REMARK   10  A    between atoms: C10_17  and  C11_18 
REMARK       I    between atoms: C11_18  and  N4_20 
REMARK       I    between atoms: N5_23  and  C14_24 
REMARK   11  A    between atoms: C14_24  and  C15_26 
REMARK   12  A    between atoms: C15_26  and  N6_27 
REMARK   13  A    between atoms: C15_26  and  C16_31 
REMARK   14  A    between atoms: C16_31  and  C17_32 
REMARK       I    between atoms: N7_35  and  C20_36 
REMARK   15  A    between atoms: C20_36  and  O4_38 
REMARK   16  A    between atoms: O4_38  and  C21_39 
ROOT
HETATM    1  C11 UNL     1      11.520  20.735  14.618  1.00  0.00     0.219 C 
HETATM    2  O1  UNL     1      11.145  19.643  15.170  1.00  0.00    -0.273 OA
HETATM    3  N4  UNL     1      12.683  21.340  15.096  1.00  0.00    -0.349 N 
HETATM    4  C12 UNL     1      13.158  22.585  14.476  1.00  0.00     0.145 C 
HETATM    5  C13 UNL     1      14.685  22.492  14.627  1.00  0.00     0.145 C 
HETATM    6  N5  UNL     1      14.925  22.678  16.075  1.00  0.00    -0.347 N 
HETATM    7  C14 UNL     1      15.817  23.700  16.426  1.00  0.00     0.250 C 
HETATM    8  O2  UNL     1      16.383  24.387  15.484  1.00  0.00    -0.271 OA
HETATM    9  C27 UNL     1      14.232  21.787  16.939  1.00  0.00     0.145 C 
HETATM   10  C28 UNL     1      13.408  20.746  16.194  1.00  0.00     0.145 C 
ENDROOT
BRANCH   7  11
HETATM   11  C15 UNL     1      16.212  24.114  17.779  1.00  0.00     0.275 C 
BRANCH  11  12
HETATM   12  N6  UNL     1      15.222  25.021  18.352  1.00  0.00    -0.066 N 
ATOM     13  H63 UNL     1      15.292  25.065  19.369  1.00  0.00     0.275 HD
ATOM     14  H62 UNL     1      15.435  25.996  18.141  1.00  0.00     0.275 HD
ATOM     15  H61 UNL     1      14.282  24.767  18.048  1.00  0.00     0.275 HD
ENDBRANCH  11  12
BRANCH  11  16
HETATM   16  C16 UNL     1      17.519  24.825  17.862  1.00  0.00     0.047 C 
BRANCH  16  17
HETATM   17  C17 UNL     1      18.731  23.999  18.085  1.00  0.00    -0.009 C 
HETATM   18  C18 UNL     1      19.488  23.964  16.750  1.00  0.00     0.024 C 
HETATM   19  C19 UNL     1      20.068  25.316  16.397  1.00  0.00     0.128 C 
HETATM   20  N7  UNL     1      20.811  25.771  17.552  1.00  0.00    -0.328 N 
HETATM   21  C20 UNL     1      21.346  27.081  17.617  1.00  0.00     0.363 C 
HETATM   22  C25 UNL     1      20.979  24.818  18.628  1.00  0.00     0.128 C 
HETATM   23  O3  UNL     1      21.993  27.485  18.642  1.00  0.00    -0.238 OA
HETATM   24  C26 UNL     1      19.616  24.477  19.175  1.00  0.00     0.024 C 
BRANCH  21  25
HETATM   25  O4  UNL     1      21.196  27.974  16.590  1.00  0.00    -0.294 OA
BRANCH  25  26
HETATM   26  C21 UNL     1      22.039  28.131  15.492  1.00  0.00     0.061 C 
HETATM   27  C22 UNL     1      22.842  29.409  15.544  1.00  0.00     0.046 C 
HETATM   28  C23 UNL     1      21.177  28.157  14.242  1.00  0.00     0.046 C 
HETATM   29  C24 UNL     1      23.020  26.984  15.301  1.00  0.00     0.046 C 
ENDBRANCH  25  26
ENDBRANCH  21  25
ENDBRANCH  16  17
ENDBRANCH  11  16
ENDBRANCH   7  11
BRANCH   1  30
HETATM   30  C10 UNL     1      10.660  21.239  13.518  1.00  0.00     0.103 C 
BRANCH  30  31
HETATM   31  C9  UNL     1      10.273  20.108  12.571  1.00  0.00     0.009 C 
BRANCH  31  32
HETATM   32  C8  UNL     1      11.463  19.568  11.855  1.00  0.00     0.000 C 
BRANCH  32  33
HETATM   33  C7  UNL     1      11.093  18.576  10.773  1.00  0.00     0.000 C 
BRANCH  33  34
HETATM   34  C6  UNL     1      11.558  17.157  11.128  1.00  0.00     0.001 C 
BRANCH  34  35
HETATM   35  C5  UNL     1      11.715  17.000  12.591  1.00  0.00     0.010 C 
BRANCH  35  36
HETATM   36  C4  UNL     1      11.715  15.633  13.163  1.00  0.00     0.081 C 
BRANCH  36  37
HETATM   37  S1  UNL     1      10.591  15.230  14.459  1.00  0.00    -0.103 SA
BRANCH  37  38
HETATM   38  C3  UNL     1      10.587  16.306  15.863  1.00  0.00     0.130 A 
HETATM   39  N3  UNL     1       9.774  17.345  16.072  1.00  0.00    -0.286 N 
HETATM   40  N2  UNL     1       9.821  18.006  17.144  1.00  0.00    -0.279 N 
ATOM     41  H3  UNL     1       9.102  17.608  15.351  1.00  0.00     0.188 HD
HETATM   42  C2  UNL     1      10.708  17.650  18.081  1.00  0.00     0.161 A 
ATOM     43  H2  UNL     1       9.196  18.797  17.294  1.00  0.00     0.189 HD
HETATM   44  S2  UNL     1      11.471  16.315  17.344  1.00  0.00    -0.027 SA
BRANCH  42  45
HETATM   45  N1  UNL     1      10.906  18.212  19.251  1.00  0.00    -0.374 N 
HETATM   46  C1  UNL     1      12.174  18.820  19.547  1.00  0.00     0.148 C 
ATOM     47  H1  UNL     1      10.162  18.217  19.948  1.00  0.00     0.161 HD
ENDBRANCH  42  45
ENDBRANCH  37  38
ENDBRANCH  36  37
ENDBRANCH  35  36
ENDBRANCH  34  35
ENDBRANCH  33  34
ENDBRANCH  32  33
ENDBRANCH  31  32
ENDBRANCH  30  31
ENDBRANCH   1  30
TORSDOF 16
ENDMDL
MODEL 3
REMARK VINA RESULT: -7.988511524      3.531     10.223
REMARK  16 active torsions:
REMARK  status: ('A' for Active; 'I' for Inactive)
REMARK    1  A    between atoms: N1_2  and  C2_4 
REMARK    2  A    between atoms: C3_9  and  S1_10 
REMARK    3  A    between atoms: S1_10  and  C4_11 
REMARK    4  A    between atoms: C4_11  and  C5_12 
REMARK    5  A    between atoms: C5_12  and  C6_13 
REMARK    6  A    between atoms: C6_13  and  C7_14 
REMARK    7  A    between atoms: C7_14  and  C8_15 
REMARK    8  A    between atoms: C8_15  and  C9_16 
REMARK    9  A    between atoms: C9_16  and  C10_17 
REMARK   10  A    between atoms: C10_17  and  C11_18 
REMARK       I    between atoms: C11_18  and  N4_20 
REMARK       I    between atoms: N5_23  and  C14_24 
REMARK   11  A    between atoms: C14_24  and  C15_26 
REMARK   12  A    between atoms: C15_26  and  N6_27 
REMARK   13  A    between atoms: C15_26  and  C16_31 
REMARK   14  A    between atoms: C16_31  and  C17_32 
REMARK       I    between atoms: N7_35  and  C20_36 
REMARK   15  A    between atoms: C20_36  and  O4_38 
REMARK   16  A    between atoms: O4_38  and  C21_39 
ROOT
HETATM    1  C11 UNL     1      15.123  21.498  14.426  1.00  0.00     0.219 C 
HETATM    2  O1  UNL     1      15.681  21.703  13.292  1.00  0.00    -0.273 OA
HETATM    3  N4  UNL     1      15.786  21.946  15.569  1.00  0.00    -0.349 N 
HETATM    4  C12 UNL     1      15.169  21.747  16.888  1.00  0.00     0.145 C 
HETATM    5  C13 UNL     1      15.664  22.960  17.693  1.00  0.00     0.145 C 
HETATM    6  N5  UNL     1      17.104  22.698  17.908  1.00  0.00    -0.347 N 
HETATM    7  C14 UNL     1      17.544  22.724  19.238  1.00  0.00     0.250 C 
HETATM    8  O2  UNL     1      16.689  22.995  20.174  1.00  0.00    -0.271 OA
HETATM    9  C27 UNL     1      17.874  22.465  16.737  1.00  0.00     0.145 C 
HETATM   10  C28 UNL     1      17.070  22.596  15.451  1.00  0.00     0.145 C 
ENDROOT
BRANCH   7  11
HETATM   11  C15 UNL     1      18.904  22.476  19.734  1.00  0.00     0.275 C 
BRANCH  11  12
HETATM   12  N6  UNL     1      18.910  21.377  20.696  1.00  0.00    -0.066 N 
ATOM     13  H63 UNL     1      18.216  21.514  21.431  1.00  0.00     0.275 HD
ATOM     14  H62 UNL     1      18.538  20.518  20.291  1.00  0.00     0.275 HD
ATOM     15  H61 UNL     1      19.845  21.239  21.079  1.00  0.00     0.275 HD
ENDBRANCH  11  12
BRANCH  11  16
HETATM   16  C16 UNL     1      19.542  23.631  20.424  1.00  0.00     0.047 C 
BRANCH  16  17
HETATM   17  C17 UNL     1      21.002  23.815  20.236  1.00  0.00    -0.009 C 
HETATM   18  C18 UNL     1      21.314  23.402  18.791  1.00  0.00     0.024 C 
HETATM   19  C19 UNL     1      20.727  24.374  17.791  1.00  0.00     0.128 C 
HETATM   20  N7  UNL     1      21.147  25.699  18.192  1.00  0.00    -0.328 N 
HETATM   21  C20 UNL     1      20.634  26.859  17.562  1.00  0.00     0.363 C 
HETATM   22  C25 UNL     1      22.118  25.771  19.263  1.00  0.00     0.128 C 
HETATM   23  O3  UNL     1      20.999  28.028  17.925  1.00  0.00    -0.238 OA
HETATM   24  C26 UNL     1      21.496  25.187  20.506  1.00  0.00     0.024 C 
BRANCH  21  25
HETATM   25  O4  UNL     1      19.726  26.784  16.540  1.00  0.00    -0.294 OA
BRANCH  25  26
HETATM   26  C21 UNL     1      19.983  26.961  15.183  1.00  0.00     0.061 C 
HETATM   27  C22 UNL     1      20.366  28.380  14.835  1.00  0.00     0.046 C 
HETATM   28  C23 UNL     1      18.720  26.606  14.419  1.00  0.00     0.046 C 
HETATM   29  C24 UNL     1      21.072  26.049  14.639  1.00  0.00     0.046 C 
ENDBRANCH  25  26
ENDBRANCH  21  25
ENDBRANCH  16  17
ENDBRANCH  11  16
ENDBRANCH   7  11
BRANCH   1  30
HETATM   30  C10 UNL     1      13.816  20.795  14.393  1.00  0.00     0.103 C 
BRANCH  30  31
HETATM   31  C9  UNL     1      13.683  19.956  13.125  1.00  0.00     0.009 C 
BRANCH  31  32
HETATM   32  C8  UNL     1      12.376  19.242  13.080  1.00  0.00     0.000 C 
BRANCH  32  33
HETATM   33  C7  UNL     1      11.505  19.692  11.928  1.00  0.00     0.000 C 
BRANCH  33  34
HETATM   34  C6  UNL     1      10.149  20.216  12.420  1.00  0.00     0.001 C 
BRANCH  34  35
HETATM   35  C5  UNL     1      10.307  21.490  13.158  1.00  0.00     0.010 C 
BRANCH  35  36
HETATM   36  C4  UNL     1       9.868  21.551  14.571  1.00  0.00     0.081 C 
BRANCH  36  37
HETATM   37  S1  UNL     1       9.535  20.059  15.447  1.00  0.00    -0.103 SA
BRANCH  37  38
HETATM   38  C3  UNL     1      10.750  19.549  16.628  1.00  0.00     0.130 A 
HETATM   39  N3  UNL     1      11.629  20.332  17.259  1.00  0.00    -0.286 N 
HETATM   40  N2  UNL     1      12.409  19.866  18.131  1.00  0.00    -0.279 N 
ATOM     41  H3  UNL     1      11.669  21.326  17.032  1.00  0.00     0.188 HD
HETATM   42  C2  UNL     1      12.347  18.560  18.420  1.00  0.00     0.161 A 
ATOM     43  H2  UNL     1      13.077  20.472  18.608  1.00  0.00     0.189 HD
HETATM   44  S2  UNL     1      11.106  18.036  17.374  1.00  0.00    -0.027 SA
BRANCH  42  45
HETATM   45  N1  UNL     1      13.072  17.897  19.291  1.00  0.00    -0.374 N 
HETATM   46  C1  UNL     1      13.247  18.417  20.619  1.00  0.00     0.148 C 
ATOM     47  H1  UNL     1      13.509  17.015  19.025  1.00  0.00     0.161 HD
ENDBRANCH  42  45
ENDBRANCH  37  38
ENDBRANCH  36  37
ENDBRANCH  35  36
ENDBRANCH  34  35
ENDBRANCH  33  34
ENDBRANCH  32  33
ENDBRANCH  31  32
ENDBRANCH  30  31
ENDBRANCH   1  30
TORSDOF 16
ENDMDL
MODEL 4
REMARK VINA RESULT: -7.985309006      3.705     10.828
REMARK  16 active torsions:
REMARK  status: ('A' for Active; 'I' for Inactive)
REMARK    1  A    between atoms: N1_2  and  C2_4 
REMARK    2  A    between atoms: C3_9  and  S1_10 
REMARK    3  A    between atoms: S1_10  and  C4_11 
REMARK    4  A    between atoms: C4_11  and  C5_12 
REMARK    5  A    between atoms: C5_12  and  C6_13 
REMARK    6  A    between atoms: C6_13  and  C7_14 
REMARK    7  A    between atoms: C7_14  and  C8_15 
REMARK    8  A    between atoms: C8_15  and  C9_16 
REMARK    9  A    between atoms: C9_16  and  C10_17 
REMARK   10  A    between atoms: C10_17  and  C11_18 
REMARK       I    between atoms: C11_18  and  N4_20 
REMARK       I    between atoms: N5_23  and  C14_24 
REMARK   11  A    between atoms: C14_24  and  C15_26 
REMARK   12  A    between atoms: C15_26  and  N6_27 
REMARK   13  A    between atoms: C15_26  and  C16_31 
REMARK   14  A    between atoms: C16_31  and  C17_32 
REMARK       I    between atoms: N7_35  and  C20_36 
REMARK   15  A    between atoms: C20_36  and  O4_38 
REMARK   16  A    between atoms: O4_38  and  C21_39 
ROOT
HETATM    1  C11 UNL     1      11.205  20.856  15.103  1.00  0.00     0.219 C 
HETATM    2  O1  UNL     1      10.468  20.265  15.965  1.00  0.00    -0.273 OA
HETATM    3  N4  UNL     1      12.558  21.022  15.406  1.00  0.00    -0.349 N 
HETATM    4  C12 UNL     1      13.442  21.679  14.434  1.00  0.00     0.145 C 
HETATM    5  C13 UNL     1      14.798  20.994  14.673  1.00  0.00     0.145 C 
HETATM    6  N5  UNL     1      15.241  21.503  15.989  1.00  0.00    -0.347 N 
HETATM    7  C14 UNL     1      16.510  22.098  16.024  1.00  0.00     0.250 C 
HETATM    8  O2  UNL     1      17.210  22.142  14.935  1.00  0.00    -0.271 OA
HETATM    9  C27 UNL     1      14.333  21.317  17.066  1.00  0.00     0.145 C 
HETATM   10  C28 UNL     1      13.078  20.553  16.669  1.00  0.00     0.145 C 
ENDROOT
BRANCH   7  11
HETATM   11  C15 UNL     1      17.180  22.704  17.182  1.00  0.00     0.275 C 
BRANCH  11  12
HETATM   12  N6  UNL     1      18.381  23.424  16.766  1.00  0.00    -0.066 N 
ATOM     13  H63 UNL     1      18.998  22.837  16.204  1.00  0.00     0.275 HD
ATOM     14  H62 UNL     1      18.171  24.138  16.068  1.00  0.00     0.275 HD
ATOM     15  H61 UNL     1      18.864  23.816  17.573  1.00  0.00     0.275 HD
ENDBRANCH  11  12
BRANCH  11  16
HETATM   16  C16 UNL     1      17.619  21.741  18.230  1.00  0.00     0.047 C 
BRANCH  16  17
HETATM   17  C17 UNL     1      17.533  22.184  19.643  1.00  0.00    -0.009 C 
HETATM   18  C18 UNL     1      18.747  21.585  20.365  1.00  0.00     0.024 C 
HETATM   19  C19 UNL     1      20.043  22.212  19.901  1.00  0.00     0.128 C 
HETATM   20  N7  UNL     1      19.877  23.646  19.994  1.00  0.00    -0.328 N 
HETATM   21  C20 UNL     1      20.848  24.537  19.478  1.00  0.00     0.363 C 
HETATM   22  C25 UNL     1      18.670  24.114  20.644  1.00  0.00     0.128 C 
HETATM   23  O3  UNL     1      20.694  25.803  19.552  1.00  0.00    -0.238 OA
HETATM   24  C26 UNL     1      17.487  23.655  19.831  1.00  0.00     0.024 C 
BRANCH  21  25
HETATM   25  O4  UNL     1      21.993  24.089  18.877  1.00  0.00    -0.294 OA
BRANCH  25  26
HETATM   26  C21 UNL     1      23.275  24.089  19.421  1.00  0.00     0.061 C 
HETATM   27  C22 UNL     1      24.098  25.282  18.991  1.00  0.00     0.046 C 
HETATM   28  C23 UNL     1      23.981  22.829  18.954  1.00  0.00     0.046 C 
HETATM   29  C24 UNL     1      23.298  24.045  20.941  1.00  0.00     0.046 C 
ENDBRANCH  25  26
ENDBRANCH  21  25
ENDBRANCH  16  17
ENDBRANCH  11  16
ENDBRANCH   7  11
BRANCH   1  30
HETATM   30  C10 UNL     1      10.527  21.306  13.862  1.00  0.00     0.103 C 
BRANCH  30  31
HETATM   31  C9  UNL     1       9.705  20.174  13.253  1.00  0.00     0.009 C 
BRANCH  31  32
HETATM   32  C8  UNL     1      10.211  19.800  11.903  1.00  0.00     0.000 C 
BRANCH  32  33
HETATM   33  C7  UNL     1      11.708  19.577  11.882  1.00  0.00     0.000 C 
BRANCH  33  34
HETATM   34  C6  UNL     1      12.076  18.187  12.419  1.00  0.00     0.001 C 
BRANCH  34  35
HETATM   35  C5  UNL     1      11.176  17.149  11.870  1.00  0.00     0.010 C 
BRANCH  35  36
HETATM   36  C4  UNL     1      11.116  15.831  12.546  1.00  0.00     0.081 C 
BRANCH  36  37
HETATM   37  S1  UNL     1      10.079  15.620  13.955  1.00  0.00    -0.103 SA
BRANCH  37  38
HETATM   38  C3  UNL     1      10.728  16.182  15.502  1.00  0.00     0.130 A 
HETATM   39  N3  UNL     1      11.383  17.324  15.727  1.00  0.00    -0.286 N 
HETATM   40  N2  UNL     1      11.745  17.651  16.889  1.00  0.00    -0.279 N 
ATOM     41  H3  UNL     1      11.594  17.944  14.945  1.00  0.00     0.188 HD
HETATM   42  C2  UNL     1      11.463  16.828  17.907  1.00  0.00     0.161 A 
ATOM     43  H2  UNL     1      12.245  18.525  17.051  1.00  0.00     0.189 HD
HETATM   44  S2  UNL     1      10.648  15.561  17.109  1.00  0.00    -0.027 SA
BRANCH  42  45
HETATM   45  N1  UNL     1      11.757  16.994  19.176  1.00  0.00    -0.374 N 
HETATM   46  C1  UNL     1      11.752  18.315  19.744  1.00  0.00     0.148 C 
ATOM     47  H1  UNL     1      11.987  16.189  19.757  1.00  0.00     0.161 HD
ENDBRANCH  42  45
ENDBRANCH  37  38
ENDBRANCH  36  37
ENDBRANCH  35  36
ENDBRANCH  34  35
ENDBRANCH  33  34
ENDBRANCH  32  33
ENDBRANCH  31  32
ENDBRANCH  30  31
ENDBRANCH   1  30
TORSDOF 16
ENDMDL
MODEL 5
REMARK VINA RESULT: -7.935498244      3.087     10.891
REMARK  16 active torsions:
REMARK  status: ('A' for Active; 'I' for Inactive)
REMARK    1  A    between atoms: N1_2  and  C2_4 
REMARK    2  A    between atoms: C3_9  and  S1_10 
REMARK    3  A    between atoms: S1_10  and  C4_11 
REMARK    4  A    between atoms: C4_11  and  C5_12 
REMARK    5  A    between atoms: C5_12  and  C6_13 
REMARK    6  A    between atoms: C6_13  and  C7_14 
REMARK    7  A    between atoms: C7_14  and  C8_15 
REMARK    8  A    between atoms: C8_15  and  C9_16 
REMARK    9  A    between atoms: C9_16  and  C10_17 
REMARK   10  A    between atoms: C10_17  and  C11_18 
REMARK       I    between atoms: C11_18  and  N4_20 
REMARK       I    between atoms: N5_23  and  C14_24 
REMARK   11  A    between atoms: C14_24  and  C15_26 
REMARK   12  A    between atoms: C15_26  and  N6_27 
REMARK   13  A    between atoms: C15_26  and  C16_31 
REMARK   14  A    between atoms: C16_31  and  C17_32 
REMARK       I    between atoms: N7_35  and  C20_36 
REMARK   15  A    between atoms: C20_36  and  O4_38 
REMARK   16  A    between atoms: O4_38  and  C21_39 
ROOT
HETATM    1  C11 UNL     1      13.861  20.573  18.130  1.00  0.00     0.219 C 
HETATM    2  O1  UNL     1      12.696  20.946  17.756  1.00  0.00    -0.273 OA
HETATM    3  N4  UNL     1      14.842  21.554  18.281  1.00  0.00    -0.349 N 
HETATM    4  C12 UNL     1      16.188  21.169  18.728  1.00  0.00     0.145 C 
HETATM    5  C13 UNL     1      16.662  22.401  19.517  1.00  0.00     0.145 C 
HETATM    6  N5  UNL     1      16.890  23.435  18.484  1.00  0.00    -0.347 N 
HETATM    7  C14 UNL     1      18.161  24.026  18.473  1.00  0.00     0.250 C 
HETATM    8  O2  UNL     1      19.029  23.657  19.361  1.00  0.00    -0.271 OA
HETATM    9  C27 UNL     1      15.787  23.718  17.634  1.00  0.00     0.145 C 
HETATM   10  C28 UNL     1      14.533  22.935  17.995  1.00  0.00     0.145 C 
ENDROOT
BRANCH   7  11
HETATM   11  C15 UNL     1      18.661  25.051  17.548  1.00  0.00     0.275 C 
BRANCH  11  12
HETATM   12  N6  UNL     1      18.573  24.587  16.166  1.00  0.00    -0.066 N 
ATOM     13  H63 UNL     1      17.605  24.442  15.876  1.00  0.00     0.275 HD
ATOM     14  H62 UNL     1      18.823  25.321  15.503  1.00  0.00     0.275 HD
ATOM     15  H61 UNL     1      19.138  23.749  16.030  1.00  0.00     0.275 HD
ENDBRANCH  11  12
BRANCH  11  16
HETATM   16  C16 UNL     1      20.080  25.450  17.758  1.00  0.00     0.047 C 
BRANCH  16  17
HETATM   17  C17 UNL     1      20.507  26.762  17.214  1.00  0.00    -0.009 C 
HETATM   18  C18 UNL     1      21.176  27.519  18.369  1.00  0.00     0.024 C 
HETATM   19  C19 UNL     1      22.490  26.885  18.771  1.00  0.00     0.128 C 
HETATM   20  N7  UNL     1      23.269  26.725  17.563  1.00  0.00    -0.328 N 
HETATM   21  C20 UNL     1      24.490  26.007  17.561  1.00  0.00     0.363 C 
HETATM   22  C25 UNL     1      22.736  27.338  16.365  1.00  0.00     0.128 C 
HETATM   23  O3  UNL     1      25.172  25.859  16.491  1.00  0.00    -0.238 OA
HETATM   24  C26 UNL     1      21.417  26.683  16.045  1.00  0.00     0.024 C 
BRANCH  21  25
HETATM   25  O4  UNL     1      24.997  25.441  18.699  1.00  0.00    -0.294 OA
BRANCH  25  26
HETATM   26  C21 UNL     1      24.945  24.096  19.057  1.00  0.00     0.061 C 
HETATM   27  C22 UNL     1      23.581  23.482  18.846  1.00  0.00     0.046 C 
HETATM   28  C23 UNL     1      25.294  23.990  20.530  1.00  0.00     0.046 C 
HETATM   29  C24 UNL     1      25.954  23.226  18.322  1.00  0.00     0.046 C 
ENDBRANCH  25  26
ENDBRANCH  21  25
ENDBRANCH  16  17
ENDBRANCH  11  16
ENDBRANCH   7  11
BRANCH   1  30
HETATM   30  C10 UNL     1      14.038  19.117  18.363  1.00  0.00     0.103 C 
BRANCH  30  31
HETATM   31  C9  UNL     1      13.553  18.729  19.756  1.00  0.00     0.009 C 
BRANCH  31  32
HETATM   32  C8  UNL     1      12.640  17.552  19.706  1.00  0.00     0.000 C 
BRANCH  32  33
HETATM   33  C7  UNL     1      12.184  17.228  18.300  1.00  0.00     0.000 C 
BRANCH  33  34
HETATM   34  C6  UNL     1      10.687  17.512  18.116  1.00  0.00     0.001 C 
BRANCH  34  35
HETATM   35  C5  UNL     1      10.455  18.424  16.973  1.00  0.00     0.010 C 
BRANCH  35  36
HETATM   36  C4  UNL     1      10.386  17.850  15.609  1.00  0.00     0.081 C 
BRANCH  36  37
HETATM   37  S1  UNL     1      10.509  18.912  14.209  1.00  0.00    -0.103 SA
BRANCH  37  38
HETATM   38  C3  UNL     1      11.652  20.257  14.337  1.00  0.00     0.130 A 
HETATM   39  N3  UNL     1      11.468  21.401  15.000  1.00  0.00    -0.286 N 
HETATM   40  N2  UNL     1      12.382  22.266  15.075  1.00  0.00    -0.279 N 
ATOM     41  H3  UNL     1      10.573  21.579  15.455  1.00  0.00     0.188 HD
HETATM   42  C2  UNL     1      13.552  22.020  14.473  1.00  0.00     0.161 A 
ATOM     43  H2  UNL     1      12.232  23.137  15.584  1.00  0.00     0.189 HD
HETATM   44  S2  UNL     1      13.273  20.481  13.794  1.00  0.00    -0.027 SA
BRANCH  42  45
HETATM   45  N1  UNL     1      14.613  22.793  14.439  1.00  0.00    -0.374 N 
HETATM   46  C1  UNL     1      15.911  22.215  14.216  1.00  0.00     0.148 C 
ATOM     47  H1  UNL     1      14.517  23.799  14.570  1.00  0.00     0.161 HD
ENDBRANCH  42  45
ENDBRANCH  37  38
ENDBRANCH  36  37
ENDBRANCH  35  36
ENDBRANCH  34  35
ENDBRANCH  33  34
ENDBRANCH  32  33
ENDBRANCH  31  32
ENDBRANCH  30  31
ENDBRANCH   1  30
TORSDOF 16
ENDMDL
