MODEL 1
REMARK VINA RESULT: -9.310683439      0.000      0.000
REMARK  7 active torsions:
REMARK  status: ('A' for Active; 'I' for Inactive)
REMARK    1  A    between atoms: N1_2  and  C3_4 
REMARK    2  A    between atoms: C3_4  and  C4_5 
REMARK    3  A    between atoms: C6_7  and  S1_8 
REMARK    4  A    between atoms: S1_8  and  C7_9 
REMARK    5  A    between atoms: C10_12  and  C11_13 
REMARK    6  A    between atoms: C19_21  and  N2_22 
REMARK    7  A    between atoms: N2_22  and  C20_23 
ROOT
HETATM    1  C4  UNL     1      14.076  23.261   5.465  1.00  0.00     0.012 A 
HETATM    2  C5  UNL     1      13.994  22.636   4.270  1.00  0.00     0.031 A 
HETATM    3  C6  UNL     1      12.871  21.918   3.855  1.00  0.00     0.006 A 
HETATM    4  C17 UNL     1      11.827  21.853   4.716  1.00  0.00     0.022 A 
HETATM    5  C18 UNL     1      11.886  22.476   5.915  1.00  0.00     0.047 A 
HETATM    6  C19 UNL     1      13.017  23.223   6.362  1.00  0.00     0.115 A 
ENDROOT
BRANCH   6   7
HETATM    7  N2  UNL     1      12.917  23.885   7.501  1.00  0.00    -0.404 NA
BRANCH   7   8
HETATM    8  C20 UNL     1      12.913  24.543   8.469  1.00  0.00     0.121 A 
HETATM    9  C21 UNL     1      13.602  25.782   8.461  1.00  0.00     0.062 A 
HETATM   10  C22 UNL     1      13.500  26.609   9.538  1.00  0.00     0.091 A 
HETATM   11  N3  UNL     1      12.769  26.283  10.608  1.00  0.00    -0.365 N 
HETATM   12  C23 UNL     1      12.101  25.117  10.662  1.00  0.00     0.045 A 
ATOM     13  H3  UNL     1      12.716  26.929  11.395  1.00  0.00     0.165 HD
HETATM   14  C24 UNL     1      11.365  24.897  11.811  1.00  0.00     0.033 A 
HETATM   15  C28 UNL     1      12.160  24.246   9.615  1.00  0.00     0.034 A 
HETATM   16  C25 UNL     1      10.631  23.722  11.938  1.00  0.00     0.044 A 
HETATM   17  C26 UNL     1      10.696  22.835  10.873  1.00  0.00     0.117 A 
HETATM   18  F1  UNL     1       9.989  21.680  10.982  1.00  0.00    -0.206 F 
HETATM   19  C27 UNL     1      11.443  23.080   9.729  1.00  0.00     0.059 A 
ENDBRANCH   7   8
ENDBRANCH   6   7
BRANCH   1  20
HETATM   20  C3  UNL     1      15.345  23.922   5.873  1.00  0.00     0.313 C 
BRANCH  20  21
HETATM   21  N1  UNL     1      15.798  24.827   4.816  1.00  0.00     0.084 N 
HETATM   22  C1  UNL     1      17.035  24.284   4.245  1.00  0.00     0.309 C 
HETATM   23  C2  UNL     1      16.231  26.100   5.426  1.00  0.00     0.309 C 
ENDBRANCH  20  21
ENDBRANCH   1  20
BRANCH   3  24
HETATM   24  S1  UNL     1      12.903  21.213   2.276  1.00  0.00    -0.091 SA
BRANCH  24  25
HETATM   25  C7  UNL     1      11.571  20.135   1.815  1.00  0.00     0.005 A 
HETATM   26  C8  UNL     1      11.820  18.754   1.692  1.00  0.00     0.019 A 
HETATM   27  C9  UNL     1      10.839  17.856   1.363  1.00  0.00     0.009 A 
HETATM   28  C10 UNL     1       9.530  18.235   1.127  1.00  0.00    -0.051 A 
HETATM   29  C15 UNL     1       9.279  19.582   1.240  1.00  0.00     0.009 A 
HETATM   30  C16 UNL     1      10.280  20.505   1.574  1.00  0.00     0.019 A 
BRANCH  28  31
HETATM   31  C11 UNL     1       8.458  17.301   0.830  1.00  0.00    -0.024 C 
HETATM   32  C12 UNL     1       7.109  17.954   1.170  1.00  0.00     0.019 C 
HETATM   33  C13 UNL     1       8.526  15.992   1.565  1.00  0.00     0.019 C 
HETATM   34  C14 UNL     1       8.329  16.988  -0.674  1.00  0.00     0.019 C 
ENDBRANCH  28  31
ENDBRANCH  24  25
ENDBRANCH   3  24
TORSDOF 7
ENDMDL
MODEL 2
REMARK VINA RESULT: -9.150022874      0.795      1.117
REMARK  7 active torsions:
REMARK  status: ('A' for Active; 'I' for Inactive)
REMARK    1  A    between atoms: N1_2  and  C3_4 
REMARK    2  A    between atoms: C3_4  and  C4_5 
REMARK    3  A    between atoms: C6_7  and  S1_8 
REMARK    4  A    between atoms: S1_8  and  C7_9 
REMARK    5  A    between atoms: C10_12  and  C11_13 
REMARK    6  A    between atoms: C19_21  and  N2_22 
REMARK    7  A    between atoms: N2_22  and  C20_23 
ROOT
HETATM    1  C4  UNL     1      13.582  23.714   5.157  1.00  0.00     0.012 A 
HETATM    2  C5  UNL     1      13.594  23.002   4.008  1.00  0.00     0.031 A 
HETATM    3  C6  UNL     1      13.175  21.673   3.926  1.00  0.00     0.006 A 
HETATM    4  C17 UNL     1      12.747  21.088   5.072  1.00  0.00     0.022 A 
HETATM    5  C18 UNL     1      12.723  21.785   6.230  1.00  0.00     0.047 A 
HETATM    6  C19 UNL     1      13.138  23.146   6.342  1.00  0.00     0.115 A 
ENDROOT
BRANCH   6   7
HETATM    7  N2  UNL     1      12.961  23.759   7.500  1.00  0.00    -0.404 NA
BRANCH   7   8
HETATM    8  C20 UNL     1      12.911  24.352   8.508  1.00  0.00     0.121 A 
HETATM    9  C21 UNL     1      13.610  25.580   8.618  1.00  0.00     0.062 A 
HETATM   10  C22 UNL     1      13.457  26.335   9.741  1.00  0.00     0.091 A 
HETATM   11  N3  UNL     1      12.667  25.949  10.746  1.00  0.00    -0.365 N 
HETATM   12  C23 UNL     1      11.986  24.790  10.688  1.00  0.00     0.045 A 
ATOM     13  H3  UNL     1      12.577  26.542  11.571  1.00  0.00     0.165 HD
HETATM   14  C24 UNL     1      11.187  24.505  11.778  1.00  0.00     0.033 A 
HETATM   15  C28 UNL     1      12.094  23.990   9.589  1.00  0.00     0.034 A 
HETATM   16  C25 UNL     1      10.436  23.333  11.788  1.00  0.00     0.044 A 
HETATM   17  C26 UNL     1      10.551  22.517  10.671  1.00  0.00     0.117 A 
HETATM   18  F1  UNL     1       9.829  21.367  10.665  1.00  0.00    -0.206 F 
HETATM   19  C27 UNL     1      11.361  22.828   9.586  1.00  0.00     0.059 A 
ENDBRANCH   7   8
ENDBRANCH   6   7
BRANCH   1  20
HETATM   20  C3  UNL     1      14.138  25.094   5.181  1.00  0.00     0.313 C 
BRANCH  20  21
HETATM   21  N1  UNL     1      14.968  25.318   3.996  1.00  0.00     0.084 N 
HETATM   22  C1  UNL     1      16.201  25.989   4.418  1.00  0.00     0.309 C 
HETATM   23  C2  UNL     1      14.311  26.320   3.132  1.00  0.00     0.309 C 
ENDBRANCH  20  21
ENDBRANCH   1  20
BRANCH   3  24
HETATM   24  S1  UNL     1      13.205  20.913   2.373  1.00  0.00    -0.091 SA
BRANCH  24  25
HETATM   25  C7  UNL     1      11.786  19.970   1.877  1.00  0.00     0.005 A 
HETATM   26  C8  UNL     1      11.935  18.593   1.620  1.00  0.00     0.019 A 
HETATM   27  C9  UNL     1      10.883  17.795   1.255  1.00  0.00     0.009 A 
HETATM   28  C10 UNL     1       9.595  18.277   1.111  1.00  0.00    -0.051 A 
HETATM   29  C15 UNL     1       9.441  19.622   1.354  1.00  0.00     0.009 A 
HETATM   30  C16 UNL     1      10.515  20.444   1.726  1.00  0.00     0.019 A 
BRANCH  28  31
HETATM   31  C11 UNL     1       8.451  17.447   0.779  1.00  0.00    -0.024 C 
HETATM   32  C12 UNL     1       8.512  16.149   1.600  1.00  0.00     0.019 C 
HETATM   33  C13 UNL     1       8.337  17.062  -0.669  1.00  0.00     0.019 C 
HETATM   34  C14 UNL     1       7.108  18.072   1.206  1.00  0.00     0.019 C 
ENDBRANCH  28  31
ENDBRANCH  24  25
ENDBRANCH   3  24
TORSDOF 7
ENDMDL
MODEL 3
REMARK VINA RESULT: -8.421550539      1.561      2.132
REMARK  7 active torsions:
REMARK  status: ('A' for Active; 'I' for Inactive)
REMARK    1  A    between atoms: N1_2  and  C3_4 
REMARK    2  A    between atoms: C3_4  and  C4_5 
REMARK    3  A    between atoms: C6_7  and  S1_8 
REMARK    4  A    between atoms: S1_8  and  C7_9 
REMARK    5  A    between atoms: C10_12  and  C11_13 
REMARK    6  A    between atoms: C19_21  and  N2_22 
REMARK    7  A    between atoms: N2_22  and  C20_23 
ROOT
HETATM    1  C4  UNL     1      12.286  23.751   4.888  1.00  0.00     0.012 A 
HETATM    2  C5  UNL     1      12.413  22.999   3.771  1.00  0.00     0.031 A 
HETATM    3  C6  UNL     1      13.148  21.813   3.726  1.00  0.00     0.006 A 
HETATM    4  C17 UNL     1      13.761  21.422   4.869  1.00  0.00     0.022 A 
HETATM    5  C18 UNL     1      13.643  22.157   5.998  1.00  0.00     0.047 A 
HETATM    6  C19 UNL     1      12.893  23.368   6.076  1.00  0.00     0.115 A 
ENDROOT
BRANCH   6   7
HETATM    7  N2  UNL     1      12.752  23.939   7.259  1.00  0.00    -0.404 NA
BRANCH   7   8
HETATM    8  C20 UNL     1      12.743  24.474   8.301  1.00  0.00     0.121 A 
HETATM    9  C21 UNL     1      13.414  25.714   8.443  1.00  0.00     0.062 A 
HETATM   10  C22 UNL     1      13.305  26.401   9.614  1.00  0.00     0.091 A 
HETATM   11  N3  UNL     1      12.583  25.935  10.637  1.00  0.00    -0.365 N 
HETATM   12  C23 UNL     1      11.932  24.761  10.550  1.00  0.00     0.045 A 
ATOM     13  H3  UNL     1      12.524  26.478  11.499  1.00  0.00     0.165 HD
HETATM   14  C24 UNL     1      11.203  24.392  11.665  1.00  0.00     0.033 A 
HETATM   15  C28 UNL     1      11.999  24.028   9.403  1.00  0.00     0.034 A 
HETATM   16  C25 UNL     1      10.487  23.199  11.648  1.00  0.00     0.044 A 
HETATM   17  C26 UNL     1      10.560  22.451  10.482  1.00  0.00     0.117 A 
HETATM   18  F1  UNL     1       9.870  21.281  10.449  1.00  0.00    -0.206 F 
HETATM   19  C27 UNL     1      11.298  22.846   9.374  1.00  0.00     0.059 A 
ENDBRANCH   7   8
ENDBRANCH   6   7
BRANCH   1  20
HETATM   20  C3  UNL     1      11.569  25.053   4.829  1.00  0.00     0.313 C 
BRANCH  20  21
HETATM   21  N1  UNL     1      10.642  25.061   3.695  1.00  0.00     0.084 N 
HETATM   22  C1  UNL     1      11.164  25.983   2.682  1.00  0.00     0.309 C 
HETATM   23  C2  UNL     1       9.375  25.693   4.115  1.00  0.00     0.309 C 
ENDBRANCH  20  21
ENDBRANCH   1  20
BRANCH   3  24
HETATM   24  S1  UNL     1      13.175  20.940   2.233  1.00  0.00    -0.091 SA
BRANCH  24  25
HETATM   25  C7  UNL     1      11.750  19.972   1.805  1.00  0.00     0.005 A 
HETATM   26  C8  UNL     1      11.899  18.584   1.612  1.00  0.00     0.019 A 
HETATM   27  C9  UNL     1      10.843  17.768   1.303  1.00  0.00     0.009 A 
HETATM   28  C10 UNL     1       9.552  18.241   1.157  1.00  0.00    -0.051 A 
HETATM   29  C15 UNL     1       9.398  19.595   1.339  1.00  0.00     0.009 A 
HETATM   30  C16 UNL     1      10.476  20.436   1.653  1.00  0.00     0.019 A 
BRANCH  28  31
HETATM   31  C11 UNL     1       8.404  17.394   0.884  1.00  0.00    -0.024 C 
HETATM   32  C12 UNL     1       7.120  18.135   1.286  1.00  0.00     0.019 C 
HETATM   33  C13 UNL     1       8.404  16.068   1.592  1.00  0.00     0.019 C 
HETATM   34  C14 UNL     1       8.199  17.122  -0.620  1.00  0.00     0.019 C 
ENDBRANCH  28  31
ENDBRANCH  24  25
ENDBRANCH   3  24
TORSDOF 7
ENDMDL
MODEL 4
REMARK VINA RESULT: -8.321266066      1.583      2.411
REMARK  7 active torsions:
REMARK  status: ('A' for Active; 'I' for Inactive)
REMARK    1  A    between atoms: N1_2  and  C3_4 
REMARK    2  A    between atoms: C3_4  and  C4_5 
REMARK    3  A    between atoms: C6_7  and  S1_8 
REMARK    4  A    between atoms: S1_8  and  C7_9 
REMARK    5  A    between atoms: C10_12  and  C11_13 
REMARK    6  A    between atoms: C19_21  and  N2_22 
REMARK    7  A    between atoms: N2_22  and  C20_23 
ROOT
HETATM    1  C4  UNL     1      12.278  23.746   4.875  1.00  0.00     0.012 A 
HETATM    2  C5  UNL     1      12.407  23.011   3.748  1.00  0.00     0.031 A 
HETATM    3  C6  UNL     1      13.122  21.813   3.692  1.00  0.00     0.006 A 
HETATM    4  C17 UNL     1      13.712  21.391   4.837  1.00  0.00     0.022 A 
HETATM    5  C18 UNL     1      13.591  22.109   5.976  1.00  0.00     0.047 A 
HETATM    6  C19 UNL     1      12.861  23.333   6.065  1.00  0.00     0.115 A 
ENDROOT
BRANCH   6   7
HETATM    7  N2  UNL     1      12.714  23.886   7.256  1.00  0.00    -0.404 NA
BRANCH   7   8
HETATM    8  C20 UNL     1      12.703  24.382   8.317  1.00  0.00     0.121 A 
HETATM    9  C21 UNL     1      13.392  25.605   8.511  1.00  0.00     0.062 A 
HETATM   10  C22 UNL     1      13.281  26.250   9.706  1.00  0.00     0.091 A 
HETATM   11  N3  UNL     1      12.542  25.758  10.704  1.00  0.00    -0.365 N 
HETATM   12  C23 UNL     1      11.874  24.599  10.567  1.00  0.00     0.045 A 
ATOM     13  H3  UNL     1      12.483  26.270  11.584  1.00  0.00     0.165 HD
HETATM   14  C24 UNL     1      11.129  24.200  11.660  1.00  0.00     0.033 A 
HETATM   15  C28 UNL     1      11.941  23.907   9.394  1.00  0.00     0.034 A 
HETATM   16  C25 UNL     1      10.394  23.021  11.593  1.00  0.00     0.044 A 
HETATM   17  C26 UNL     1      10.468  22.314  10.401  1.00  0.00     0.117 A 
HETATM   18  F1  UNL     1       9.760  21.158  10.318  1.00  0.00    -0.206 F 
HETATM   19  C27 UNL     1      11.223  22.738   9.315  1.00  0.00     0.059 A 
ENDBRANCH   7   8
ENDBRANCH   6   7
BRANCH   1  20
HETATM   20  C3  UNL     1      11.584  25.061   4.829  1.00  0.00     0.313 C 
BRANCH  20  21
HETATM   21  N1  UNL     1      10.636  25.085   3.715  1.00  0.00     0.084 N 
HETATM   22  C1  UNL     1      11.119  26.048   2.721  1.00  0.00     0.309 C 
HETATM   23  C2  UNL     1       9.365  25.679   4.178  1.00  0.00     0.309 C 
ENDBRANCH  20  21
ENDBRANCH   1  20
BRANCH   3  24
HETATM   24  S1  UNL     1      13.155  20.965   2.186  1.00  0.00    -0.091 SA
BRANCH  24  25
HETATM   25  C7  UNL     1      11.803  19.878   1.809  1.00  0.00     0.005 A 
HETATM   26  C8  UNL     1      10.519  20.425   1.612  1.00  0.00     0.019 A 
HETATM   27  C9  UNL     1       9.432  19.654   1.296  1.00  0.00     0.009 A 
HETATM   28  C10 UNL     1       9.509  18.282   1.147  1.00  0.00    -0.051 A 
HETATM   29  C15 UNL     1      10.756  17.738   1.342  1.00  0.00     0.009 A 
HETATM   30  C16 UNL     1      11.872  18.522   1.668  1.00  0.00     0.019 A 
BRANCH  28  31
HETATM   31  C11 UNL     1       8.386  17.445   0.759  1.00  0.00    -0.024 C 
HETATM   32  C12 UNL     1       8.446  16.123   1.541  1.00  0.00     0.019 C 
HETATM   33  C13 UNL     1       8.316  17.105  -0.703  1.00  0.00     0.019 C 
HETATM   34  C14 UNL     1       7.023  18.037   1.169  1.00  0.00     0.019 C 
ENDBRANCH  28  31
ENDBRANCH  24  25
ENDBRANCH   3  24
TORSDOF 7
ENDMDL
MODEL 5
REMARK VINA RESULT: -8.023710636      1.641      2.480
REMARK  7 active torsions:
REMARK  status: ('A' for Active; 'I' for Inactive)
REMARK    1  A    between atoms: N1_2  and  C3_4 
REMARK    2  A    between atoms: C3_4  and  C4_5 
REMARK    3  A    between atoms: C6_7  and  S1_8 
REMARK    4  A    between atoms: S1_8  and  C7_9 
REMARK    5  A    between atoms: C10_12  and  C11_13 
REMARK    6  A    between atoms: C19_21  and  N2_22 
REMARK    7  A    between atoms: N2_22  and  C20_23 
ROOT
HETATM    1  C4  UNL     1      13.298  22.765   6.300  1.00  0.00     0.012 A 
HETATM    2  C5  UNL     1      13.346  22.296   5.033  1.00  0.00     0.031 A 
HETATM    3  C6  UNL     1      12.352  21.489   4.476  1.00  0.00     0.006 A 
HETATM    4  C17 UNL     1      11.301  21.168   5.269  1.00  0.00     0.022 A 
HETATM    5  C18 UNL     1      11.232  21.631   6.538  1.00  0.00     0.047 A 
HETATM    6  C19 UNL     1      12.228  22.463   7.130  1.00  0.00     0.115 A 
ENDROOT
BRANCH   6   7
HETATM    7  N2  UNL     1      11.997  22.950   8.337  1.00  0.00    -0.404 NA
BRANCH   7   8
HETATM    8  C20 UNL     1      11.676  23.367   9.383  1.00  0.00     0.121 A 
HETATM    9  C21 UNL     1      10.928  22.536  10.254  1.00  0.00     0.062 A 
HETATM   10  C22 UNL     1      10.657  22.968  11.518  1.00  0.00     0.091 A 
HETATM   11  N3  UNL     1      11.076  24.157  11.959  1.00  0.00    -0.365 N 
HETATM   12  C23 UNL     1      11.785  24.981  11.167  1.00  0.00     0.045 A 
ATOM     13  H3  UNL     1      10.854  24.446  12.912  1.00  0.00     0.165 HD
HETATM   14  C24 UNL     1      12.178  26.177  11.738  1.00  0.00     0.033 A 
HETATM   15  C28 UNL     1      12.092  24.606   9.892  1.00  0.00     0.034 A 
HETATM   16  C25 UNL     1      12.930  27.077  10.990  1.00  0.00     0.044 A 
HETATM   17  C26 UNL     1      13.237  26.696   9.692  1.00  0.00     0.117 A 
HETATM   18  F1  UNL     1      13.967  27.565   8.945  1.00  0.00    -0.206 F 
HETATM   19  C27 UNL     1      12.831  25.487   9.142  1.00  0.00     0.059 A 
ENDBRANCH   7   8
ENDBRANCH   6   7
BRANCH   1  20
HETATM   20  C3  UNL     1      14.445  23.537   6.850  1.00  0.00     0.313 C 
BRANCH  20  21
HETATM   21  N1  UNL     1      14.969  24.447   5.830  1.00  0.00     0.084 N 
HETATM   22  C1  UNL     1      16.251  23.916   5.357  1.00  0.00     0.309 C 
HETATM   23  C2  UNL     1      15.342  25.724   6.471  1.00  0.00     0.309 C 
ENDBRANCH  20  21
ENDBRANCH   1  20
BRANCH   3  24
HETATM   24  S1  UNL     1      12.536  21.009   2.826  1.00  0.00    -0.091 SA
BRANCH  24  25
HETATM   25  C7  UNL     1      11.281  19.976   2.112  1.00  0.00     0.005 A 
HETATM   26  C8  UNL     1      11.593  18.639   1.797  1.00  0.00     0.019 A 
HETATM   27  C9  UNL     1      10.672  17.775   1.266  1.00  0.00     0.009 A 
HETATM   28  C10 UNL     1       9.368  18.146   0.998  1.00  0.00    -0.051 A 
HETATM   29  C15 UNL     1       9.056  19.451   1.296  1.00  0.00     0.009 A 
HETATM   30  C16 UNL     1       9.995  20.341   1.838  1.00  0.00     0.019 A 
BRANCH  28  31
HETATM   31  C11 UNL     1       8.355  17.239   0.486  1.00  0.00    -0.024 C 
HETATM   32  C12 UNL     1       8.508  15.872   1.171  1.00  0.00     0.019 C 
HETATM   33  C13 UNL     1       8.392  17.010  -0.999  1.00  0.00     0.019 C 
HETATM   34  C14 UNL     1       6.921  17.663   0.860  1.00  0.00     0.019 C 
ENDBRANCH  28  31
ENDBRANCH  24  25
ENDBRANCH   3  24
TORSDOF 7
ENDMDL
