MODEL 1
REMARK VINA RESULT: -9.922464586      0.000      0.000
REMARK  6 active torsions:
REMARK  status: ('A' for Active; 'I' for Inactive)
REMARK    1  A    between atoms: C2_2  and  C3_3 
REMARK    2  A    between atoms: C8_8  and  O1_9 
REMARK    3  A    between atoms: C10_11  and  C11_12 
REMARK    4  A    between atoms: C11_12  and  C12_13 
REMARK    5  A    between atoms: C12_13  and  C14_15 
REMARK    6  A    between atoms: C16_17  and  O2_18 
ROOT
HETATM    1  C3  UNL     1      16.212  24.127   2.856  1.00  0.00    -0.024 A 
HETATM    2  C4  UNL     1      15.062  23.342   2.763  1.00  0.00     0.024 A 
HETATM    3  C5  UNL     1      14.068  23.380   3.704  1.00  0.00     0.003 A 
HETATM    4  C6  UNL     1      14.212  24.238   4.793  1.00  0.00    -0.015 A 
HETATM    5  C7  UNL     1      15.361  25.031   4.903  1.00  0.00     0.050 A 
HETATM    6  C8  UNL     1      16.342  24.969   3.940  1.00  0.00     0.075 A 
HETATM    7  C10 UNL     1      13.251  24.261   5.749  1.00  0.00    -0.045 A 
HETATM    8  C20 UNL     1      12.138  23.402   5.601  1.00  0.00     0.021 A 
HETATM    9  C21 UNL     1      12.019  22.567   4.519  1.00  0.00    -0.008 A 
HETATM   10  C22 UNL     1      10.920  21.719   4.367  1.00  0.00     0.015 A 
HETATM   11  C23 UNL     1      10.857  20.902   3.256  1.00  0.00     0.018 A 
HETATM   12  C24 UNL     1      11.835  20.889   2.292  1.00  0.00     0.088 A 
HETATM   13  N1  UNL     1      12.889  21.716   2.456  1.00  0.00    -0.365 N 
ATOM     14  H1  UNL     1      13.630  21.728   1.755  1.00  0.00     0.165 HD
HETATM   15  C25 UNL     1      12.981  22.532   3.538  1.00  0.00     0.053 A 
ENDROOT
BRANCH   7  16
HETATM   16  C11 UNL     1      13.246  25.186   6.873  1.00  0.00     0.048 C 
BRANCH  16  17
HETATM   17  C12 UNL     1      14.025  24.755   8.084  1.00  0.00     0.019 C 
HETATM   18  C13 UNL     1      14.437  23.341   8.113  1.00  0.00     0.015 C 
BRANCH  17  19
HETATM   19  C14 UNL     1      13.223  25.029   9.305  1.00  0.00    -0.050 A 
HETATM   20  C15 UNL     1      13.308  26.244   9.955  1.00  0.00     0.044 A 
HETATM   21  C16 UNL     1      12.580  26.517  11.100  1.00  0.00     0.067 A 
HETATM   22  C17 UNL     1      11.729  25.567  11.640  1.00  0.00     0.055 A 
HETATM   23  C18 UNL     1      11.637  24.359  11.001  1.00  0.00     0.014 A 
HETATM   24 BR1  UNL     1      10.482  22.991  11.698  1.00  0.00    -0.051 Br
HETATM   25  C19 UNL     1      12.369  24.102   9.863  1.00  0.00     0.026 A 
BRANCH  21  26
HETATM   26  O2  UNL     1      12.649  27.738  11.775  1.00  0.00    -0.361 OA
ATOM     27  H2  UNL     1      12.043  27.985  12.464  1.00  0.00     0.217 HD
ENDBRANCH  21  26
ENDBRANCH  17  19
ENDBRANCH  16  17
ENDBRANCH   7  16
BRANCH   6  28
HETATM   28  O1  UNL     1      17.510  25.732   3.985  1.00  0.00    -0.355 OA
HETATM   29  C9  UNL     1      17.409  26.990   4.673  1.00  0.00     0.210 C 
ENDBRANCH   6  28
BRANCH   1  30
HETATM   30  C2  UNL     1      17.234  24.042   1.820  1.00  0.00     0.037 C 
HETATM   31  C1  UNL     1      18.148  22.856   1.905  1.00  0.00     0.010 C 
ENDBRANCH   1  30
TORSDOF 6
ENDMDL
MODEL 2
REMARK VINA RESULT: -9.635421289      1.413      1.661
REMARK  6 active torsions:
REMARK  status: ('A' for Active; 'I' for Inactive)
REMARK    1  A    between atoms: C2_2  and  C3_3 
REMARK    2  A    between atoms: C8_8  and  O1_9 
REMARK    3  A    between atoms: C10_11  and  C11_12 
REMARK    4  A    between atoms: C11_12  and  C12_13 
REMARK    5  A    between atoms: C12_13  and  C14_15 
REMARK    6  A    between atoms: C16_17  and  O2_18 
ROOT
HETATM    1  C3  UNL     1      16.166  24.175   3.070  1.00  0.00    -0.024 A 
HETATM    2  C4  UNL     1      15.006  23.413   2.918  1.00  0.00     0.024 A 
HETATM    3  C5  UNL     1      14.007  23.401   3.854  1.00  0.00     0.003 A 
HETATM    4  C6  UNL     1      14.157  24.181   5.000  1.00  0.00    -0.015 A 
HETATM    5  C7  UNL     1      15.315  24.950   5.169  1.00  0.00     0.050 A 
HETATM    6  C8  UNL     1      16.300  24.939   4.209  1.00  0.00     0.075 A 
HETATM    7  C10 UNL     1      13.191  24.152   5.950  1.00  0.00    -0.045 A 
HETATM    8  C20 UNL     1      12.067  23.321   5.739  1.00  0.00     0.021 A 
HETATM    9  C21 UNL     1      11.944  22.562   4.602  1.00  0.00    -0.008 A 
HETATM   10  C22 UNL     1      10.834  21.741   4.388  1.00  0.00     0.015 A 
HETATM   11  C23 UNL     1      10.767  21.003   3.224  1.00  0.00     0.018 A 
HETATM   12  C24 UNL     1      11.750  21.042   2.265  1.00  0.00     0.088 A 
HETATM   13  N1  UNL     1      12.814  21.841   2.490  1.00  0.00    -0.365 N 
ATOM     14  H1  UNL     1      13.560  21.891   1.795  1.00  0.00     0.165 HD
HETATM   15  C25 UNL     1      12.911  22.581   3.626  1.00  0.00     0.053 A 
ENDROOT
BRANCH   7  16
HETATM   16  C11 UNL     1      13.191  24.999   7.134  1.00  0.00     0.048 C 
BRANCH  16  17
HETATM   17  C12 UNL     1      13.884  24.438   8.345  1.00  0.00     0.019 C 
HETATM   18  C13 UNL     1      14.271  23.019   8.263  1.00  0.00     0.015 C 
BRANCH  17  19
HETATM   19  C14 UNL     1      13.009  24.611   9.534  1.00  0.00    -0.050 A 
HETATM   20  C15 UNL     1      12.133  23.618   9.924  1.00  0.00     0.044 A 
HETATM   21  C16 UNL     1      11.300  23.763  11.021  1.00  0.00     0.067 A 
HETATM   22  C17 UNL     1      11.320  24.925  11.775  1.00  0.00     0.055 A 
HETATM   23  C18 UNL     1      12.187  25.915  11.395  1.00  0.00     0.014 A 
HETATM   24 BR1  UNL     1      12.260  27.557  12.390  1.00  0.00    -0.051 Br
HETATM   25  C19 UNL     1      13.008  25.756  10.302  1.00  0.00     0.026 A 
BRANCH  21  26
HETATM   26  O2  UNL     1      10.406  22.773  11.436  1.00  0.00    -0.361 OA
ATOM     27  H2  UNL     1       9.861  22.857  12.210  1.00  0.00     0.217 HD
ENDBRANCH  21  26
ENDBRANCH  17  19
ENDBRANCH  16  17
ENDBRANCH   7  16
BRANCH   6  28
HETATM   28  O1  UNL     1      17.479  25.682   4.311  1.00  0.00    -0.355 OA
HETATM   29  C9  UNL     1      17.317  27.065   4.669  1.00  0.00     0.210 C 
ENDBRANCH   6  28
BRANCH   1  30
HETATM   30  C2  UNL     1      17.193  24.146   2.036  1.00  0.00     0.037 C 
HETATM   31  C1  UNL     1      18.049  22.915   2.003  1.00  0.00     0.010 C 
ENDBRANCH   1  30
TORSDOF 6
ENDMDL
MODEL 3
REMARK VINA RESULT: -9.368183863      2.079      4.167
REMARK  6 active torsions:
REMARK  status: ('A' for Active; 'I' for Inactive)
REMARK    1  A    between atoms: C2_2  and  C3_3 
REMARK    2  A    between atoms: C8_8  and  O1_9 
REMARK    3  A    between atoms: C10_11  and  C11_12 
REMARK    4  A    between atoms: C11_12  and  C12_13 
REMARK    5  A    between atoms: C12_13  and  C14_15 
REMARK    6  A    between atoms: C16_17  and  O2_18 
ROOT
HETATM    1  C3  UNL     1      11.350  24.001   3.201  1.00  0.00    -0.024 A 
HETATM    2  C4  UNL     1      12.708  23.843   2.919  1.00  0.00     0.024 A 
HETATM    3  C5  UNL     1      13.690  24.234   3.789  1.00  0.00     0.003 A 
HETATM    4  C6  UNL     1      13.316  24.811   5.002  1.00  0.00    -0.015 A 
HETATM    5  C7  UNL     1      11.957  24.979   5.300  1.00  0.00     0.050 A 
HETATM    6  C8  UNL     1      10.996  24.575   4.403  1.00  0.00     0.075 A 
HETATM    7  C10 UNL     1      14.278  25.234   5.858  1.00  0.00    -0.045 A 
HETATM    8  C20 UNL     1      15.631  25.075   5.478  1.00  0.00     0.021 A 
HETATM    9  C21 UNL     1      15.972  24.504   4.277  1.00  0.00    -0.008 A 
HETATM   10  C22 UNL     1      17.307  24.343   3.898  1.00  0.00     0.015 A 
HETATM   11  C23 UNL     1      17.587  23.762   2.679  1.00  0.00     0.018 A 
HETATM   12  C24 UNL     1      16.605  23.334   1.820  1.00  0.00     0.088 A 
HETATM   13  N1  UNL     1      15.321  23.497   2.204  1.00  0.00    -0.365 N 
ATOM     14  H1  UNL     1      14.570  23.188   1.587  1.00  0.00     0.165 HD
HETATM   15  C25 UNL     1      15.011  24.066   3.398  1.00  0.00     0.053 A 
ENDROOT
BRANCH   7  16
HETATM   16  C11 UNL     1      14.008  25.754   7.190  1.00  0.00     0.048 C 
BRANCH  16  17
HETATM   17  C12 UNL     1      14.327  24.831   8.334  1.00  0.00     0.019 C 
HETATM   18  C13 UNL     1      14.271  23.391   8.031  1.00  0.00     0.015 C 
BRANCH  17  19
HETATM   19  C14 UNL     1      13.394  25.104   9.458  1.00  0.00    -0.050 A 
HETATM   20  C15 UNL     1      13.380  26.332  10.089  1.00  0.00     0.044 A 
HETATM   21  C16 UNL     1      12.528  26.605  11.146  1.00  0.00     0.067 A 
HETATM   22  C17 UNL     1      11.648  25.642  11.611  1.00  0.00     0.055 A 
HETATM   23  C18 UNL     1      11.653  24.422  10.990  1.00  0.00     0.014 A 
HETATM   24 BR1  UNL     1      10.465  23.036  11.588  1.00  0.00    -0.051 Br
HETATM   25  C19 UNL     1      12.507  24.165   9.941  1.00  0.00     0.026 A 
BRANCH  21  26
HETATM   26  O2  UNL     1      12.496  27.839  11.801  1.00  0.00    -0.361 OA
ATOM     27  H2  UNL     1      13.084  28.064  12.513  1.00  0.00     0.217 HD
ENDBRANCH  21  26
ENDBRANCH  17  19
ENDBRANCH  16  17
ENDBRANCH   7  16
BRANCH   6  28
HETATM   28  O1  UNL     1       9.625  24.710   4.636  1.00  0.00    -0.355 OA
HETATM   29  C9  UNL     1       9.040  25.953   4.212  1.00  0.00     0.210 C 
ENDBRANCH   6  28
BRANCH   1  30
HETATM   30  C2  UNL     1      10.352  23.563   2.233  1.00  0.00     0.037 C 
HETATM   31  C1  UNL     1      10.168  22.080   2.115  1.00  0.00     0.010 C 
ENDBRANCH   1  30
TORSDOF 6
ENDMDL
MODEL 4
REMARK VINA RESULT: -9.329320589      1.858      4.211
REMARK  6 active torsions:
REMARK  status: ('A' for Active; 'I' for Inactive)
REMARK    1  A    between atoms: C2_2  and  C3_3 
REMARK    2  A    between atoms: C8_8  and  O1_9 
REMARK    3  A    between atoms: C10_11  and  C11_12 
REMARK    4  A    between atoms: C11_12  and  C12_13 
REMARK    5  A    between atoms: C12_13  and  C14_15 
REMARK    6  A    between atoms: C16_17  and  O2_18 
ROOT
HETATM    1  C3  UNL     1      12.887  21.989   3.353  1.00  0.00    -0.024 A 
HETATM    2  C4  UNL     1      14.098  22.664   3.194  1.00  0.00     0.024 A 
HETATM    3  C5  UNL     1      14.514  23.640   4.059  1.00  0.00     0.003 A 
HETATM    4  C6  UNL     1      13.696  23.969   5.138  1.00  0.00    -0.015 A 
HETATM    5  C7  UNL     1      12.476  23.302   5.311  1.00  0.00     0.050 A 
HETATM    6  C8  UNL     1      12.087  22.326   4.424  1.00  0.00     0.075 A 
HETATM    7  C10 UNL     1      14.080  24.957   5.983  1.00  0.00    -0.045 A 
HETATM    8  C20 UNL     1      15.302  25.621   5.728  1.00  0.00     0.021 A 
HETATM    9  C21 UNL     1      16.090  25.278   4.657  1.00  0.00    -0.008 A 
HETATM   10  C22 UNL     1      17.298  25.929   4.401  1.00  0.00     0.015 A 
HETATM   11  C23 UNL     1      18.047  25.539   3.309  1.00  0.00     0.018 A 
HETATM   12  C24 UNL     1      17.650  24.534   2.461  1.00  0.00     0.088 A 
HETATM   13  N1  UNL     1      16.479  23.917   2.725  1.00  0.00    -0.365 N 
ATOM     14  H1  UNL     1      16.159  23.166   2.112  1.00  0.00     0.165 HD
HETATM   15  C25 UNL     1      15.718  24.277   3.792  1.00  0.00     0.053 A 
ENDROOT
BRANCH   7  16
HETATM   16  C11 UNL     1      13.359  25.313   7.197  1.00  0.00     0.048 C 
BRANCH  16  17
HETATM   17  C12 UNL     1      14.135  25.199   8.480  1.00  0.00     0.019 C 
HETATM   18  C13 UNL     1      14.927  23.969   8.644  1.00  0.00     0.015 C 
BRANCH  17  19
HETATM   19  C14 UNL     1      13.198  25.304   9.629  1.00  0.00    -0.050 A 
HETATM   20  C15 UNL     1      13.115  26.462  10.376  1.00  0.00     0.044 A 
HETATM   21  C16 UNL     1      12.258  26.578  11.458  1.00  0.00     0.067 A 
HETATM   22  C17 UNL     1      11.444  25.522  11.831  1.00  0.00     0.055 A 
HETATM   23  C18 UNL     1      11.519  24.369  11.094  1.00  0.00     0.014 A 
HETATM   24 BR1  UNL     1      10.424  22.861  11.560  1.00  0.00    -0.051 Br
HETATM   25  C19 UNL     1      12.376  24.269  10.022  1.00  0.00     0.026 A 
BRANCH  21  26
HETATM   26  O2  UNL     1      12.156  27.739  12.229  1.00  0.00    -0.361 OA
ATOM     27  H2  UNL     1      11.812  27.744  13.115  1.00  0.00     0.217 HD
ENDBRANCH  21  26
ENDBRANCH  17  19
ENDBRANCH  16  17
ENDBRANCH   7  16
BRANCH   6  28
HETATM   28  O1  UNL     1      10.887  21.621   4.536  1.00  0.00    -0.355 OA
HETATM   29  C9  UNL     1      10.532  21.199   5.864  1.00  0.00     0.210 C 
ENDBRANCH   6  28
BRANCH   1  30
HETATM   30  C2  UNL     1      12.500  20.958   2.397  1.00  0.00     0.037 C 
HETATM   31  C1  UNL     1      13.328  19.708   2.420  1.00  0.00     0.010 C 
ENDBRANCH   1  30
TORSDOF 6
ENDMDL
MODEL 5
REMARK VINA RESULT: -9.300463850      2.384      4.567
REMARK  6 active torsions:
REMARK  status: ('A' for Active; 'I' for Inactive)
REMARK    1  A    between atoms: C2_2  and  C3_3 
REMARK    2  A    between atoms: C8_8  and  O1_9 
REMARK    3  A    between atoms: C10_11  and  C11_12 
REMARK    4  A    between atoms: C11_12  and  C12_13 
REMARK    5  A    between atoms: C12_13  and  C14_15 
REMARK    6  A    between atoms: C16_17  and  O2_18 
ROOT
HETATM    1  C3  UNL     1      12.697  21.853   4.301  1.00  0.00    -0.024 A 
HETATM    2  C4  UNL     1      13.851  22.574   3.993  1.00  0.00     0.024 A 
HETATM    3  C5  UNL     1      14.261  23.655   4.727  1.00  0.00     0.003 A 
HETATM    4  C6  UNL     1      13.494  24.046   5.823  1.00  0.00    -0.015 A 
HETATM    5  C7  UNL     1      12.331  23.334   6.146  1.00  0.00     0.050 A 
HETATM    6  C8  UNL     1      11.948  22.253   5.387  1.00  0.00     0.075 A 
HETATM    7  C10 UNL     1      13.869  25.135   6.539  1.00  0.00    -0.045 A 
HETATM    8  C20 UNL     1      15.029  25.836   6.135  1.00  0.00     0.021 A 
HETATM    9  C21 UNL     1      15.766  25.429   5.051  1.00  0.00    -0.008 A 
HETATM   10  C22 UNL     1      16.914  26.117   4.648  1.00  0.00     0.015 A 
HETATM   11  C23 UNL     1      17.614  25.660   3.551  1.00  0.00     0.018 A 
HETATM   12  C24 UNL     1      17.226  24.554   2.835  1.00  0.00     0.088 A 
HETATM   13  N1  UNL     1      16.115  23.902   3.239  1.00  0.00    -0.365 N 
ATOM     14  H1  UNL     1      15.804  23.077   2.726  1.00  0.00     0.165 HD
HETATM   15  C25 UNL     1      15.403  24.326   4.315  1.00  0.00     0.053 A 
ENDROOT
BRANCH   7  16
HETATM   16  C11 UNL     1      13.207  25.573   7.759  1.00  0.00     0.048 C 
BRANCH  16  17
HETATM   17  C12 UNL     1      13.891  25.206   9.047  1.00  0.00     0.019 C 
HETATM   18  C13 UNL     1      14.665  23.954   9.029  1.00  0.00     0.015 C 
BRANCH  17  19
HETATM   19  C14 UNL     1      12.877  25.109  10.129  1.00  0.00    -0.050 A 
HETATM   20  C15 UNL     1      12.088  23.985  10.267  1.00  0.00     0.044 A 
HETATM   21  C16 UNL     1      11.129  23.878  11.260  1.00  0.00     0.067 A 
HETATM   22  C17 UNL     1      10.928  24.909  12.162  1.00  0.00     0.055 A 
HETATM   23  C18 UNL     1      11.707  26.028  12.034  1.00  0.00     0.014 A 
HETATM   24 BR1  UNL     1      11.476  27.500  13.246  1.00  0.00    -0.051 Br
HETATM   25  C19 UNL     1      12.656  26.120  11.041  1.00  0.00     0.026 A 
BRANCH  21  26
HETATM   26  O2  UNL     1      10.319  22.751  11.419  1.00  0.00    -0.361 OA
ATOM     27  H2  UNL     1      10.052  22.197  10.695  1.00  0.00     0.217 HD
ENDBRANCH  21  26
ENDBRANCH  17  19
ENDBRANCH  16  17
ENDBRANCH   7  16
BRANCH   6  28
HETATM   28  O1  UNL     1      10.803  21.498   5.651  1.00  0.00    -0.355 OA
HETATM   29  C9  UNL     1      10.391  21.449   7.028  1.00  0.00     0.210 C 
ENDBRANCH   6  28
BRANCH   1  30
HETATM   30  C2  UNL     1      12.315  20.710   3.481  1.00  0.00     0.037 C 
HETATM   31  C1  UNL     1      13.009  20.599   2.156  1.00  0.00     0.010 C 
ENDBRANCH   1  30
TORSDOF 6
ENDMDL
