MODEL 1
REMARK VINA RESULT: -8.339616173      0.000      0.000
REMARK  7 active torsions:
REMARK  status: ('A' for Active; 'I' for Inactive)
REMARK    1  A    between atoms: C2_2  and  C4_4 
REMARK    2  A    between atoms: C10_10  and  C12_12 
REMARK    3  A    between atoms: C13_13  and  C15_15 
REMARK    4  A    between atoms: C19_20  and  O1_21 
REMARK    5  A    between atoms: O1_21  and  C20_22 
REMARK    6  A    between atoms: C23_26  and  C24_27 
REMARK    7  A    between atoms: C24_27  and  C25_28 
ROOT
HETATM    1  C4  UNL     1      11.924  22.807   3.152  1.00  0.00    -0.065 C 
HETATM    2  C5  UNL     1      13.324  22.647   2.750  1.00  0.00     0.036 C 
HETATM    3  C6  UNL     1      14.160  23.783   3.362  1.00  0.00     0.005 C 
HETATM    4  C7  UNL     1      14.121  23.323   4.836  1.00  0.00     0.012 C 
HETATM    5  C8  UNL     1      12.759  23.736   5.339  1.00  0.00    -0.019 C 
HETATM    6  C9  UNL     1      13.036  25.163   5.811  1.00  0.00     0.017 C 
HETATM    7  C10 UNL     1      12.559  22.950   6.659  1.00  0.00     0.009 C 
HETATM    8  C11 UNL     1      13.127  21.490   6.394  1.00  0.00     0.023 C 
HETATM    9  C19 UNL     1      11.124  22.749   6.740  1.00  0.00     0.145 C 
HETATM   10  C22 UNL     1      10.734  22.607   5.252  1.00  0.00     0.049 C 
HETATM   11  C23 UNL     1      11.619  23.532   4.462  1.00  0.00     0.004 C 
ENDROOT
BRANCH   7  12
HETATM   12  C12 UNL     1      13.410  23.434   7.692  1.00  0.00    -0.006 C 
HETATM   13  C13 UNL     1      13.649  23.940   8.843  1.00  0.00    -0.043 C 
HETATM   14  C14 UNL     1      15.184  24.134   9.149  1.00  0.00     0.049 C 
BRANCH  13  15
HETATM   15  C15 UNL     1      12.819  24.425   9.889  1.00  0.00     0.041 C 
HETATM   16 CL1  UNL     1      11.895  23.271  10.896  1.00  0.00    -0.084 Cl
HETATM   17  C16 UNL     1      12.567  25.668  10.246  1.00  0.00    -0.065 C 
HETATM   18  C17 UNL     1      13.013  26.953   9.745  1.00  0.00     0.044 C 
HETATM   19  C18 UNL     1      11.608  25.768  11.438  1.00  0.00     0.044 C 
ENDBRANCH  13  15
ENDBRANCH   7  12
BRANCH   9  20
HETATM   20  O1  UNL     1      10.862  21.506   7.385  1.00  0.00    -0.315 OA
BRANCH  20  21
HETATM   21  C20 UNL     1       9.732  21.139   8.032  1.00  0.00     0.255 C 
HETATM   22  C21 UNL     1       9.385  21.581   9.421  1.00  0.00     0.126 C 
HETATM   23  O2  UNL     1       8.936  20.392   7.447  1.00  0.00    -0.266 OA
ENDBRANCH  20  21
ENDBRANCH   9  20
BRANCH  11  24
HETATM   24  C24 UNL     1      10.812  24.732   4.022  1.00  0.00     0.128 C 
BRANCH  24  25
HETATM   25  C25 UNL     1      10.858  25.298   2.706  1.00  0.00     0.173 C 
HETATM   26  O3  UNL     1       9.829  25.203   1.936  1.00  0.00    -0.648 OA
HETATM   27  O4  UNL     1      11.883  25.979   2.082  1.00  0.00    -0.648 OA
ENDBRANCH  24  25
ENDBRANCH  11  24
BRANCH   1  28
HETATM   28  C2  UNL     1      11.147  21.596   2.840  1.00  0.00    -0.068 C 
HETATM   29  C1  UNL     1      11.569  20.353   3.049  1.00  0.00     0.018 C 
HETATM   30  C3  UNL     1       9.793  21.644   2.159  1.00  0.00     0.047 C 
ENDBRANCH   1  28
TORSDOF 7
ENDMDL
MODEL 2
REMARK VINA RESULT: -8.182345511      3.107      5.364
REMARK  7 active torsions:
REMARK  status: ('A' for Active; 'I' for Inactive)
REMARK    1  A    between atoms: C2_2  and  C4_4 
REMARK    2  A    between atoms: C10_10  and  C12_12 
REMARK    3  A    between atoms: C13_13  and  C15_15 
REMARK    4  A    between atoms: C19_20  and  O1_21 
REMARK    5  A    between atoms: O1_21  and  C20_22 
REMARK    6  A    between atoms: C23_26  and  C24_27 
REMARK    7  A    between atoms: C24_27  and  C25_28 
ROOT
HETATM    1  C4  UNL     1      12.096  22.601   4.773  1.00  0.00    -0.065 C 
HETATM    2  C5  UNL     1      12.810  21.734   3.833  1.00  0.00     0.036 C 
HETATM    3  C6  UNL     1      13.428  22.594   2.719  1.00  0.00     0.005 C 
HETATM    4  C7  UNL     1      14.540  23.273   3.549  1.00  0.00     0.012 C 
HETATM    5  C8  UNL     1      13.841  24.361   4.326  1.00  0.00    -0.019 C 
HETATM    6  C9  UNL     1      13.899  25.521   3.334  1.00  0.00     0.017 C 
HETATM    7  C10 UNL     1      14.843  24.777   5.431  1.00  0.00     0.009 C 
HETATM    8  C11 UNL     1      15.499  23.432   5.963  1.00  0.00     0.023 C 
HETATM    9  C19 UNL     1      14.001  25.206   6.533  1.00  0.00     0.145 C 
HETATM   10  C22 UNL     1      12.779  24.271   6.388  1.00  0.00     0.049 C 
HETATM   11  C23 UNL     1      12.550  24.051   4.918  1.00  0.00     0.004 C 
ENDROOT
BRANCH   7  12
HETATM   12  C12 UNL     1      15.959  25.477   4.891  1.00  0.00    -0.006 C 
HETATM   13  C13 UNL     1      17.002  25.588   4.159  1.00  0.00    -0.043 C 
HETATM   14  C14 UNL     1      17.686  27.006   4.233  1.00  0.00     0.049 C 
BRANCH  13  15
HETATM   15  C15 UNL     1      17.718  24.679   3.334  1.00  0.00     0.041 C 
HETATM   16 CL1  UNL     1      19.330  24.096   3.846  1.00  0.00    -0.084 Cl
HETATM   17  C16 UNL     1      17.391  24.184   2.157  1.00  0.00    -0.065 C 
HETATM   18  C17 UNL     1      16.240  24.361   1.294  1.00  0.00     0.044 C 
HETATM   19  C18 UNL     1      18.447  23.225   1.593  1.00  0.00     0.044 C 
ENDBRANCH  13  15
ENDBRANCH   7  12
BRANCH   9  20
HETATM   20  O1  UNL     1      14.649  24.897   7.764  1.00  0.00    -0.315 OA
BRANCH  20  21
HETATM   21  C20 UNL     1      14.066  24.650   8.959  1.00  0.00     0.255 C 
HETATM   22  C21 UNL     1      13.852  23.274   9.513  1.00  0.00     0.126 C 
HETATM   23  O2  UNL     1      13.685  25.612   9.639  1.00  0.00    -0.266 OA
ENDBRANCH  20  21
ENDBRANCH   9  20
BRANCH  11  24
HETATM   24  C24 UNL     1      11.339  24.846   4.484  1.00  0.00     0.128 C 
BRANCH  24  25
HETATM   25  C25 UNL     1      10.611  24.612   3.271  1.00  0.00     0.173 C 
HETATM   26  O3  UNL     1      10.647  25.491   2.329  1.00  0.00    -0.648 OA
HETATM   27  O4  UNL     1       9.829  23.533   2.914  1.00  0.00    -0.648 OA
ENDBRANCH  24  25
ENDBRANCH  11  24
BRANCH   1  28
HETATM   28  C2  UNL     1      11.743  21.866   6.000  1.00  0.00    -0.068 C 
HETATM   29  C1  UNL     1      10.534  21.854   6.553  1.00  0.00     0.018 C 
HETATM   30  C3  UNL     1      12.764  21.099   6.817  1.00  0.00     0.047 C 
ENDBRANCH   1  28
TORSDOF 7
ENDMDL
MODEL 3
REMARK VINA RESULT: -7.963817630      0.875      1.077
REMARK  7 active torsions:
REMARK  status: ('A' for Active; 'I' for Inactive)
REMARK    1  A    between atoms: C2_2  and  C4_4 
REMARK    2  A    between atoms: C10_10  and  C12_12 
REMARK    3  A    between atoms: C13_13  and  C15_15 
REMARK    4  A    between atoms: C19_20  and  O1_21 
REMARK    5  A    between atoms: O1_21  and  C20_22 
REMARK    6  A    between atoms: C23_26  and  C24_27 
REMARK    7  A    between atoms: C24_27  and  C25_28 
ROOT
HETATM    1  C4  UNL     1      11.961  22.840   3.182  1.00  0.00    -0.065 C 
HETATM    2  C5  UNL     1      13.344  22.657   2.735  1.00  0.00     0.036 C 
HETATM    3  C6  UNL     1      14.209  23.806   3.278  1.00  0.00     0.005 C 
HETATM    4  C7  UNL     1      14.220  23.397   4.767  1.00  0.00     0.012 C 
HETATM    5  C8  UNL     1      12.880  23.836   5.304  1.00  0.00    -0.019 C 
HETATM    6  C9  UNL     1      13.182  25.277   5.718  1.00  0.00     0.017 C 
HETATM    7  C10 UNL     1      12.723  23.096   6.656  1.00  0.00     0.009 C 
HETATM    8  C11 UNL     1      13.272  21.624   6.420  1.00  0.00     0.023 C 
HETATM    9  C19 UNL     1      11.291  22.908   6.795  1.00  0.00     0.145 C 
HETATM   10  C22 UNL     1      10.846  22.719   5.328  1.00  0.00     0.049 C 
HETATM   11  C23 UNL     1      11.708  23.610   4.476  1.00  0.00     0.004 C 
ENDROOT
BRANCH   7  12
HETATM   12  C12 UNL     1      13.614  23.609   7.641  1.00  0.00    -0.006 C 
HETATM   13  C13 UNL     1      13.903  24.271   8.697  1.00  0.00    -0.043 C 
HETATM   14  C14 UNL     1      15.436  24.248   9.065  1.00  0.00     0.049 C 
BRANCH  13  15
HETATM   15  C15 UNL     1      13.142  25.081   9.582  1.00  0.00     0.041 C 
HETATM   16 CL1  UNL     1      13.352  26.858   9.561  1.00  0.00    -0.084 Cl
HETATM   17  C16 UNL     1      12.273  24.721  10.504  1.00  0.00    -0.065 C 
HETATM   18  C17 UNL     1      11.779  23.433  10.952  1.00  0.00     0.044 C 
HETATM   19  C18 UNL     1      11.660  25.912  11.252  1.00  0.00     0.044 C 
ENDBRANCH  13  15
ENDBRANCH   7  12
BRANCH   9  20
HETATM   20  O1  UNL     1      11.045  21.690   7.491  1.00  0.00    -0.315 OA
BRANCH  20  21
HETATM   21  C20 UNL     1       9.864  21.247   7.981  1.00  0.00     0.255 C 
HETATM   22  C21 UNL     1       9.368  21.552   9.363  1.00  0.00     0.126 C 
HETATM   23  O2  UNL     1       9.149  20.549   7.252  1.00  0.00    -0.266 OA
ENDBRANCH  20  21
ENDBRANCH   9  20
BRANCH  11  24
HETATM   24  C24 UNL     1      10.892  24.801   4.025  1.00  0.00     0.128 C 
BRANCH  24  25
HETATM   25  C25 UNL     1      10.906  25.332   2.694  1.00  0.00     0.173 C 
HETATM   26  O3  UNL     1       9.873  25.181   1.938  1.00  0.00    -0.648 OA
HETATM   27  O4  UNL     1      11.902  26.029   2.041  1.00  0.00    -0.648 OA
ENDBRANCH  24  25
ENDBRANCH  11  24
BRANCH   1  28
HETATM   28  C2  UNL     1      11.166  21.625   2.938  1.00  0.00    -0.068 C 
HETATM   29  C1  UNL     1      11.589  20.386   3.172  1.00  0.00     0.018 C 
HETATM   30  C3  UNL     1       9.788  21.660   2.307  1.00  0.00     0.047 C 
ENDBRANCH   1  28
TORSDOF 7
ENDMDL
MODEL 4
REMARK VINA RESULT: -7.706655382      1.009      1.088
REMARK  7 active torsions:
REMARK  status: ('A' for Active; 'I' for Inactive)
REMARK    1  A    between atoms: C2_2  and  C4_4 
REMARK    2  A    between atoms: C10_10  and  C12_12 
REMARK    3  A    between atoms: C13_13  and  C15_15 
REMARK    4  A    between atoms: C19_20  and  O1_21 
REMARK    5  A    between atoms: O1_21  and  C20_22 
REMARK    6  A    between atoms: C23_26  and  C24_27 
REMARK    7  A    between atoms: C24_27  and  C25_28 
ROOT
HETATM    1  C4  UNL     1      12.333  22.521   2.771  1.00  0.00    -0.065 C 
HETATM    2  C5  UNL     1      13.731  22.238   2.437  1.00  0.00     0.036 C 
HETATM    3  C6  UNL     1      14.624  23.351   3.008  1.00  0.00     0.005 C 
HETATM    4  C7  UNL     1      14.500  22.994   4.506  1.00  0.00     0.012 C 
HETATM    5  C8  UNL     1      13.154  23.533   4.926  1.00  0.00    -0.019 C 
HETATM    6  C9  UNL     1      13.515  24.966   5.317  1.00  0.00     0.017 C 
HETATM    7  C10 UNL     1      12.850  22.852   6.284  1.00  0.00     0.009 C 
HETATM    8  C11 UNL     1      13.321  21.342   6.136  1.00  0.00     0.023 C 
HETATM    9  C19 UNL     1      11.403  22.757   6.319  1.00  0.00     0.145 C 
HETATM   10  C22 UNL     1      11.057  22.544   4.829  1.00  0.00     0.049 C 
HETATM   11  C23 UNL     1      12.034  23.350   4.018  1.00  0.00     0.004 C 
ENDROOT
BRANCH   7  12
HETATM   12  C12 UNL     1      13.697  23.344   7.318  1.00  0.00    -0.006 C 
HETATM   13  C13 UNL     1      13.930  23.854   8.468  1.00  0.00    -0.043 C 
HETATM   14  C14 UNL     1      15.463  24.058   8.777  1.00  0.00     0.049 C 
BRANCH  13  15
HETATM   15  C15 UNL     1      13.094  24.339   9.510  1.00  0.00     0.041 C 
HETATM   16 CL1  UNL     1      12.411  23.195  10.703  1.00  0.00    -0.084 Cl
HETATM   17  C16 UNL     1      12.678  25.567   9.744  1.00  0.00    -0.065 C 
HETATM   18  C17 UNL     1      12.899  26.832   9.072  1.00  0.00     0.044 C 
HETATM   19  C18 UNL     1      11.782  25.672  10.983  1.00  0.00     0.044 C 
ENDBRANCH  13  15
ENDBRANCH   7  12
BRANCH   9  20
HETATM   20  O1  UNL     1      11.029  21.581   7.031  1.00  0.00    -0.315 OA
BRANCH  20  21
HETATM   21  C20 UNL     1      10.108  21.474   8.016  1.00  0.00     0.255 C 
HETATM   22  C21 UNL     1       8.960  20.511   7.984  1.00  0.00     0.126 C 
HETATM   23  O2  UNL     1      10.213  22.214   9.003  1.00  0.00    -0.266 OA
ENDBRANCH  20  21
ENDBRANCH   9  20
BRANCH  11  24
HETATM   24  C24 UNL     1      11.331  24.571   3.470  1.00  0.00     0.128 C 
BRANCH  24  25
HETATM   25  C25 UNL     1       9.911  24.764   3.492  1.00  0.00     0.173 C 
HETATM   26  O3  UNL     1       9.178  24.194   2.598  1.00  0.00    -0.648 OA
HETATM   27  O4  UNL     1       9.141  25.501   4.368  1.00  0.00    -0.648 OA
ENDBRANCH  24  25
ENDBRANCH  11  24
BRANCH   1  28
HETATM   28  C2  UNL     1      11.483  21.348   2.505  1.00  0.00    -0.068 C 
HETATM   29  C1  UNL     1      11.736  20.117   2.941  1.00  0.00     0.018 C 
HETATM   30  C3  UNL     1      10.253  21.412   1.621  1.00  0.00     0.047 C 
ENDBRANCH   1  28
TORSDOF 7
ENDMDL
MODEL 5
REMARK VINA RESULT: -7.525834617      2.172      6.444
REMARK  7 active torsions:
REMARK  status: ('A' for Active; 'I' for Inactive)
REMARK    1  A    between atoms: C2_2  and  C4_4 
REMARK    2  A    between atoms: C10_10  and  C12_12 
REMARK    3  A    between atoms: C13_13  and  C15_15 
REMARK    4  A    between atoms: C19_20  and  O1_21 
REMARK    5  A    between atoms: O1_21  and  C20_22 
REMARK    6  A    between atoms: C23_26  and  C24_27 
REMARK    7  A    between atoms: C24_27  and  C25_28 
ROOT
HETATM    1  C4  UNL     1      13.461  24.022   8.537  1.00  0.00    -0.065 C 
HETATM    2  C5  UNL     1      14.926  24.065   8.562  1.00  0.00     0.036 C 
HETATM    3  C6  UNL     1      15.481  22.855   7.794  1.00  0.00     0.005 C 
HETATM    4  C7  UNL     1      15.101  23.301   6.365  1.00  0.00     0.012 C 
HETATM    5  C8  UNL     1      13.627  23.001   6.241  1.00  0.00    -0.019 C 
HETATM    6  C9  UNL     1      13.656  21.551   5.760  1.00  0.00     0.017 C 
HETATM    7  C10 UNL     1      13.157  23.788   4.992  1.00  0.00     0.009 C 
HETATM    8  C11 UNL     1      13.890  25.196   5.055  1.00  0.00     0.023 C 
HETATM    9  C19 UNL     1      11.771  24.111   5.274  1.00  0.00     0.145 C 
HETATM   10  C22 UNL     1      11.790  24.302   6.807  1.00  0.00     0.049 C 
HETATM   11  C23 UNL     1      12.772  23.313   7.374  1.00  0.00     0.004 C 
ENDROOT
BRANCH   7  12
HETATM   12  C12 UNL     1      13.671  23.222   3.791  1.00  0.00    -0.006 C 
HETATM   13  C13 UNL     1      13.672  22.387   2.822  1.00  0.00    -0.043 C 
HETATM   14  C14 UNL     1      14.855  22.596   1.800  1.00  0.00     0.049 C 
BRANCH  13  15
HETATM   15  C15 UNL     1      12.865  21.263   2.499  1.00  0.00     0.041 C 
HETATM   16 CL1  UNL     1      13.634  19.679   2.182  1.00  0.00    -0.084 Cl
HETATM   17  C16 UNL     1      11.558  21.189   2.348  1.00  0.00    -0.065 C 
HETATM   18  C17 UNL     1      10.493  22.168   2.448  1.00  0.00     0.044 C 
HETATM   19  C18 UNL     1      11.070  19.778   1.998  1.00  0.00     0.044 C 
ENDBRANCH  13  15
ENDBRANCH   7  12
BRANCH   9  20
HETATM   20  O1  UNL     1      11.453  25.365   4.678  1.00  0.00    -0.315 OA
BRANCH  20  21
HETATM   21  C20 UNL     1      10.587  25.597   3.664  1.00  0.00     0.255 C 
HETATM   22  C21 UNL     1       9.114  25.799   3.856  1.00  0.00     0.126 C 
HETATM   23  O2  UNL     1      11.032  25.645   2.510  1.00  0.00    -0.266 OA
ENDBRANCH  20  21
ENDBRANCH   9  20
BRANCH  11  24
HETATM   24  C24 UNL     1      12.011  22.192   8.045  1.00  0.00     0.128 C 
BRANCH  24  25
HETATM   25  C25 UNL     1      10.749  21.686   7.589  1.00  0.00     0.173 C 
HETATM   26  O3  UNL     1       9.744  21.668   8.395  1.00  0.00    -0.648 OA
HETATM   27  O4  UNL     1      10.403  21.185   6.351  1.00  0.00    -0.648 OA
ENDBRANCH  24  25
ENDBRANCH  11  24
BRANCH   1  28
HETATM   28  C2  UNL     1      12.892  25.299   8.999  1.00  0.00    -0.068 C 
HETATM   29  C1  UNL     1      13.030  26.461   8.366  1.00  0.00     0.018 C 
HETATM   30  C3  UNL     1      12.145  25.437  10.311  1.00  0.00     0.047 C 
ENDBRANCH   1  28
TORSDOF 7
ENDMDL
