MODEL 1
REMARK VINA RESULT: -9.861100513      0.000      0.000
REMARK  5 active torsions:
REMARK  status: ('A' for Active; 'I' for Inactive)
REMARK    1  A    between atoms: C4_4  and  C5_5 
REMARK    2  A    between atoms: C5_5  and  C6_6 
REMARK    3  A    between atoms: C12_12  and  C13_13 
REMARK       I    between atoms: C13_13  and  N1_15 
REMARK    4  A    between atoms: N1_15  and  C14_17 
REMARK    5  A    between atoms: C17_21  and  C18_22 
ROOT
HETATM    1  C6  UNL     1      12.197  27.274  12.626  1.00  0.00    -0.052 A 
HETATM    2  C7  UNL     1      11.573  26.083  12.865  1.00  0.00     0.008 A 
HETATM    3  C8  UNL     1      11.589  25.091  11.883  1.00  0.00     0.015 A 
HETATM    4  C9  UNL     1      12.205  25.241  10.666  1.00  0.00     0.005 A 
HETATM    5  C10 UNL     1      12.220  24.261   9.699  1.00  0.00    -0.027 A 
HETATM    6  C11 UNL     1      11.514  22.995   9.923  1.00  0.00     0.050 C 
HETATM    7  C12 UNL     1      12.881  24.485   8.467  1.00  0.00     0.114 A 
HETATM    8  C25 UNL     1      13.472  25.717   8.338  1.00  0.00     0.304 A 
HETATM    9  O2  UNL     1      14.099  26.083   7.321  1.00  0.00    -0.259 OA
HETATM   10  O3  UNL     1      13.435  26.641   9.298  1.00  0.00    -0.274 OA
HETATM   11  C26 UNL     1      12.831  26.451  10.442  1.00  0.00     0.090 A 
HETATM   12  C27 UNL     1      12.815  27.443  11.425  1.00  0.00     0.045 A 
ENDROOT
BRANCH   7  13
HETATM   13  C13 UNL     1      12.985  23.447   7.459  1.00  0.00     0.262 C 
HETATM   14  O1  UNL     1      13.744  22.492   7.741  1.00  0.00    -0.267 OA
HETATM   15  N1  UNL     1      12.306  23.467   6.253  1.00  0.00    -0.322 N 
ATOM     16  H1  UNL     1      11.704  24.280   6.123  1.00  0.00     0.169 HD
BRANCH  15  17
HETATM   17  C14 UNL     1      12.300  22.570   5.184  1.00  0.00     0.042 A 
HETATM   18  C15 UNL     1      13.178  22.625   4.133  1.00  0.00     0.054 A 
HETATM   19  C16 UNL     1      13.172  21.724   3.060  1.00  0.00     0.043 A 
HETATM   20 CL1  UNL     1      14.341  21.871   1.748  1.00  0.00    -0.084 Cl
HETATM   21  C17 UNL     1      12.236  20.724   3.050  1.00  0.00    -0.028 A 
HETATM   22  C22 UNL     1      11.338  20.634   4.083  1.00  0.00     0.018 A 
HETATM   23  C23 UNL     1      11.371  21.549   5.138  1.00  0.00    -0.035 A 
HETATM   24  C24 UNL     1      10.396  21.444   6.251  1.00  0.00     0.050 C 
BRANCH  21  25
HETATM   25  C18 UNL     1      12.162  19.732   1.955  1.00  0.00    -0.022 C 
HETATM   26  C19 UNL     1      13.340  18.817   2.040  1.00  0.00     0.019 C 
HETATM   27  C20 UNL     1      10.921  18.874   2.137  1.00  0.00     0.019 C 
HETATM   28  C21 UNL     1      12.052  20.404   0.599  1.00  0.00     0.019 C 
ENDBRANCH  21  25
ENDBRANCH  15  17
ENDBRANCH   7  13
BRANCH   1  29
HETATM   29  C5  UNL     1      12.184  28.339  13.669  1.00  0.00     0.066 C 
BRANCH  29  30
HETATM   30  C4  UNL     1      13.554  28.707  14.071  1.00  0.00    -0.020 C 
HETATM   31  C2  UNL     1      13.876  29.971  14.395  1.00  0.00    -0.091 C 
HETATM   32  C1  UNL     1      12.801  31.005  14.338  1.00  0.00     0.042 C 
HETATM   33  C3  UNL     1      15.249  30.343  14.798  1.00  0.00     0.042 C 
ENDBRANCH  29  30
ENDBRANCH   1  29
TORSDOF 5
ENDMDL
MODEL 2
REMARK VINA RESULT: -8.584887387      1.061      1.269
REMARK  5 active torsions:
REMARK  status: ('A' for Active; 'I' for Inactive)
REMARK    1  A    between atoms: C4_4  and  C5_5 
REMARK    2  A    between atoms: C5_5  and  C6_6 
REMARK    3  A    between atoms: C12_12  and  C13_13 
REMARK       I    between atoms: C13_13  and  N1_15 
REMARK    4  A    between atoms: N1_15  and  C14_17 
REMARK    5  A    between atoms: C17_21  and  C18_22 
ROOT
HETATM    1  C6  UNL     1      12.241  27.164  12.537  1.00  0.00    -0.052 A 
HETATM    2  C7  UNL     1      11.647  25.950  12.733  1.00  0.00     0.008 A 
HETATM    3  C8  UNL     1      11.633  25.017  11.695  1.00  0.00     0.015 A 
HETATM    4  C9  UNL     1      12.189  25.249  10.463  1.00  0.00     0.005 A 
HETATM    5  C10 UNL     1      12.174  24.328   9.440  1.00  0.00    -0.027 A 
HETATM    6  C11 UNL     1      11.500  23.037   9.620  1.00  0.00     0.050 C 
HETATM    7  C12 UNL     1      12.773  24.635   8.193  1.00  0.00     0.114 A 
HETATM    8  C25 UNL     1      13.339  25.883   8.111  1.00  0.00     0.304 A 
HETATM    9  O2  UNL     1      13.912  26.319   7.089  1.00  0.00    -0.259 OA
HETATM   10  O3  UNL     1      13.331  26.749   9.124  1.00  0.00    -0.274 OA
HETATM   11  C26 UNL     1      12.785  26.482  10.282  1.00  0.00     0.090 A 
HETATM   12  C27 UNL     1      12.799  27.414  11.321  1.00  0.00     0.045 A 
ENDROOT
BRANCH   7  13
HETATM   13  C13 UNL     1      12.847  23.660   7.123  1.00  0.00     0.262 C 
HETATM   14  O1  UNL     1      13.834  22.890   7.157  1.00  0.00    -0.267 OA
HETATM   15  N1  UNL     1      11.909  23.548   6.110  1.00  0.00    -0.322 N 
ATOM     16  H1  UNL     1      11.137  24.212   6.178  1.00  0.00     0.169 HD
BRANCH  15  17
HETATM   17  C14 UNL     1      11.833  22.687   5.015  1.00  0.00     0.042 A 
HETATM   18  C15 UNL     1      12.576  21.542   4.888  1.00  0.00     0.054 A 
HETATM   19  C16 UNL     1      12.499  20.678   3.788  1.00  0.00     0.043 A 
HETATM   20 CL1  UNL     1      13.494  19.224   3.709  1.00  0.00    -0.084 Cl
HETATM   21  C17 UNL     1      11.633  20.985   2.772  1.00  0.00    -0.028 A 
HETATM   22  C22 UNL     1      10.872  22.122   2.860  1.00  0.00     0.018 A 
HETATM   23  C23 UNL     1      10.972  22.964   3.971  1.00  0.00    -0.035 A 
HETATM   24  C24 UNL     1      10.145  24.192   4.057  1.00  0.00     0.050 C 
BRANCH  21  25
HETATM   25  C18 UNL     1      11.492  20.125   1.577  1.00  0.00    -0.022 C 
HETATM   26  C19 UNL     1      10.951  18.795   1.990  1.00  0.00     0.019 C 
HETATM   27  C20 UNL     1      10.476  20.742   0.631  1.00  0.00     0.019 C 
HETATM   28  C21 UNL     1      12.800  20.004   0.819  1.00  0.00     0.019 C 
ENDBRANCH  21  25
ENDBRANCH  15  17
ENDBRANCH   7  13
BRANCH   1  29
HETATM   29  C5  UNL     1      12.260  28.166  13.641  1.00  0.00     0.066 C 
BRANCH  29  30
HETATM   30  C4  UNL     1      13.642  28.504  14.028  1.00  0.00    -0.020 C 
HETATM   31  C2  UNL     1      13.981  29.748  14.409  1.00  0.00    -0.091 C 
HETATM   32  C1  UNL     1      12.911  30.790  14.431  1.00  0.00     0.042 C 
HETATM   33  C3  UNL     1      15.365  30.091  14.798  1.00  0.00     0.042 C 
ENDBRANCH  29  30
ENDBRANCH   1  29
TORSDOF 5
ENDMDL
MODEL 3
REMARK VINA RESULT: -7.188536178      1.520      2.221
REMARK  5 active torsions:
REMARK  status: ('A' for Active; 'I' for Inactive)
REMARK    1  A    between atoms: C4_4  and  C5_5 
REMARK    2  A    between atoms: C5_5  and  C6_6 
REMARK    3  A    between atoms: C12_12  and  C13_13 
REMARK       I    between atoms: C13_13  and  N1_15 
REMARK    4  A    between atoms: N1_15  and  C14_17 
REMARK    5  A    between atoms: C17_21  and  C18_22 
ROOT
HETATM    1  C6  UNL     1      12.432  27.072  12.069  1.00  0.00    -0.052 A 
HETATM    2  C7  UNL     1      13.217  27.527  11.048  1.00  0.00     0.008 A 
HETATM    3  C8  UNL     1      13.386  26.740   9.908  1.00  0.00     0.015 A 
HETATM    4  C9  UNL     1      12.801  25.511   9.744  1.00  0.00     0.005 A 
HETATM    5  C10 UNL     1      12.968  24.736   8.619  1.00  0.00    -0.027 A 
HETATM    6  C11 UNL     1      13.846  25.191   7.535  1.00  0.00     0.050 C 
HETATM    7  C12 UNL     1      12.328  23.476   8.517  1.00  0.00     0.114 A 
HETATM    8  C25 UNL     1      11.564  23.122   9.602  1.00  0.00     0.304 A 
HETATM    9  O2  UNL     1      10.928  22.049   9.682  1.00  0.00    -0.259 OA
HETATM   10  O3  UNL     1      11.428  23.900  10.676  1.00  0.00    -0.274 OA
HETATM   11  C26 UNL     1      12.010  25.065  10.786  1.00  0.00     0.090 A 
HETATM   12  C27 UNL     1      11.842  25.853  11.926  1.00  0.00     0.045 A 
ENDROOT
BRANCH   7  13
HETATM   13  C13 UNL     1      12.417  22.671   7.315  1.00  0.00     0.262 C 
HETATM   14  O1  UNL     1      13.318  21.802   7.310  1.00  0.00    -0.267 OA
HETATM   15  N1  UNL     1      11.580  22.816   6.221  1.00  0.00    -0.322 N 
ATOM     16  H1  UNL     1      10.872  23.543   6.328  1.00  0.00     0.169 HD
BRANCH  15  17
HETATM   17  C14 UNL     1      11.535  22.143   5.000  1.00  0.00     0.042 A 
HETATM   18  C15 UNL     1      12.319  21.062   4.692  1.00  0.00     0.054 A 
HETATM   19  C16 UNL     1      12.273  20.386   3.466  1.00  0.00     0.043 A 
HETATM   20 CL1  UNL     1      13.320  19.002   3.155  1.00  0.00    -0.084 Cl
HETATM   21  C17 UNL     1      11.395  20.822   2.509  1.00  0.00    -0.028 A 
HETATM   22  C22 UNL     1      10.592  21.902   2.777  1.00  0.00     0.018 A 
HETATM   23  C23 UNL     1      10.663  22.555   4.011  1.00  0.00    -0.035 A 
HETATM   24  C24 UNL     1       9.791  23.721   4.292  1.00  0.00     0.050 C 
BRANCH  21  25
HETATM   25  C18 UNL     1      11.283  20.165   1.189  1.00  0.00    -0.022 C 
HETATM   26  C19 UNL     1      10.857  18.746   1.382  1.00  0.00     0.019 C 
HETATM   27  C20 UNL     1      10.196  20.847   0.377  1.00  0.00     0.019 C 
HETATM   28  C21 UNL     1      12.574  20.276   0.399  1.00  0.00     0.019 C 
ENDBRANCH  21  25
ENDBRANCH  15  17
ENDBRANCH   7  13
BRANCH   1  29
HETATM   29  C5  UNL     1      12.248  27.906  13.290  1.00  0.00     0.066 C 
BRANCH  29  30
HETATM   30  C4  UNL     1      13.546  28.308  13.860  1.00  0.00    -0.020 C 
HETATM   31  C2  UNL     1      13.791  29.579  14.226  1.00  0.00    -0.091 C 
HETATM   32  C1  UNL     1      12.702  30.583  14.039  1.00  0.00     0.042 C 
HETATM   33  C3  UNL     1      15.092  29.986  14.798  1.00  0.00     0.042 C 
ENDBRANCH  29  30
ENDBRANCH   1  29
TORSDOF 5
ENDMDL
MODEL 4
REMARK VINA RESULT: -6.784343715      1.223      1.935
REMARK  5 active torsions:
REMARK  status: ('A' for Active; 'I' for Inactive)
REMARK    1  A    between atoms: C4_4  and  C5_5 
REMARK    2  A    between atoms: C5_5  and  C6_6 
REMARK    3  A    between atoms: C12_12  and  C13_13 
REMARK       I    between atoms: C13_13  and  N1_15 
REMARK    4  A    between atoms: N1_15  and  C14_17 
REMARK    5  A    between atoms: C17_21  and  C18_22 
ROOT
HETATM    1  C6  UNL     1      12.514  27.560  12.664  1.00  0.00    -0.052 A 
HETATM    2  C7  UNL     1      13.402  27.908  11.687  1.00  0.00     0.008 A 
HETATM    3  C8  UNL     1      13.593  27.057  10.597  1.00  0.00     0.015 A 
HETATM    4  C9  UNL     1      12.931  25.865  10.443  1.00  0.00     0.005 A 
HETATM    5  C10 UNL     1      13.120  25.027   9.368  1.00  0.00    -0.027 A 
HETATM    6  C11 UNL     1      14.105  25.366   8.334  1.00  0.00     0.050 C 
HETATM    7  C12 UNL     1      12.397  23.813   9.273  1.00  0.00     0.114 A 
HETATM    8  C25 UNL     1      11.534  23.567  10.311  1.00  0.00     0.304 A 
HETATM    9  O2  UNL     1      10.816  22.546  10.389  1.00  0.00    -0.259 OA
HETATM   10  O3  UNL     1      11.379  24.403  11.337  1.00  0.00    -0.274 OA
HETATM   11  C26 UNL     1      12.037  25.528  11.441  1.00  0.00     0.090 A 
HETATM   12  C27 UNL     1      11.846  26.381  12.529  1.00  0.00     0.045 A 
ENDROOT
BRANCH   7  13
HETATM   13  C13 UNL     1      12.512  22.946   8.116  1.00  0.00     0.262 C 
HETATM   14  O1  UNL     1      13.226  21.929   8.269  1.00  0.00    -0.267 OA
HETATM   15  N1  UNL     1      11.888  23.186   6.903  1.00  0.00    -0.322 N 
ATOM     16  H1  UNL     1      11.320  24.033   6.883  1.00  0.00     0.169 HD
BRANCH  15  17
HETATM   17  C14 UNL     1      11.900  22.472   5.704  1.00  0.00     0.042 A 
HETATM   18  C15 UNL     1      12.801  22.688   4.693  1.00  0.00     0.054 A 
HETATM   19  C16 UNL     1      12.812  21.970   3.490  1.00  0.00     0.043 A 
HETATM   20 CL1  UNL     1      14.010  22.315   2.243  1.00  0.00    -0.084 Cl
HETATM   21  C17 UNL     1      11.872  20.993   3.300  1.00  0.00    -0.028 A 
HETATM   22  C22 UNL     1      10.952  20.746   4.287  1.00  0.00     0.018 A 
HETATM   23  C23 UNL     1      10.967  21.479   5.477  1.00  0.00    -0.035 A 
HETATM   24  C24 UNL     1       9.969  21.205   6.538  1.00  0.00     0.050 C 
BRANCH  21  25
HETATM   25  C18 UNL     1      11.816  20.190   2.060  1.00  0.00    -0.022 C 
HETATM   26  C19 UNL     1      12.623  20.867   1.000  1.00  0.00     0.019 C 
HETATM   27  C20 UNL     1      12.457  18.835   2.307  1.00  0.00     0.019 C 
HETATM   28  C21 UNL     1      10.385  19.939   1.621  1.00  0.00     0.019 C 
ENDBRANCH  21  25
ENDBRANCH  15  17
ENDBRANCH   7  13
BRANCH   1  29
HETATM   29  C5  UNL     1      12.305  28.463  13.831  1.00  0.00     0.066 C 
BRANCH  29  30
HETATM   30  C4  UNL     1      13.572  29.086  14.255  1.00  0.00    -0.020 C 
HETATM   31  C2  UNL     1      13.695  30.419  14.374  1.00  0.00    -0.091 C 
HETATM   32  C1  UNL     1      12.503  31.263  14.063  1.00  0.00     0.042 C 
HETATM   33  C3  UNL     1      14.964  31.048  14.798  1.00  0.00     0.042 C 
ENDBRANCH  29  30
ENDBRANCH   1  29
TORSDOF 5
ENDMDL
