MODEL 1
REMARK VINA RESULT: -9.026762868      0.000      0.000
REMARK  3 active torsions:
REMARK  status: ('A' for Active; 'I' for Inactive)
REMARK    1  A    between atoms: C3_3  and  N1_4 
REMARK    2  A    between atoms: C5_7  and  N2_8 
REMARK    3  A    between atoms: C6_10  and  C7_11 
ROOT
HETATM    1  C1  UNL     1      -1.530   6.714   7.166  1.00  0.00     0.098 C 
HETATM    2  C2  UNL     1      -1.142   5.627   7.571  1.00  0.00    -0.167 C 
HETATM    3  C3  UNL     1      -0.664   4.327   8.032  1.00  0.00     0.212 C 
ENDROOT
BRANCH   3   4
HETATM    4  N1  UNL     1      -0.009   4.439   9.297  1.00  0.00    -0.299 N 
HETATM    5  C4  UNL     1      -0.718   4.384  10.436  1.00  0.00     0.293 A 
HETATM    6  O1  UNL     1      -1.944   4.234  10.327  1.00  0.00    -0.264 OA
HETATM    7  C5  UNL     1      -0.133   4.490  11.715  1.00  0.00     0.175 A 
HETATM    8  N4  UNL     1       1.219   4.651  11.769  1.00  0.00    -0.336 N 
HETATM    9  C19 UNL     1       1.945   4.707  10.640  1.00  0.00     0.061 A 
ATOM     10  H4  UNL     1       1.683   4.729  12.673  1.00  0.00     0.168 HD
HETATM   11  C20 UNL     1       3.323   4.869  10.768  1.00  0.00     0.032 A 
HETATM   12  C24 UNL     1       1.322   4.601   9.415  1.00  0.00     0.065 A 
HETATM   13  C21 UNL     1       4.064   4.923   9.608  1.00  0.00     0.002 A 
HETATM   14  C22 UNL     1       3.446   4.820   8.396  1.00  0.00     0.002 A 
HETATM   15  C23 UNL     1       2.080   4.658   8.260  1.00  0.00     0.032 A 
BRANCH   7  16
HETATM   16  N2  UNL     1      -0.771   4.443  12.759  1.00  0.00    -0.347 N 
HETATM   17  C6  UNL     1      -1.177   3.624  13.750  1.00  0.00     0.101 C 
ATOM     18  H2  UNL     1      -1.131   5.378  12.952  1.00  0.00     0.167 HD
BRANCH  17  19
HETATM   19  C7  UNL     1      -2.561   3.887  14.282  1.00  0.00    -0.018 A 
HETATM   20  C8  UNL     1      -3.132   5.145  14.086  1.00  0.00     0.014 A 
HETATM   21  C9  UNL     1      -4.388   5.359  14.613  1.00  0.00     0.014 A 
HETATM   22  C10 UNL     1      -5.108   4.429  15.308  1.00  0.00    -0.009 A 
HETATM   23  C11 UNL     1      -6.377   4.685  15.828  1.00  0.00     0.016 A 
HETATM   24  C17 UNL     1      -4.509   3.174  15.489  1.00  0.00     0.050 A 
HETATM   25  C12 UNL     1      -6.991   3.642  16.515  1.00  0.00     0.031 A 
HETATM   26  C13 UNL     1      -6.395   2.445  16.673  1.00  0.00     0.039 A 
HETATM   27  C14 UNL     1      -6.789   1.270  17.309  1.00  0.00     0.031 A 
HETATM   28  N3  UNL     1      -5.156   2.208  16.164  1.00  0.00    -0.322 N 
HETATM   29  C15 UNL     1      -5.798   0.331  17.182  1.00  0.00     0.020 A 
HETATM   30  C16 UNL     1      -4.800   0.954  16.465  1.00  0.00     0.097 A 
HETATM   31  C18 UNL     1      -3.260   2.938  14.972  1.00  0.00     0.043 A 
ENDBRANCH  17  19
ENDBRANCH   7  16
ENDBRANCH   3   4
TORSDOF 3
ENDMDL
MODEL 2
REMARK VINA RESULT: -8.952928042      1.282      2.805
REMARK  3 active torsions:
REMARK  status: ('A' for Active; 'I' for Inactive)
REMARK    1  A    between atoms: C3_3  and  N1_4 
REMARK    2  A    between atoms: C5_7  and  N2_8 
REMARK    3  A    between atoms: C6_10  and  C7_11 
ROOT
HETATM    1  C1  UNL     1       3.276   1.887   8.126  1.00  0.00     0.098 C 
HETATM    2  C2  UNL     1       2.990   2.961   8.638  1.00  0.00    -0.167 C 
HETATM    3  C3  UNL     1       2.662   4.254   9.229  1.00  0.00     0.212 C 
ENDROOT
BRANCH   3   4
HETATM    4  N1  UNL     1       1.252   4.391   9.415  1.00  0.00    -0.299 N 
HETATM    5  C4  UNL     1       0.712   4.257  10.637  1.00  0.00     0.293 A 
HETATM    6  O1  UNL     1       1.491   4.014  11.571  1.00  0.00    -0.264 OA
HETATM    7  C5  UNL     1      -0.671   4.378  10.888  1.00  0.00     0.175 A 
HETATM    8  N4  UNL     1      -1.474   4.649   9.821  1.00  0.00    -0.336 N 
HETATM    9  C19 UNL     1      -0.953   4.787   8.591  1.00  0.00     0.061 A 
ATOM     10  H4  UNL     1      -2.480   4.748   9.958  1.00  0.00     0.168 HD
HETATM   11  C20 UNL     1      -1.831   5.068   7.547  1.00  0.00     0.032 A 
HETATM   12  C24 UNL     1       0.406   4.656   8.402  1.00  0.00     0.065 A 
HETATM   13  C21 UNL     1      -1.291   5.211   6.287  1.00  0.00     0.002 A 
HETATM   14  C22 UNL     1       0.054   5.079   6.100  1.00  0.00     0.002 A 
HETATM   15  C23 UNL     1       0.932   4.803   7.132  1.00  0.00     0.032 A 
BRANCH   7  16
HETATM   16  N2  UNL     1      -1.172   4.256  11.998  1.00  0.00    -0.347 N 
HETATM   17  C6  UNL     1      -1.562   3.356  12.923  1.00  0.00     0.101 C 
ATOM     18  H2  UNL     1      -1.372   5.189  12.360  1.00  0.00     0.167 HD
BRANCH  17  19
HETATM   19  C7  UNL     1      -2.817   3.703  13.678  1.00  0.00    -0.018 A 
HETATM   20  C8  UNL     1      -3.326   4.998  13.583  1.00  0.00     0.014 A 
HETATM   21  C9  UNL     1      -4.460   5.288  14.311  1.00  0.00     0.014 A 
HETATM   22  C10 UNL     1      -5.116   4.399  15.115  1.00  0.00    -0.009 A 
HETATM   23  C11 UNL     1      -6.261   4.732  15.839  1.00  0.00     0.016 A 
HETATM   24  C17 UNL     1      -4.582   3.105  15.191  1.00  0.00     0.050 A 
HETATM   25  C12 UNL     1      -6.821   3.723  16.616  1.00  0.00     0.031 A 
HETATM   26  C13 UNL     1      -6.290   2.487  16.671  1.00  0.00     0.039 A 
HETATM   27  C14 UNL     1      -6.652   1.332  17.361  1.00  0.00     0.031 A 
HETATM   28  N3  UNL     1      -5.172   2.175  15.962  1.00  0.00    -0.322 N 
HETATM   29  C15 UNL     1      -5.761   0.332  17.070  1.00  0.00     0.020 A 
HETATM   30  C16 UNL     1      -4.856   0.896  16.198  1.00  0.00     0.097 A 
HETATM   31  C18 UNL     1      -3.454   2.793  14.474  1.00  0.00     0.043 A 
ENDBRANCH  17  19
ENDBRANCH   7  16
ENDBRANCH   3   4
TORSDOF 3
ENDMDL
MODEL 3
REMARK VINA RESULT: -8.903292406      1.782      2.607
REMARK  3 active torsions:
REMARK  status: ('A' for Active; 'I' for Inactive)
REMARK    1  A    between atoms: C3_3  and  N1_4 
REMARK    2  A    between atoms: C5_7  and  N2_8 
REMARK    3  A    between atoms: C6_10  and  C7_11 
ROOT
HETATM    1  C1  UNL     1       3.663   8.471  13.226  1.00  0.00     0.098 C 
HETATM    2  C2  UNL     1       2.820   8.234  12.373  1.00  0.00    -0.167 C 
HETATM    3  C3  UNL     1       1.829   7.961  11.336  1.00  0.00     0.212 C 
ENDROOT
BRANCH   3   4
HETATM    4  N1  UNL     1       1.510   6.570  11.284  1.00  0.00    -0.299 N 
HETATM    5  C4  UNL     1       0.571   6.059  12.097  1.00  0.00     0.293 A 
HETATM    6  O1  UNL     1       0.013   6.846  12.875  1.00  0.00    -0.264 OA
HETATM    7  C5  UNL     1       0.209   4.695  12.097  1.00  0.00     0.175 A 
HETATM    8  N4  UNL     1       0.856   3.881  11.217  1.00  0.00    -0.336 N 
HETATM    9  C19 UNL     1       1.797   4.374  10.396  1.00  0.00     0.061 A 
ATOM     10  H4  UNL     1       0.624   2.889  11.182  1.00  0.00     0.168 HD
HETATM   11  C20 UNL     1       2.416   3.486   9.518  1.00  0.00     0.032 A 
HETATM   12  C24 UNL     1       2.114   5.715  10.439  1.00  0.00     0.065 A 
HETATM   13  C21 UNL     1       3.379   3.996   8.675  1.00  0.00     0.002 A 
HETATM   14  C22 UNL     1       3.693   5.324   8.720  1.00  0.00     0.002 A 
HETATM   15  C23 UNL     1       3.083   6.212   9.587  1.00  0.00     0.032 A 
BRANCH   7  16
HETATM   16  N2  UNL     1      -0.643   4.219  12.835  1.00  0.00    -0.347 N 
HETATM   17  C6  UNL     1      -1.588   3.261  12.932  1.00  0.00     0.101 C 
ATOM     18  H2  UNL     1      -0.637   4.747  13.708  1.00  0.00     0.167 HD
BRANCH  17  19
HETATM   19  C7  UNL     1      -2.837   3.655  13.674  1.00  0.00    -0.018 A 
HETATM   20  C8  UNL     1      -3.323   4.956  13.535  1.00  0.00     0.014 A 
HETATM   21  C9  UNL     1      -4.453   5.289  14.252  1.00  0.00     0.014 A 
HETATM   22  C10 UNL     1      -5.125   4.439  15.083  1.00  0.00    -0.009 A 
HETATM   23  C11 UNL     1      -6.264   4.815  15.794  1.00  0.00     0.016 A 
HETATM   24  C17 UNL     1      -4.614   3.138  15.202  1.00  0.00     0.050 A 
HETATM   25  C12 UNL     1      -6.844   3.842  16.602  1.00  0.00     0.031 A 
HETATM   26  C13 UNL     1      -6.335   2.599  16.699  1.00  0.00     0.039 A 
HETATM   27  C14 UNL     1      -6.718   1.475  17.425  1.00  0.00     0.031 A 
HETATM   28  N3  UNL     1      -5.222   2.244  16.002  1.00  0.00    -0.322 N 
HETATM   29  C15 UNL     1      -5.845   0.449  17.168  1.00  0.00     0.020 A 
HETATM   30  C16 UNL     1      -4.929   0.969  16.280  1.00  0.00     0.097 A 
HETATM   31  C18 UNL     1      -3.491   2.784  14.497  1.00  0.00     0.043 A 
ENDBRANCH  17  19
ENDBRANCH   7  16
ENDBRANCH   3   4
TORSDOF 3
ENDMDL
MODEL 4
REMARK VINA RESULT: -8.741127961      0.903      1.057
REMARK  3 active torsions:
REMARK  status: ('A' for Active; 'I' for Inactive)
REMARK    1  A    between atoms: C3_3  and  N1_4 
REMARK    2  A    between atoms: C5_7  and  N2_8 
REMARK    3  A    between atoms: C6_10  and  C7_11 
ROOT
HETATM    1  C1  UNL     1      -0.022   3.914   6.680  1.00  0.00     0.098 C 
HETATM    2  C2  UNL     1       0.028   4.873   7.438  1.00  0.00    -0.167 C 
HETATM    3  C3  UNL     1       0.061   6.020   8.341  1.00  0.00     0.212 C 
ENDROOT
BRANCH   3   4
HETATM    4  N1  UNL     1       0.594   5.656   9.615  1.00  0.00    -0.299 N 
HETATM    5  C4  UNL     1      -0.226   5.280  10.610  1.00  0.00     0.293 A 
HETATM    6  O1  UNL     1      -1.441   5.268  10.363  1.00  0.00    -0.264 OA
HETATM    7  C5  UNL     1       0.235   4.910  11.892  1.00  0.00     0.175 A 
HETATM    8  N4  UNL     1       1.581   4.940  12.100  1.00  0.00    -0.336 N 
HETATM    9  C19 UNL     1       2.416   5.312  11.116  1.00  0.00     0.061 A 
ATOM     10  H4  UNL     1       1.957   4.677  13.011  1.00  0.00     0.168 HD
HETATM   11  C20 UNL     1       3.781   5.316  11.397  1.00  0.00     0.032 A 
HETATM   12  C24 UNL     1       1.912   5.666   9.883  1.00  0.00     0.065 A 
HETATM   13  C21 UNL     1       4.634   5.696  10.384  1.00  0.00     0.002 A 
HETATM   14  C22 UNL     1       4.134   6.049   9.164  1.00  0.00     0.002 A 
HETATM   15  C23 UNL     1       2.782   6.046   8.878  1.00  0.00     0.032 A 
BRANCH   7  16
HETATM   16  N2  UNL     1      -0.504   4.568  12.805  1.00  0.00    -0.347 N 
HETATM   17  C6  UNL     1      -1.195   3.528  13.315  1.00  0.00     0.101 C 
ATOM     18  H2  UNL     1      -0.653   5.375  13.411  1.00  0.00     0.167 HD
BRANCH  17  19
HETATM   19  C7  UNL     1      -2.526   3.873  13.927  1.00  0.00    -0.018 A 
HETATM   20  C8  UNL     1      -3.038   5.159  13.753  1.00  0.00     0.014 A 
HETATM   21  C9  UNL     1      -4.246   5.446  14.352  1.00  0.00     0.014 A 
HETATM   22  C10 UNL     1      -4.973   4.564  15.100  1.00  0.00    -0.009 A 
HETATM   23  C11 UNL     1      -6.191   4.895  15.692  1.00  0.00     0.016 A 
HETATM   24  C17 UNL     1      -4.434   3.279  15.257  1.00  0.00     0.050 A 
HETATM   25  C12 UNL     1      -6.818   3.893  16.426  1.00  0.00     0.031 A 
HETATM   26  C13 UNL     1      -6.282   2.666  16.562  1.00  0.00     0.039 A 
HETATM   27  C14 UNL     1      -6.701   1.520  17.233  1.00  0.00     0.031 A 
HETATM   28  N3  UNL     1      -5.092   2.356  15.981  1.00  0.00    -0.322 N 
HETATM   29  C15 UNL     1      -5.773   0.526  17.057  1.00  0.00     0.020 A 
HETATM   30  C16 UNL     1      -4.787   1.086  16.274  1.00  0.00     0.097 A 
HETATM   31  C18 UNL     1      -3.233   2.969  14.669  1.00  0.00     0.043 A 
ENDBRANCH  17  19
ENDBRANCH   7  16
ENDBRANCH   3   4
TORSDOF 3
ENDMDL
MODEL 5
REMARK VINA RESULT: -8.694700522      4.618      8.614
REMARK  3 active torsions:
REMARK  status: ('A' for Active; 'I' for Inactive)
REMARK    1  A    between atoms: C3_3  and  N1_4 
REMARK    2  A    between atoms: C5_7  and  N2_8 
REMARK    3  A    between atoms: C6_10  and  C7_11 
ROOT
HETATM    1  C1  UNL     1      -4.928   0.262  11.057  1.00  0.00     0.098 C 
HETATM    2  C2  UNL     1      -4.447   0.736  12.077  1.00  0.00    -0.167 C 
HETATM    3  C3  UNL     1      -3.849   1.296  13.285  1.00  0.00     0.212 C 
ENDROOT
BRANCH   3   4
HETATM    4  N1  UNL     1      -4.321   2.623  13.524  1.00  0.00    -0.299 N 
HETATM    5  C4  UNL     1      -3.969   3.626  12.703  1.00  0.00     0.293 A 
HETATM    6  O1  UNL     1      -3.229   3.339  11.751  1.00  0.00    -0.264 OA
HETATM    7  C5  UNL     1      -4.399   4.958  12.883  1.00  0.00     0.175 A 
HETATM    8  N4  UNL     1      -5.214   5.209  13.945  1.00  0.00    -0.336 N 
HETATM    9  C19 UNL     1      -5.577   4.219  14.777  1.00  0.00     0.061 A 
ATOM     10  H4  UNL     1      -5.550   6.157  14.111  1.00  0.00     0.168 HD
HETATM   11  C20 UNL     1      -6.415   4.545  15.841  1.00  0.00     0.032 A 
HETATM   12  C24 UNL     1      -5.126   2.935  14.556  1.00  0.00     0.065 A 
HETATM   13  C21 UNL     1      -6.788   3.526  16.689  1.00  0.00     0.002 A 
HETATM   14  C22 UNL     1      -6.339   2.256  16.471  1.00  0.00     0.002 A 
HETATM   15  C23 UNL     1      -5.509   1.923  15.417  1.00  0.00     0.032 A 
BRANCH   7  16
HETATM   16  N2  UNL     1      -4.083   5.879  12.142  1.00  0.00    -0.347 N 
HETATM   17  C6  UNL     1      -3.411   7.047  12.084  1.00  0.00     0.101 C 
ATOM     18  H2  UNL     1      -4.475   5.693  11.219  1.00  0.00     0.167 HD
BRANCH  17  19
HETATM   19  C7  UNL     1      -4.032   8.109  11.215  1.00  0.00    -0.018 A 
HETATM   20  C8  UNL     1      -3.399   9.348  11.106  1.00  0.00     0.014 A 
HETATM   21  C9  UNL     1      -4.011  10.304  10.325  1.00  0.00     0.014 A 
HETATM   22  C10 UNL     1      -5.188  10.125   9.653  1.00  0.00    -0.009 A 
HETATM   23  C11 UNL     1      -5.777  11.120   8.875  1.00  0.00     0.016 A 
HETATM   24  C17 UNL     1      -5.800   8.869   9.781  1.00  0.00     0.050 A 
HETATM   25  C12 UNL     1      -6.976  10.793   8.249  1.00  0.00     0.031 A 
HETATM   26  C13 UNL     1      -7.544   9.579   8.386  1.00  0.00     0.039 A 
HETATM   27  C14 UNL     1      -8.715   9.021   7.879  1.00  0.00     0.031 A 
HETATM   28  N3  UNL     1      -6.961   8.617   9.150  1.00  0.00    -0.322 N 
HETATM   29  C15 UNL     1      -8.837   7.733   8.332  1.00  0.00     0.020 A 
HETATM   30  C16 UNL     1      -7.727   7.521   9.120  1.00  0.00     0.097 A 
HETATM   31  C18 UNL     1      -5.208   7.901  10.552  1.00  0.00     0.043 A 
ENDBRANCH  17  19
ENDBRANCH   7  16
ENDBRANCH   3   4
TORSDOF 3
ENDMDL
