MODEL 1
REMARK VINA RESULT: -7.625788000      0.000      0.000
REMARK  9 active torsions:
REMARK  status: ('A' for Active; 'I' for Inactive)
REMARK    1  A    between atoms: O1_2  and  C2_3 
REMARK    2  A    between atoms: C2_3  and  C3_5 
REMARK    3  A    between atoms: C3_5  and  N1_8 
REMARK    4  A    between atoms: N1_8  and  N2_9 
REMARK    5  A    between atoms: N1_8  and  C14_20 
REMARK    6  A    between atoms: N2_9  and  C6_11 
REMARK    7  A    between atoms: C6_11  and  C7_13 
REMARK    8  A    between atoms: C14_20  and  O3_21 
REMARK    9  A    between atoms: C14_20  and  C15_23 
ROOT
HETATM    1  N1  UNL     1      -4.028   3.486  13.790  1.00  0.00    -0.250 N 
ENDROOT
BRANCH   1   2
HETATM    2  C3  UNL     1      -3.462   2.652  12.732  1.00  0.00     0.136 C 
HETATM    3  C4  UNL     1      -3.733   1.181  12.953  1.00  0.00     0.051 C 
HETATM    4  C5  UNL     1      -1.963   2.845  12.715  1.00  0.00     0.051 C 
BRANCH   2   5
HETATM    5  C2  UNL     1      -3.932   3.086  11.383  1.00  0.00     0.288 C 
HETATM    6  O2  UNL     1      -5.061   2.930  10.916  1.00  0.00    -0.262 OA
BRANCH   5   7
HETATM    7  O1  UNL     1      -2.971   3.733  10.596  1.00  0.00    -0.324 OA
HETATM    8  C1  UNL     1      -3.332   4.583   9.525  1.00  0.00     0.213 C 
ENDBRANCH   5   7
ENDBRANCH   2   5
ENDBRANCH   1   2
BRANCH   1   9
HETATM    9  N2  UNL     1      -3.249   4.563  14.185  1.00  0.00    -0.284 N 
ATOM     10  H2  UNL     1      -2.533   4.427  14.899  1.00  0.00     0.188 HD
BRANCH   9  11
HETATM   11  C6  UNL     1      -3.434   5.872  13.607  1.00  0.00     0.125 C 
HETATM   12  S1  UNL     1      -4.659   6.230  12.626  1.00  0.00    -0.058 SA
BRANCH  11  13
HETATM   13  C7  UNL     1      -2.428   6.873  13.951  1.00  0.00     0.003 A 
HETATM   14  C8  UNL     1      -2.616   7.633  15.082  1.00  0.00     0.015 A 
HETATM   15  C9  UNL     1      -1.685   8.584  15.434  1.00  0.00     0.007 A 
HETATM   16  C10 UNL     1      -0.556   8.804  14.683  1.00  0.00    -0.062 A 
HETATM   17  C11 UNL     1       0.461   9.836  15.056  1.00  0.00     0.048 C 
HETATM   18  C12 UNL     1      -0.393   8.025  13.551  1.00  0.00     0.007 A 
HETATM   19  C13 UNL     1      -1.311   7.073  13.187  1.00  0.00     0.015 A 
ENDBRANCH  11  13
ENDBRANCH   9  11
ENDBRANCH   1   9
BRANCH   1  20
HETATM   20  C14 UNL     1      -5.256   3.182  14.387  1.00  0.00     0.168 C 
BRANCH  20  21
HETATM   21  O3  UNL     1      -6.289   3.346  13.599  1.00  0.00    -0.344 OA
ATOM     22  H3  UNL     1      -6.615   4.237  13.568  1.00  0.00     0.219 HD
ENDBRANCH  20  21
BRANCH  20  23
HETATM   23  C15 UNL     1      -5.565   2.724  15.713  1.00  0.00     0.016 A 
HETATM   24  C16 UNL     1      -5.148   1.561  16.309  1.00  0.00     0.016 A 
HETATM   25  C17 UNL     1      -5.523   1.174  17.595  1.00  0.00     0.001 A 
HETATM   26  C18 UNL     1      -6.345   1.972  18.326  1.00  0.00     0.000 A 
HETATM   27  C19 UNL     1      -6.783   3.137  17.776  1.00  0.00     0.001 A 
HETATM   28  C20 UNL     1      -6.413   3.519  16.503  1.00  0.00     0.016 A 
ENDBRANCH  20  23
ENDBRANCH   1  20
TORSDOF 9
ENDMDL
MODEL 2
REMARK VINA RESULT: -7.519190972      2.616      6.181
REMARK  9 active torsions:
REMARK  status: ('A' for Active; 'I' for Inactive)
REMARK    1  A    between atoms: O1_2  and  C2_3 
REMARK    2  A    between atoms: C2_3  and  C3_5 
REMARK    3  A    between atoms: C3_5  and  N1_8 
REMARK    4  A    between atoms: N1_8  and  N2_9 
REMARK    5  A    between atoms: N1_8  and  C14_20 
REMARK    6  A    between atoms: N2_9  and  C6_11 
REMARK    7  A    between atoms: C6_11  and  C7_13 
REMARK    8  A    between atoms: C14_20  and  O3_21 
REMARK    9  A    between atoms: C14_20  and  C15_23 
ROOT
HETATM    1  N1  UNL     1      -3.102   4.906  11.459  1.00  0.00    -0.250 N 
ENDROOT
BRANCH   1   2
HETATM    2  C3  UNL     1      -1.939   5.266  10.653  1.00  0.00     0.136 C 
HETATM    3  C4  UNL     1      -1.826   6.759  10.442  1.00  0.00     0.051 C 
HETATM    4  C5  UNL     1      -2.076   4.619   9.293  1.00  0.00     0.051 C 
BRANCH   2   5
HETATM    5  C2  UNL     1      -0.680   4.710  11.230  1.00  0.00     0.288 C 
HETATM    6  O2  UNL     1      -0.247   3.567  11.079  1.00  0.00    -0.262 OA
BRANCH   5   7
HETATM    7  O1  UNL     1       0.062   5.603  12.014  1.00  0.00    -0.324 OA
HETATM    8  C1  UNL     1       1.446   5.805  11.810  1.00  0.00     0.213 C 
ENDBRANCH   5   7
ENDBRANCH   2   5
ENDBRANCH   1   2
BRANCH   1   9
HETATM    9  N2  UNL     1      -2.827   4.468  12.746  1.00  0.00    -0.284 N 
ATOM     10  H2  UNL     1      -2.221   3.659  12.880  1.00  0.00     0.188 HD
BRANCH   9  11
HETATM   11  C6  UNL     1      -3.383   5.137  13.898  1.00  0.00     0.125 C 
HETATM   12  S1  UNL     1      -3.023   6.657  14.286  1.00  0.00    -0.058 SA
BRANCH  11  13
HETATM   13  C7  UNL     1      -4.296   4.346  14.719  1.00  0.00     0.003 A 
HETATM   14  C8  UNL     1      -3.865   3.130  15.197  1.00  0.00     0.015 A 
HETATM   15  C9  UNL     1      -4.702   2.362  15.975  1.00  0.00     0.007 A 
HETATM   16  C10 UNL     1      -5.973   2.773  16.295  1.00  0.00    -0.062 A 
HETATM   17  C11 UNL     1      -6.890   1.945  17.138  1.00  0.00     0.048 C 
HETATM   18  C12 UNL     1      -6.379   4.001  15.801  1.00  0.00     0.007 A 
HETATM   19  C13 UNL     1      -5.558   4.778  15.025  1.00  0.00     0.015 A 
ENDBRANCH  11  13
ENDBRANCH   9  11
ENDBRANCH   1   9
BRANCH   1  20
HETATM   20  C14 UNL     1      -4.401   4.961  10.942  1.00  0.00     0.168 C 
BRANCH  20  21
HETATM   21  O3  UNL     1      -4.923   3.789  10.681  1.00  0.00    -0.344 OA
ATOM     22  H3  UNL     1      -5.103   3.642   9.760  1.00  0.00     0.219 HD
ENDBRANCH  20  21
BRANCH  20  23
HETATM   23  C15 UNL     1      -5.247   6.086  10.654  1.00  0.00     0.016 A 
HETATM   24  C16 UNL     1      -6.039   6.777  11.534  1.00  0.00     0.016 A 
HETATM   25  C17 UNL     1      -6.860   7.843  11.163  1.00  0.00     0.001 A 
HETATM   26  C18 UNL     1      -6.899   8.242   9.866  1.00  0.00     0.000 A 
HETATM   27  C19 UNL     1      -6.129   7.586   8.956  1.00  0.00     0.001 A 
HETATM   28  C20 UNL     1      -5.318   6.533   9.323  1.00  0.00     0.016 A 
ENDBRANCH  20  23
ENDBRANCH   1  20
TORSDOF 9
ENDMDL
MODEL 3
REMARK VINA RESULT: -7.486119911      2.814      6.219
REMARK  9 active torsions:
REMARK  status: ('A' for Active; 'I' for Inactive)
REMARK    1  A    between atoms: O1_2  and  C2_3 
REMARK    2  A    between atoms: C2_3  and  C3_5 
REMARK    3  A    between atoms: C3_5  and  N1_8 
REMARK    4  A    between atoms: N1_8  and  N2_9 
REMARK    5  A    between atoms: N1_8  and  C14_20 
REMARK    6  A    between atoms: N2_9  and  C6_11 
REMARK    7  A    between atoms: C6_11  and  C7_13 
REMARK    8  A    between atoms: C14_20  and  O3_21 
REMARK    9  A    between atoms: C14_20  and  C15_23 
ROOT
HETATM    1  N1  UNL     1      -4.985   5.602  11.686  1.00  0.00    -0.250 N 
ENDROOT
BRANCH   1   2
HETATM    2  C3  UNL     1      -5.347   6.754  10.866  1.00  0.00     0.136 C 
HETATM    3  C4  UNL     1      -4.273   7.819  10.865  1.00  0.00     0.051 C 
HETATM    4  C5  UNL     1      -6.605   7.373  11.431  1.00  0.00     0.051 C 
BRANCH   2   5
HETATM    5  C2  UNL     1      -5.697   6.347   9.474  1.00  0.00     0.288 C 
HETATM    6  O2  UNL     1      -4.908   6.123   8.555  1.00  0.00    -0.262 OA
BRANCH   5   7
HETATM    7  O1  UNL     1      -7.068   6.213   9.219  1.00  0.00    -0.324 OA
HETATM    8  C1  UNL     1      -7.676   6.792   8.080  1.00  0.00     0.213 C 
ENDBRANCH   5   7
ENDBRANCH   2   5
ENDBRANCH   1   2
BRANCH   1   9
HETATM    9  N2  UNL     1      -5.454   5.623  12.991  1.00  0.00    -0.284 N 
ATOM     10  H2  UNL     1      -6.445   5.793  13.164  1.00  0.00     0.188 HD
BRANCH   9  11
HETATM   11  C6  UNL     1      -4.566   5.409  14.109  1.00  0.00     0.125 C 
HETATM   12  S1  UNL     1      -3.298   6.355  14.412  1.00  0.00    -0.058 SA
BRANCH  11  13
HETATM   13  C7  UNL     1      -4.872   4.264  14.961  1.00  0.00     0.003 A 
HETATM   14  C8  UNL     1      -6.115   4.193  15.545  1.00  0.00     0.015 A 
HETATM   15  C9  UNL     1      -6.434   3.124  16.354  1.00  0.00     0.007 A 
HETATM   16  C10 UNL     1      -5.540   2.111  16.600  1.00  0.00    -0.062 A 
HETATM   17  C11 UNL     1      -5.877   0.947  17.477  1.00  0.00     0.048 C 
HETATM   18  C12 UNL     1      -4.298   2.209  15.998  1.00  0.00     0.007 A 
HETATM   19  C13 UNL     1      -3.964   3.266  15.191  1.00  0.00     0.015 A 
ENDBRANCH  11  13
ENDBRANCH   9  11
ENDBRANCH   1   9
BRANCH   1  20
HETATM   20  C14 UNL     1      -4.180   4.570  11.190  1.00  0.00     0.168 C 
BRANCH  20  21
HETATM   21  O3  UNL     1      -4.851   3.558  10.700  1.00  0.00    -0.344 OA
ATOM     22  H3  UNL     1      -4.854   3.518   9.751  1.00  0.00     0.219 HD
ENDBRANCH  20  21
BRANCH  20  23
HETATM   23  C15 UNL     1      -2.751   4.443  11.132  1.00  0.00     0.016 A 
HETATM   24  C16 UNL     1      -1.903   5.001  10.208  1.00  0.00     0.016 A 
HETATM   25  C17 UNL     1      -0.523   4.799  10.205  1.00  0.00     0.001 A 
HETATM   26  C18 UNL     1       0.045   4.012  11.155  1.00  0.00     0.000 A 
HETATM   27  C19 UNL     1      -0.756   3.438  12.093  1.00  0.00     0.001 A 
HETATM   28  C20 UNL     1      -2.121   3.637  12.096  1.00  0.00     0.016 A 
ENDBRANCH  20  23
ENDBRANCH   1  20
TORSDOF 9
ENDMDL
MODEL 4
REMARK VINA RESULT: -7.397742098      2.194      6.311
REMARK  9 active torsions:
REMARK  status: ('A' for Active; 'I' for Inactive)
REMARK    1  A    between atoms: O1_2  and  C2_3 
REMARK    2  A    between atoms: C2_3  and  C3_5 
REMARK    3  A    between atoms: C3_5  and  N1_8 
REMARK    4  A    between atoms: N1_8  and  N2_9 
REMARK    5  A    between atoms: N1_8  and  C14_20 
REMARK    6  A    between atoms: N2_9  and  C6_11 
REMARK    7  A    between atoms: C6_11  and  C7_13 
REMARK    8  A    between atoms: C14_20  and  O3_21 
REMARK    9  A    between atoms: C14_20  and  C15_23 
ROOT
HETATM    1  N1  UNL     1      -3.547   5.930  12.227  1.00  0.00    -0.250 N 
ENDROOT
BRANCH   1   2
HETATM    2  C3  UNL     1      -3.854   6.477  10.909  1.00  0.00     0.136 C 
HETATM    3  C4  UNL     1      -3.127   5.748   9.801  1.00  0.00     0.051 C 
HETATM    4  C5  UNL     1      -3.413   7.923  10.872  1.00  0.00     0.051 C 
BRANCH   2   5
HETATM    5  C2  UNL     1      -5.324   6.506  10.656  1.00  0.00     0.288 C 
HETATM    6  O2  UNL     1      -5.979   5.660  10.046  1.00  0.00    -0.262 OA
BRANCH   5   7
HETATM    7  O1  UNL     1      -5.998   7.617  11.179  1.00  0.00    -0.324 OA
HETATM    8  C1  UNL     1      -7.409   7.660  11.270  1.00  0.00     0.213 C 
ENDBRANCH   5   7
ENDBRANCH   2   5
ENDBRANCH   1   2
BRANCH   1   9
HETATM    9  N2  UNL     1      -4.609   5.331  12.889  1.00  0.00    -0.284 N 
ATOM     10  H2  UNL     1      -5.375   5.910  13.232  1.00  0.00     0.188 HD
BRANCH   9  11
HETATM   11  C6  UNL     1      -4.648   3.904  13.102  1.00  0.00     0.125 C 
HETATM   12  S1  UNL     1      -4.265   2.837  11.958  1.00  0.00    -0.058 SA
BRANCH  11  13
HETATM   13  C7  UNL     1      -5.074   3.465  14.428  1.00  0.00     0.003 A 
HETATM   14  C8  UNL     1      -4.330   2.504  15.072  1.00  0.00     0.015 A 
HETATM   15  C9  UNL     1      -4.705   2.069  16.325  1.00  0.00     0.007 A 
HETATM   16  C10 UNL     1      -5.813   2.571  16.962  1.00  0.00    -0.062 A 
HETATM   17  C11 UNL     1      -6.229   2.105  18.322  1.00  0.00     0.048 C 
HETATM   18  C12 UNL     1      -6.541   3.537  16.290  1.00  0.00     0.007 A 
HETATM   19  C13 UNL     1      -6.182   3.980  15.044  1.00  0.00     0.015 A 
ENDBRANCH  11  13
ENDBRANCH   9  11
ENDBRANCH   1   9
BRANCH   1  20
HETATM   20  C14 UNL     1      -2.273   6.046  12.794  1.00  0.00     0.168 C 
BRANCH  20  21
HETATM   21  O3  UNL     1      -1.469   5.053  12.509  1.00  0.00    -0.344 OA
ATOM     22  H3  UNL     1      -1.431   4.839  11.585  1.00  0.00     0.219 HD
ENDBRANCH  20  21
BRANCH  20  23
HETATM   23  C15 UNL     1      -1.710   7.069  13.630  1.00  0.00     0.016 A 
HETATM   24  C16 UNL     1      -2.241   7.583  14.786  1.00  0.00     0.016 A 
HETATM   25  C17 UNL     1      -1.643   8.605  15.524  1.00  0.00     0.001 A 
HETATM   26  C18 UNL     1      -0.469   9.141  15.102  1.00  0.00     0.000 A 
HETATM   27  C19 UNL     1       0.097   8.662  13.961  1.00  0.00     0.001 A 
HETATM   28  C20 UNL     1      -0.496   7.652  13.231  1.00  0.00     0.016 A 
ENDBRANCH  20  23
ENDBRANCH   1  20
TORSDOF 9
ENDMDL
MODEL 5
REMARK VINA RESULT: -7.380049584      2.534      6.363
REMARK  9 active torsions:
REMARK  status: ('A' for Active; 'I' for Inactive)
REMARK    1  A    between atoms: O1_2  and  C2_3 
REMARK    2  A    between atoms: C2_3  and  C3_5 
REMARK    3  A    between atoms: C3_5  and  N1_8 
REMARK    4  A    between atoms: N1_8  and  N2_9 
REMARK    5  A    between atoms: N1_8  and  C14_20 
REMARK    6  A    between atoms: N2_9  and  C6_11 
REMARK    7  A    between atoms: C6_11  and  C7_13 
REMARK    8  A    between atoms: C14_20  and  O3_21 
REMARK    9  A    between atoms: C14_20  and  C15_23 
ROOT
HETATM    1  N1  UNL     1      -4.710   6.598  11.975  1.00  0.00    -0.250 N 
ENDROOT
BRANCH   1   2
HETATM    2  C3  UNL     1      -5.556   7.218  10.958  1.00  0.00     0.136 C 
HETATM    3  C4  UNL     1      -5.052   8.582  10.545  1.00  0.00     0.051 C 
HETATM    4  C5  UNL     1      -6.944   7.395  11.528  1.00  0.00     0.051 C 
BRANCH   2   5
HETATM    5  C2  UNL     1      -5.726   6.329   9.772  1.00  0.00     0.288 C 
HETATM    6  O2  UNL     1      -4.840   5.689   9.203  1.00  0.00    -0.262 OA
BRANCH   5   7
HETATM    7  O1  UNL     1      -7.034   6.231   9.282  1.00  0.00    -0.324 OA
HETATM    8  C1  UNL     1      -7.434   6.873   8.087  1.00  0.00     0.213 C 
ENDBRANCH   5   7
ENDBRANCH   2   5
ENDBRANCH   1   2
BRANCH   1   9
HETATM    9  N2  UNL     1      -5.351   5.717  12.833  1.00  0.00    -0.284 N 
ATOM     10  H2  UNL     1      -6.208   6.010  13.302  1.00  0.00     0.188 HD
BRANCH   9  11
HETATM   11  C6  UNL     1      -4.827   4.394  13.074  1.00  0.00     0.125 C 
HETATM   12  S1  UNL     1      -3.943   3.592  11.994  1.00  0.00    -0.058 SA
BRANCH  11  13
HETATM   13  C7  UNL     1      -5.156   3.801  14.367  1.00  0.00     0.003 A 
HETATM   14  C8  UNL     1      -6.227   4.305  15.069  1.00  0.00     0.015 A 
HETATM   15  C9  UNL     1      -6.563   3.766  16.291  1.00  0.00     0.007 A 
HETATM   16  C10 UNL     1      -5.854   2.727  16.843  1.00  0.00    -0.062 A 
HETATM   17  C11 UNL     1      -6.211   2.136  18.170  1.00  0.00     0.048 C 
HETATM   18  C12 UNL     1      -4.783   2.240  16.114  1.00  0.00     0.007 A 
HETATM   19  C13 UNL     1      -4.435   2.765  14.897  1.00  0.00     0.015 A 
ENDBRANCH  11  13
ENDBRANCH   9  11
ENDBRANCH   1   9
BRANCH   1  20
HETATM   20  C14 UNL     1      -3.352   6.914  12.094  1.00  0.00     0.168 C 
BRANCH  20  21
HETATM   21  O3  UNL     1      -2.612   6.469  11.110  1.00  0.00    -0.344 OA
ATOM     22  H3  UNL     1      -1.948   5.844  11.377  1.00  0.00     0.219 HD
ENDBRANCH  20  21
BRANCH  20  23
HETATM   23  C15 UNL     1      -2.645   7.641  13.110  1.00  0.00     0.016 A 
HETATM   24  C16 UNL     1      -2.621   7.377  14.456  1.00  0.00     0.016 A 
HETATM   25  C17 UNL     1      -1.932   8.158  15.385  1.00  0.00     0.001 A 
HETATM   26  C18 UNL     1      -1.236   9.246  14.966  1.00  0.00     0.000 A 
HETATM   27  C19 UNL     1      -1.231   9.547  13.638  1.00  0.00     0.001 A 
HETATM   28  C20 UNL     1      -1.913   8.776  12.721  1.00  0.00     0.016 A 
ENDBRANCH  20  23
ENDBRANCH   1  20
TORSDOF 9
ENDMDL
