MODEL 1
REMARK VINA RESULT: -6.430168199      0.000      0.000
REMARK  4 active torsions:
REMARK  status: ('A' for Active; 'I' for Inactive)
REMARK    1  A    between atoms: C5_5  and  C6_6 
REMARK    2  A    between atoms: C9_10  and  N2_11 
REMARK    3  A    between atoms: N2_11  and  C10_13 
REMARK    4  A    between atoms: C15_20  and  C16_21 
REMARK       I    between atoms: C16_21  and  N4_23 
ROOT
HETATM    1  C6  UNL     1      -2.918   5.467  12.431  1.00  0.00     0.014 A 
HETATM    2  C7  UNL     1      -3.403   4.851  13.593  1.00  0.00     0.100 A 
HETATM    3  C8  UNL     1      -2.506   4.049  14.389  1.00  0.00     0.104 C 
HETATM    4  N1  UNL     1      -1.766   3.411  15.028  1.00  0.00    -0.191 NA
HETATM    5  C9  UNL     1      -4.718   4.982  14.011  1.00  0.00     0.125 A 
HETATM    6  N3  UNL     1      -5.502   5.735  13.237  1.00  0.00    -0.327 N 
ATOM      7  H3  UNL     1      -6.475   5.846  13.523  1.00  0.00     0.169 HD
HETATM    8  C13 UNL     1      -5.109   6.363  12.103  1.00  0.00     0.121 A 
HETATM    9  C14 UNL     1      -3.780   6.227  11.686  1.00  0.00     0.039 A 
HETATM   10  C15 UNL     1      -3.704   6.959  10.526  1.00  0.00     0.069 A 
HETATM   11  C19 UNL     1      -4.943   7.526  10.237  1.00  0.00     0.025 A 
HETATM   12  C20 UNL     1      -5.223   8.381   9.054  1.00  0.00     0.069 C 
HETATM   13  N5  UNL     1      -5.763   7.142  11.213  1.00  0.00    -0.340 N 
HETATM   14  C21 UNL     1      -7.169   7.492  11.338  1.00  0.00     0.158 C 
ENDROOT
BRANCH   1  15
HETATM   15  C5  UNL     1      -1.541   5.252  12.078  1.00  0.00    -0.023 A 
HETATM   16  C4  UNL     1      -0.587   6.146  12.470  1.00  0.00     0.013 A 
HETATM   17  C3  UNL     1       0.717   5.969  12.094  1.00  0.00     0.007 A 
HETATM   18  C2  UNL     1       1.095   4.893  11.318  1.00  0.00    -0.062 A 
HETATM   19  C1  UNL     1       2.539   4.748  10.935  1.00  0.00     0.048 C 
HETATM   20  C23 UNL     1       0.147   3.988  10.917  1.00  0.00     0.007 A 
HETATM   21  C22 UNL     1      -1.172   4.182  11.307  1.00  0.00     0.013 A 
ENDBRANCH   1  15
BRANCH   5  22
HETATM   22  N2  UNL     1      -5.051   4.377  15.083  1.00  0.00    -0.371 N 
ATOM     23  H2  UNL     1      -4.572   4.694  15.926  1.00  0.00     0.161 HD
BRANCH  22  24
HETATM   24  C10 UNL     1      -5.990   3.329  15.279  1.00  0.00     0.075 C 
HETATM   25  C11 UNL     1      -5.360   1.965  15.362  1.00  0.00     0.031 C 
HETATM   26  C12 UNL     1      -6.749   3.608  16.559  1.00  0.00     0.031 C 
ENDBRANCH  22  24
ENDBRANCH   5  22
BRANCH  10  27
HETATM   27  C16 UNL     1      -2.544   7.182   9.678  1.00  0.00     0.256 C 
HETATM   28  O1  UNL     1      -1.806   8.162   9.920  1.00  0.00    -0.267 OA
HETATM   29  N4  UNL     1      -2.214   6.332   8.599  1.00  0.00    -0.357 N 
HETATM   30  C17 UNL     1      -2.976   5.159   8.219  1.00  0.00     0.152 C 
HETATM   31  C18 UNL     1      -1.041   6.627   7.805  1.00  0.00     0.152 C 
ENDBRANCH  10  27
TORSDOF 4
ENDMDL
MODEL 2
REMARK VINA RESULT: -6.390424043      3.324      5.413
REMARK  4 active torsions:
REMARK  status: ('A' for Active; 'I' for Inactive)
REMARK    1  A    between atoms: C5_5  and  C6_6 
REMARK    2  A    between atoms: C9_10  and  N2_11 
REMARK    3  A    between atoms: N2_11  and  C10_13 
REMARK    4  A    between atoms: C15_20  and  C16_21 
REMARK       I    between atoms: C16_21  and  N4_23 
ROOT
HETATM    1  C6  UNL     1      -2.706   7.594  12.971  1.00  0.00     0.014 A 
HETATM    2  C7  UNL     1      -2.067   8.647  13.639  1.00  0.00     0.100 A 
HETATM    3  C8  UNL     1      -1.534   8.421  14.960  1.00  0.00     0.104 C 
HETATM    4  N1  UNL     1      -1.098   8.220  16.025  1.00  0.00    -0.191 NA
HETATM    5  C9  UNL     1      -1.926   9.907  13.078  1.00  0.00     0.125 A 
HETATM    6  N3  UNL     1      -2.437  10.059  11.855  1.00  0.00    -0.327 N 
ATOM      7  H3  UNL     1      -2.347  10.977  11.420  1.00  0.00     0.169 HD
HETATM    8  C13 UNL     1      -3.066   9.092  11.145  1.00  0.00     0.121 A 
HETATM    9  C14 UNL     1      -3.206   7.822  11.717  1.00  0.00     0.039 A 
HETATM   10  C15 UNL     1      -3.879   7.088  10.772  1.00  0.00     0.069 A 
HETATM   11  C19 UNL     1      -4.147   7.877   9.655  1.00  0.00     0.025 A 
HETATM   12  C20 UNL     1      -4.863   7.404   8.441  1.00  0.00     0.069 C 
HETATM   13  N5  UNL     1      -3.639   9.079   9.921  1.00  0.00    -0.340 N 
HETATM   14  C21 UNL     1      -3.677  10.237   9.044  1.00  0.00     0.158 C 
ENDROOT
BRANCH   1  15
HETATM   15  C5  UNL     1      -2.814   6.331  13.651  1.00  0.00    -0.023 A 
HETATM   16  C4  UNL     1      -1.797   5.425  13.575  1.00  0.00     0.013 A 
HETATM   17  C3  UNL     1      -1.918   4.203  14.182  1.00  0.00     0.007 A 
HETATM   18  C2  UNL     1      -3.059   3.863  14.877  1.00  0.00    -0.062 A 
HETATM   19  C1  UNL     1      -3.138   2.510  15.523  1.00  0.00     0.048 C 
HETATM   20  C23 UNL     1      -4.088   4.764  14.961  1.00  0.00     0.007 A 
HETATM   21  C22 UNL     1      -3.950   5.999  14.341  1.00  0.00     0.013 A 
ENDBRANCH   1  15
BRANCH   5  22
HETATM   22  N2  UNL     1      -1.328  10.791  13.775  1.00  0.00    -0.371 N 
ATOM     23  H2  UNL     1      -1.743  10.977  14.688  1.00  0.00     0.161 HD
BRANCH  22  24
HETATM   24  C10 UNL     1      -0.171  11.558  13.471  1.00  0.00     0.075 C 
HETATM   25  C11 UNL     1      -0.416  13.043  13.469  1.00  0.00     0.031 C 
HETATM   26  C12 UNL     1       0.897  11.227  14.492  1.00  0.00     0.031 C 
ENDBRANCH  22  24
ENDBRANCH   5  22
BRANCH  10  27
HETATM   27  C16 UNL     1      -4.272   5.689  10.832  1.00  0.00     0.256 C 
HETATM   28  O1  UNL     1      -5.422   5.408  11.236  1.00  0.00    -0.267 OA
HETATM   29  N4  UNL     1      -3.411   4.637  10.447  1.00  0.00    -0.357 N 
HETATM   30  C17 UNL     1      -2.061   4.825   9.953  1.00  0.00     0.152 C 
HETATM   31  C18 UNL     1      -3.883   3.273  10.539  1.00  0.00     0.152 C 
ENDBRANCH  10  27
TORSDOF 4
ENDMDL
MODEL 3
REMARK VINA RESULT: -6.287996371      0.859      1.178
REMARK  4 active torsions:
REMARK  status: ('A' for Active; 'I' for Inactive)
REMARK    1  A    between atoms: C5_5  and  C6_6 
REMARK    2  A    between atoms: C9_10  and  N2_11 
REMARK    3  A    between atoms: N2_11  and  C10_13 
REMARK    4  A    between atoms: C15_20  and  C16_21 
REMARK       I    between atoms: C16_21  and  N4_23 
ROOT
HETATM    1  C6  UNL     1      -2.902   5.456  12.427  1.00  0.00     0.014 A 
HETATM    2  C7  UNL     1      -3.393   4.853  13.594  1.00  0.00     0.100 A 
HETATM    3  C8  UNL     1      -2.501   4.056  14.400  1.00  0.00     0.104 C 
HETATM    4  N1  UNL     1      -1.764   3.423  15.049  1.00  0.00    -0.191 NA
HETATM    5  C9  UNL     1      -4.709   4.990  14.005  1.00  0.00     0.125 A 
HETATM    6  N3  UNL     1      -5.489   5.737  13.221  1.00  0.00    -0.327 N 
ATOM      7  H3  UNL     1      -6.462   5.853  13.501  1.00  0.00     0.169 HD
HETATM    8  C13 UNL     1      -5.090   6.353  12.082  1.00  0.00     0.121 A 
HETATM    9  C14 UNL     1      -3.760   6.210  11.671  1.00  0.00     0.039 A 
HETATM   10  C15 UNL     1      -3.677   6.931  10.505  1.00  0.00     0.069 A 
HETATM   11  C19 UNL     1      -4.915   7.498  10.205  1.00  0.00     0.025 A 
HETATM   12  C20 UNL     1      -5.188   8.342   9.013  1.00  0.00     0.069 C 
HETATM   13  N5  UNL     1      -5.739   7.125  11.182  1.00  0.00    -0.340 N 
HETATM   14  C21 UNL     1      -7.144   7.479  11.298  1.00  0.00     0.158 C 
ENDROOT
BRANCH   1  15
HETATM   15  C5  UNL     1      -1.524   5.235  12.081  1.00  0.00    -0.023 A 
HETATM   16  C4  UNL     1      -0.567   6.118  12.490  1.00  0.00     0.013 A 
HETATM   17  C3  UNL     1       0.739   5.935  12.121  1.00  0.00     0.007 A 
HETATM   18  C2  UNL     1       1.115   4.865  11.336  1.00  0.00    -0.062 A 
HETATM   19  C1  UNL     1       2.560   4.713  10.962  1.00  0.00     0.048 C 
HETATM   20  C23 UNL     1       0.163   3.971  10.919  1.00  0.00     0.007 A 
HETATM   21  C22 UNL     1      -1.157   4.171  11.302  1.00  0.00     0.013 A 
ENDBRANCH   1  15
BRANCH   5  22
HETATM   22  N2  UNL     1      -5.048   4.397  15.081  1.00  0.00    -0.371 N 
ATOM     23  H2  UNL     1      -4.574   4.722  15.924  1.00  0.00     0.161 HD
BRANCH  22  24
HETATM   24  C10 UNL     1      -5.988   3.350  15.284  1.00  0.00     0.075 C 
HETATM   25  C11 UNL     1      -5.357   1.986  15.379  1.00  0.00     0.031 C 
HETATM   26  C12 UNL     1      -6.750   3.640  16.559  1.00  0.00     0.031 C 
ENDBRANCH  22  24
ENDBRANCH   5  22
BRANCH  10  27
HETATM   27  C16 UNL     1      -2.514   7.143   9.660  1.00  0.00     0.256 C 
HETATM   28  O1  UNL     1      -2.286   6.328   8.739  1.00  0.00    -0.267 OA
HETATM   29  N4  UNL     1      -1.635   8.237   9.832  1.00  0.00    -0.357 N 
HETATM   30  C17 UNL     1      -1.789   9.256  10.850  1.00  0.00     0.152 C 
HETATM   31  C18 UNL     1      -0.500   8.372   8.946  1.00  0.00     0.152 C 
ENDBRANCH  10  27
TORSDOF 4
ENDMDL
MODEL 4
REMARK VINA RESULT: -6.243905619      2.529      4.448
REMARK  4 active torsions:
REMARK  status: ('A' for Active; 'I' for Inactive)
REMARK    1  A    between atoms: C5_5  and  C6_6 
REMARK    2  A    between atoms: C9_10  and  N2_11 
REMARK    3  A    between atoms: N2_11  and  C10_13 
REMARK    4  A    between atoms: C15_20  and  C16_21 
REMARK       I    between atoms: C16_21  and  N4_23 
ROOT
HETATM    1  C6  UNL     1      -3.558   6.268  11.725  1.00  0.00     0.014 A 
HETATM    2  C7  UNL     1      -3.683   5.030  12.371  1.00  0.00     0.100 A 
HETATM    3  C8  UNL     1      -4.330   3.940  11.683  1.00  0.00     0.104 C 
HETATM    4  N1  UNL     1      -4.846   3.064  11.108  1.00  0.00    -0.191 NA
HETATM    5  C9  UNL     1      -3.209   4.810  13.655  1.00  0.00     0.125 A 
HETATM    6  N3  UNL     1      -2.620   5.853  14.244  1.00  0.00    -0.327 N 
ATOM      7  H3  UNL     1      -2.263   5.717  15.189  1.00  0.00     0.169 HD
HETATM    8  C13 UNL     1      -2.460   7.077  13.686  1.00  0.00     0.121 A 
HETATM    9  C14 UNL     1      -2.941   7.293  12.391  1.00  0.00     0.039 A 
HETATM   10  C15 UNL     1      -2.639   8.605  12.122  1.00  0.00     0.069 A 
HETATM   11  C19 UNL     1      -1.994   9.180  13.216  1.00  0.00     0.025 A 
HETATM   12  C20 UNL     1      -1.524  10.590  13.272  1.00  0.00     0.069 C 
HETATM   13  N5  UNL     1      -1.905   8.224  14.138  1.00  0.00    -0.340 N 
HETATM   14  C21 UNL     1      -1.304   8.357  15.455  1.00  0.00     0.158 C 
ENDROOT
BRANCH   1  15
HETATM   15  C5  UNL     1      -4.101   6.394  10.399  1.00  0.00    -0.023 A 
HETATM   16  C4  UNL     1      -3.320   6.129   9.313  1.00  0.00     0.013 A 
HETATM   17  C3  UNL     1      -3.820   6.295   8.049  1.00  0.00     0.007 A 
HETATM   18  C2  UNL     1      -5.113   6.730   7.846  1.00  0.00    -0.062 A 
HETATM   19  C1  UNL     1      -5.610   6.895   6.440  1.00  0.00     0.048 C 
HETATM   20  C23 UNL     1      -5.909   7.000   8.930  1.00  0.00     0.007 A 
HETATM   21  C22 UNL     1      -5.386   6.826  10.204  1.00  0.00     0.013 A 
ENDBRANCH   1  15
BRANCH   5  22
HETATM   22  N2  UNL     1      -3.377   3.646  14.146  1.00  0.00    -0.371 N 
ATOM     23  H2  UNL     1      -2.955   2.885  13.614  1.00  0.00     0.161 HD
BRANCH  22  24
HETATM   24  C10 UNL     1      -4.065   3.249  15.325  1.00  0.00     0.075 C 
HETATM   25  C11 UNL     1      -5.563   3.299  15.193  1.00  0.00     0.031 C 
HETATM   26  C12 UNL     1      -3.638   1.837  15.668  1.00  0.00     0.031 C 
ENDBRANCH  22  24
ENDBRANCH   5  22
BRANCH  10  27
HETATM   27  C16 UNL     1      -2.894   9.356  10.903  1.00  0.00     0.256 C 
HETATM   28  O1  UNL     1      -3.969   9.986  10.803  1.00  0.00    -0.267 OA
HETATM   29  N4  UNL     1      -1.973   9.408   9.833  1.00  0.00    -0.357 N 
HETATM   30  C17 UNL     1      -0.690   8.733   9.824  1.00  0.00     0.152 C 
HETATM   31  C18 UNL     1      -2.306  10.178   8.655  1.00  0.00     0.152 C 
ENDBRANCH  10  27
TORSDOF 4
ENDMDL
MODEL 5
REMARK VINA RESULT: -6.178659876      3.213      5.598
REMARK  4 active torsions:
REMARK  status: ('A' for Active; 'I' for Inactive)
REMARK    1  A    between atoms: C5_5  and  C6_6 
REMARK    2  A    between atoms: C9_10  and  N2_11 
REMARK    3  A    between atoms: N2_11  and  C10_13 
REMARK    4  A    between atoms: C15_20  and  C16_21 
REMARK       I    between atoms: C16_21  and  N4_23 
ROOT
HETATM    1  C6  UNL     1      -1.564   7.123  12.597  1.00  0.00     0.014 A 
HETATM    2  C7  UNL     1      -1.124   8.272  13.269  1.00  0.00     0.100 A 
HETATM    3  C8  UNL     1      -1.149   8.296  14.711  1.00  0.00     0.104 C 
HETATM    4  N1  UNL     1      -1.165   8.296  15.879  1.00  0.00    -0.191 NA
HETATM    5  C9  UNL     1      -0.663   9.394  12.599  1.00  0.00     0.125 A 
HETATM    6  N3  UNL     1      -0.662   9.316  11.267  1.00  0.00    -0.327 N 
ATOM      7  H3  UNL     1      -0.328  10.130  10.750  1.00  0.00     0.169 HD
HETATM    8  C13 UNL     1      -1.069   8.244  10.546  1.00  0.00     0.121 A 
HETATM    9  C14 UNL     1      -1.534   7.114  11.228  1.00  0.00     0.039 A 
HETATM   10  C15 UNL     1      -1.871   6.224  10.238  1.00  0.00     0.069 A 
HETATM   11  C19 UNL     1      -1.624   6.787   8.987  1.00  0.00     0.025 A 
HETATM   12  C20 UNL     1      -1.875   6.103   7.691  1.00  0.00     0.069 C 
HETATM   13  N5  UNL     1      -1.140   8.006   9.218  1.00  0.00    -0.340 N 
HETATM   14  C21 UNL     1      -0.735   8.971   8.209  1.00  0.00     0.158 C 
ENDROOT
BRANCH   1  15
HETATM   15  C5  UNL     1      -2.040   6.020  13.388  1.00  0.00    -0.023 A 
HETATM   16  C4  UNL     1      -1.204   4.984  13.689  1.00  0.00     0.013 A 
HETATM   17  C3  UNL     1      -1.668   3.911  14.401  1.00  0.00     0.007 A 
HETATM   18  C2  UNL     1      -2.978   3.851  14.828  1.00  0.00    -0.062 A 
HETATM   19  C1  UNL     1      -3.433   2.650  15.604  1.00  0.00     0.048 C 
HETATM   20  C23 UNL     1      -3.828   4.885  14.532  1.00  0.00     0.007 A 
HETATM   21  C22 UNL     1      -3.342   5.966  13.809  1.00  0.00     0.013 A 
ENDBRANCH   1  15
BRANCH   5  22
HETATM   22  N2  UNL     1      -0.288  10.384  13.310  1.00  0.00    -0.371 N 
ATOM     23  H2  UNL     1       0.531  10.213  13.894  1.00  0.00     0.161 HD
BRANCH  22  24
HETATM   24  C10 UNL     1      -0.839  11.690  13.410  1.00  0.00     0.075 C 
HETATM   25  C11 UNL     1      -2.336  11.700  13.562  1.00  0.00     0.031 C 
HETATM   26  C12 UNL     1      -0.210  12.378  14.603  1.00  0.00     0.031 C 
ENDBRANCH  22  24
ENDBRANCH   5  22
BRANCH  10  27
HETATM   27  C16 UNL     1      -2.390   4.874  10.380  1.00  0.00     0.256 C 
HETATM   28  O1  UNL     1      -1.582   3.920  10.389  1.00  0.00    -0.267 OA
HETATM   29  N4  UNL     1      -3.769   4.598  10.516  1.00  0.00    -0.357 N 
HETATM   30  C17 UNL     1      -4.808   5.609  10.531  1.00  0.00     0.152 C 
HETATM   31  C18 UNL     1      -4.201   3.224  10.652  1.00  0.00     0.152 C 
ENDBRANCH  10  27
TORSDOF 4
ENDMDL
