MODEL 1
REMARK VINA RESULT: -6.136744317      0.000      0.000
REMARK  3 active torsions:
REMARK  status: ('A' for Active; 'I' for Inactive)
REMARK    1  A    between atoms: N1_2  and  C2_4 
REMARK    2  A    between atoms: C3_7  and  C5_9 
REMARK       I    between atoms: C5_9  and  N3_11 
REMARK    3  A    between atoms: N3_11  and  N4_13 
ROOT
HETATM    1  C2  UNL     1      21.316  -0.818  15.945  1.00  0.00     0.188 C 
HETATM    2  N2  UNL     1      20.484   0.166  15.965  1.00  0.00    -0.329 N 
ATOM      3  H2  UNL     1      19.587   0.180  15.481  1.00  0.00     0.165 HD
HETATM    4  C3  UNL     1      21.007   1.246  16.771  1.00  0.00     0.203 C 
HETATM    5  C4  UNL     1      20.885   2.577  16.051  1.00  0.00     0.071 C 
HETATM    6  N5  UNL     1      22.382   0.900  17.009  1.00  0.00    -0.096 NA
HETATM    7  N6  UNL     1      22.453  -0.478  16.729  1.00  0.00    -0.272 N 
ATOM      8  H6  UNL     1      23.187  -1.118  17.034  1.00  0.00     0.185 HD
ENDROOT
BRANCH   4   9
HETATM    9  C5  UNL     1      20.217   1.339  18.012  1.00  0.00     0.282 C 
HETATM   10  O1  UNL     1      19.038   1.790  18.048  1.00  0.00    -0.267 OA
HETATM   11  N3  UNL     1      20.782   0.911  19.233  1.00  0.00    -0.273 N 
ATOM     12  H3  UNL     1      21.734   0.544  19.222  1.00  0.00     0.189 HD
BRANCH  11  13
HETATM   13  N4  UNL     1      20.110   0.963  20.454  1.00  0.00    -0.343 N 
ATOM     14  H42 UNL     1      20.647   1.260  21.269  1.00  0.00     0.176 HD
ATOM     15  H41 UNL     1      19.125   0.722  20.567  1.00  0.00     0.176 HD
ENDBRANCH  11  13
ENDBRANCH   4   9
BRANCH   1  16
HETATM   16  N1  UNL     1      21.145  -2.067  15.248  1.00  0.00    -0.366 N 
HETATM   17  C1  UNL     1      21.925  -2.299  14.048  1.00  0.00     0.149 C 
ATOM     18  H1  UNL     1      20.491  -2.771  15.591  1.00  0.00     0.162 HD
ENDBRANCH   1  16
TORSDOF 3
ENDMDL
MODEL 2
REMARK VINA RESULT: -5.968138292      1.858      4.330
REMARK  3 active torsions:
REMARK  status: ('A' for Active; 'I' for Inactive)
REMARK    1  A    between atoms: N1_2  and  C2_4 
REMARK    2  A    between atoms: C3_7  and  C5_9 
REMARK       I    between atoms: C5_9  and  N3_11 
REMARK    3  A    between atoms: N3_11  and  N4_13 
ROOT
HETATM    1  C2  UNL     1      20.586   1.819  18.195  1.00  0.00     0.188 C 
HETATM    2  N2  UNL     1      21.438   0.883  17.959  1.00  0.00    -0.329 N 
ATOM      3  H2  UNL     1      21.793   0.228  18.655  1.00  0.00     0.165 HD
HETATM    4  C3  UNL     1      21.820   0.894  16.564  1.00  0.00     0.203 C 
HETATM    5  C4  UNL     1      23.328   0.815  16.407  1.00  0.00     0.071 C 
HETATM    6  N5  UNL     1      21.300   2.131  16.048  1.00  0.00    -0.096 NA
HETATM    7  N6  UNL     1      20.330   2.528  16.989  1.00  0.00    -0.272 N 
ATOM      8  H6  UNL     1      19.580   3.201  16.833  1.00  0.00     0.185 HD
ENDROOT
BRANCH   4   9
HETATM    9  C5  UNL     1      21.242  -0.290  15.903  1.00  0.00     0.282 C 
HETATM   10  O1  UNL     1      20.009  -0.412  15.657  1.00  0.00    -0.267 OA
HETATM   11  N3  UNL     1      22.086  -1.354  15.515  1.00  0.00    -0.273 N 
ATOM     12  H3  UNL     1      23.085  -1.272  15.706  1.00  0.00     0.189 HD
BRANCH  11  13
HETATM   13  N4  UNL     1      21.628  -2.511  14.885  1.00  0.00    -0.343 N 
ATOM     14  H42 UNL     1      21.100  -2.392  14.020  1.00  0.00     0.176 HD
ATOM     15  H41 UNL     1      21.793  -3.452  15.244  1.00  0.00     0.176 HD
ENDBRANCH  11  13
ENDBRANCH   4   9
BRANCH   1  16
HETATM   16  N1  UNL     1      19.978   2.120  19.466  1.00  0.00    -0.366 N 
HETATM   17  C1  UNL     1      20.133   1.166  20.546  1.00  0.00     0.149 C 
ATOM     18  H1  UNL     1      19.452   2.983  19.602  1.00  0.00     0.162 HD
ENDBRANCH   1  16
TORSDOF 3
ENDMDL
MODEL 3
REMARK VINA RESULT: -5.954555944      1.168      1.168
REMARK  3 active torsions:
REMARK  status: ('A' for Active; 'I' for Inactive)
REMARK    1  A    between atoms: N1_2  and  C2_4 
REMARK    2  A    between atoms: C3_7  and  C5_9 
REMARK       I    between atoms: C5_9  and  N3_11 
REMARK    3  A    between atoms: N3_11  and  N4_13 
ROOT
HETATM    1  C2  UNL     1      21.428  -0.846  15.949  1.00  0.00     0.188 C 
HETATM    2  N2  UNL     1      20.610   0.146  16.008  1.00  0.00    -0.329 N 
ATOM      3  H2  UNL     1      19.666   0.147  15.622  1.00  0.00     0.165 HD
HETATM    4  C3  UNL     1      21.221   1.260  16.698  1.00  0.00     0.203 C 
HETATM    5  C4  UNL     1      21.031   2.554  15.928  1.00  0.00     0.071 C 
HETATM    6  N5  UNL     1      22.612   0.910  16.805  1.00  0.00    -0.096 NA
HETATM    7  N6  UNL     1      22.645  -0.481  16.590  1.00  0.00    -0.272 N 
ATOM      8  H6  UNL     1      23.404  -1.113  16.847  1.00  0.00     0.185 HD
ENDROOT
BRANCH   4   9
HETATM    9  C5  UNL     1      20.569   1.423  18.010  1.00  0.00     0.282 C 
HETATM   10  O1  UNL     1      21.002   0.887  19.069  1.00  0.00    -0.267 OA
HETATM   11  N3  UNL     1      19.403   2.212  18.116  1.00  0.00    -0.273 N 
ATOM     12  H3  UNL     1      19.040   2.653  17.271  1.00  0.00     0.189 HD
BRANCH  11  13
HETATM   13  N4  UNL     1      18.720   2.421  19.314  1.00  0.00    -0.343 N 
ATOM     14  H42 UNL     1      17.741   2.139  19.347  1.00  0.00     0.176 HD
ATOM     15  H41 UNL     1      19.148   2.835  20.143  1.00  0.00     0.176 HD
ENDBRANCH  11  13
ENDBRANCH   4   9
BRANCH   1  16
HETATM   16  N1  UNL     1      21.177  -2.126  15.339  1.00  0.00    -0.366 N 
HETATM   17  C1  UNL     1      21.796  -2.413  14.060  1.00  0.00     0.149 C 
ATOM     18  H1  UNL     1      20.578  -2.814  15.796  1.00  0.00     0.162 HD
ENDBRANCH   1  16
TORSDOF 3
ENDMDL
MODEL 4
REMARK VINA RESULT: -5.844483239      4.689      6.444
REMARK  3 active torsions:
REMARK  status: ('A' for Active; 'I' for Inactive)
REMARK    1  A    between atoms: N1_2  and  C2_4 
REMARK    2  A    between atoms: C3_7  and  C5_9 
REMARK       I    between atoms: C5_9  and  N3_11 
REMARK    3  A    between atoms: N3_11  and  N4_13 
ROOT
HETATM    1  C2  UNL     1      23.750  -0.181  15.465  1.00  0.00     0.188 C 
HETATM    2  N2  UNL     1      24.441  -1.057  14.821  1.00  0.00    -0.329 N 
ATOM      3  H2  UNL     1      24.178  -2.035  14.704  1.00  0.00     0.165 HD
HETATM    4  C3  UNL     1      25.643  -0.454  14.290  1.00  0.00     0.203 C 
HETATM    5  C4  UNL     1      26.863  -1.306  14.591  1.00  0.00     0.071 C 
HETATM    6  N5  UNL     1      25.727   0.831  14.930  1.00  0.00    -0.096 NA
HETATM    7  N6  UNL     1      24.428   1.069  15.418  1.00  0.00    -0.272 N 
ATOM      8  H6  UNL     1      24.043   1.974  15.689  1.00  0.00     0.185 HD
ENDROOT
BRANCH   4   9
HETATM    9  C5  UNL     1      25.519  -0.357  12.825  1.00  0.00     0.282 C 
HETATM   10  O1  UNL     1      24.862  -1.182  12.130  1.00  0.00    -0.267 OA
HETATM   11  N3  UNL     1      26.158   0.699  12.139  1.00  0.00    -0.273 N 
ATOM     12  H3  UNL     1      26.693   1.375  12.684  1.00  0.00     0.189 HD
BRANCH  11  13
HETATM   13  N4  UNL     1      26.096   0.869  10.756  1.00  0.00    -0.343 N 
ATOM     14  H42 UNL     1      26.980   0.873  10.248  1.00  0.00     0.176 HD
ATOM     15  H41 UNL     1      25.224   0.987  10.240  1.00  0.00     0.176 HD
ENDBRANCH  11  13
ENDBRANCH   4   9
BRANCH   1  16
HETATM   16  N1  UNL     1      22.494  -0.406  16.133  1.00  0.00    -0.366 N 
HETATM   17  C1  UNL     1      21.770   0.742  16.643  1.00  0.00     0.149 C 
ATOM     18  H1  UNL     1      22.124  -1.350  16.245  1.00  0.00     0.162 HD
ENDBRANCH   1  16
TORSDOF 3
ENDMDL
MODEL 5
REMARK VINA RESULT: -5.781571526      5.873      7.217
REMARK  3 active torsions:
REMARK  status: ('A' for Active; 'I' for Inactive)
REMARK    1  A    between atoms: N1_2  and  C2_4 
REMARK    2  A    between atoms: C3_7  and  C5_9 
REMARK       I    between atoms: C5_9  and  N3_11 
REMARK    3  A    between atoms: N3_11  and  N4_13 
ROOT
HETATM    1  C2  UNL     1      26.170   1.156  13.018  1.00  0.00     0.188 C 
HETATM    2  N2  UNL     1      26.218  -0.037  12.535  1.00  0.00    -0.329 N 
ATOM      3  H2  UNL     1      26.797  -0.325  11.746  1.00  0.00     0.165 HD
HETATM    4  C3  UNL     1      25.332  -0.911  13.271  1.00  0.00     0.203 C 
HETATM    5  C4  UNL     1      24.469  -1.735  12.333  1.00  0.00     0.071 C 
HETATM    6  N5  UNL     1      24.535  -0.031  14.083  1.00  0.00    -0.096 NA
HETATM    7  N6  UNL     1      25.255   1.178  14.107  1.00  0.00    -0.272 N 
ATOM      8  H6  UNL     1      25.142   1.934  14.783  1.00  0.00     0.185 HD
ENDROOT
BRANCH   4   9
HETATM    9  C5  UNL     1      26.142  -1.849  14.069  1.00  0.00     0.282 C 
HETATM   10  O1  UNL     1      27.137  -1.489  14.758  1.00  0.00    -0.267 OA
HETATM   11  N3  UNL     1      25.812  -3.221  14.079  1.00  0.00    -0.273 N 
ATOM     12  H3  UNL     1      25.011  -3.530  13.528  1.00  0.00     0.189 HD
BRANCH  11  13
HETATM   13  N4  UNL     1      26.522  -4.180  14.803  1.00  0.00    -0.343 N 
ATOM     14  H42 UNL     1      25.979  -4.830  15.371  1.00  0.00     0.176 HD
ATOM     15  H41 UNL     1      27.539  -4.258  14.789  1.00  0.00     0.176 HD
ENDBRANCH  11  13
ENDBRANCH   4   9
BRANCH   1  16
HETATM   16  N1  UNL     1      26.911   2.298  12.547  1.00  0.00    -0.366 N 
HETATM   17  C1  UNL     1      26.284   3.603  12.620  1.00  0.00     0.149 C 
ATOM     18  H1  UNL     1      27.853   2.191  12.172  1.00  0.00     0.162 HD
ENDBRANCH   1  16
TORSDOF 3
ENDMDL
