MODEL 1
REMARK VINA RESULT: -6.137668290      0.000      0.000
REMARK  4 active torsions:
REMARK  status: ('A' for Active; 'I' for Inactive)
REMARK    1  A    between atoms: N1_1  and  C1_4 
REMARK    2  A    between atoms: C2_5  and  C3_6 
REMARK       I    between atoms: C3_6  and  N2_8 
REMARK    3  A    between atoms: N2_8  and  N3_10 
REMARK    4  A    between atoms: N6_19  and  N7_20 
ROOT
HETATM    1  C1  UNL     1      25.293  -0.632  12.238  1.00  0.00     0.159 A 
HETATM    2  C2  UNL     1      24.890  -1.090  13.473  1.00  0.00     0.163 A 
HETATM    3  N4  UNL     1      25.197  -0.311  14.533  1.00  0.00    -0.288 N 
ATOM      4  H4  UNL     1      24.924  -0.604  15.471  1.00  0.00     0.187 HD
HETATM    5  N5  UNL     1      25.847   0.826  14.364  1.00  0.00    -0.249 N 
ATOM      6  H5  UNL     1      26.061   1.391  15.186  1.00  0.00     0.192 HD
HETATM    7  C4  UNL     1      26.242   1.277  13.151  1.00  0.00     0.361 A 
HETATM    8  O2  UNL     1      26.860   2.373  13.072  1.00  0.00    -0.243 OA
HETATM    9  N6  UNL     1      25.956   0.526  12.072  1.00  0.00    -0.192 N 
ENDROOT
BRANCH   2  10
HETATM   10  C3  UNL     1      24.174  -2.348  13.638  1.00  0.00     0.291 C 
HETATM   11  O1  UNL     1      24.786  -3.413  13.368  1.00  0.00    -0.264 OA
HETATM   12  N2  UNL     1      22.833  -2.332  14.090  1.00  0.00    -0.271 N 
ATOM     13  H2  UNL     1      22.393  -1.435  14.292  1.00  0.00     0.189 HD
BRANCH  12  14
HETATM   14  N3  UNL     1      22.089  -3.503  14.269  1.00  0.00    -0.342 N 
ATOM     15  H32 UNL     1      22.599  -4.366  14.460  1.00  0.00     0.176 HD
ATOM     16  H31 UNL     1      21.071  -3.517  14.216  1.00  0.00     0.176 HD
ENDBRANCH  12  14
ENDBRANCH   2  10
BRANCH   1  17
HETATM   17  N1  UNL     1      24.999  -1.381  11.221  1.00  0.00    -0.382 N 
ATOM     18  H12 UNL     1      24.264  -1.109  10.567  1.00  0.00     0.157 HD
ATOM     19  H11 UNL     1      25.540  -2.240  11.118  1.00  0.00     0.157 HD
ENDBRANCH   1  17
BRANCH   9  20
HETATM   20  N7  UNL     1      26.339   0.943  10.799  1.00  0.00    -0.333 N 
ATOM     21  H72 UNL     1      26.389   0.276  10.029  1.00  0.00     0.177 HD
ATOM     22  H71 UNL     1      26.575   1.921  10.624  1.00  0.00     0.177 HD
ENDBRANCH   9  20
TORSDOF 4
ENDMDL
MODEL 2
REMARK VINA RESULT: -5.969398208      1.894      1.927
REMARK  4 active torsions:
REMARK  status: ('A' for Active; 'I' for Inactive)
REMARK    1  A    between atoms: N1_1  and  C1_4 
REMARK    2  A    between atoms: C2_5  and  C3_6 
REMARK       I    between atoms: C3_6  and  N2_8 
REMARK    3  A    between atoms: N2_8  and  N3_10 
REMARK    4  A    between atoms: N6_19  and  N7_20 
ROOT
HETATM    1  C1  UNL     1      25.945   0.067  12.743  1.00  0.00     0.159 A 
HETATM    2  C2  UNL     1      25.487  -0.638  13.834  1.00  0.00     0.163 A 
HETATM    3  N4  UNL     1      25.085   0.091  14.897  1.00  0.00    -0.288 N 
ATOM      4  H4  UNL     1      24.739  -0.380  15.733  1.00  0.00     0.187 HD
HETATM    5  N5  UNL     1      25.138   1.411  14.864  1.00  0.00    -0.249 N 
ATOM      6  H5  UNL     1      24.826   1.931  15.684  1.00  0.00     0.192 HD
HETATM    7  C4  UNL     1      25.587   2.105  13.793  1.00  0.00     0.361 A 
HETATM    8  O2  UNL     1      25.607   3.364  13.839  1.00  0.00    -0.243 OA
HETATM    9  N6  UNL     1      25.997   1.411  12.716  1.00  0.00    -0.192 N 
ENDROOT
BRANCH   2  10
HETATM   10  C3  UNL     1      25.437  -2.094  13.851  1.00  0.00     0.291 C 
HETATM   11  O1  UNL     1      24.541  -2.659  13.173  1.00  0.00    -0.264 OA
HETATM   12  N2  UNL     1      26.383  -2.816  14.616  1.00  0.00    -0.271 N 
ATOM     13  H2  UNL     1      27.085  -2.298  15.145  1.00  0.00     0.189 HD
BRANCH  12  14
HETATM   14  N3  UNL     1      26.390  -4.214  14.675  1.00  0.00    -0.342 N 
ATOM     15  H32 UNL     1      25.493  -4.696  14.621  1.00  0.00     0.176 HD
ATOM     16  H31 UNL     1      27.251  -4.752  14.768  1.00  0.00     0.176 HD
ENDBRANCH  12  14
ENDBRANCH   2  10
BRANCH   1  17
HETATM   17  N1  UNL     1      26.331  -0.633  11.723  1.00  0.00    -0.382 N 
ATOM     18  H12 UNL     1      27.132  -1.261  11.794  1.00  0.00     0.157 HD
ATOM     19  H11 UNL     1      25.793  -0.519  10.863  1.00  0.00     0.157 HD
ENDBRANCH   1  17
BRANCH   9  20
HETATM   20  N7  UNL     1      26.469   2.075  11.585  1.00  0.00    -0.333 N 
ATOM     21  H72 UNL     1      25.949   2.860  11.192  1.00  0.00     0.177 HD
ATOM     22  H71 UNL     1      27.337   1.782  11.138  1.00  0.00     0.177 HD
ENDBRANCH   9  20
TORSDOF 4
ENDMDL
MODEL 3
REMARK VINA RESULT: -5.801352418      1.457      5.130
REMARK  4 active torsions:
REMARK  status: ('A' for Active; 'I' for Inactive)
REMARK    1  A    between atoms: N1_1  and  C1_4 
REMARK    2  A    between atoms: C2_5  and  C3_6 
REMARK       I    between atoms: C3_6  and  N2_8 
REMARK    3  A    between atoms: N2_8  and  N3_10 
REMARK    4  A    between atoms: N6_19  and  N7_20 
ROOT
HETATM    1  C1  UNL     1      25.336   0.633  13.728  1.00  0.00     0.159 A 
HETATM    2  C2  UNL     1      25.987   0.903  12.545  1.00  0.00     0.163 A 
HETATM    3  N4  UNL     1      26.042  -0.102  11.645  1.00  0.00    -0.288 N 
ATOM      4  H4  UNL     1      26.513   0.043  10.752  1.00  0.00     0.187 HD
HETATM    5  N5  UNL     1      25.489  -1.272  11.912  1.00  0.00    -0.249 N 
ATOM      6  H5  UNL     1      25.548  -2.009  11.208  1.00  0.00     0.192 HD
HETATM    7  C4  UNL     1      24.850  -1.539  13.073  1.00  0.00     0.361 A 
HETATM    8  O2  UNL     1      24.349  -2.681  13.253  1.00  0.00    -0.243 OA
HETATM    9  N6  UNL     1      24.777  -0.561  13.995  1.00  0.00    -0.192 N 
ENDROOT
BRANCH   2  10
HETATM   10  C3  UNL     1      26.589   2.201  12.270  1.00  0.00     0.291 C 
HETATM   11  O1  UNL     1      27.036   2.859  13.244  1.00  0.00    -0.264 OA
HETATM   12  N2  UNL     1      26.651   2.673  10.938  1.00  0.00    -0.271 N 
ATOM     13  H2  UNL     1      26.270   2.091  10.192  1.00  0.00     0.189 HD
BRANCH  12  14
HETATM   14  N3  UNL     1      27.216   3.909  10.606  1.00  0.00    -0.342 N 
ATOM     15  H32 UNL     1      26.734   4.752  10.920  1.00  0.00     0.176 HD
ATOM     16  H31 UNL     1      28.080   3.989  10.070  1.00  0.00     0.176 HD
ENDBRANCH  12  14
ENDBRANCH   2  10
BRANCH   1  17
HETATM   17  N1  UNL     1      25.285   1.597  14.593  1.00  0.00    -0.382 N 
ATOM     18  H12 UNL     1      26.024   2.300  14.636  1.00  0.00     0.157 HD
ATOM     19  H11 UNL     1      24.475   1.609  15.214  1.00  0.00     0.157 HD
ENDBRANCH   1  17
BRANCH   9  20
HETATM   20  N7  UNL     1      24.130  -0.782  15.209  1.00  0.00    -0.333 N 
ATOM     21  H72 UNL     1      24.533  -1.409  15.904  1.00  0.00     0.177 HD
ATOM     22  H71 UNL     1      23.244  -0.318  15.414  1.00  0.00     0.177 HD
ENDBRANCH   9  20
TORSDOF 4
ENDMDL
MODEL 4
REMARK VINA RESULT: -5.784550697     12.799     13.802
REMARK  4 active torsions:
REMARK  status: ('A' for Active; 'I' for Inactive)
REMARK    1  A    between atoms: N1_1  and  C1_4 
REMARK    2  A    between atoms: C2_5  and  C3_6 
REMARK       I    between atoms: C3_6  and  N2_8 
REMARK    3  A    between atoms: N2_8  and  N3_10 
REMARK    4  A    between atoms: N6_19  and  N7_20 
ROOT
HETATM    1  C1  UNL     1      15.478   8.631  15.288  1.00  0.00     0.159 A 
HETATM    2  C2  UNL     1      16.539   8.492  14.421  1.00  0.00     0.163 A 
HETATM    3  N4  UNL     1      16.237   8.165  13.147  1.00  0.00    -0.288 N 
ATOM      4  H4  UNL     1      16.985   8.047  12.463  1.00  0.00     0.187 HD
HETATM    5  N5  UNL     1      14.979   7.995  12.778  1.00  0.00    -0.249 N 
ATOM      6  H5  UNL     1      14.786   7.750  11.807  1.00  0.00     0.192 HD
HETATM    7  C4  UNL     1      13.936   8.132  13.628  1.00  0.00     0.361 A 
HETATM    8  O2  UNL     1      12.764   7.953  13.200  1.00  0.00    -0.243 OA
HETATM    9  N6  UNL     1      14.200   8.456  14.907  1.00  0.00    -0.192 N 
ENDROOT
BRANCH   2  10
HETATM   10  C3  UNL     1      17.919   8.684  14.848  1.00  0.00     0.291 C 
HETATM   11  O1  UNL     1      18.325   8.024  15.839  1.00  0.00    -0.264 OA
HETATM   12  N2  UNL     1      18.746   9.592  14.146  1.00  0.00    -0.271 N 
ATOM     13  H2  UNL     1      18.357  10.096  13.350  1.00  0.00     0.189 HD
BRANCH  12  14
HETATM   14  N3  UNL     1      20.079   9.822  14.504  1.00  0.00    -0.342 N 
ATOM     15  H32 UNL     1      20.262  10.490  15.253  1.00  0.00     0.176 HD
ATOM     16  H31 UNL     1      20.857   9.348  14.046  1.00  0.00     0.176 HD
ENDBRANCH  12  14
ENDBRANCH   2  10
BRANCH   1  17
HETATM   17  N1  UNL     1      15.768   8.944  16.512  1.00  0.00    -0.382 N 
ATOM     18  H12 UNL     1      15.706   9.911  16.832  1.00  0.00     0.157 HD
ATOM     19  H11 UNL     1      16.057   8.178  17.121  1.00  0.00     0.157 HD
ENDBRANCH   1  17
BRANCH   9  20
HETATM   20  N7  UNL     1      13.163   8.610  15.825  1.00  0.00    -0.333 N 
ATOM     21  H72 UNL     1      13.140   9.416  16.450  1.00  0.00     0.177 HD
ATOM     22  H71 UNL     1      12.416   7.917  15.883  1.00  0.00     0.177 HD
ENDBRANCH   9  20
TORSDOF 4
ENDMDL
MODEL 5
REMARK VINA RESULT: -5.630383907     14.016     14.536
REMARK  4 active torsions:
REMARK  status: ('A' for Active; 'I' for Inactive)
REMARK    1  A    between atoms: N1_1  and  C1_4 
REMARK    2  A    between atoms: C2_5  and  C3_6 
REMARK       I    between atoms: C3_6  and  N2_8 
REMARK    3  A    between atoms: N2_8  and  N3_10 
REMARK    4  A    between atoms: N6_19  and  N7_20 
ROOT
HETATM    1  C1  UNL     1      14.155   8.671  14.493  1.00  0.00     0.159 A 
HETATM    2  C2  UNL     1      14.226   8.445  13.136  1.00  0.00     0.163 A 
HETATM    3  N4  UNL     1      15.447   8.155  12.637  1.00  0.00    -0.288 N 
ATOM      4  H4  UNL     1      15.557   7.980  11.638  1.00  0.00     0.187 HD
HETATM    5  N5  UNL     1      16.500   8.097  13.433  1.00  0.00    -0.249 N 
ATOM      6  H5  UNL     1      17.407   7.874  13.023  1.00  0.00     0.192 HD
HETATM    7  C4  UNL     1      16.432   8.319  14.765  1.00  0.00     0.361 A 
HETATM    8  O2  UNL     1      17.483   8.246  15.457  1.00  0.00    -0.243 OA
HETATM    9  N6  UNL     1      15.232   8.612  15.297  1.00  0.00    -0.192 N 
ENDROOT
BRANCH   2  10
HETATM   10  C3  UNL     1      13.052   8.513  12.276  1.00  0.00     0.291 C 
HETATM   11  O1  UNL     1      12.057   7.809  12.583  1.00  0.00    -0.264 OA
HETATM   12  N2  UNL     1      13.068   9.357  11.140  1.00  0.00    -0.271 N 
ATOM     13  H2  UNL     1      13.907   9.903  10.946  1.00  0.00     0.189 HD
BRANCH  12  14
HETATM   14  N3  UNL     1      11.975   9.469  10.275  1.00  0.00    -0.342 N 
ATOM     15  H32 UNL     1      11.054   9.617  10.688  1.00  0.00     0.176 HD
ATOM     16  H31 UNL     1      12.072   9.408   9.261  1.00  0.00     0.176 HD
ENDBRANCH  12  14
ENDBRANCH   2  10
BRANCH   1  17
HETATM   17  N1  UNL     1      12.983   8.951  14.972  1.00  0.00    -0.382 N 
ATOM     18  H12 UNL     1      12.594   9.889  14.884  1.00  0.00     0.157 HD
ATOM     19  H11 UNL     1      12.486   8.187  15.431  1.00  0.00     0.157 HD
ENDBRANCH   1  17
BRANCH   9  20
HETATM   20  N7  UNL     1      15.104   8.850  16.665  1.00  0.00    -0.333 N 
ATOM     21  H72 UNL     1      15.756   8.429  17.326  1.00  0.00     0.177 HD
ATOM     22  H71 UNL     1      14.354   9.445  17.018  1.00  0.00     0.177 HD
ENDBRANCH   9  20
TORSDOF 4
ENDMDL
