MODEL 1
REMARK VINA RESULT: -6.844197531      0.000      0.000
REMARK  1 active torsions:
REMARK  status: ('A' for Active; 'I' for Inactive)
REMARK    1  A    between atoms: N1_1  and  C1_4 
REMARK       I    between atoms: N3_11  and  C4_12 
REMARK       I    between atoms: C4_12  and  N4_13 
REMARK       I    between atoms: C4_12  and  N5_17 
ROOT
HETATM    1  C1  UNL     1      26.366   1.816  12.373  1.00  0.00     0.693 A 
HETATM    2  N2  UNL     1      26.275   0.991  11.316  1.00  0.00    -0.150 N 
ATOM      3  H2  UNL     1      26.533   1.301  10.378  1.00  0.00     0.188 HD
HETATM    4  C2  UNL     1      25.827  -0.264  11.544  1.00  0.00     0.329 A 
HETATM    5  O1  UNL     1      25.734  -1.055  10.563  1.00  0.00    -0.261 OA
HETATM    6  C3  UNL     1      25.472  -0.702  12.801  1.00  0.00     0.334 A 
HETATM    7  O2  UNL     1      25.061  -1.882  12.955  1.00  0.00    -0.260 OA
HETATM    8  N3  UNL     1      25.577   0.142  13.823  1.00  0.00    -0.183 N 
HETATM    9  C4  UNL     1      25.211  -0.299  15.138  1.00  0.00     0.504 C 
HETATM   10  N4  UNL     1      26.077  -1.296  15.690  1.00  0.00    -0.031 N 
ATOM     11  H41 UNL     1      25.817  -1.610  16.625  1.00  0.00     0.279 HD
ATOM     12  H42 UNL     1      27.044  -0.971  15.681  1.00  0.00     0.279 HD
ATOM     13  H43 UNL     1      26.153  -2.091  15.056  1.00  0.00     0.279 HD
HETATM   14  N5  UNL     1      23.839  -0.760  15.212  1.00  0.00    -0.031 N 
ATOM     15  H51 UNL     1      23.579  -1.074  16.147  1.00  0.00     0.279 HD
ATOM     16  H52 UNL     1      23.659  -1.486  14.519  1.00  0.00     0.279 HD
ATOM     17  H53 UNL     1      23.195  -0.045  14.873  1.00  0.00     0.279 HD
HETATM   18  N6  UNL     1      26.020   1.387  13.601  1.00  0.00    -0.124 N 
ATOM     19  H6  UNL     1      26.097   2.031  14.388  1.00  0.00     0.206 HD
ENDROOT
BRANCH   1  20
HETATM   20  N1  UNL     1      26.787   3.017  12.203  1.00  0.00    -0.233 N 
ATOM     21  H12 UNL     1      27.716   3.185  11.817  1.00  0.00     0.174 HD
ATOM     22  H11 UNL     1      26.184   3.800  12.455  1.00  0.00     0.174 HD
ENDBRANCH   1  20
TORSDOF 1
ENDMDL
MODEL 2
REMARK VINA RESULT: -6.331896437      5.881      7.776
REMARK  1 active torsions:
REMARK  status: ('A' for Active; 'I' for Inactive)
REMARK    1  A    between atoms: N1_1  and  C1_4 
REMARK       I    between atoms: N3_11  and  C4_12 
REMARK       I    between atoms: C4_12  and  N4_13 
REMARK       I    between atoms: C4_12  and  N5_17 
ROOT
HETATM    1  C1  UNL     1      20.224   1.703  19.503  1.00  0.00     0.693 A 
HETATM    2  N2  UNL     1      19.619   2.771  18.955  1.00  0.00    -0.150 N 
ATOM      3  H2  UNL     1      19.091   3.432  19.526  1.00  0.00     0.188 HD
HETATM    4  C2  UNL     1      19.738   2.935  17.618  1.00  0.00     0.329 A 
HETATM    5  O1  UNL     1      19.177   3.934  17.084  1.00  0.00    -0.261 OA
HETATM    6  C3  UNL     1      20.446   2.055  16.829  1.00  0.00     0.334 A 
HETATM    7  O2  UNL     1      20.524   2.257  15.589  1.00  0.00    -0.260 OA
HETATM    8  N3  UNL     1      21.031   1.010  17.407  1.00  0.00    -0.183 N 
HETATM    9  C4  UNL     1      21.771   0.086  16.598  1.00  0.00     0.504 C 
HETATM   10  N4  UNL     1      22.971   0.622  16.031  1.00  0.00    -0.031 N 
ATOM     11  H41 UNL     1      23.497  -0.036  15.455  1.00  0.00     0.279 HD
ATOM     12  H42 UNL     1      23.567   1.011  16.763  1.00  0.00     0.279 HD
ATOM     13  H43 UNL     1      22.765   1.471  15.504  1.00  0.00     0.279 HD
HETATM   14  N5  UNL     1      20.967  -0.508  15.549  1.00  0.00    -0.031 N 
ATOM     15  H51 UNL     1      21.493  -1.166  14.973  1.00  0.00     0.279 HD
ATOM     16  H52 UNL     1      20.528   0.210  14.974  1.00  0.00     0.279 HD
ATOM     17  H53 UNL     1      20.130  -0.946  15.933  1.00  0.00     0.279 HD
HETATM   18  N6  UNL     1      20.915   0.844  18.731  1.00  0.00    -0.124 N 
ATOM     19  H6  UNL     1      21.365   0.041  19.169  1.00  0.00     0.206 HD
ENDROOT
BRANCH   1  20
HETATM   20  N1  UNL     1      20.137   1.509  20.769  1.00  0.00    -0.233 N 
ATOM     21  H12 UNL     1      20.454   2.225  21.422  1.00  0.00     0.174 HD
ATOM     22  H11 UNL     1      19.747   0.633  21.116  1.00  0.00     0.174 HD
ENDBRANCH   1  20
TORSDOF 1
ENDMDL
MODEL 3
REMARK VINA RESULT: -6.228513738      2.127      2.808
REMARK  1 active torsions:
REMARK  status: ('A' for Active; 'I' for Inactive)
REMARK    1  A    between atoms: N1_1  and  C1_4 
REMARK       I    between atoms: N3_11  and  C4_12 
REMARK       I    between atoms: C4_12  and  N4_13 
REMARK       I    between atoms: C4_12  and  N5_17 
ROOT
HETATM    1  C1  UNL     1      26.039   0.789  11.844  1.00  0.00     0.693 A 
HETATM    2  N2  UNL     1      25.922   1.661  12.860  1.00  0.00    -0.150 N 
ATOM      3  H2  UNL     1      26.110   2.656  12.730  1.00  0.00     0.188 HD
HETATM    4  C2  UNL     1      25.544   1.169  14.062  1.00  0.00     0.329 A 
HETATM    5  O1  UNL     1      25.428   1.973  15.030  1.00  0.00    -0.261 OA
HETATM    6  C3  UNL     1      25.286  -0.170  14.260  1.00  0.00     0.334 A 
HETATM    7  O2  UNL     1      24.937  -0.573  15.400  1.00  0.00    -0.260 OA
HETATM    8  N3  UNL     1      25.412  -1.003  13.231  1.00  0.00    -0.183 N 
HETATM    9  C4  UNL     1      25.146  -2.399  13.422  1.00  0.00     0.504 C 
HETATM   10  N4  UNL     1      23.775  -2.710  13.686  1.00  0.00    -0.031 N 
ATOM     11  H41 UNL     1      23.586  -3.704  13.823  1.00  0.00     0.279 HD
ATOM     12  H42 UNL     1      23.176  -2.332  12.951  1.00  0.00     0.279 HD
ATOM     13  H43 UNL     1      23.436  -2.172  14.483  1.00  0.00     0.279 HD
HETATM   14  N5  UNL     1      25.980  -2.992  14.448  1.00  0.00    -0.031 N 
ATOM     15  H51 UNL     1      25.791  -3.985  14.585  1.00  0.00     0.279 HD
ATOM     16  H52 UNL     1      25.899  -2.481  15.326  1.00  0.00     0.279 HD
ATOM     17  H53 UNL     1      26.969  -2.831  14.254  1.00  0.00     0.279 HD
HETATM   18  N6  UNL     1      25.786  -0.518  12.039  1.00  0.00    -0.124 N 
ATOM     19  H6  UNL     1      25.882  -1.162  11.253  1.00  0.00     0.206 HD
ENDROOT
BRANCH   1  20
HETATM   20  N1  UNL     1      26.395   1.213  10.686  1.00  0.00    -0.233 N 
ATOM     21  H12 UNL     1      25.951   0.845   9.845  1.00  0.00     0.174 HD
ATOM     22  H11 UNL     1      27.126   1.921  10.614  1.00  0.00     0.174 HD
ENDBRANCH   1  20
TORSDOF 1
ENDMDL
MODEL 4
REMARK VINA RESULT: -5.937337446      2.385      4.591
REMARK  1 active torsions:
REMARK  status: ('A' for Active; 'I' for Inactive)
REMARK    1  A    between atoms: N1_1  and  C1_4 
REMARK       I    between atoms: N3_11  and  C4_12 
REMARK       I    between atoms: C4_12  and  N4_13 
REMARK       I    between atoms: C4_12  and  N5_17 
ROOT
HETATM    1  C1  UNL     1      22.909  -1.877  14.492  1.00  0.00     0.693 A 
HETATM    2  N2  UNL     1      22.686  -1.010  15.495  1.00  0.00    -0.150 N 
ATOM      3  H2  UNL     1      21.871  -1.099  16.102  1.00  0.00     0.188 HD
HETATM    4  C2  UNL     1      23.586  -0.015  15.667  1.00  0.00     0.329 A 
HETATM    5  O1  UNL     1      23.395   0.810  16.605  1.00  0.00    -0.261 OA
HETATM    6  C3  UNL     1      24.693   0.124  14.860  1.00  0.00     0.334 A 
HETATM    7  O2  UNL     1      25.499   1.069  15.066  1.00  0.00    -0.260 OA
HETATM    8  N3  UNL     1      24.881  -0.754  13.878  1.00  0.00    -0.183 N 
HETATM    9  C4  UNL     1      26.029  -0.622  13.029  1.00  0.00     0.504 C 
HETATM   10  N4  UNL     1      27.279  -0.872  13.680  1.00  0.00    -0.031 N 
ATOM     11  H41 UNL     1      28.096  -0.778  13.075  1.00  0.00     0.279 HD
ATOM     12  H42 UNL     1      27.270  -1.789  14.126  1.00  0.00     0.279 HD
ATOM     13  H43 UNL     1      27.375  -0.278  14.503  1.00  0.00     0.279 HD
HETATM   14  N5  UNL     1      26.084   0.661  12.358  1.00  0.00    -0.031 N 
ATOM     15  H51 UNL     1      26.901   0.755  11.753  1.00  0.00     0.279 HD
ATOM     16  H52 UNL     1      26.036   1.427  13.028  1.00  0.00     0.279 HD
ATOM     17  H53 UNL     1      25.224   0.840  11.840  1.00  0.00     0.279 HD
HETATM   18  N6  UNL     1      23.991  -1.741  13.704  1.00  0.00    -0.124 N 
ATOM     19  H6  UNL     1      24.139  -2.410  12.949  1.00  0.00     0.206 HD
ENDROOT
BRANCH   1  20
HETATM   20  N1  UNL     1      22.080  -2.837  14.292  1.00  0.00    -0.233 N 
ATOM     21  H12 UNL     1      21.721  -3.378  15.079  1.00  0.00     0.174 HD
ATOM     22  H11 UNL     1      21.783  -3.053  13.341  1.00  0.00     0.174 HD
ENDBRANCH   1  20
TORSDOF 1
ENDMDL
MODEL 5
REMARK VINA RESULT: -5.900834049      3.184      5.300
REMARK  1 active torsions:
REMARK  status: ('A' for Active; 'I' for Inactive)
REMARK    1  A    between atoms: N1_1  and  C1_4 
REMARK       I    between atoms: N3_11  and  C4_12 
REMARK       I    between atoms: C4_12  and  N4_13 
REMARK       I    between atoms: C4_12  and  N5_17 
ROOT
HETATM    1  C1  UNL     1      21.624  -2.233  14.372  1.00  0.00     0.693 A 
HETATM    2  N2  UNL     1      20.971  -1.579  15.349  1.00  0.00    -0.150 N 
ATOM      3  H2  UNL     1      19.993  -1.778  15.558  1.00  0.00     0.188 HD
HETATM    4  C2  UNL     1      21.664  -0.648  16.043  1.00  0.00     0.329 A 
HETATM    5  O1  UNL     1      21.069  -0.023  16.966  1.00  0.00    -0.261 OA
HETATM    6  C3  UNL     1      22.985  -0.364  15.777  1.00  0.00     0.334 A 
HETATM    7  O2  UNL     1      23.582   0.513  16.456  1.00  0.00    -0.260 OA
HETATM    8  N3  UNL     1      23.598  -1.031  14.803  1.00  0.00    -0.183 N 
HETATM    9  C4  UNL     1      24.973  -0.746  14.514  1.00  0.00     0.504 C 
HETATM   10  N4  UNL     1      25.887  -1.133  15.545  1.00  0.00    -0.031 N 
ATOM     11  H41 UNL     1      26.866  -0.930  15.340  1.00  0.00     0.279 HD
ATOM     12  H42 UNL     1      25.769  -2.121  15.772  1.00  0.00     0.279 HD
ATOM     13  H43 UNL     1      25.617  -0.715  16.435  1.00  0.00     0.279 HD
HETATM   14  N5  UNL     1      25.196   0.644  14.171  1.00  0.00    -0.031 N 
ATOM     15  H51 UNL     1      26.175   0.847  13.965  1.00  0.00     0.279 HD
ATOM     16  H52 UNL     1      24.839   1.262  14.898  1.00  0.00     0.279 HD
ATOM     17  H53 UNL     1      24.593   0.931  13.400  1.00  0.00     0.279 HD
HETATM   18  N6  UNL     1      22.914  -1.954  14.112  1.00  0.00    -0.124 N 
ATOM     19  H6  UNL     1      23.388  -2.463  13.366  1.00  0.00     0.206 HD
ENDROOT
BRANCH   1  20
HETATM   20  N1  UNL     1      21.004  -3.125  13.687  1.00  0.00    -0.233 N 
ATOM     21  H12 UNL     1      21.495  -3.650  12.963  1.00  0.00     0.174 HD
ATOM     22  H11 UNL     1      20.018  -3.304  13.873  1.00  0.00     0.174 HD
ENDBRANCH   1  20
TORSDOF 1
ENDMDL
