MODEL 1
REMARK VINA RESULT: -4.954038456      0.000      0.000
REMARK  4 active torsions:
REMARK  status: ('A' for Active; 'I' for Inactive)
REMARK    1  A    between atoms: C2_2  and  N1_3 
REMARK    2  A    between atoms: C4_7  and  N3_8 
REMARK    3  A    between atoms: N3_8  and  C5_10 
REMARK    4  A    between atoms: C5_10  and  N4_11 
ROOT
HETATM    1  N1  UNL     1      14.183  25.665  -1.829  1.00  0.00    -0.368 N 
HETATM    2  C3  UNL     1      15.491  25.063  -1.704  1.00  0.00     0.247 C 
HETATM    3  N2  UNL     1      15.782  24.542  -2.994  1.00  0.00    -0.362 N 
ATOM      4  H2  UNL     1      16.713  24.270  -3.309  1.00  0.00     0.162 HD
HETATM    5  C4  UNL     1      14.696  24.456  -3.725  1.00  0.00     0.093 C 
HETATM    6  C7  UNL     1      13.558  24.932  -2.919  1.00  0.00     0.199 C 
ENDROOT
BRANCH   5   7
HETATM    7  N3  UNL     1      14.766  23.963  -5.031  1.00  0.00    -0.356 N 
ATOM      8  H3  UNL     1      15.687  23.751  -5.413  1.00  0.00     0.162 HD
BRANCH   7   9
HETATM    9  C5  UNL     1      13.610  23.734  -5.875  1.00  0.00     0.355 C 
BRANCH   9  10
HETATM   10  N4  UNL     1      14.123  23.208  -7.138  1.00  0.00    -0.063 N 
HETATM   11  C6  UNL     1      14.794  21.941  -6.832  1.00  0.00     0.269 C 
ATOM     12  H42 UNL     1      13.405  23.118  -7.857  1.00  0.00     0.278 HD
ATOM     13  H41 UNL     1      14.721  23.869  -7.634  1.00  0.00     0.278 HD
ENDBRANCH   9  10
ENDBRANCH   7   9
ENDBRANCH   5   7
BRANCH   1  14
HETATM   14  C2  UNL     1      13.687  26.715  -1.023  1.00  0.00     0.077 C 
HETATM   15  C1  UNL     1      13.388  27.902  -1.495  1.00  0.00     0.029 C 
ENDBRANCH   1  14
TORSDOF 4
ENDMDL
MODEL 2
REMARK VINA RESULT: -4.872070327      1.285      5.257
REMARK  4 active torsions:
REMARK  status: ('A' for Active; 'I' for Inactive)
REMARK    1  A    between atoms: C2_2  and  N1_3 
REMARK    2  A    between atoms: C4_7  and  N3_8 
REMARK    3  A    between atoms: N3_8  and  C5_10 
REMARK    4  A    between atoms: C5_10  and  N4_11 
ROOT
HETATM    1  N1  UNL     1      13.800  24.026  -5.474  1.00  0.00    -0.368 N 
HETATM    2  C3  UNL     1      14.329  25.364  -5.339  1.00  0.00     0.247 C 
HETATM    3  N2  UNL     1      14.474  25.565  -3.940  1.00  0.00    -0.362 N 
ATOM      4  H2  UNL     1      15.039  26.302  -3.518  1.00  0.00     0.162 HD
HETATM    5  C4  UNL     1      13.785  24.678  -3.262  1.00  0.00     0.093 C 
HETATM    6  C7  UNL     1      13.098  23.795  -4.220  1.00  0.00     0.199 C 
ENDROOT
BRANCH   5   7
HETATM    7  N3  UNL     1      13.790  24.703  -1.864  1.00  0.00    -0.356 N 
ATOM      8  H3  UNL     1      13.324  23.943  -1.370  1.00  0.00     0.162 HD
BRANCH   7   9
HETATM    9  C5  UNL     1      14.419  25.743  -1.073  1.00  0.00     0.355 C 
BRANCH   9  10
HETATM   10  N4  UNL     1      13.345  26.631  -0.635  1.00  0.00    -0.063 N 
HETATM   11  C6  UNL     1      13.487  27.878  -1.393  1.00  0.00     0.269 C 
ATOM     12  H42 UNL     1      12.419  26.213  -0.721  1.00  0.00     0.278 HD
ATOM     13  H41 UNL     1      13.330  26.774   0.375  1.00  0.00     0.278 HD
ENDBRANCH   9  10
ENDBRANCH   7   9
ENDBRANCH   5   7
BRANCH   1  14
HETATM   14  C2  UNL     1      13.956  23.197  -6.608  1.00  0.00     0.077 C 
HETATM   15  C1  UNL     1      14.768  22.167  -6.638  1.00  0.00     0.029 C 
ENDBRANCH   1  14
TORSDOF 4
ENDMDL
MODEL 3
REMARK VINA RESULT: -4.866725671      1.252      5.342
REMARK  4 active torsions:
REMARK  status: ('A' for Active; 'I' for Inactive)
REMARK    1  A    between atoms: C2_2  and  N1_3 
REMARK    2  A    between atoms: C4_7  and  N3_8 
REMARK    3  A    between atoms: N3_8  and  C5_10 
REMARK    4  A    between atoms: C5_10  and  N4_11 
ROOT
HETATM    1  N1  UNL     1      14.045  23.742  -5.079  1.00  0.00    -0.368 N 
HETATM    2  C3  UNL     1      12.958  23.530  -4.150  1.00  0.00     0.247 C 
HETATM    3  N2  UNL     1      13.030  24.621  -3.242  1.00  0.00    -0.362 N 
ATOM      4  H2  UNL     1      12.275  24.902  -2.617  1.00  0.00     0.162 HD
HETATM    5  C4  UNL     1      14.196  25.219  -3.314  1.00  0.00     0.093 C 
HETATM    6  C7  UNL     1      15.013  24.519  -4.320  1.00  0.00     0.199 C 
ENDROOT
BRANCH   5   7
HETATM    7  N3  UNL     1      14.472  26.320  -2.498  1.00  0.00    -0.356 N 
ATOM      8  H3  UNL     1      14.789  27.180  -2.946  1.00  0.00     0.162 HD
BRANCH   7   9
HETATM    9  C5  UNL     1      14.335  26.315  -1.055  1.00  0.00     0.355 C 
BRANCH   9  10
HETATM   10  N4  UNL     1      13.228  27.216  -0.745  1.00  0.00    -0.063 N 
HETATM   11  C6  UNL     1      13.254  28.286  -1.749  1.00  0.00     0.269 C 
ATOM     12  H42 UNL     1      12.327  26.741  -0.690  1.00  0.00     0.278 HD
ATOM     13  H41 UNL     1      13.251  27.565   0.213  1.00  0.00     0.278 HD
ENDBRANCH   9  10
ENDBRANCH   7   9
ENDBRANCH   5   7
BRANCH   1  14
HETATM   14  C2  UNL     1      14.091  23.255  -6.406  1.00  0.00     0.077 C 
HETATM   15  C1  UNL     1      14.765  22.185  -6.753  1.00  0.00     0.029 C 
ENDBRANCH   1  14
TORSDOF 4
ENDMDL
MODEL 4
REMARK VINA RESULT: -4.720011185      1.432      5.105
REMARK  4 active torsions:
REMARK  status: ('A' for Active; 'I' for Inactive)
REMARK    1  A    between atoms: C2_2  and  N1_3 
REMARK    2  A    between atoms: C4_7  and  N3_8 
REMARK    3  A    between atoms: N3_8  and  C5_10 
REMARK    4  A    between atoms: C5_10  and  N4_11 
ROOT
HETATM    1  N1  UNL     1      13.822  24.026  -5.559  1.00  0.00    -0.368 N 
HETATM    2  C3  UNL     1      13.216  23.440  -4.384  1.00  0.00     0.247 C 
HETATM    3  N2  UNL     1      12.901  24.542  -3.544  1.00  0.00    -0.362 N 
ATOM      4  H2  UNL     1      12.256  24.500  -2.755  1.00  0.00     0.162 HD
HETATM    5  C4  UNL     1      13.549  25.621  -3.915  1.00  0.00     0.093 C 
HETATM    6  C7  UNL     1      14.384  25.280  -5.080  1.00  0.00     0.199 C 
ENDROOT
BRANCH   5   7
HETATM    7  N3  UNL     1      13.381  26.818  -3.214  1.00  0.00    -0.356 N 
ATOM      8  H3  UNL     1      12.887  27.580  -3.681  1.00  0.00     0.162 HD
BRANCH   7   9
HETATM    9  C5  UNL     1      13.862  27.045  -1.866  1.00  0.00     0.355 C 
BRANCH   9  10
HETATM   10  N4  UNL     1      15.234  26.546  -1.831  1.00  0.00    -0.063 N 
HETATM   11  C6  UNL     1      15.272  25.471  -0.834  1.00  0.00     0.269 C 
ATOM     12  H42 UNL     1      15.580  26.256  -2.746  1.00  0.00     0.278 HD
ATOM     13  H41 UNL     1      15.923  27.278  -1.658  1.00  0.00     0.278 HD
ENDBRANCH   9  10
ENDBRANCH   7   9
ENDBRANCH   5   7
BRANCH   1  14
HETATM   14  C2  UNL     1      13.839  23.441  -6.846  1.00  0.00     0.077 C 
HETATM   15  C1  UNL     1      14.486  22.333  -7.121  1.00  0.00     0.029 C 
ENDBRANCH   1  14
TORSDOF 4
ENDMDL
MODEL 5
REMARK VINA RESULT: -4.716653766      1.194      5.203
REMARK  4 active torsions:
REMARK  status: ('A' for Active; 'I' for Inactive)
REMARK    1  A    between atoms: C2_2  and  N1_3 
REMARK    2  A    between atoms: C4_7  and  N3_8 
REMARK    3  A    between atoms: N3_8  and  C5_10 
REMARK    4  A    between atoms: C5_10  and  N4_11 
ROOT
HETATM    1  N1  UNL     1      14.041  23.686  -5.358  1.00  0.00    -0.368 N 
HETATM    2  C3  UNL     1      13.068  23.550  -4.298  1.00  0.00     0.247 C 
HETATM    3  N2  UNL     1      13.641  24.220  -3.183  1.00  0.00    -0.362 N 
ATOM      4  H2  UNL     1      13.119  24.515  -2.358  1.00  0.00     0.162 HD
HETATM    5  C4  UNL     1      14.928  24.408  -3.355  1.00  0.00     0.093 C 
HETATM    6  C7  UNL     1      15.309  23.837  -4.658  1.00  0.00     0.199 C 
ENDROOT
BRANCH   5   7
HETATM    7  N3  UNL     1      15.681  25.050  -2.368  1.00  0.00    -0.356 N 
ATOM      8  H3  UNL     1      16.685  25.149  -2.522  1.00  0.00     0.162 HD
BRANCH   7   9
HETATM    9  C5  UNL     1      15.126  25.583  -1.140  1.00  0.00     0.355 C 
BRANCH   9  10
HETATM   10  N4  UNL     1      14.773  26.973  -1.420  1.00  0.00    -0.063 N 
HETATM   11  C6  UNL     1      13.387  27.159  -0.980  1.00  0.00     0.269 C 
ATOM     12  H42 UNL     1      15.419  27.643  -1.002  1.00  0.00     0.278 HD
ATOM     13  H41 UNL     1      14.924  27.237  -2.393  1.00  0.00     0.278 HD
ENDBRANCH   9  10
ENDBRANCH   7   9
ENDBRANCH   5   7
BRANCH   1  14
HETATM   14  C2  UNL     1      13.752  23.651  -6.741  1.00  0.00     0.077 C 
HETATM   15  C1  UNL     1      14.169  22.695  -7.537  1.00  0.00     0.029 C 
ENDBRANCH   1  14
TORSDOF 4
ENDMDL
