MODEL 1
REMARK VINA RESULT: -6.146330560      0.000      0.000
REMARK  2 active torsions:
REMARK  status: ('A' for Active; 'I' for Inactive)
REMARK    1  A    between atoms: N1_2  and  N2_3 
REMARK    2  A    between atoms: N1_2  and  C2_8 
ROOT
HETATM    1  C2  UNL     1      22.172   8.260  10.208  1.00  0.00     0.095 C 
HETATM    2  N4  UNL     1      22.787   8.698   9.188  1.00  0.00    -0.370 N 
ATOM      3  H4  UNL     1      22.226   8.834   8.347  1.00  0.00     0.161 HD
HETATM    4  C3  UNL     1      24.169   9.019   9.082  1.00  0.00     0.024 C 
HETATM    5  C4  UNL     1      24.325  10.525   9.256  1.00  0.00     0.038 C 
HETATM    6  C5  UNL     1      24.627   8.707   7.670  1.00  0.00     0.038 C 
HETATM    7  C6  UNL     1      25.041   8.352  10.112  1.00  0.00     0.030 C 
HETATM    8  C7  UNL     1      24.270   7.446  11.037  1.00  0.00     0.010 C 
HETATM    9  C8  UNL     1      22.958   8.049  11.449  1.00  0.00     0.078 C 
ENDROOT
BRANCH   1  10
HETATM   10  N1  UNL     1      20.778   7.994  10.119  1.00  0.00    -0.271 N 
HETATM   11  C1  UNL     1      20.093   8.326   8.891  1.00  0.00     0.181 C 
BRANCH  10  12
HETATM   12  N2  UNL     1      20.134   7.426  11.218  1.00  0.00    -0.246 N 
HETATM   13  N3  UNL     1      18.916   7.547  11.480  1.00  0.00    -0.331 N 
ATOM     14  H32 UNL     1      18.366   8.108  10.830  1.00  0.00     0.178 HD
ATOM     15  H31 UNL     1      18.445   7.131  12.283  1.00  0.00     0.178 HD
ATOM     16  H2  UNL     1      20.699   6.868  11.859  1.00  0.00     0.208 HD
ENDBRANCH  10  12
ENDBRANCH   1  10
TORSDOF 2
ENDMDL
MODEL 2
REMARK VINA RESULT: -5.858791573      1.186      1.412
REMARK  2 active torsions:
REMARK  status: ('A' for Active; 'I' for Inactive)
REMARK    1  A    between atoms: N1_2  and  N2_3 
REMARK    2  A    between atoms: N1_2  and  C2_8 
ROOT
HETATM    1  C2  UNL     1      21.847   8.240  10.021  1.00  0.00     0.095 C 
HETATM    2  N4  UNL     1      22.482   8.675   9.011  1.00  0.00    -0.370 N 
ATOM      3  H4  UNL     1      21.943   8.785   8.152  1.00  0.00     0.161 HD
HETATM    4  C3  UNL     1      23.858   9.029   8.940  1.00  0.00     0.024 C 
HETATM    5  C4  UNL     1      23.973  10.541   9.092  1.00  0.00     0.038 C 
HETATM    6  C5  UNL     1      24.365   8.704   7.547  1.00  0.00     0.038 C 
HETATM    7  C6  UNL     1      24.715   8.400  10.007  1.00  0.00     0.030 C 
HETATM    8  C7  UNL     1      23.939   7.491  10.924  1.00  0.00     0.010 C 
HETATM    9  C8  UNL     1      22.601   8.069  11.287  1.00  0.00     0.078 C 
ENDROOT
BRANCH   1  10
HETATM   10  N1  UNL     1      20.463   7.939   9.896  1.00  0.00    -0.271 N 
HETATM   11  C1  UNL     1      19.819   7.211  10.965  1.00  0.00     0.181 C 
BRANCH  10  12
HETATM   12  N2  UNL     1      19.788   8.360   8.750  1.00  0.00    -0.246 N 
HETATM   13  N3  UNL     1      18.802   9.132   8.739  1.00  0.00    -0.331 N 
ATOM     14  H32 UNL     1      18.480   9.469   9.645  1.00  0.00     0.178 HD
ATOM     15  H31 UNL     1      18.309   9.440   7.901  1.00  0.00     0.178 HD
ATOM     16  H2  UNL     1      20.124   8.013   7.851  1.00  0.00     0.208 HD
ENDBRANCH  10  12
ENDBRANCH   1  10
TORSDOF 2
ENDMDL
MODEL 3
REMARK VINA RESULT: -5.197931974      1.642      1.974
REMARK  2 active torsions:
REMARK  status: ('A' for Active; 'I' for Inactive)
REMARK    1  A    between atoms: N1_2  and  N2_3 
REMARK    2  A    between atoms: N1_2  and  C2_8 
ROOT
HETATM    1  C2  UNL     1      22.857   8.780   9.759  1.00  0.00     0.095 C 
HETATM    2  N4  UNL     1      23.774   8.881   8.887  1.00  0.00    -0.370 N 
ATOM      3  H4  UNL     1      23.475   9.132   7.945  1.00  0.00     0.161 HD
HETATM    4  C3  UNL     1      25.170   8.684   9.073  1.00  0.00     0.024 C 
HETATM    5  C4  UNL     1      25.826  10.047   9.258  1.00  0.00     0.038 C 
HETATM    6  C5  UNL     1      25.747   8.106   7.795  1.00  0.00     0.038 C 
HETATM    7  C6  UNL     1      25.523   7.846  10.274  1.00  0.00     0.030 C 
HETATM    8  C7  UNL     1      24.313   7.355  11.025  1.00  0.00     0.010 C 
HETATM    9  C8  UNL     1      23.256   8.417  11.141  1.00  0.00     0.078 C 
ENDROOT
BRANCH   1  10
HETATM   10  N1  UNL     1      21.507   9.017   9.380  1.00  0.00    -0.271 N 
HETATM   11  C1  UNL     1      20.504   8.055   9.773  1.00  0.00     0.181 C 
BRANCH  10  12
HETATM   12  N2  UNL     1      21.210  10.167   8.647  1.00  0.00    -0.246 N 
HETATM   13  N3  UNL     1      20.058  10.538   8.327  1.00  0.00    -0.331 N 
ATOM     14  H32 UNL     1      19.289   9.944   8.633  1.00  0.00     0.178 HD
ATOM     15  H31 UNL     1      19.841  11.379   7.792  1.00  0.00     0.178 HD
ATOM     16  H2  UNL     1      21.993  10.750   8.349  1.00  0.00     0.208 HD
ENDBRANCH  10  12
ENDBRANCH   1  10
TORSDOF 2
ENDMDL
MODEL 4
REMARK VINA RESULT: -5.065795796      2.254      4.601
REMARK  2 active torsions:
REMARK  status: ('A' for Active; 'I' for Inactive)
REMARK    1  A    between atoms: N1_2  and  N2_3 
REMARK    2  A    between atoms: N1_2  and  C2_8 
ROOT
HETATM    1  C2  UNL     1      22.881   9.496   9.238  1.00  0.00     0.095 C 
HETATM    2  N4  UNL     1      21.742   9.832   8.791  1.00  0.00    -0.370 N 
ATOM      3  H4  UNL     1      21.683  10.749   8.349  1.00  0.00     0.161 HD
HETATM    4  C3  UNL     1      20.537   9.078   8.836  1.00  0.00     0.024 C 
HETATM    5  C4  UNL     1      20.353   8.387   7.491  1.00  0.00     0.038 C 
HETATM    6  C5  UNL     1      19.373  10.040   8.980  1.00  0.00     0.038 C 
HETATM    7  C6  UNL     1      20.513   8.011   9.899  1.00  0.00     0.030 C 
HETATM    8  C7  UNL     1      21.771   7.979  10.728  1.00  0.00     0.010 C 
HETATM    9  C8  UNL     1      23.002   8.168   9.888  1.00  0.00     0.078 C 
ENDROOT
BRANCH   1  10
HETATM   10  N1  UNL     1      23.976  10.393   9.099  1.00  0.00    -0.271 N 
HETATM   11  C1  UNL     1      25.310   9.890   9.333  1.00  0.00     0.181 C 
BRANCH  10  12
HETATM   12  N2  UNL     1      23.715  11.715   8.741  1.00  0.00    -0.246 N 
HETATM   13  N3  UNL     1      24.577  12.544   8.370  1.00  0.00    -0.331 N 
ATOM     14  H32 UNL     1      25.540  12.210   8.332  1.00  0.00     0.178 HD
ATOM     15  H31 UNL     1      24.386  13.511   8.108  1.00  0.00     0.178 HD
ATOM     16  H2  UNL     1      22.746  12.033   8.785  1.00  0.00     0.208 HD
ENDBRANCH  10  12
ENDBRANCH   1  10
TORSDOF 2
ENDMDL
MODEL 5
REMARK VINA RESULT: -5.058270915      1.195      2.372
REMARK  2 active torsions:
REMARK  status: ('A' for Active; 'I' for Inactive)
REMARK    1  A    between atoms: N1_2  and  N2_3 
REMARK    2  A    between atoms: N1_2  and  C2_8 
ROOT
HETATM    1  C2  UNL     1      21.879   8.672   9.714  1.00  0.00     0.095 C 
HETATM    2  N4  UNL     1      23.134   8.483   9.709  1.00  0.00    -0.370 N 
ATOM      3  H4  UNL     1      23.477   7.714  10.284  1.00  0.00     0.161 HD
HETATM    4  C3  UNL     1      24.118   9.220   8.993  1.00  0.00     0.024 C 
HETATM    5  C4  UNL     1      24.458   8.456   7.720  1.00  0.00     0.038 C 
HETATM    6  C5  UNL     1      25.389   9.252   9.820  1.00  0.00     0.038 C 
HETATM    7  C6  UNL     1      23.681  10.603   8.587  1.00  0.00     0.030 C 
HETATM    8  C7  UNL     1      22.288  10.941   9.052  1.00  0.00     0.010 C 
HETATM    9  C8  UNL     1      21.346   9.782   8.888  1.00  0.00     0.078 C 
ENDROOT
BRANCH   1  10
HETATM   10  N1  UNL     1      21.051   7.823  10.499  1.00  0.00    -0.271 N 
HETATM   11  C1  UNL     1      21.672   7.013  11.522  1.00  0.00     0.181 C 
BRANCH  10  12
HETATM   12  N2  UNL     1      19.679   7.811  10.249  1.00  0.00    -0.246 N 
HETATM   13  N3  UNL     1      18.788   7.812  11.129  1.00  0.00    -0.331 N 
ATOM     14  H32 UNL     1      19.106   7.823  12.098  1.00  0.00     0.178 HD
ATOM     15  H31 UNL     1      17.784   7.803  10.947  1.00  0.00     0.178 HD
ATOM     16  H2  UNL     1      19.377   7.800   9.275  1.00  0.00     0.208 HD
ENDBRANCH  10  12
ENDBRANCH   1  10
TORSDOF 2
ENDMDL
