MODEL 1
REMARK VINA RESULT: -4.705995976      0.000      0.000
REMARK  2 active torsions:
REMARK  status: ('A' for Active; 'I' for Inactive)
REMARK    1  A    between atoms: C2_2  and  O1_3 
REMARK    2  A    between atoms: O1_3  and  O2_4 
ROOT
HETATM    1  C1  UNL     1      20.410   8.244   9.810  1.00  0.00     0.050 C 
HETATM    2  C2  UNL     1      20.553   8.895   8.457  1.00  0.00     0.101 C 
HETATM    3  C3  UNL     1      20.708  10.372   8.509  1.00  0.00     0.044 C 
HETATM    4  C4  UNL     1      21.792  10.941   9.308  1.00  0.00     0.033 C 
HETATM    5  C5  UNL     1      23.046  10.210   9.520  1.00  0.00     0.154 C 
HETATM    6  C6  UNL     1      24.175  10.782   8.749  1.00  0.00     0.074 C 
HETATM    7  N1  UNL     1      25.045  11.240   8.135  1.00  0.00    -0.196 NA
HETATM    8  S1  UNL     1      23.012   8.451   9.125  1.00  0.00    -0.146 SA
HETATM    9  C7  UNL     1      21.777   8.290   7.799  1.00  0.00     0.116 C 
ENDROOT
BRANCH   2  10
HETATM   10  O1  UNL     1      19.387   8.604   7.746  1.00  0.00    -0.232 OA
BRANCH  10  11
HETATM   11  O2  UNL     1      19.595   8.339   6.498  1.00  0.00    -0.250 OA
ATOM     12  H2  UNL     1      20.404   8.706   6.162  1.00  0.00     0.253 HD
ENDBRANCH  10  11
ENDBRANCH   2  10
TORSDOF 2
ENDMDL
MODEL 2
REMARK VINA RESULT: -4.624375457      3.331      4.008
REMARK  2 active torsions:
REMARK  status: ('A' for Active; 'I' for Inactive)
REMARK    1  A    between atoms: C2_2  and  O1_3 
REMARK    2  A    between atoms: O1_3  and  O2_4 
ROOT
HETATM    1  C1  UNL     1      22.741   8.788   8.550  1.00  0.00     0.050 C 
HETATM    2  C2  UNL     1      23.320   9.560   9.709  1.00  0.00     0.101 C 
HETATM    3  C3  UNL     1      23.533   8.745  10.933  1.00  0.00     0.044 C 
HETATM    4  C4  UNL     1      24.357   7.540  10.845  1.00  0.00     0.033 C 
HETATM    5  C5  UNL     1      25.447   7.433   9.869  1.00  0.00     0.154 C 
HETATM    6  C6  UNL     1      26.785   7.526  10.499  1.00  0.00     0.074 C 
HETATM    7  N1  UNL     1      27.823   7.607  11.008  1.00  0.00    -0.196 NA
HETATM    8  S1  UNL     1      25.436   8.647   8.536  1.00  0.00    -0.146 SA
HETATM    9  C7  UNL     1      24.650  10.123   9.249  1.00  0.00     0.116 C 
ENDROOT
BRANCH   2  10
HETATM   10  O1  UNL     1      22.407  10.572  10.014  1.00  0.00    -0.232 OA
BRANCH  10  11
HETATM   11  O2  UNL     1      22.094  11.309   8.999  1.00  0.00    -0.250 OA
ATOM     12  H2  UNL     1      21.253  11.739   9.088  1.00  0.00     0.253 HD
ENDBRANCH  10  11
ENDBRANCH   2  10
TORSDOF 2
ENDMDL
MODEL 3
REMARK VINA RESULT: -4.501974955      3.453      4.353
REMARK  2 active torsions:
REMARK  status: ('A' for Active; 'I' for Inactive)
REMARK    1  A    between atoms: C2_2  and  O1_3 
REMARK    2  A    between atoms: O1_3  and  O2_4 
ROOT
HETATM    1  C1  UNL     1      23.612   9.129   8.247  1.00  0.00     0.050 C 
HETATM    2  C2  UNL     1      22.783  10.083   9.071  1.00  0.00     0.101 C 
HETATM    3  C3  UNL     1      21.355  10.149   8.665  1.00  0.00     0.044 C 
HETATM    4  C4  UNL     1      20.572   8.914   8.631  1.00  0.00     0.033 C 
HETATM    5  C5  UNL     1      20.878   7.794   9.528  1.00  0.00     0.154 C 
HETATM    6  C6  UNL     1      19.877   7.643  10.610  1.00  0.00     0.074 C 
HETATM    7  N1  UNL     1      19.088   7.544  11.453  1.00  0.00    -0.196 NA
HETATM    8  S1  UNL     1      22.488   7.849  10.340  1.00  0.00    -0.146 SA
HETATM    9  C7  UNL     1      22.869   9.619  10.510  1.00  0.00     0.116 C 
ENDROOT
BRANCH   2  10
HETATM   10  O1  UNL     1      23.342  11.351   8.901  1.00  0.00    -0.232 OA
BRANCH  10  11
HETATM   11  O2  UNL     1      24.563  11.437   9.316  1.00  0.00    -0.250 OA
ATOM     12  H2  UNL     1      24.943  12.299   9.200  1.00  0.00     0.253 HD
ENDBRANCH  10  11
ENDBRANCH   2  10
TORSDOF 2
ENDMDL
MODEL 4
REMARK VINA RESULT: -4.405073239      2.765      3.276
REMARK  2 active torsions:
REMARK  status: ('A' for Active; 'I' for Inactive)
REMARK    1  A    between atoms: C2_2  and  O1_3 
REMARK    2  A    between atoms: O1_3  and  O2_4 
ROOT
HETATM    1  C1  UNL     1      22.428  10.426   9.450  1.00  0.00     0.050 C 
HETATM    2  C2  UNL     1      22.291   9.058   8.828  1.00  0.00     0.101 C 
HETATM    3  C3  UNL     1      23.478   8.628   8.045  1.00  0.00     0.044 C 
HETATM    4  C4  UNL     1      24.785   8.606   8.699  1.00  0.00     0.033 C 
HETATM    5  C5  UNL     1      24.912   8.365  10.140  1.00  0.00     0.154 C 
HETATM    6  C6  UNL     1      25.451   7.018  10.445  1.00  0.00     0.074 C 
HETATM    7  N1  UNL     1      25.868   5.960  10.666  1.00  0.00    -0.196 NA
HETATM    8  S1  UNL     1      23.397   8.527  11.105  1.00  0.00    -0.146 SA
HETATM    9  C7  UNL     1      22.059   8.077   9.959  1.00  0.00     0.116 C 
ENDROOT
BRANCH   2  10
HETATM   10  O1  UNL     1      21.197   9.119   7.962  1.00  0.00    -0.232 OA
BRANCH  10  11
HETATM   11  O2  UNL     1      20.551  10.236   8.023  1.00  0.00    -0.250 OA
ATOM     12  H2  UNL     1      21.102  11.000   7.901  1.00  0.00     0.253 HD
ENDBRANCH  10  11
ENDBRANCH   2  10
TORSDOF 2
ENDMDL
MODEL 5
REMARK VINA RESULT: -4.386283792      5.026      5.787
REMARK  2 active torsions:
REMARK  status: ('A' for Active; 'I' for Inactive)
REMARK    1  A    between atoms: C2_2  and  O1_3 
REMARK    2  A    between atoms: O1_3  and  O2_4 
ROOT
HETATM    1  C1  UNL     1      27.238   8.138  10.946  1.00  0.00     0.050 C 
HETATM    2  C2  UNL     1      26.461   6.953  10.428  1.00  0.00     0.101 C 
HETATM    3  C3  UNL     1      25.090   6.837  10.990  1.00  0.00     0.044 C 
HETATM    4  C4  UNL     1      24.173   7.967  10.855  1.00  0.00     0.033 C 
HETATM    5  C5  UNL     1      24.268   8.893   9.722  1.00  0.00     0.154 C 
HETATM    6  C6  UNL     1      23.167   8.710   8.745  1.00  0.00     0.074 C 
HETATM    7  N1  UNL     1      22.303   8.549   7.990  1.00  0.00    -0.196 NA
HETATM    8  S1  UNL     1      25.798   8.824   8.770  1.00  0.00    -0.146 SA
HETATM    9  C7  UNL     1      26.370   7.105   8.923  1.00  0.00     0.116 C 
ENDROOT
BRANCH   2  10
HETATM   10  O1  UNL     1      27.179   5.812  10.791  1.00  0.00    -0.232 OA
BRANCH  10  11
HETATM   11  O2  UNL     1      26.787   5.287  11.905  1.00  0.00    -0.250 OA
ATOM     12  H2  UNL     1      25.992   4.774  11.823  1.00  0.00     0.253 HD
ENDBRANCH  10  11
ENDBRANCH   2  10
TORSDOF 2
ENDMDL
