MODEL 1
REMARK VINA RESULT: -4.190793244      0.000      0.000
REMARK  2 active torsions:
REMARK  status: ('A' for Active; 'I' for Inactive)
REMARK    1  A    between atoms: C2_2  and  O1_3 
REMARK    2  A    between atoms: C2_2  and  C3_5 
ROOT
HETATM    1  C3  UNL     1      22.240   9.044   9.121  1.00  0.00     0.038 C 
HETATM    2  C4  UNL     1      21.890   8.398   7.788  1.00  0.00     0.030 C 
HETATM    3  C5  UNL     1      21.978   8.028  10.195  1.00  0.00     0.096 C 
HETATM    4  S1  UNL     1      23.214   8.158  11.539  1.00  0.00    -0.167 SA
HETATM    5  C6  UNL     1      24.855   7.711  10.972  1.00  0.00     0.084 C 
HETATM    6  C7  UNL     1      24.913   7.910   9.459  1.00  0.00     0.085 C 
HETATM    7  S2  UNL     1      23.983   9.453   9.121  1.00  0.00    -0.155 SA
ENDROOT
BRANCH   1   8
HETATM    8  C2  UNL     1      21.350  10.256   9.276  1.00  0.00     0.133 C 
HETATM    9  C1  UNL     1      20.173  10.234   8.362  1.00  0.00     0.041 C 
BRANCH   8  10
HETATM   10  O1  UNL     1      22.097  11.423   9.039  1.00  0.00    -0.394 OA
ATOM     11  H1  UNL     1      22.561  11.663   9.832  1.00  0.00     0.210 HD
ENDBRANCH   8  10
ENDBRANCH   1   8
TORSDOF 2
ENDMDL
MODEL 2
REMARK VINA RESULT: -3.929351574      1.842      2.902
REMARK  2 active torsions:
REMARK  status: ('A' for Active; 'I' for Inactive)
REMARK    1  A    between atoms: C2_2  and  O1_3 
REMARK    2  A    between atoms: C2_2  and  C3_5 
ROOT
HETATM    1  C3  UNL     1      23.067   9.092   9.029  1.00  0.00     0.038 C 
HETATM    2  C4  UNL     1      24.341   8.331   8.689  1.00  0.00     0.030 C 
HETATM    3  C5  UNL     1      21.941   8.441   8.278  1.00  0.00     0.096 C 
HETATM    4  S1  UNL     1      20.400   8.454   9.265  1.00  0.00    -0.167 SA
HETATM    5  C6  UNL     1      20.542   7.423  10.725  1.00  0.00     0.084 C 
HETATM    6  C7  UNL     1      22.021   7.287  11.077  1.00  0.00     0.085 C 
HETATM    7  S2  UNL     1      22.759   8.940  10.786  1.00  0.00    -0.155 SA
ENDROOT
BRANCH   1   8
HETATM    8  C2  UNL     1      23.273  10.523   8.588  1.00  0.00     0.133 C 
HETATM    9  C1  UNL     1      24.612  11.060   8.962  1.00  0.00     0.041 C 
BRANCH   8  10
HETATM   10  O1  UNL     1      22.275  11.338   9.150  1.00  0.00    -0.394 OA
ATOM     11  H1  UNL     1      21.479  11.254   8.639  1.00  0.00     0.210 HD
ENDBRANCH   8  10
ENDBRANCH   1   8
TORSDOF 2
ENDMDL
MODEL 3
REMARK VINA RESULT: -3.895936144      2.155      3.418
REMARK  2 active torsions:
REMARK  status: ('A' for Active; 'I' for Inactive)
REMARK    1  A    between atoms: C2_2  and  O1_3 
REMARK    2  A    between atoms: C2_2  and  C3_5 
ROOT
HETATM    1  C3  UNL     1      22.765   9.293   9.067  1.00  0.00     0.038 C 
HETATM    2  C4  UNL     1      22.583  10.785   8.828  1.00  0.00     0.030 C 
HETATM    3  C5  UNL     1      22.763   9.071  10.552  1.00  0.00     0.096 C 
HETATM    4  S1  UNL     1      21.941   7.493  10.980  1.00  0.00    -0.167 SA
HETATM    5  C6  UNL     1      20.192   7.532  10.590  1.00  0.00     0.084 C 
HETATM    6  C7  UNL     1      19.963   8.583   9.506  1.00  0.00     0.085 C 
HETATM    7  S2  UNL     1      21.375   8.423   8.348  1.00  0.00    -0.155 SA
ENDROOT
BRANCH   1   8
HETATM    8  C2  UNL     1      24.088   8.901   8.450  1.00  0.00     0.133 C 
HETATM    9  C1  UNL     1      25.124   9.966   8.572  1.00  0.00     0.041 C 
BRANCH   8  10
HETATM   10  O1  UNL     1      23.902   8.592   7.092  1.00  0.00    -0.394 OA
ATOM     11  H1  UNL     1      23.566   9.357   6.641  1.00  0.00     0.210 HD
ENDBRANCH   8  10
ENDBRANCH   1   8
TORSDOF 2
ENDMDL
MODEL 4
REMARK VINA RESULT: -3.752680146      1.970      2.692
REMARK  2 active torsions:
REMARK  status: ('A' for Active; 'I' for Inactive)
REMARK    1  A    between atoms: C2_2  and  O1_3 
REMARK    2  A    between atoms: C2_2  and  C3_5 
ROOT
HETATM    1  C3  UNL     1      22.919   9.061   9.499  1.00  0.00     0.038 C 
HETATM    2  C4  UNL     1      22.687   8.279  10.784  1.00  0.00     0.030 C 
HETATM    3  C5  UNL     1      23.220  10.481   9.885  1.00  0.00     0.096 C 
HETATM    4  S1  UNL     1      24.463  11.218   8.762  1.00  0.00    -0.167 SA
HETATM    5  C6  UNL     1      26.060  10.421   8.931  1.00  0.00     0.084 C 
HETATM    6  C7  UNL     1      25.842   9.018   9.490  1.00  0.00     0.085 C 
HETATM    7  S2  UNL     1      24.342   8.374   8.657  1.00  0.00    -0.155 SA
ENDROOT
BRANCH   1   8
HETATM    8  C2  UNL     1      21.649   8.966   8.684  1.00  0.00     0.133 C 
HETATM    9  C1  UNL     1      20.564   8.223   9.385  1.00  0.00     0.041 C 
BRANCH   8  10
HETATM   10  O1  UNL     1      21.921   8.337   7.458  1.00  0.00    -0.394 OA
ATOM     11  H1  UNL     1      22.822   8.512   7.211  1.00  0.00     0.210 HD
ENDBRANCH   8  10
ENDBRANCH   1   8
TORSDOF 2
ENDMDL
MODEL 5
REMARK VINA RESULT: -3.748333350      2.088      3.787
REMARK  2 active torsions:
REMARK  status: ('A' for Active; 'I' for Inactive)
REMARK    1  A    between atoms: C2_2  and  O1_3 
REMARK    2  A    between atoms: C2_2  and  C3_5 
ROOT
HETATM    1  C3  UNL     1      23.649   8.897   9.523  1.00  0.00     0.038 C 
HETATM    2  C4  UNL     1      24.081  10.350   9.385  1.00  0.00     0.030 C 
HETATM    3  C5  UNL     1      22.986   8.750  10.863  1.00  0.00     0.096 C 
HETATM    4  S1  UNL     1      21.591   7.569  10.779  1.00  0.00    -0.167 SA
HETATM    5  C6  UNL     1      20.260   8.190   9.751  1.00  0.00     0.084 C 
HETATM    6  C7  UNL     1      20.840   9.210   8.775  1.00  0.00     0.085 C 
HETATM    7  S2  UNL     1      22.456   8.528   8.241  1.00  0.00    -0.155 SA
ENDROOT
BRANCH   1   8
HETATM    8  C2  UNL     1      24.898   8.050   9.428  1.00  0.00     0.133 C 
HETATM    9  C1  UNL     1      25.386   7.582  10.756  1.00  0.00     0.041 C 
BRANCH   8  10
HETATM   10  O1  UNL     1      25.916   8.782   8.794  1.00  0.00    -0.394 OA
ATOM     11  H1  UNL     1      25.557   9.219   8.031  1.00  0.00     0.210 HD
ENDBRANCH   8  10
ENDBRANCH   1   8
TORSDOF 2
ENDMDL
