MODEL 1
REMARK VINA RESULT: -7.014357088      0.000      0.000
REMARK  3 active torsions:
REMARK  status: ('A' for Active; 'I' for Inactive)
REMARK    1  A    between atoms: O1_1  and  C1_3 
REMARK    2  A    between atoms: C8_10  and  O2_11 
REMARK    3  A    between atoms: C13_17  and  O3_18 
ROOT
HETATM    1  C1  UNL     1      22.090  10.061  17.780  1.00  0.00     0.118 C 
HETATM    2  C2  UNL     1      22.810  10.842  16.700  1.00  0.00     0.032 C 
HETATM    3  C3  UNL     1      23.839   9.881  16.099  1.00  0.00     0.011 C 
HETATM    4  C4  UNL     1      23.152   9.043  15.054  1.00  0.00     0.012 C 
HETATM    5  C5  UNL     1      24.170   8.817  13.959  1.00  0.00    -0.025 C 
HETATM    6  C6  UNL     1      23.794   7.897  13.062  1.00  0.00    -0.023 C 
HETATM    7  C7  UNL     1      22.464   7.271  13.299  1.00  0.00     0.043 C 
HETATM    8  C8  UNL     1      21.978   6.457  12.158  1.00  0.00     0.126 C 
HETATM    9  C9  UNL     1      22.962   5.531  11.521  1.00  0.00     0.032 C 
HETATM   10  C10 UNL     1      22.545   4.114  11.868  1.00  0.00     0.002 C 
HETATM   11  C11 UNL     1      23.177   3.631  13.147  1.00  0.00     0.002 C 
HETATM   12  C12 UNL     1      22.439   4.169  14.372  1.00  0.00     0.032 C 
HETATM   13  C13 UNL     1      23.090   5.403  14.904  1.00  0.00     0.123 C 
HETATM   14  C14 UNL     1      22.380   6.670  14.649  1.00  0.00     0.029 C 
HETATM   15  C15 UNL     1      22.895   7.684  15.654  1.00  0.00     0.000 C 
HETATM   16  C16 UNL     1      22.000   7.733  16.865  1.00  0.00     0.008 C 
HETATM   17  C17 UNL     1      21.254   9.010  17.037  1.00  0.00     0.032 C 
ENDROOT
BRANCH   1  18
HETATM   18  O1  UNL     1      21.314  10.875  18.568  1.00  0.00    -0.396 OA
ATOM     19  H1  UNL     1      20.392  10.802  18.351  1.00  0.00     0.210 HD
ENDBRANCH   1  18
BRANCH  13  20
HETATM   20  O3  UNL     1      24.463   5.477  14.590  1.00  0.00    -0.395 OA
ATOM     21  H3  UNL     1      25.011   5.040  15.230  1.00  0.00     0.210 HD
ENDBRANCH  13  20
BRANCH   8  22
HETATM   22  O2  UNL     1      21.577   7.362  11.138  1.00  0.00    -0.395 OA
ATOM     23  H2  UNL     1      21.381   6.844  10.365  1.00  0.00     0.210 HD
ENDBRANCH   8  22
TORSDOF 3
ENDMDL
MODEL 2
REMARK VINA RESULT: -6.916046769      3.730      7.220
REMARK  3 active torsions:
REMARK  status: ('A' for Active; 'I' for Inactive)
REMARK    1  A    between atoms: O1_1  and  C1_3 
REMARK    2  A    between atoms: C8_10  and  O2_11 
REMARK    3  A    between atoms: C13_17  and  O3_18 
ROOT
HETATM    1  C1  UNL     1      23.144   7.603  11.870  1.00  0.00     0.118 C 
HETATM    2  C2  UNL     1      23.117   7.501  13.381  1.00  0.00     0.032 C 
HETATM    3  C3  UNL     1      23.907   8.707  13.898  1.00  0.00     0.011 C 
HETATM    4  C4  UNL     1      22.984   9.894  13.947  1.00  0.00     0.012 C 
HETATM    5  C5  UNL     1      23.397  10.699  15.159  1.00  0.00    -0.025 C 
HETATM    6  C6  UNL     1      22.827  11.908  15.216  1.00  0.00    -0.023 C 
HETATM    7  C7  UNL     1      21.904  12.240  14.096  1.00  0.00     0.043 C 
HETATM    8  C8  UNL     1      21.105  13.469  14.327  1.00  0.00     0.126 C 
HETATM    9  C9  UNL     1      21.834  14.657  14.863  1.00  0.00     0.032 C 
HETATM   10  C10 UNL     1      21.901  15.691  13.755  1.00  0.00     0.002 C 
HETATM   11  C11 UNL     1      23.133  15.535  12.904  1.00  0.00     0.002 C 
HETATM   12  C12 UNL     1      22.964  14.416  11.877  1.00  0.00     0.032 C 
HETATM   13  C13 UNL     1      23.544  13.130  12.370  1.00  0.00     0.123 C 
HETATM   14  C14 UNL     1      22.573  12.099  12.783  1.00  0.00     0.029 C 
HETATM   15  C15 UNL     1      23.296  10.765  12.758  1.00  0.00     0.000 C 
HETATM   16  C16 UNL     1      23.077  10.067  11.441  1.00  0.00     0.008 C 
HETATM   17  C17 UNL     1      22.271   8.818  11.525  1.00  0.00     0.032 C 
ENDROOT
BRANCH   1  18
HETATM   18  O1  UNL     1      22.686   6.453  11.273  1.00  0.00    -0.396 OA
ATOM     19  H1  UNL     1      23.397   5.939  10.907  1.00  0.00     0.210 HD
ENDBRANCH   1  18
BRANCH  13  20
HETATM   20  O3  UNL     1      24.570  13.320  13.317  1.00  0.00    -0.395 OA
ATOM     21  H3  UNL     1      24.517  14.160  13.755  1.00  0.00     0.210 HD
ENDBRANCH  13  20
BRANCH   8  22
HETATM   22  O2  UNL     1      20.114  13.149  15.293  1.00  0.00    -0.395 OA
ATOM     23  H2  UNL     1      20.288  12.263  15.590  1.00  0.00     0.210 HD
ENDBRANCH   8  22
TORSDOF 3
ENDMDL
MODEL 3
REMARK VINA RESULT: -6.749437259      2.878      3.525
REMARK  3 active torsions:
REMARK  status: ('A' for Active; 'I' for Inactive)
REMARK    1  A    between atoms: O1_1  and  C1_3 
REMARK    2  A    between atoms: C8_10  and  O2_11 
REMARK    3  A    between atoms: C13_17  and  O3_18 
ROOT
HETATM    1  C1  UNL     1      22.047  14.038  14.318  1.00  0.00     0.118 C 
HETATM    2  C2  UNL     1      22.637  14.088  12.923  1.00  0.00     0.032 C 
HETATM    3  C3  UNL     1      23.732  13.018  12.890  1.00  0.00     0.011 C 
HETATM    4  C4  UNL     1      23.089  11.691  12.586  1.00  0.00     0.012 C 
HETATM    5  C5  UNL     1      24.077  10.931  11.730  1.00  0.00    -0.025 C 
HETATM    6  C6  UNL     1      23.758   9.642  11.565  1.00  0.00    -0.023 C 
HETATM    7  C7  UNL     1      22.509   9.194  12.241  1.00  0.00     0.043 C 
HETATM    8  C8  UNL     1      22.060   7.842  11.826  1.00  0.00     0.126 C 
HETATM    9  C9  UNL     1      23.105   6.777  11.749  1.00  0.00     0.032 C 
HETATM   10  C10 UNL     1      22.849   5.803  12.883  1.00  0.00     0.002 C 
HETATM   11  C11 UNL     1      23.581   6.190  14.141  1.00  0.00     0.002 C 
HETATM   12  C12 UNL     1      22.845   7.295  14.898  1.00  0.00     0.032 C 
HETATM   13  C13 UNL     1      23.390   8.644  14.561  1.00  0.00     0.123 C 
HETATM   14  C14 UNL     1      22.545   9.484  13.692  1.00  0.00     0.029 C 
HETATM   15  C15 UNL     1      22.997  10.921  13.878  1.00  0.00     0.000 C 
HETATM   16  C16 UNL     1      22.154  11.612  14.919  1.00  0.00     0.008 C 
HETATM   17  C17 UNL     1      21.290  12.705  14.395  1.00  0.00     0.032 C 
ENDROOT
BRANCH   1  18
HETATM   18  O1  UNL     1      21.227  15.113  14.563  1.00  0.00    -0.396 OA
ATOM     19  H1  UNL     1      20.650  15.291  13.829  1.00  0.00     0.210 HD
ENDBRANCH   1  18
BRANCH  13  20
HETATM   20  O3  UNL     1      24.733   8.601  14.135  1.00  0.00    -0.395 OA
ATOM     21  H3  UNL     1      25.336   8.950  14.780  1.00  0.00     0.210 HD
ENDBRANCH  13  20
BRANCH   8  22
HETATM   22  O2  UNL     1      21.527   7.962  10.515  1.00  0.00    -0.395 OA
ATOM     23  H2  UNL     1      22.261   7.939   9.911  1.00  0.00     0.210 HD
ENDBRANCH   8  22
TORSDOF 3
ENDMDL
MODEL 4
REMARK VINA RESULT: -6.043079490      4.510      7.709
REMARK  3 active torsions:
REMARK  status: ('A' for Active; 'I' for Inactive)
REMARK    1  A    between atoms: O1_1  and  C1_3 
REMARK    2  A    between atoms: C8_10  and  O2_11 
REMARK    3  A    between atoms: C13_17  and  O3_18 
ROOT
HETATM    1  C1  UNL     1      23.183   8.408  12.708  1.00  0.00     0.118 C 
HETATM    2  C2  UNL     1      22.949   8.616  14.190  1.00  0.00     0.032 C 
HETATM    3  C3  UNL     1      23.758   9.858  14.575  1.00  0.00     0.011 C 
HETATM    4  C4  UNL     1      22.934  11.077  14.258  1.00  0.00     0.012 C 
HETATM    5  C5  UNL     1      23.247  12.088  15.339  1.00  0.00    -0.025 C 
HETATM    6  C6  UNL     1      22.773  13.312  15.078  1.00  0.00    -0.023 C 
HETATM    7  C7  UNL     1      22.036  13.458  13.793  1.00  0.00     0.043 C 
HETATM    8  C8  UNL     1      21.315  14.749  13.663  1.00  0.00     0.126 C 
HETATM    9  C9  UNL     1      22.060  15.981  14.060  1.00  0.00     0.032 C 
HETATM   10  C10 UNL     1      22.355  16.764  12.796  1.00  0.00     0.002 C 
HETATM   11  C11 UNL     1      23.673  16.374  12.179  1.00  0.00     0.002 C 
HETATM   12  C12 UNL     1      23.552  15.081  11.374  1.00  0.00     0.032 C 
HETATM   13  C13 UNL     1      23.956  13.894  12.185  1.00  0.00     0.123 C 
HETATM   14  C14 UNL     1      22.859  13.020  12.643  1.00  0.00     0.029 C 
HETATM   15  C15 UNL     1      23.470  11.673  12.982  1.00  0.00     0.000 C 
HETATM   16  C16 UNL     1      23.371  10.735  11.807  1.00  0.00     0.008 C 
HETATM   17  C17 UNL     1      22.464   9.572  12.012  1.00  0.00     0.032 C 
ENDROOT
BRANCH   1  18
HETATM   18  O1  UNL     1      22.718   7.187  12.285  1.00  0.00    -0.396 OA
ATOM     19  H1  UNL     1      21.880   6.972  12.679  1.00  0.00     0.210 HD
ENDBRANCH   1  18
BRANCH  13  20
HETATM   20  O3  UNL     1      24.860  14.216  13.216  1.00  0.00    -0.395 OA
ATOM     21  H3  UNL     1      25.763  14.031  12.987  1.00  0.00     0.210 HD
ENDBRANCH  13  20
BRANCH   8  22
HETATM   22  O2  UNL     1      20.183  14.683  14.519  1.00  0.00    -0.395 OA
ATOM     23  H2  UNL     1      20.460  14.249  15.317  1.00  0.00     0.210 HD
ENDBRANCH   8  22
TORSDOF 3
ENDMDL
MODEL 5
REMARK VINA RESULT: -6.028553257      3.450      7.745
REMARK  3 active torsions:
REMARK  status: ('A' for Active; 'I' for Inactive)
REMARK    1  A    between atoms: O1_1  and  C1_3 
REMARK    2  A    between atoms: C8_10  and  O2_11 
REMARK    3  A    between atoms: C13_17  and  O3_18 
ROOT
HETATM    1  C1  UNL     1      23.525  10.497  12.064  1.00  0.00     0.118 C 
HETATM    2  C2  UNL     1      23.193   9.361  13.010  1.00  0.00     0.032 C 
HETATM    3  C3  UNL     1      23.651   9.821  14.397  1.00  0.00     0.011 C 
HETATM    4  C4  UNL     1      22.559  10.663  15.001  1.00  0.00     0.012 C 
HETATM    5  C5  UNL     1      22.569  10.363  16.484  1.00  0.00    -0.025 C 
HETATM    6  C6  UNL     1      21.813  11.202  17.202  1.00  0.00    -0.023 C 
HETATM    7  C7  UNL     1      21.110  12.262  16.428  1.00  0.00     0.043 C 
HETATM    8  C8  UNL     1      20.094  13.000  17.217  1.00  0.00     0.126 C 
HETATM    9  C9  UNL     1      20.490  13.436  18.590  1.00  0.00     0.032 C 
HETATM   10  C10 UNL     1      20.625  14.947  18.568  1.00  0.00     0.002 C 
HETATM   11  C11 UNL     1      22.020  15.389  18.210  1.00  0.00     0.002 C 
HETATM   12  C12 UNL     1      22.256  15.326  16.702  1.00  0.00     0.032 C 
HETATM   13  C13 UNL     1      22.916  14.046  16.306  1.00  0.00     0.123 C 
HETATM   14  C14 UNL     1      22.058  13.061  15.620  1.00  0.00     0.029 C 
HETATM   15  C15 UNL     1      22.974  12.106  14.878  1.00  0.00     0.000 C 
HETATM   16  C16 UNL     1      23.157  12.548  13.449  1.00  0.00     0.008 C 
HETATM   17  C17 UNL     1      22.563  11.634  12.434  1.00  0.00     0.032 C 
ENDROOT
BRANCH   1  18
HETATM   18  O1  UNL     1      23.397  10.119  10.749  1.00  0.00    -0.396 OA
ATOM     19  H1  UNL     1      23.150   9.206  10.667  1.00  0.00     0.210 HD
ENDBRANCH   1  18
BRANCH  13  20
HETATM   20  O3  UNL     1      23.673  13.474  17.348  1.00  0.00    -0.395 OA
ATOM     21  H3  UNL     1      23.164  12.884  17.892  1.00  0.00     0.210 HD
ENDBRANCH  13  20
BRANCH   8  22
HETATM   22  O2  UNL     1      18.984  12.130  17.390  1.00  0.00    -0.395 OA
ATOM     23  H2  UNL     1      19.323  11.242  17.400  1.00  0.00     0.210 HD
ENDBRANCH   8  22
TORSDOF 3
ENDMDL
