MODEL 1
REMARK VINA RESULT: -7.382365139      0.000      0.000
REMARK  2 active torsions:
REMARK  status: ('A' for Active; 'I' for Inactive)
REMARK    1  A    between atoms: C5_5  and  O1_6 
REMARK    2  A    between atoms: C13_15  and  O2_16 
ROOT
HETATM    1  C1  UNL     1      22.800   6.883  17.090  1.00  0.00     0.016 C 
HETATM    2  C2  UNL     1      22.720   5.739  16.096  1.00  0.00    -0.036 C 
HETATM    3  C3  UNL     1      21.337   5.182  16.146  1.00  0.00     0.012 C 
HETATM    4  C4  UNL     1      21.025   4.614  17.504  1.00  0.00     0.032 C 
HETATM    5  C5  UNL     1      22.070   3.685  18.027  1.00  0.00     0.118 C 
HETATM    6  C6  UNL     1      23.470   4.133  17.782  1.00  0.00     0.037 C 
HETATM    7  C7  UNL     1      23.715   4.670  16.417  1.00  0.00    -0.004 C 
HETATM    8  C8  UNL     1      23.653   3.591  15.372  1.00  0.00     0.006 C 
HETATM    9  C9  UNL     1      23.860   4.136  13.991  1.00  0.00     0.006 C 
HETATM   10  C10 UNL     1      22.896   5.260  13.666  1.00  0.00    -0.005 C 
HETATM   11  C11 UNL     1      23.295   5.834  12.330  1.00  0.00    -0.004 C 
HETATM   12  C12 UNL     1      22.184   5.643  11.289  1.00  0.00     0.037 C 
HETATM   13  C13 UNL     1      22.323   6.766  10.312  1.00  0.00     0.118 C 
HETATM   14  C14 UNL     1      23.431   7.657  10.860  1.00  0.00     0.036 C 
HETATM   15  C15 UNL     1      23.428   7.330  12.343  1.00  0.00    -0.008 C 
HETATM   16  C16 UNL     1      22.221   7.922  13.020  1.00  0.00     0.005 C 
HETATM   17  C17 UNL     1      22.281   7.555  14.486  1.00  0.00     0.006 C 
HETATM   18  C18 UNL     1      23.040   6.299  14.741  1.00  0.00    -0.002 C 
ENDROOT
BRANCH   5  19
HETATM   19  O1  UNL     1      21.892   3.609  19.430  1.00  0.00    -0.396 OA
ATOM     20  H1  UNL     1      22.624   4.063  19.829  1.00  0.00     0.210 HD
ENDBRANCH   5  19
BRANCH  13  21
HETATM   21  O2  UNL     1      21.173   7.524  10.159  1.00  0.00    -0.396 OA
ATOM     22  H2  UNL     1      20.375   7.065  10.394  1.00  0.00     0.210 HD
ENDBRANCH  13  21
TORSDOF 2
ENDMDL
MODEL 2
REMARK VINA RESULT: -7.207519299      1.656      6.367
REMARK  2 active torsions:
REMARK  status: ('A' for Active; 'I' for Inactive)
REMARK    1  A    between atoms: C5_5  and  O1_6 
REMARK    2  A    between atoms: C13_15  and  O2_16 
ROOT
HETATM    1  C1  UNL     1      24.664   4.182  14.823  1.00  0.00     0.016 C 
HETATM    2  C2  UNL     1      23.374   4.922  15.123  1.00  0.00    -0.036 C 
HETATM    3  C3  UNL     1      22.249   4.146  14.524  1.00  0.00     0.012 C 
HETATM    4  C4  UNL     1      22.377   4.065  13.028  1.00  0.00     0.032 C 
HETATM    5  C5  UNL     1      22.622   5.382  12.368  1.00  0.00     0.118 C 
HETATM    6  C6  UNL     1      23.587   6.260  13.087  1.00  0.00     0.037 C 
HETATM    7  C7  UNL     1      23.398   6.307  14.561  1.00  0.00    -0.004 C 
HETATM    8  C8  UNL     1      22.134   7.029  14.940  1.00  0.00     0.006 C 
HETATM    9  C9  UNL     1      21.920   7.043  16.424  1.00  0.00     0.006 C 
HETATM   10  C10 UNL     1      21.948   5.651  17.021  1.00  0.00    -0.005 C 
HETATM   11  C11 UNL     1      21.885   5.795  18.522  1.00  0.00    -0.004 C 
HETATM   12  C12 UNL     1      20.610   5.155  19.087  1.00  0.00     0.037 C 
HETATM   13  C13 UNL     1      20.938   4.721  20.480  1.00  0.00     0.118 C 
HETATM   14  C14 UNL     1      22.423   5.005  20.664  1.00  0.00     0.036 C 
HETATM   15  C15 UNL     1      22.947   5.012  19.237  1.00  0.00    -0.008 C 
HETATM   16  C16 UNL     1      22.988   3.616  18.676  1.00  0.00     0.005 C 
HETATM   17  C17 UNL     1      23.512   3.698  17.260  1.00  0.00     0.006 C 
HETATM   18  C18 UNL     1      23.247   5.014  16.616  1.00  0.00    -0.002 C 
ENDROOT
BRANCH   5  19
HETATM   19  O1  UNL     1      23.170   5.110  11.091  1.00  0.00    -0.396 OA
ATOM     20  H1  UNL     1      23.745   4.360  11.188  1.00  0.00     0.210 HD
ENDBRANCH   5  19
BRANCH  13  21
HETATM   21  O2  UNL     1      20.706   3.376  20.720  1.00  0.00    -0.396 OA
ATOM     22  H2  UNL     1      20.744   2.834  19.941  1.00  0.00     0.210 HD
ENDBRANCH  13  21
TORSDOF 2
ENDMDL
MODEL 3
REMARK VINA RESULT: -7.167804354      1.222      2.645
REMARK  2 active torsions:
REMARK  status: ('A' for Active; 'I' for Inactive)
REMARK    1  A    between atoms: C5_5  and  O1_6 
REMARK    2  A    between atoms: C13_15  and  O2_16 
ROOT
HETATM    1  C1  UNL     1      22.117   3.212  14.838  1.00  0.00     0.016 C 
HETATM    2  C2  UNL     1      22.520   4.654  15.089  1.00  0.00    -0.036 C 
HETATM    3  C3  UNL     1      23.983   4.679  15.379  1.00  0.00     0.012 C 
HETATM    4  C4  UNL     1      24.306   3.904  16.627  1.00  0.00     0.032 C 
HETATM    5  C5  UNL     1      23.451   4.257  17.799  1.00  0.00     0.118 C 
HETATM    6  C6  UNL     1      22.010   4.453  17.472  1.00  0.00     0.037 C 
HETATM    7  C7  UNL     1      21.759   5.239  16.235  1.00  0.00    -0.004 C 
HETATM    8  C8  UNL     1      22.135   6.685  16.406  1.00  0.00     0.006 C 
HETATM    9  C9  UNL     1      21.921   7.472  15.148  1.00  0.00     0.006 C 
HETATM   10  C10 UNL     1      22.639   6.863  13.961  1.00  0.00    -0.005 C 
HETATM   11  C11 UNL     1      22.229   7.635  12.732  1.00  0.00    -0.004 C 
HETATM   12  C12 UNL     1      23.432   8.341  12.092  1.00  0.00     0.037 C 
HETATM   13  C13 UNL     1      23.127   8.454  10.632  1.00  0.00     0.118 C 
HETATM   14  C14 UNL     1      21.814   7.712  10.424  1.00  0.00     0.036 C 
HETATM   15  C15 UNL     1      21.773   6.755  11.604  1.00  0.00    -0.008 C 
HETATM   16  C16 UNL     1      22.767   5.639  11.422  1.00  0.00     0.005 C 
HETATM   17  C17 UNL     1      22.675   4.732  12.628  1.00  0.00     0.006 C 
HETATM   18  C18 UNL     1      22.191   5.434  13.849  1.00  0.00    -0.002 C 
ENDROOT
BRANCH   5  19
HETATM   19  O1  UNL     1      23.533   3.179  18.712  1.00  0.00    -0.396 OA
ATOM     20  H1  UNL     1      24.423   2.851  18.678  1.00  0.00     0.210 HD
ENDBRANCH   5  19
BRANCH  13  21
HETATM   21  O2  UNL     1      24.093   7.895   9.811  1.00  0.00    -0.396 OA
ATOM     22  H2  UNL     1      23.805   7.116   9.352  1.00  0.00     0.210 HD
ENDBRANCH  13  21
TORSDOF 2
ENDMDL
MODEL 4
REMARK VINA RESULT: -6.797624093      1.155      6.132
REMARK  2 active torsions:
REMARK  status: ('A' for Active; 'I' for Inactive)
REMARK    1  A    between atoms: C5_5  and  O1_6 
REMARK    2  A    between atoms: C13_15  and  O2_16 
ROOT
HETATM    1  C1  UNL     1      23.042   4.389  11.611  1.00  0.00     0.016 C 
HETATM    2  C2  UNL     1      22.854   5.605  12.499  1.00  0.00    -0.036 C 
HETATM    3  C3  UNL     1      21.501   6.170  12.225  1.00  0.00     0.012 C 
HETATM    4  C4  UNL     1      21.381   6.637  10.801  1.00  0.00     0.032 C 
HETATM    5  C5  UNL     1      22.504   7.514  10.354  1.00  0.00     0.118 C 
HETATM    6  C6  UNL     1      23.850   7.073  10.815  1.00  0.00     0.037 C 
HETATM    7  C7  UNL     1      23.903   6.638  12.236  1.00  0.00    -0.004 C 
HETATM    8  C8  UNL     1      23.725   7.793  13.182  1.00  0.00     0.006 C 
HETATM    9  C9  UNL     1      23.738   7.351  14.614  1.00  0.00     0.006 C 
HETATM   10  C10 UNL     1      22.718   6.264  14.889  1.00  0.00    -0.005 C 
HETATM   11  C11 UNL     1      22.927   5.788  16.305  1.00  0.00    -0.004 C 
HETATM   12  C12 UNL     1      21.692   6.067  17.172  1.00  0.00     0.037 C 
HETATM   13  C13 UNL     1      21.680   5.018  18.239  1.00  0.00     0.118 C 
HETATM   14  C14 UNL     1      22.833   4.079  17.910  1.00  0.00     0.036 C 
HETATM   15  C15 UNL     1      23.032   4.294  16.419  1.00  0.00    -0.008 C 
HETATM   16  C16 UNL     1      21.913   3.664  15.633  1.00  0.00     0.005 C 
HETATM   17  C17 UNL     1      22.173   3.919  14.165  1.00  0.00     0.006 C 
HETATM   18  C18 UNL     1      22.982   5.145  13.922  1.00  0.00    -0.002 C 
ENDROOT
BRANCH   5  19
HETATM   19  O1  UNL     1      22.513   7.487   8.938  1.00  0.00    -0.396 OA
ATOM     20  H1  UNL     1      21.893   8.142   8.642  1.00  0.00     0.210 HD
ENDBRANCH   5  19
BRANCH  13  21
HETATM   21  O2  UNL     1      20.505   4.285  18.293  1.00  0.00    -0.396 OA
ATOM     22  H2  UNL     1      20.548   3.531  18.868  1.00  0.00     0.210 HD
ENDBRANCH  13  21
TORSDOF 2
ENDMDL
MODEL 5
REMARK VINA RESULT: -6.534240274      3.117      4.985
REMARK  2 active torsions:
REMARK  status: ('A' for Active; 'I' for Inactive)
REMARK    1  A    between atoms: C5_5  and  O1_6 
REMARK    2  A    between atoms: C13_15  and  O2_16 
ROOT
HETATM    1  C1  UNL     1      23.611   9.780  15.664  1.00  0.00     0.016 C 
HETATM    2  C2  UNL     1      22.854   8.808  16.551  1.00  0.00    -0.036 C 
HETATM    3  C3  UNL     1      21.395   9.059  16.366  1.00  0.00     0.012 C 
HETATM    4  C4  UNL     1      21.020  10.447  16.807  1.00  0.00     0.032 C 
HETATM    5  C5  UNL     1      21.530  10.813  18.161  1.00  0.00     0.118 C 
HETATM    6  C6  UNL     1      22.924  10.366  18.435  1.00  0.00     0.037 C 
HETATM    7  C7  UNL     1      23.227   8.980  17.988  1.00  0.00    -0.004 C 
HETATM    8  C8  UNL     1      22.510   7.955  18.823  1.00  0.00     0.006 C 
HETATM    9  C9  UNL     1      22.781   6.558  18.349  1.00  0.00     0.006 C 
HETATM   10  C10 UNL     1      22.462   6.378  16.879  1.00  0.00    -0.005 C 
HETATM   11  C11 UNL     1      22.918   4.998  16.477  1.00  0.00    -0.004 C 
HETATM   12  C12 UNL     1      21.735   4.130  16.028  1.00  0.00     0.037 C 
HETATM   13  C13 UNL     1      22.283   3.144  15.047  1.00  0.00     0.118 C 
HETATM   14  C14 UNL     1      23.744   3.524  14.849  1.00  0.00     0.036 C 
HETATM   15  C15 UNL     1      23.770   4.992  15.240  1.00  0.00    -0.008 C 
HETATM   16  C16 UNL     1      23.107   5.838  14.186  1.00  0.00     0.005 C 
HETATM   17  C17 UNL     1      23.164   7.279  14.640  1.00  0.00     0.006 C 
HETATM   18  C18 UNL     1      23.233   7.421  16.121  1.00  0.00    -0.002 C 
ENDROOT
BRANCH   5  19
HETATM   19  O1  UNL     1      21.517  12.226  18.242  1.00  0.00    -0.396 OA
ATOM     20  H1  UNL     1      21.872  12.460  19.091  1.00  0.00     0.210 HD
ENDBRANCH   5  19
BRANCH  13  21
HETATM   21  O2  UNL     1      21.645   3.160  13.817  1.00  0.00    -0.396 OA
ATOM     22  H2  UNL     1      20.755   2.829  13.840  1.00  0.00     0.210 HD
ENDBRANCH  13  21
TORSDOF 2
ENDMDL
