MODEL 1
REMARK VINA RESULT: -5.576998218      0.000      0.000
REMARK  3 active torsions:
REMARK  status: ('A' for Active; 'I' for Inactive)
REMARK    1  A    between atoms: C5_5  and  O1_7 
REMARK    2  A    between atoms: C12_14  and  C13_15 
REMARK    3  A    between atoms: C13_15  and  O2_16 
ROOT
HETATM    1  C1  UNL     1      24.379  15.281  17.930  1.00  0.00     0.015 C 
HETATM    2  C2  UNL     1      22.991  14.958  17.395  1.00  0.00    -0.038 C 
HETATM    3  C3  UNL     1      22.295  13.930  18.176  1.00  0.00     0.012 C 
HETATM    4  C4  UNL     1      20.808  13.978  17.968  1.00  0.00     0.039 C 
HETATM    5  C5  UNL     1      20.424  14.635  16.663  1.00  0.00     0.062 C 
HETATM    6  C6  UNL     1      19.290  15.622  17.038  1.00  0.00     0.046 C 
HETATM    7  C7  UNL     1      21.485  15.443  16.082  1.00  0.00    -0.004 C 
HETATM    8  C8  UNL     1      21.181  16.148  14.820  1.00  0.00     0.014 C 
HETATM    9  C9  UNL     1      21.423  15.195  13.673  1.00  0.00     0.011 C 
HETATM   10  C10 UNL     1      22.747  14.560  13.623  1.00  0.00    -0.034 C 
HETATM   11  C11 UNL     1      23.775  15.542  13.050  1.00  0.00     0.016 C 
HETATM   12  C12 UNL     1      22.768  13.349  12.760  1.00  0.00     0.018 C 
HETATM   13  C14 UNL     1      22.313  12.241  13.646  1.00  0.00     0.008 C 
HETATM   14  C15 UNL     1      22.892  12.580  15.024  1.00  0.00     0.006 C 
HETATM   15  C16 UNL     1      23.243  14.002  14.971  1.00  0.00    -0.000 C 
HETATM   16  C17 UNL     1      22.893  14.963  15.950  1.00  0.00     0.010 C 
HETATM   17  C18 UNL     1      22.134  16.246  17.229  1.00  0.00     0.022 C 
ENDROOT
BRANCH   5  18
HETATM   18  O1  UNL     1      19.767  13.749  15.798  1.00  0.00    -0.389 OA
ATOM     19  H1  UNL     1      19.048  14.166  15.337  1.00  0.00     0.210 HD
ENDBRANCH   5  18
BRANCH  12  20
HETATM   20  C13 UNL     1      24.175  13.006  12.280  1.00  0.00     0.169 C 
BRANCH  20  21
HETATM   21  O2  UNL     1      24.027  11.956  11.354  1.00  0.00    -0.400 OA
ATOM     22  H2  UNL     1      23.233  12.142  10.867  1.00  0.00     0.209 HD
ENDBRANCH  20  21
ENDBRANCH  12  20
TORSDOF 3
ENDMDL
MODEL 2
REMARK VINA RESULT: -5.344852152      1.648      1.906
REMARK  3 active torsions:
REMARK  status: ('A' for Active; 'I' for Inactive)
REMARK    1  A    between atoms: C5_5  and  O1_7 
REMARK    2  A    between atoms: C12_14  and  C13_15 
REMARK    3  A    between atoms: C13_15  and  O2_16 
ROOT
HETATM    1  C1  UNL     1      24.341  15.242  17.547  1.00  0.00     0.015 C 
HETATM    2  C2  UNL     1      23.155  14.591  16.849  1.00  0.00    -0.038 C 
HETATM    3  C3  UNL     1      23.138  13.130  16.980  1.00  0.00     0.012 C 
HETATM    4  C4  UNL     1      21.767  12.561  16.742  1.00  0.00     0.039 C 
HETATM    5  C5  UNL     1      20.893  13.475  15.916  1.00  0.00     0.062 C 
HETATM    6  C6  UNL     1      19.540  13.512  16.669  1.00  0.00     0.046 C 
HETATM    7  C7  UNL     1      21.365  14.850  15.869  1.00  0.00    -0.004 C 
HETATM    8  C8  UNL     1      20.550  15.817  15.108  1.00  0.00     0.014 C 
HETATM    9  C9  UNL     1      20.954  15.740  13.654  1.00  0.00     0.011 C 
HETATM   10  C10 UNL     1      22.385  15.909  13.367  1.00  0.00    -0.034 C 
HETATM   11  C11 UNL     1      22.754  17.396  13.413  1.00  0.00     0.016 C 
HETATM   12  C12 UNL     1      22.761  15.403  12.021  1.00  0.00     0.018 C 
HETATM   13  C14 UNL     1      23.011  13.948  12.216  1.00  0.00     0.008 C 
HETATM   14  C15 UNL     1      23.640  13.843  13.610  1.00  0.00     0.006 C 
HETATM   15  C16 UNL     1      23.323  15.103  14.287  1.00  0.00    -0.000 C 
HETATM   16  C17 UNL     1      22.788  15.213  15.593  1.00  0.00     0.010 C 
HETATM   17  C18 UNL     1      21.811  15.233  17.297  1.00  0.00     0.022 C 
ENDROOT
BRANCH   5  18
HETATM   18  O1  UNL     1      20.531  12.896  14.692  1.00  0.00    -0.389 OA
ATOM     19  H1  UNL     1      21.238  12.387  14.314  1.00  0.00     0.210 HD
ENDBRANCH   5  18
BRANCH  12  20
HETATM   20  C13 UNL     1      24.056  16.028  11.510  1.00  0.00     0.169 C 
BRANCH  20  21
HETATM   21  O2  UNL     1      23.852  16.287  10.141  1.00  0.00    -0.400 OA
ATOM     22  H2  UNL     1      24.638  16.727   9.835  1.00  0.00     0.209 HD
ENDBRANCH  20  21
ENDBRANCH  12  20
TORSDOF 3
ENDMDL
MODEL 3
REMARK VINA RESULT: -5.310516176      1.637      3.355
REMARK  3 active torsions:
REMARK  status: ('A' for Active; 'I' for Inactive)
REMARK    1  A    between atoms: C5_5  and  O1_7 
REMARK    2  A    between atoms: C12_14  and  C13_15 
REMARK    3  A    between atoms: C13_15  and  O2_16 
ROOT
HETATM    1  C1  UNL     1      18.242  12.325  16.315  1.00  0.00     0.015 C 
HETATM    2  C2  UNL     1      19.369  13.277  16.690  1.00  0.00    -0.038 C 
HETATM    3  C3  UNL     1      18.959  14.685  16.694  1.00  0.00     0.012 C 
HETATM    4  C4  UNL     1      19.883  15.536  17.519  1.00  0.00     0.039 C 
HETATM    5  C5  UNL     1      21.253  14.921  17.680  1.00  0.00     0.062 C 
HETATM    6  C6  UNL     1      21.570  15.058  19.190  1.00  0.00     0.046 C 
HETATM    7  C7  UNL     1      21.291  13.496  17.388  1.00  0.00    -0.004 C 
HETATM    8  C8  UNL     1      22.588  12.809  17.553  1.00  0.00     0.014 C 
HETATM    9  C9  UNL     1      23.384  12.984  16.280  1.00  0.00     0.011 C 
HETATM   10  C10 UNL     1      22.718  12.574  15.036  1.00  0.00    -0.034 C 
HETATM   11  C11 UNL     1      22.779  11.049  14.890  1.00  0.00     0.016 C 
HETATM   12  C12 UNL     1      23.358  13.158  13.827  1.00  0.00     0.018 C 
HETATM   13  C14 UNL     1      22.731  14.501  13.675  1.00  0.00     0.008 C 
HETATM   14  C15 UNL     1      21.280  14.308  14.127  1.00  0.00     0.006 C 
HETATM   15  C16 UNL     1      21.263  13.060  14.896  1.00  0.00    -0.000 C 
HETATM   16  C17 UNL     1      20.667  12.898  16.170  1.00  0.00     0.010 C 
HETATM   17  C18 UNL     1      20.040  12.860  18.031  1.00  0.00     0.022 C 
ENDROOT
BRANCH   5  18
HETATM   18  O1  UNL     1      22.257  15.706  17.097  1.00  0.00    -0.389 OA
ATOM     19  H1  UNL     1      23.070  15.226  16.990  1.00  0.00     0.210 HD
ENDBRANCH   5  18
BRANCH  12  20
HETATM   20  C13 UNL     1      23.046  12.359  12.566  1.00  0.00     0.169 C 
BRANCH  20  21
HETATM   21  O2  UNL     1      23.904  12.854  11.566  1.00  0.00    -0.400 OA
ATOM     22  H2  UNL     1      23.633  12.440  10.755  1.00  0.00     0.209 HD
ENDBRANCH  20  21
ENDBRANCH  12  20
TORSDOF 3
ENDMDL
MODEL 4
REMARK VINA RESULT: -4.878223133      2.066      5.317
REMARK  3 active torsions:
REMARK  status: ('A' for Active; 'I' for Inactive)
REMARK    1  A    between atoms: C5_5  and  O1_7 
REMARK    2  A    between atoms: C12_14  and  C13_15 
REMARK    3  A    between atoms: C13_15  and  O2_16 
ROOT
HETATM    1  C1  UNL     1      22.933  16.051  18.100  1.00  0.00     0.015 C 
HETATM    2  C2  UNL     1      22.435  15.100  17.021  1.00  0.00    -0.038 C 
HETATM    3  C3  UNL     1      22.188  15.762  15.736  1.00  0.00     0.012 C 
HETATM    4  C4  UNL     1      22.189  14.786  14.593  1.00  0.00     0.039 C 
HETATM    5  C5  UNL     1      21.889  13.372  15.033  1.00  0.00     0.062 C 
HETATM    6  C6  UNL     1      22.960  12.505  14.327  1.00  0.00     0.046 C 
HETATM    7  C7  UNL     1      22.071  13.155  16.460  1.00  0.00    -0.004 C 
HETATM    8  C8  UNL     1      21.829  11.790  16.970  1.00  0.00     0.014 C 
HETATM    9  C9  UNL     1      20.351  11.639  17.242  1.00  0.00     0.011 C 
HETATM   10  C10 UNL     1      19.745  12.649  18.120  1.00  0.00    -0.034 C 
HETATM   11  C11 UNL     1      20.068  12.331  19.584  1.00  0.00     0.016 C 
HETATM   12  C12 UNL     1      18.263  12.698  17.997  1.00  0.00     0.018 C 
HETATM   13  C14 UNL     1      18.005  13.602  16.841  1.00  0.00     0.008 C 
HETATM   14  C15 UNL     1      19.105  14.666  16.925  1.00  0.00     0.006 C 
HETATM   15  C16 UNL     1      20.141  14.102  17.795  1.00  0.00    -0.000 C 
HETATM   16  C17 UNL     1      21.526  14.078  17.500  1.00  0.00     0.010 C 
HETATM   17  C18 UNL     1      23.375  13.869  16.873  1.00  0.00     0.022 C 
ENDROOT
BRANCH   5  18
HETATM   18  O1  UNL     1      20.701  12.885  14.473  1.00  0.00    -0.389 OA
ATOM     19  H1  UNL     1      20.722  11.943  14.352  1.00  0.00     0.210 HD
ENDBRANCH   5  18
BRANCH  12  20
HETATM   20  C13 UNL     1      17.602  13.319  19.224  1.00  0.00     0.169 C 
BRANCH  20  21
HETATM   21  O2  UNL     1      16.230  13.416  18.923  1.00  0.00    -0.400 OA
ATOM     22  H2  UNL     1      15.823  12.641  19.293  1.00  0.00     0.209 HD
ENDBRANCH  20  21
ENDBRANCH  12  20
TORSDOF 3
ENDMDL
MODEL 5
REMARK VINA RESULT: -4.862061611      1.773      3.545
REMARK  3 active torsions:
REMARK  status: ('A' for Active; 'I' for Inactive)
REMARK    1  A    between atoms: C5_5  and  O1_7 
REMARK    2  A    between atoms: C12_14  and  C13_15 
REMARK    3  A    between atoms: C13_15  and  O2_16 
ROOT
HETATM    1  C1  UNL     1      19.403  16.218  14.430  1.00  0.00     0.015 C 
HETATM    2  C2  UNL     1      20.888  16.204  14.766  1.00  0.00    -0.038 C 
HETATM    3  C3  UNL     1      21.631  17.305  14.145  1.00  0.00     0.012 C 
HETATM    4  C4  UNL     1      22.930  17.574  14.852  1.00  0.00     0.039 C 
HETATM    5  C5  UNL     1      23.429  16.378  15.629  1.00  0.00     0.062 C 
HETATM    6  C6  UNL     1      23.832  16.948  17.012  1.00  0.00     0.046 C 
HETATM    7  C7  UNL     1      22.402  15.381  15.888  1.00  0.00    -0.004 C 
HETATM    8  C8  UNL     1      22.799  14.193  16.670  1.00  0.00     0.014 C 
HETATM    9  C9  UNL     1      23.398  13.178  15.724  1.00  0.00     0.011 C 
HETATM   10  C10 UNL     1      22.574  12.803  14.567  1.00  0.00    -0.034 C 
HETATM   11  C11 UNL     1      21.499  11.798  14.996  1.00  0.00     0.016 C 
HETATM   12  C12 UNL     1      23.367  12.162  13.484  1.00  0.00     0.018 C 
HETATM   13  C14 UNL     1      23.906  13.297  12.683  1.00  0.00     0.008 C 
HETATM   14  C15 UNL     1      22.798  14.355  12.711  1.00  0.00     0.006 C 
HETATM   15  C16 UNL     1      21.924  13.989  13.829  1.00  0.00    -0.000 C 
HETATM   16  C17 UNL     1      21.471  14.879  14.833  1.00  0.00     0.010 C 
HETATM   17  C18 UNL     1      21.121  16.134  16.302  1.00  0.00     0.022 C 
ENDROOT
BRANCH   5  18
HETATM   18  O1  UNL     1      24.653  15.904  15.139  1.00  0.00    -0.389 OA
ATOM     19  H1  UNL     1      25.336  15.925  15.800  1.00  0.00     0.210 HD
ENDBRANCH   5  18
BRANCH  12  20
HETATM   20  C13 UNL     1      22.501  11.315  12.557  1.00  0.00     0.169 C 
BRANCH  20  21
HETATM   21  O2  UNL     1      23.326  10.946  11.478  1.00  0.00    -0.400 OA
ATOM     22  H2  UNL     1      22.892  10.217  11.050  1.00  0.00     0.209 HD
ENDBRANCH  20  21
ENDBRANCH  12  20
TORSDOF 3
ENDMDL
