MODEL 1
REMARK VINA RESULT: -8.302303228      0.000      0.000
REMARK  2 active torsions:
REMARK  status: ('A' for Active; 'I' for Inactive)
REMARK    1  A    between atoms: C10_10  and  O1_11 
REMARK    2  A    between atoms: C14_16  and  O2_17 
ROOT
HETATM    1  C1  UNL     1      24.157   5.874  10.645  1.00  0.00     0.015 C 
HETATM    2  C2  UNL     1      22.938   6.232  11.500  1.00  0.00    -0.044 C 
HETATM    3  C3  UNL     1      22.452   7.571  11.008  1.00  0.00     0.015 C 
HETATM    4  C4  UNL     1      21.896   5.186  11.221  1.00  0.00     0.009 C 
HETATM    5  C5  UNL     1      22.307   3.824  11.688  1.00  0.00     0.001 C 
HETATM    6  C6  UNL     1      23.142   3.886  12.975  1.00  0.00     0.006 C 
HETATM    7  C7  UNL     1      22.720   5.102  13.712  1.00  0.00    -0.000 C 
HETATM    8  C8  UNL     1      23.305   6.288  12.970  1.00  0.00     0.001 C 
HETATM    9  C9  UNL     1      22.748   7.513  13.618  1.00  0.00     0.038 C 
HETATM   10  C10 UNL     1      23.120   7.561  15.056  1.00  0.00     0.123 C 
HETATM   11  C11 UNL     1      22.556   6.356  15.844  1.00  0.00     0.024 C 
HETATM   12  C12 UNL     1      22.845   6.602  17.231  1.00  0.00     0.011 C 
HETATM   13  C13 UNL     1      21.996   6.103  18.384  1.00  0.00     0.044 C 
HETATM   14  C14 UNL     1      21.837   4.544  18.362  1.00  0.00     0.184 C 
HETATM   15  C15 UNL     1      22.260   4.121  17.087  1.00  0.00    -0.151 C 
HETATM   16  C16 UNL     1      22.680   3.808  15.782  1.00  0.00     0.092 C 
HETATM   17  C17 UNL     1      23.153   5.146  15.122  1.00  0.00    -0.025 C 
HETATM   18  C18 UNL     1      24.634   5.147  15.249  1.00  0.00     0.017 C 
ENDROOT
BRANCH  10  19
HETATM   19  O1  UNL     1      22.413   8.663  15.607  1.00  0.00    -0.395 OA
ATOM     20  H1  UNL     1      22.771   9.439  15.193  1.00  0.00     0.210 HD
ENDBRANCH  10  19
BRANCH  14  21
HETATM   21  O2  UNL     1      20.476   4.332  18.716  1.00  0.00    -0.384 OA
ATOM     22  H2  UNL     1      20.000   4.498  17.910  1.00  0.00     0.211 HD
ENDBRANCH  14  21
TORSDOF 2
ENDMDL
MODEL 2
REMARK VINA RESULT: -7.593653451      2.736      4.039
REMARK  2 active torsions:
REMARK  status: ('A' for Active; 'I' for Inactive)
REMARK    1  A    between atoms: C10_10  and  O1_11 
REMARK    2  A    between atoms: C14_16  and  O2_17 
ROOT
HETATM    1  C1  UNL     1      24.125   5.978  10.804  1.00  0.00     0.015 C 
HETATM    2  C2  UNL     1      22.897   6.821  11.165  1.00  0.00    -0.044 C 
HETATM    3  C3  UNL     1      22.318   7.308   9.863  1.00  0.00     0.015 C 
HETATM    4  C4  UNL     1      21.922   5.894  11.833  1.00  0.00     0.009 C 
HETATM    5  C5  UNL     1      22.427   5.369  13.142  1.00  0.00     0.001 C 
HETATM    6  C6  UNL     1      23.275   6.410  13.888  1.00  0.00     0.006 C 
HETATM    7  C7  UNL     1      22.786   7.748  13.477  1.00  0.00    -0.000 C 
HETATM    8  C8  UNL     1      23.282   7.981  12.064  1.00  0.00     0.001 C 
HETATM    9  C9  UNL     1      22.656   9.254  11.596  1.00  0.00     0.038 C 
HETATM   10  C10 UNL     1      23.046  10.385  12.478  1.00  0.00     0.123 C 
HETATM   11  C11 UNL     1      22.573  10.175  13.936  1.00  0.00     0.024 C 
HETATM   12  C12 UNL     1      22.866  11.394  14.641  1.00  0.00     0.011 C 
HETATM   13  C13 UNL     1      22.068  11.913  15.821  1.00  0.00     0.044 C 
HETATM   14  C14 UNL     1      22.011  10.873  16.992  1.00  0.00     0.184 C 
HETATM   15  C15 UNL     1      22.441   9.645  16.452  1.00  0.00    -0.151 C 
HETATM   16  C16 UNL     1      22.860   8.467  15.809  1.00  0.00     0.092 C 
HETATM   17  C17 UNL     1      23.237   8.857  14.341  1.00  0.00    -0.025 C 
HETATM   18  C18 UNL     1      24.716   9.001  14.336  1.00  0.00     0.017 C 
ENDROOT
BRANCH  10  19
HETATM   19  O1  UNL     1      22.276  11.499  12.049  1.00  0.00    -0.395 OA
ATOM     20  H1  UNL     1      21.568  11.586  12.676  1.00  0.00     0.210 HD
ENDBRANCH  10  19
BRANCH  14  21
HETATM   21  O2  UNL     1      20.671  10.960  17.463  1.00  0.00    -0.384 OA
ATOM     22  H2  UNL     1      20.144  10.786  16.691  1.00  0.00     0.211 HD
ENDBRANCH  14  21
TORSDOF 2
ENDMDL
MODEL 3
REMARK VINA RESULT: -7.529274989      2.728      5.254
REMARK  2 active torsions:
REMARK  status: ('A' for Active; 'I' for Inactive)
REMARK    1  A    between atoms: C10_10  and  O1_11 
REMARK    2  A    between atoms: C14_16  and  O2_17 
ROOT
HETATM    1  C1  UNL     1      24.311   4.470  14.440  1.00  0.00     0.015 C 
HETATM    2  C2  UNL     1      23.110   5.260  13.910  1.00  0.00    -0.044 C 
HETATM    3  C3  UNL     1      22.641   4.540  12.673  1.00  0.00     0.015 C 
HETATM    4  C4  UNL     1      22.047   5.184  14.968  1.00  0.00     0.009 C 
HETATM    5  C5  UNL     1      22.440   5.884  16.233  1.00  0.00     0.001 C 
HETATM    6  C6  UNL     1      23.293   7.131  15.957  1.00  0.00     0.006 C 
HETATM    7  C7  UNL     1      22.903   7.641  14.621  1.00  0.00    -0.000 C 
HETATM    8  C8  UNL     1      23.499   6.692  13.599  1.00  0.00     0.001 C 
HETATM    9  C9  UNL     1      22.972   7.116  12.266  1.00  0.00     0.038 C 
HETATM   10  C10 UNL     1      23.365   8.517  11.968  1.00  0.00     0.123 C 
HETATM   11  C11 UNL     1      22.790   9.515  13.002  1.00  0.00     0.024 C 
HETATM   12  C12 UNL     1      23.103  10.832  12.516  1.00  0.00     0.011 C 
HETATM   13  C13 UNL     1      22.261  12.065  12.783  1.00  0.00     0.044 C 
HETATM   14  C14 UNL     1      22.075  12.325  14.318  1.00  0.00     0.184 C 
HETATM   15  C15 UNL     1      22.472  11.142  14.971  1.00  0.00    -0.151 C 
HETATM   16  C16 UNL     1      22.868   9.910  15.521  1.00  0.00     0.092 C 
HETATM   17  C17 UNL     1      23.356   9.016  14.333  1.00  0.00    -0.025 C 
HETATM   18  C18 UNL     1      24.839   9.125  14.338  1.00  0.00     0.017 C 
ENDROOT
BRANCH  10  19
HETATM   19  O1  UNL     1      22.684   8.869  10.772  1.00  0.00    -0.395 OA
ATOM     20  H1  UNL     1      22.184   8.102  10.520  1.00  0.00     0.210 HD
ENDBRANCH  10  19
BRANCH  14  21
HETATM   21  O2  UNL     1      20.715  12.725  14.436  1.00  0.00    -0.384 OA
ATOM     22  H2  UNL     1      20.739  13.664  14.292  1.00  0.00     0.211 HD
ENDBRANCH  14  21
TORSDOF 2
ENDMDL
MODEL 4
REMARK VINA RESULT: -6.926038650      3.471      6.639
REMARK  2 active torsions:
REMARK  status: ('A' for Active; 'I' for Inactive)
REMARK    1  A    between atoms: C10_10  and  O1_11 
REMARK    2  A    between atoms: C14_16  and  O2_17 
ROOT
HETATM    1  C1  UNL     1      23.261  12.792  16.752  1.00  0.00     0.015 C 
HETATM    2  C2  UNL     1      22.207  11.765  16.327  1.00  0.00    -0.044 C 
HETATM    3  C3  UNL     1      21.587  11.242  17.596  1.00  0.00     0.015 C 
HETATM    4  C4  UNL     1      21.174  12.513  15.534  1.00  0.00     0.009 C 
HETATM    5  C5  UNL     1      21.717  13.062  14.250  1.00  0.00     0.001 C 
HETATM    6  C6  UNL     1      22.772  12.134  13.630  1.00  0.00     0.006 C 
HETATM    7  C7  UNL     1      22.446  10.753  14.060  1.00  0.00    -0.000 C 
HETATM    8  C8  UNL     1      22.837  10.645  15.521  1.00  0.00     0.001 C 
HETATM    9  C9  UNL     1      22.362   9.309  15.992  1.00  0.00     0.038 C 
HETATM   10  C10 UNL     1      22.991   8.220  15.202  1.00  0.00     0.123 C 
HETATM   11  C11 UNL     1      22.630   8.307  13.700  1.00  0.00     0.024 C 
HETATM   12  C12 UNL     1      23.160   7.122  13.082  1.00  0.00     0.011 C 
HETATM   13  C13 UNL     1      22.559   6.450  11.863  1.00  0.00     0.044 C 
HETATM   14  C14 UNL     1      22.460   7.430  10.644  1.00  0.00     0.184 C 
HETATM   15  C15 UNL     1      22.656   8.725  11.160  1.00  0.00    -0.151 C 
HETATM   16  C16 UNL     1      22.839   9.974  11.780  1.00  0.00     0.092 C 
HETATM   17  C17 UNL     1      23.130   9.695  13.292  1.00  0.00    -0.025 C 
HETATM   18  C18 UNL     1      24.608   9.773  13.432  1.00  0.00     0.017 C 
ENDROOT
BRANCH  10  19
HETATM   19  O1  UNL     1      22.355   7.019  15.615  1.00  0.00    -0.395 OA
ATOM     20  H1  UNL     1      22.994   6.549  16.137  1.00  0.00     0.210 HD
ENDBRANCH  10  19
BRANCH  14  21
HETATM   21  O2  UNL     1      21.196   7.129  10.063  1.00  0.00    -0.384 OA
ATOM     22  H2  UNL     1      21.333   6.290   9.639  1.00  0.00     0.211 HD
ENDBRANCH  14  21
TORSDOF 2
ENDMDL
MODEL 5
REMARK VINA RESULT: -6.612392628      2.393      6.096
REMARK  2 active torsions:
REMARK  status: ('A' for Active; 'I' for Inactive)
REMARK    1  A    between atoms: C10_10  and  O1_11 
REMARK    2  A    between atoms: C14_16  and  O2_17 
ROOT
HETATM    1  C1  UNL     1      23.739   9.389  18.253  1.00  0.00     0.015 C 
HETATM    2  C2  UNL     1      22.657   8.600  17.509  1.00  0.00    -0.044 C 
HETATM    3  C3  UNL     1      22.211   7.506  18.443  1.00  0.00     0.015 C 
HETATM    4  C4  UNL     1      21.520   9.552  17.271  1.00  0.00     0.009 C 
HETATM    5  C5  UNL     1      21.887  10.669  16.343  1.00  0.00     0.001 C 
HETATM    6  C6  UNL     1      22.871  10.213  15.256  1.00  0.00     0.006 C 
HETATM    7  C7  UNL     1      22.624   8.770  15.021  1.00  0.00    -0.000 C 
HETATM    8  C8  UNL     1      23.199   8.029  16.213  1.00  0.00     0.001 C 
HETATM    9  C9  UNL     1      22.809   6.595  16.052  1.00  0.00     0.038 C 
HETATM   10  C10 UNL     1      23.351   6.044  14.783  1.00  0.00     0.123 C 
HETATM   11  C11 UNL     1      22.802   6.788  13.543  1.00  0.00     0.024 C 
HETATM   12  C12 UNL     1      23.270   6.065  12.391  1.00  0.00     0.011 C 
HETATM   13  C13 UNL     1      22.530   5.989  11.070  1.00  0.00     0.044 C 
HETATM   14  C14 UNL     1      22.262   7.412  10.468  1.00  0.00     0.184 C 
HETATM   15  C15 UNL     1      22.500   8.332  11.506  1.00  0.00    -0.151 C 
HETATM   16  C16 UNL     1      22.739   9.163  12.615  1.00  0.00     0.092 C 
HETATM   17  C17 UNL     1      23.224   8.239  13.781  1.00  0.00    -0.025 C 
HETATM   18  C18 UNL     1      24.706   8.353  13.787  1.00  0.00     0.017 C 
ENDROOT
BRANCH  10  19
HETATM   19  O1  UNL     1      22.792   4.744  14.650  1.00  0.00    -0.395 OA
ATOM     20  H1  UNL     1      23.084   4.419  13.807  1.00  0.00     0.210 HD
ENDBRANCH  10  19
BRANCH  14  21
HETATM   21  O2  UNL     1      20.940   7.321   9.948  1.00  0.00    -0.384 OA
ATOM     22  H2  UNL     1      21.043   7.516   9.024  1.00  0.00     0.211 HD
ENDBRANCH  14  21
TORSDOF 2
ENDMDL
