MODEL 1
REMARK VINA RESULT: -10.034770358      0.000      0.000
REMARK  15 active torsions:
REMARK  status: ('A' for Active; 'I' for Inactive)
REMARK       I    between atoms: C2_2  and  N1_4 
REMARK    1  A    between atoms: N1_4  and  C3_6 
REMARK    2  A    between atoms: C3_6  and  C32_50 
REMARK    3  A    between atoms: C4_7  and  O2_8 
REMARK    4  A    between atoms: C4_7  and  N2_10 
REMARK    5  A    between atoms: C8_14  and  C9_15 
REMARK       I    between atoms: C9_15  and  N3_17 
REMARK    6  A    between atoms: N3_17  and  C10_19 
REMARK    7  A    between atoms: C10_19  and  C11_20 
REMARK    8  A    between atoms: C10_19  and  C17_31 
REMARK    9  A    between atoms: C11_20  and  O4_21 
REMARK   10  A    between atoms: C11_20  and  C12_23 
REMARK       I    between atoms: C12_23  and  N4_25 
REMARK   11  A    between atoms: N4_25  and  C13_27 
REMARK   12  A    between atoms: C17_31  and  N5_32 
REMARK   13  A    between atoms: C17_31  and  C28_46 
REMARK       I    between atoms: N5_32  and  C18_34 
REMARK   14  A    between atoms: C18_34  and  O7_36 
REMARK   15  A    between atoms: O7_36  and  C19_37 
ROOT
HETATM    1  C10 UNL     1     -12.613 -22.861 -29.543  1.00  0.00     0.170 C 
ENDROOT
BRANCH   1   2
HETATM    2  N3  UNL     1     -11.765 -24.030 -29.937  1.00  0.00    -0.346 N 
HETATM    3  C9  UNL     1     -10.597 -24.336 -29.185  1.00  0.00     0.241 C 
HETATM    4  O3  UNL     1     -10.366 -23.580 -28.206  1.00  0.00    -0.271 OA
ATOM      5  H3  UNL     1     -12.023 -24.603 -30.741  1.00  0.00     0.163 HD
BRANCH   3   6
HETATM    6  C8  UNL     1      -9.714 -25.447 -29.502  1.00  0.00     0.178 C 
HETATM    7  N2  UNL     1     -10.368 -26.600 -30.174  1.00  0.00    -0.347 N 
HETATM    8  C5  UNL     1     -11.189 -27.198 -29.175  1.00  0.00     0.126 C 
HETATM    9  C6  UNL     1     -10.542 -26.899 -27.867  1.00  0.00     0.022 C 
HETATM   10  C7  UNL     1      -9.274 -26.104 -28.208  1.00  0.00     0.037 C 
BRANCH   7  11
HETATM   11  C4  UNL     1     -10.072 -26.864 -31.522  1.00  0.00     0.162 C 
HETATM   12  C3  UNL     1      -9.011 -27.427 -32.306  1.00  0.00     0.067 C 
BRANCH  12  13
HETATM   13  N1  UNL     1      -9.549 -28.478 -33.176  1.00  0.00    -0.327 N 
HETATM   14  C2  UNL     1      -9.413 -28.586 -34.561  1.00  0.00     0.218 C 
HETATM   15  C1  UNL     1     -10.035 -29.714 -35.345  1.00  0.00     0.117 C 
HETATM   16  O1  UNL     1      -8.772 -27.765 -35.255  1.00  0.00    -0.274 OA
ATOM     17  H1  UNL     1     -10.084 -29.215 -32.716  1.00  0.00     0.168 HD
ENDBRANCH  12  13
BRANCH  12  18
HETATM   18  C32 UNL     1      -7.689 -27.780 -31.798  1.00  0.00     0.040 C 
HETATM   19  C33 UNL     1      -6.955 -26.472 -31.333  1.00  0.00     0.011 C 
HETATM   20  C34 UNL     1      -5.512 -26.871 -31.176  1.00  0.00     0.001 C 
HETATM   21  C35 UNL     1      -5.410 -27.800 -29.994  1.00  0.00     0.000 C 
HETATM   22  C36 UNL     1      -6.379 -28.957 -30.131  1.00  0.00     0.001 C 
HETATM   23  C37 UNL     1      -7.775 -28.487 -30.412  1.00  0.00     0.011 C 
ENDBRANCH  12  18
BRANCH  11  24
HETATM   24  O2  UNL     1     -11.085 -26.487 -32.317  1.00  0.00    -0.345 OA
ATOM     25  H2  UNL     1     -11.694 -25.941 -31.834  1.00  0.00     0.219 HD
ENDBRANCH  11  24
ENDBRANCH   7  11
ENDBRANCH   3   6
ENDBRANCH   1   2
BRANCH   1  26
HETATM   26  C11 UNL     1     -13.349 -23.509 -28.371  1.00  0.00     0.136 C 
BRANCH  26  27
HETATM   27  O4  UNL     1     -13.310 -22.787 -27.283  1.00  0.00    -0.358 OA
ATOM     28  H4  UNL     1     -13.720 -23.215 -26.541  1.00  0.00     0.217 HD
ENDBRANCH  26  27
BRANCH  26  29
HETATM   29  C12 UNL     1     -14.037 -24.729 -28.256  1.00  0.00     0.273 C 
HETATM   30  O5  UNL     1     -14.145 -25.585 -29.150  1.00  0.00    -0.266 OA
HETATM   31  N4  UNL     1     -14.702 -25.094 -27.017  1.00  0.00    -0.347 N 
ATOM     32  H4  UNL     1     -14.658 -24.436 -26.239  1.00  0.00     0.163 HD
BRANCH  31  33
HETATM   33  C13 UNL     1     -15.413 -26.312 -26.820  1.00  0.00     0.022 C 
HETATM   34  C14 UNL     1     -16.085 -26.293 -25.434  1.00  0.00     0.037 C 
HETATM   35  C15 UNL     1     -14.495 -27.509 -26.797  1.00  0.00     0.037 C 
HETATM   36  C16 UNL     1     -16.493 -26.553 -27.826  1.00  0.00     0.037 C 
ENDBRANCH  31  33
ENDBRANCH  26  29
ENDBRANCH   1  26
BRANCH   1  37
HETATM   37  C17 UNL     1     -13.531 -22.404 -30.582  1.00  0.00     0.123 C 
BRANCH  37  38
HETATM   38  N5  UNL     1     -12.787 -22.623 -31.927  1.00  0.00    -0.329 N 
HETATM   39  C18 UNL     1     -12.974 -23.871 -32.568  1.00  0.00     0.361 C 
HETATM   40  O6  UNL     1     -13.697 -24.760 -32.085  1.00  0.00    -0.238 OA
ATOM     41  H5  UNL     1     -12.190 -21.900 -32.330  1.00  0.00     0.165 HD
BRANCH  39  42
HETATM   42  O7  UNL     1     -12.351 -24.159 -33.780  1.00  0.00    -0.299 OA
BRANCH  42  43
HETATM   43  C19 UNL     1     -12.945 -23.819 -35.017  1.00  0.00     0.134 C 
HETATM   44  C20 UNL     1     -14.404 -24.154 -35.108  1.00  0.00     0.033 C 
HETATM   45  C21 UNL     1     -14.569 -25.345 -36.025  1.00  0.00     0.007 C 
HETATM   46  C22 UNL     1     -14.235 -25.011 -37.476  1.00  0.00    -0.010 C 
HETATM   47  C23 UNL     1     -14.048 -26.298 -38.210  1.00  0.00     0.005 C 
HETATM   48  C26 UNL     1     -12.915 -24.276 -37.467  1.00  0.00    -0.008 C 
HETATM   49  C24 UNL     1     -12.772 -26.152 -38.966  1.00  0.00     0.001 C 
HETATM   50  C25 UNL     1     -12.169 -24.798 -38.654  1.00  0.00     0.005 C 
HETATM   51  C27 UNL     1     -12.177 -24.467 -36.153  1.00  0.00     0.037 C 
ENDBRANCH  42  43
ENDBRANCH  39  42
ENDBRANCH  37  38
BRANCH  37  52
HETATM   52  C28 UNL     1     -13.642 -20.862 -30.639  1.00  0.00    -0.028 C 
HETATM   53  C29 UNL     1     -12.199 -20.298 -30.806  1.00  0.00     0.016 C 
HETATM   54  C30 UNL     1     -14.416 -20.396 -31.836  1.00  0.00     0.016 C 
HETATM   55  C31 UNL     1     -14.138 -20.178 -29.421  1.00  0.00     0.016 C 
ENDBRANCH  37  52
ENDBRANCH   1  37
TORSDOF 15
ENDMDL
MODEL 2
REMARK VINA RESULT: -9.771013671      2.161      7.172
REMARK  15 active torsions:
REMARK  status: ('A' for Active; 'I' for Inactive)
REMARK       I    between atoms: C2_2  and  N1_4 
REMARK    1  A    between atoms: N1_4  and  C3_6 
REMARK    2  A    between atoms: C3_6  and  C32_50 
REMARK    3  A    between atoms: C4_7  and  O2_8 
REMARK    4  A    between atoms: C4_7  and  N2_10 
REMARK    5  A    between atoms: C8_14  and  C9_15 
REMARK       I    between atoms: C9_15  and  N3_17 
REMARK    6  A    between atoms: N3_17  and  C10_19 
REMARK    7  A    between atoms: C10_19  and  C11_20 
REMARK    8  A    between atoms: C10_19  and  C17_31 
REMARK    9  A    between atoms: C11_20  and  O4_21 
REMARK   10  A    between atoms: C11_20  and  C12_23 
REMARK       I    between atoms: C12_23  and  N4_25 
REMARK   11  A    between atoms: N4_25  and  C13_27 
REMARK   12  A    between atoms: C17_31  and  N5_32 
REMARK   13  A    between atoms: C17_31  and  C28_46 
REMARK       I    between atoms: N5_32  and  C18_34 
REMARK   14  A    between atoms: C18_34  and  O7_36 
REMARK   15  A    between atoms: O7_36  and  C19_37 
ROOT
HETATM    1  C10 UNL     1     -13.047 -23.680 -27.683  1.00  0.00     0.170 C 
ENDROOT
BRANCH   1   2
HETATM    2  N3  UNL     1     -12.929 -23.536 -29.168  1.00  0.00    -0.346 N 
HETATM    3  C9  UNL     1     -13.948 -22.857 -29.891  1.00  0.00     0.241 C 
HETATM    4  O3  UNL     1     -14.898 -22.405 -29.199  1.00  0.00    -0.271 OA
ATOM      5  H3  UNL     1     -12.123 -23.923 -29.660  1.00  0.00     0.163 HD
BRANCH   3   6
HETATM    6  C8  UNL     1     -13.918 -22.678 -31.334  1.00  0.00     0.178 C 
HETATM    7  N2  UNL     1     -12.689 -22.031 -31.863  1.00  0.00    -0.347 N 
HETATM    8  C5  UNL     1     -12.766 -20.676 -31.434  1.00  0.00     0.126 C 
HETATM    9  C6  UNL     1     -14.216 -20.359 -31.304  1.00  0.00     0.022 C 
HETATM   10  C7  UNL     1     -14.954 -21.639 -31.717  1.00  0.00     0.037 C 
BRANCH   7  11
HETATM   11  C4  UNL     1     -11.785 -22.797 -32.620  1.00  0.00     0.162 C 
HETATM   12  C3  UNL     1     -11.678 -23.352 -33.938  1.00  0.00     0.067 C 
BRANCH  12  13
HETATM   13  N1  UNL     1     -10.406 -22.941 -34.540  1.00  0.00    -0.327 N 
HETATM   14  C2  UNL     1     -10.027 -21.655 -34.931  1.00  0.00     0.218 C 
HETATM   15  C1  UNL     1      -8.688 -21.366 -35.559  1.00  0.00     0.117 C 
HETATM   16  O1  UNL     1     -10.762 -20.651 -34.792  1.00  0.00    -0.274 OA
ATOM     17  H1  UNL     1      -9.718 -23.679 -34.692  1.00  0.00     0.168 HD
ENDBRANCH  12  13
BRANCH  12  18
HETATM   18  C32 UNL     1     -12.752 -23.380 -34.927  1.00  0.00     0.040 C 
HETATM   19  C33 UNL     1     -12.313 -24.288 -36.130  1.00  0.00     0.011 C 
HETATM   20  C34 UNL     1     -13.290 -23.972 -37.231  1.00  0.00     0.001 C 
HETATM   21  C35 UNL     1     -14.640 -24.507 -36.827  1.00  0.00     0.000 C 
HETATM   22  C36 UNL     1     -15.036 -23.993 -35.458  1.00  0.00     0.001 C 
HETATM   23  C37 UNL     1     -13.962 -24.230 -34.439  1.00  0.00     0.011 C 
ENDBRANCH  12  18
BRANCH  11  24
HETATM   24  O2  UNL     1     -10.691 -23.092 -31.903  1.00  0.00    -0.345 OA
ATOM     25  H2  UNL     1     -10.526 -22.411 -31.261  1.00  0.00     0.219 HD
ENDBRANCH  11  24
ENDBRANCH   7  11
ENDBRANCH   3   6
ENDBRANCH   1   2
BRANCH   1  26
HETATM   26  C11 UNL     1     -11.891 -22.764 -27.282  1.00  0.00     0.136 C 
BRANCH  26  27
HETATM   27  O4  UNL     1     -10.826 -23.422 -26.910  1.00  0.00    -0.358 OA
ATOM     28  H4  UNL     1     -10.038 -22.892 -26.934  1.00  0.00     0.217 HD
ENDBRANCH  26  27
BRANCH  26  29
HETATM   29  C12 UNL     1     -11.780 -21.364 -27.232  1.00  0.00     0.273 C 
HETATM   30  O5  UNL     1     -10.747 -20.731 -26.958  1.00  0.00    -0.266 OA
HETATM   31  N4  UNL     1     -12.925 -20.516 -27.517  1.00  0.00    -0.347 N 
ATOM     32  H4  UNL     1     -13.809 -20.969 -27.748  1.00  0.00     0.163 HD
BRANCH  31  33
HETATM   33  C13 UNL     1     -12.891 -19.092 -27.495  1.00  0.00     0.022 C 
HETATM   34  C14 UNL     1     -14.267 -18.542 -27.914  1.00  0.00     0.037 C 
HETATM   35  C15 UNL     1     -11.918 -18.531 -28.502  1.00  0.00     0.037 C 
HETATM   36  C16 UNL     1     -12.579 -18.515 -26.150  1.00  0.00     0.037 C 
ENDBRANCH  31  33
ENDBRANCH  26  29
ENDBRANCH   1  26
BRANCH   1  37
HETATM   37  C17 UNL     1     -12.861 -25.043 -27.193  1.00  0.00     0.123 C 
BRANCH  37  38
HETATM   38  N5  UNL     1     -12.179 -25.818 -28.352  1.00  0.00    -0.329 N 
HETATM   39  C18 UNL     1     -10.966 -26.483 -28.053  1.00  0.00     0.361 C 
HETATM   40  O6  UNL     1     -10.458 -26.453 -26.918  1.00  0.00    -0.238 OA
ATOM     41  H5  UNL     1     -12.586 -25.847 -29.287  1.00  0.00     0.165 HD
BRANCH  39  42
HETATM   42  O7  UNL     1     -10.281 -27.207 -29.027  1.00  0.00    -0.299 OA
BRANCH  42  43
HETATM   43  C19 UNL     1      -9.413 -26.574 -29.947  1.00  0.00     0.134 C 
HETATM   44  C20 UNL     1      -9.858 -26.673 -31.376  1.00  0.00     0.033 C 
HETATM   45  C21 UNL     1      -8.955 -27.650 -32.095  1.00  0.00     0.007 C 
HETATM   46  C22 UNL     1      -7.532 -27.121 -32.249  1.00  0.00    -0.010 C 
HETATM   47  C23 UNL     1      -6.651 -28.274 -32.600  1.00  0.00     0.005 C 
HETATM   48  C26 UNL     1      -7.109 -26.597 -30.895  1.00  0.00    -0.008 C 
HETATM   49  C24 UNL     1      -5.481 -28.185 -31.682  1.00  0.00     0.001 C 
HETATM   50  C25 UNL     1      -5.678 -27.008 -30.749  1.00  0.00     0.005 C 
HETATM   51  C27 UNL     1      -8.007 -27.119 -29.787  1.00  0.00     0.037 C 
ENDBRANCH  42  43
ENDBRANCH  39  42
ENDBRANCH  37  38
BRANCH  37  52
HETATM   52  C28 UNL     1     -14.185 -25.841 -27.142  1.00  0.00    -0.028 C 
HETATM   53  C29 UNL     1     -14.390 -26.489 -28.545  1.00  0.00     0.016 C 
HETATM   54  C30 UNL     1     -14.125 -26.973 -26.161  1.00  0.00     0.016 C 
HETATM   55  C31 UNL     1     -15.431 -25.064 -26.939  1.00  0.00     0.016 C 
ENDBRANCH  37  52
ENDBRANCH   1  37
TORSDOF 15
ENDMDL
MODEL 3
REMARK VINA RESULT: -9.718367475      2.181      7.185
REMARK  15 active torsions:
REMARK  status: ('A' for Active; 'I' for Inactive)
REMARK       I    between atoms: C2_2  and  N1_4 
REMARK    1  A    between atoms: N1_4  and  C3_6 
REMARK    2  A    between atoms: C3_6  and  C32_50 
REMARK    3  A    between atoms: C4_7  and  O2_8 
REMARK    4  A    between atoms: C4_7  and  N2_10 
REMARK    5  A    between atoms: C8_14  and  C9_15 
REMARK       I    between atoms: C9_15  and  N3_17 
REMARK    6  A    between atoms: N3_17  and  C10_19 
REMARK    7  A    between atoms: C10_19  and  C11_20 
REMARK    8  A    between atoms: C10_19  and  C17_31 
REMARK    9  A    between atoms: C11_20  and  O4_21 
REMARK   10  A    between atoms: C11_20  and  C12_23 
REMARK       I    between atoms: C12_23  and  N4_25 
REMARK   11  A    between atoms: N4_25  and  C13_27 
REMARK   12  A    between atoms: C17_31  and  N5_32 
REMARK   13  A    between atoms: C17_31  and  C28_46 
REMARK       I    between atoms: N5_32  and  C18_34 
REMARK   14  A    between atoms: C18_34  and  O7_36 
REMARK   15  A    between atoms: O7_36  and  C19_37 
ROOT
HETATM    1  C10 UNL     1     -11.645 -22.827 -29.081  1.00  0.00     0.170 C 
ENDROOT
BRANCH   1   2
HETATM    2  N3  UNL     1     -11.950 -23.299 -30.469  1.00  0.00    -0.346 N 
HETATM    3  C9  UNL     1     -13.278 -23.200 -30.969  1.00  0.00     0.241 C 
HETATM    4  O3  UNL     1     -14.120 -22.697 -30.180  1.00  0.00    -0.271 OA
ATOM      5  H3  UNL     1     -11.210 -23.689 -31.053  1.00  0.00     0.163 HD
BRANCH   3   6
HETATM    6  C8  UNL     1     -13.663 -23.641 -32.300  1.00  0.00     0.178 C 
HETATM    7  N2  UNL     1     -12.545 -23.768 -33.270  1.00  0.00    -0.347 N 
HETATM    8  C5  UNL     1     -12.136 -22.432 -33.546  1.00  0.00     0.126 C 
HETATM    9  C6  UNL     1     -13.339 -21.576 -33.349  1.00  0.00     0.022 C 
HETATM   10  C7  UNL     1     -14.469 -22.540 -32.962  1.00  0.00     0.037 C 
BRANCH   7  11
HETATM   11  C4  UNL     1     -12.152 -25.048 -33.698  1.00  0.00     0.162 C 
HETATM   12  C3  UNL     1     -12.200 -25.853 -34.884  1.00  0.00     0.067 C 
BRANCH  12  13
HETATM   13  N1  UNL     1     -10.854 -26.345 -35.196  1.00  0.00    -0.327 N 
HETATM   14  C2  UNL     1     -10.447 -27.673 -35.343  1.00  0.00     0.218 C 
HETATM   15  C1  UNL     1      -9.019 -28.048 -35.648  1.00  0.00     0.117 C 
HETATM   16  O1  UNL     1     -11.227 -28.646 -35.235  1.00  0.00    -0.274 OA
ATOM     17  H1  UNL     1     -10.131 -25.636 -35.319  1.00  0.00     0.168 HD
ENDBRANCH  12  13
BRANCH  12  18
HETATM   18  C32 UNL     1     -12.939 -25.517 -36.097  1.00  0.00     0.040 C 
HETATM   19  C33 UNL     1     -13.364 -26.845 -36.819  1.00  0.00     0.011 C 
HETATM   20  C34 UNL     1     -13.783 -26.419 -38.200  1.00  0.00     0.001 C 
HETATM   21  C35 UNL     1     -15.061 -25.630 -38.080  1.00  0.00     0.000 C 
HETATM   22  C36 UNL     1     -14.904 -24.497 -37.085  1.00  0.00     0.001 C 
HETATM   23  C37 UNL     1     -14.364 -24.978 -35.772  1.00  0.00     0.011 C 
ENDBRANCH  12  18
BRANCH  11  24
HETATM   24  O2  UNL     1     -11.544 -25.718 -32.707  1.00  0.00    -0.345 OA
ATOM     25  H2  UNL     1     -11.362 -25.134 -31.981  1.00  0.00     0.219 HD
ENDBRANCH  11  24
ENDBRANCH   7  11
ENDBRANCH   3   6
ENDBRANCH   1   2
BRANCH   1  26
HETATM   26  C11 UNL     1     -11.089 -21.448 -29.436  1.00  0.00     0.136 C 
BRANCH  26  27
HETATM   27  O4  UNL     1     -10.000 -21.509 -30.154  1.00  0.00    -0.358 OA
ATOM     28  H4  UNL     1      -9.312 -20.940 -29.830  1.00  0.00     0.217 HD
ENDBRANCH  26  27
BRANCH  26  29
HETATM   29  C12 UNL     1     -11.529 -20.151 -29.120  1.00  0.00     0.273 C 
HETATM   30  O5  UNL     1     -11.474 -19.166 -29.874  1.00  0.00    -0.266 OA
HETATM   31  N4  UNL     1     -12.112 -19.859 -27.822  1.00  0.00    -0.347 N 
ATOM     32  H4  UNL     1     -12.186 -20.622 -27.149  1.00  0.00     0.163 HD
BRANCH  31  33
HETATM   33  C13 UNL     1     -12.587 -18.575 -27.429  1.00  0.00     0.022 C 
HETATM   34  C14 UNL     1     -13.168 -18.659 -26.005  1.00  0.00     0.037 C 
HETATM   35  C15 UNL     1     -13.728 -18.102 -28.294  1.00  0.00     0.037 C 
HETATM   36  C16 UNL     1     -11.528 -17.519 -27.408  1.00  0.00     0.037 C 
ENDBRANCH  31  33
ENDBRANCH  26  29
ENDBRANCH   1  26
BRANCH   1  37
HETATM   37  C17 UNL     1     -10.669 -23.645 -28.367  1.00  0.00     0.123 C 
BRANCH  37  38
HETATM   38  N5  UNL     1     -10.861 -25.090 -28.899  1.00  0.00    -0.329 N 
HETATM   39  C18 UNL     1     -10.113 -25.459 -30.043  1.00  0.00     0.361 C 
HETATM   40  O6  UNL     1      -9.335 -24.668 -30.606  1.00  0.00    -0.238 OA
ATOM     41  H5  UNL     1     -11.498 -25.746 -28.445  1.00  0.00     0.165 HD
BRANCH  39  42
HETATM   42  O7  UNL     1     -10.216 -26.734 -30.592  1.00  0.00    -0.299 OA
BRANCH  42  43
HETATM   43  C19 UNL     1      -9.218 -27.714 -30.380  1.00  0.00     0.134 C 
HETATM   44  C20 UNL     1      -8.579 -27.654 -29.025  1.00  0.00     0.033 C 
HETATM   45  C21 UNL     1      -7.177 -27.104 -29.177  1.00  0.00     0.007 C 
HETATM   46  C22 UNL     1      -6.253 -28.069 -29.914  1.00  0.00    -0.010 C 
HETATM   47  C23 UNL     1      -5.048 -27.302 -30.351  1.00  0.00     0.005 C 
HETATM   48  C26 UNL     1      -6.992 -28.531 -31.149  1.00  0.00    -0.008 C 
HETATM   49  C24 UNL     1      -4.849 -27.643 -31.788  1.00  0.00     0.001 C 
HETATM   50  C25 UNL     1      -5.958 -28.577 -32.228  1.00  0.00     0.005 C 
HETATM   51  C27 UNL     1      -8.167 -27.624 -31.470  1.00  0.00     0.037 C 
ENDBRANCH  42  43
ENDBRANCH  39  42
ENDBRANCH  37  38
BRANCH  37  52
HETATM   52  C28 UNL     1     -11.069 -23.896 -26.894  1.00  0.00    -0.028 C 
HETATM   53  C29 UNL     1     -12.610 -24.132 -26.866  1.00  0.00     0.016 C 
HETATM   54  C30 UNL     1     -10.443 -25.142 -26.344  1.00  0.00     0.016 C 
HETATM   55  C31 UNL     1     -10.877 -22.774 -25.945  1.00  0.00     0.016 C 
ENDBRANCH  37  52
ENDBRANCH   1  37
TORSDOF 15
ENDMDL
MODEL 4
REMARK VINA RESULT: -9.699199044      2.680      6.518
REMARK  15 active torsions:
REMARK  status: ('A' for Active; 'I' for Inactive)
REMARK       I    between atoms: C2_2  and  N1_4 
REMARK    1  A    between atoms: N1_4  and  C3_6 
REMARK    2  A    between atoms: C3_6  and  C32_50 
REMARK    3  A    between atoms: C4_7  and  O2_8 
REMARK    4  A    between atoms: C4_7  and  N2_10 
REMARK    5  A    between atoms: C8_14  and  C9_15 
REMARK       I    between atoms: C9_15  and  N3_17 
REMARK    6  A    between atoms: N3_17  and  C10_19 
REMARK    7  A    between atoms: C10_19  and  C11_20 
REMARK    8  A    between atoms: C10_19  and  C17_31 
REMARK    9  A    between atoms: C11_20  and  O4_21 
REMARK   10  A    between atoms: C11_20  and  C12_23 
REMARK       I    between atoms: C12_23  and  N4_25 
REMARK   11  A    between atoms: N4_25  and  C13_27 
REMARK   12  A    between atoms: C17_31  and  N5_32 
REMARK   13  A    between atoms: C17_31  and  C28_46 
REMARK       I    between atoms: N5_32  and  C18_34 
REMARK   14  A    between atoms: C18_34  and  O7_36 
REMARK   15  A    between atoms: O7_36  and  C19_37 
ROOT
HETATM    1  C10 UNL     1     -11.141 -24.380 -29.345  1.00  0.00     0.170 C 
ENDROOT
BRANCH   1   2
HETATM    2  N3  UNL     1     -11.361 -23.710 -30.665  1.00  0.00    -0.346 N 
HETATM    3  C9  UNL     1     -12.657 -23.721 -31.251  1.00  0.00     0.241 C 
HETATM    4  O3  UNL     1     -13.551 -24.305 -30.585  1.00  0.00    -0.271 OA
ATOM      5  H3  UNL     1     -10.586 -23.249 -31.142  1.00  0.00     0.163 HD
BRANCH   3   6
HETATM    6  C8  UNL     1     -12.958 -23.102 -32.532  1.00  0.00     0.178 C 
HETATM    7  N2  UNL     1     -12.169 -21.881 -32.843  1.00  0.00    -0.347 N 
HETATM    8  C5  UNL     1     -12.656 -20.884 -31.951  1.00  0.00     0.126 C 
HETATM    9  C6  UNL     1     -14.072 -21.242 -31.654  1.00  0.00     0.022 C 
HETATM   10  C7  UNL     1     -14.353 -22.510 -32.471  1.00  0.00     0.037 C 
BRANCH   7  11
HETATM   11  C4  UNL     1     -11.201 -21.933 -33.862  1.00  0.00     0.162 C 
HETATM   12  C3  UNL     1     -11.113 -22.274 -35.252  1.00  0.00     0.067 C 
BRANCH  12  13
HETATM   13  N1  UNL     1     -10.495 -21.166 -35.989  1.00  0.00    -0.327 N 
HETATM   14  C2  UNL     1      -9.133 -20.888 -36.118  1.00  0.00     0.218 C 
HETATM   15  C1  UNL     1      -8.625 -19.699 -36.894  1.00  0.00     0.117 C 
HETATM   16  O1  UNL     1      -8.236 -21.595 -35.606  1.00  0.00    -0.274 OA
ATOM     17  H1  UNL     1     -11.133 -20.526 -36.461  1.00  0.00     0.168 HD
ENDBRANCH  12  13
BRANCH  12  18
HETATM   18  C32 UNL     1     -12.175 -22.905 -36.030  1.00  0.00     0.040 C 
HETATM   19  C33 UNL     1     -11.588 -23.367 -37.412  1.00  0.00     0.011 C 
HETATM   20  C34 UNL     1     -12.793 -23.661 -38.265  1.00  0.00     0.001 C 
HETATM   21  C35 UNL     1     -13.469 -24.889 -37.714  1.00  0.00     0.000 C 
HETATM   22  C36 UNL     1     -13.762 -24.727 -36.235  1.00  0.00     0.001 C 
HETATM   23  C37 UNL     1     -12.544 -24.310 -35.467  1.00  0.00     0.011 C 
ENDBRANCH  12  18
BRANCH  11  24
HETATM   24  O2  UNL     1     -10.003 -21.540 -33.404  1.00  0.00    -0.345 OA
ATOM     25  H2  UNL     1      -9.525 -22.283 -33.058  1.00  0.00     0.219 HD
ENDBRANCH  11  24
ENDBRANCH   7  11
ENDBRANCH   3   6
ENDBRANCH   1   2
BRANCH   1  26
HETATM   26  C11 UNL     1     -10.958 -23.126 -28.490  1.00  0.00     0.136 C 
BRANCH  26  27
HETATM   27  O4  UNL     1     -10.567 -22.091 -29.184  1.00  0.00    -0.358 OA
ATOM     28  H4  UNL     1     -11.228 -21.410 -29.236  1.00  0.00     0.217 HD
ENDBRANCH  26  27
BRANCH  26  29
HETATM   29  C12 UNL     1     -11.123 -22.899 -27.113  1.00  0.00     0.273 C 
HETATM   30  O5  UNL     1     -12.210 -22.798 -26.522  1.00  0.00    -0.266 OA
HETATM   31  N4  UNL     1      -9.970 -22.762 -26.240  1.00  0.00    -0.347 N 
ATOM     32  H4  UNL     1      -9.042 -22.832 -26.659  1.00  0.00     0.163 HD
BRANCH  31  33
HETATM   33  C13 UNL     1     -10.052 -22.538 -24.836  1.00  0.00     0.022 C 
HETATM   34  C14 UNL     1      -8.634 -22.353 -24.263  1.00  0.00     0.037 C 
HETATM   35  C15 UNL     1     -10.622 -23.727 -24.103  1.00  0.00     0.037 C 
HETATM   36  C16 UNL     1     -10.837 -21.320 -24.463  1.00  0.00     0.037 C 
ENDBRANCH  31  33
ENDBRANCH  26  29
ENDBRANCH   1  26
BRANCH   1  37
HETATM   37  C17 UNL     1      -9.969 -25.251 -29.298  1.00  0.00     0.123 C 
BRANCH  37  38
HETATM   38  N5  UNL     1      -9.890 -25.925 -30.694  1.00  0.00    -0.329 N 
HETATM   39  C18 UNL     1      -8.992 -25.359 -31.631  1.00  0.00     0.361 C 
HETATM   40  O6  UNL     1      -8.294 -24.366 -31.360  1.00  0.00    -0.238 OA
ATOM     41  H5  UNL     1     -10.459 -26.739 -30.927  1.00  0.00     0.165 HD
BRANCH  39  42
HETATM   42  O7  UNL     1      -8.849 -25.896 -32.908  1.00  0.00    -0.299 OA
BRANCH  42  43
HETATM   43  C19 UNL     1      -9.613 -27.007 -33.334  1.00  0.00     0.134 C 
HETATM   44  C20 UNL     1      -8.867 -28.308 -33.311  1.00  0.00     0.033 C 
HETATM   45  C21 UNL     1      -8.564 -28.715 -34.736  1.00  0.00     0.007 C 
HETATM   46  C22 UNL     1      -9.822 -29.092 -35.513  1.00  0.00    -0.010 C 
HETATM   47  C23 UNL     1      -9.479 -29.093 -36.966  1.00  0.00     0.005 C 
HETATM   48  C26 UNL     1     -10.836 -27.997 -35.267  1.00  0.00    -0.008 C 
HETATM   49  C24 UNL     1     -10.551 -28.304 -37.636  1.00  0.00     0.001 C 
HETATM   50  C25 UNL     1     -11.512 -27.790 -36.585  1.00  0.00     0.005 C 
HETATM   51  C27 UNL     1     -10.182 -26.742 -34.715  1.00  0.00     0.037 C 
ENDBRANCH  42  43
ENDBRANCH  39  42
ENDBRANCH  37  38
BRANCH  37  52
HETATM   52  C28 UNL     1     -10.208 -26.523 -28.451  1.00  0.00    -0.028 C 
HETATM   53  C29 UNL     1     -11.729 -26.856 -28.534  1.00  0.00     0.016 C 
HETATM   54  C30 UNL     1      -9.486 -27.714 -29.006  1.00  0.00     0.016 C 
HETATM   55  C31 UNL     1      -9.961 -26.416 -26.994  1.00  0.00     0.016 C 
ENDBRANCH  37  52
ENDBRANCH   1  37
TORSDOF 15
ENDMDL
MODEL 5
REMARK VINA RESULT: -9.693735937      3.700      8.427
REMARK  15 active torsions:
REMARK  status: ('A' for Active; 'I' for Inactive)
REMARK       I    between atoms: C2_2  and  N1_4 
REMARK    1  A    between atoms: N1_4  and  C3_6 
REMARK    2  A    between atoms: C3_6  and  C32_50 
REMARK    3  A    between atoms: C4_7  and  O2_8 
REMARK    4  A    between atoms: C4_7  and  N2_10 
REMARK    5  A    between atoms: C8_14  and  C9_15 
REMARK       I    between atoms: C9_15  and  N3_17 
REMARK    6  A    between atoms: N3_17  and  C10_19 
REMARK    7  A    between atoms: C10_19  and  C11_20 
REMARK    8  A    between atoms: C10_19  and  C17_31 
REMARK    9  A    between atoms: C11_20  and  O4_21 
REMARK   10  A    between atoms: C11_20  and  C12_23 
REMARK       I    between atoms: C12_23  and  N4_25 
REMARK   11  A    between atoms: N4_25  and  C13_27 
REMARK   12  A    between atoms: C17_31  and  N5_32 
REMARK   13  A    between atoms: C17_31  and  C28_46 
REMARK       I    between atoms: N5_32  and  C18_34 
REMARK   14  A    between atoms: C18_34  and  O7_36 
REMARK   15  A    between atoms: O7_36  and  C19_37 
ROOT
HETATM    1  C10 UNL     1     -12.573 -25.539 -36.737  1.00  0.00     0.170 C 
ENDROOT
BRANCH   1   2
HETATM    2  N3  UNL     1     -11.301 -26.316 -36.603  1.00  0.00    -0.346 N 
HETATM    3  C9  UNL     1     -10.989 -27.324 -37.558  1.00  0.00     0.241 C 
HETATM    4  O3  UNL     1     -11.832 -27.481 -38.478  1.00  0.00    -0.271 OA
ATOM      5  H3  UNL     1     -10.661 -26.125 -35.832  1.00  0.00     0.163 HD
BRANCH   3   6
HETATM    6  C8  UNL     1      -9.780 -28.131 -37.499  1.00  0.00     0.178 C 
HETATM    7  N2  UNL     1     -10.001 -29.600 -37.534  1.00  0.00    -0.347 N 
HETATM    8  C5  UNL     1     -10.589 -29.919 -36.277  1.00  0.00     0.126 C 
HETATM    9  C6  UNL     1     -10.097 -28.896 -35.312  1.00  0.00     0.022 C 
HETATM   10  C7  UNL     1      -9.164 -27.985 -36.121  1.00  0.00     0.037 C 
BRANCH   7  11
HETATM   11  C4  UNL     1      -9.616 -30.323 -38.676  1.00  0.00     0.162 C 
HETATM   12  C3  UNL     1      -8.733 -31.396 -39.030  1.00  0.00     0.067 C 
BRANCH  12  13
HETATM   13  N1  UNL     1      -9.480 -32.425 -39.761  1.00  0.00    -0.327 N 
HETATM   14  C2  UNL     1     -10.409 -33.330 -39.242  1.00  0.00     0.218 C 
HETATM   15  C1  UNL     1     -11.099 -34.356 -40.104  1.00  0.00     0.117 C 
HETATM   16  O1  UNL     1     -10.738 -33.360 -38.035  1.00  0.00    -0.274 OA
ATOM     17  H1  UNL     1      -9.302 -32.486 -40.763  1.00  0.00     0.168 HD
ENDBRANCH  12  13
BRANCH  12  18
HETATM   18  C32 UNL     1      -7.738 -31.990 -38.142  1.00  0.00     0.040 C 
HETATM   19  C33 UNL     1      -7.247 -33.347 -38.763  1.00  0.00     0.011 C 
HETATM   20  C34 UNL     1      -6.525 -34.046 -37.643  1.00  0.00     0.001 C 
HETATM   21  C35 UNL     1      -5.258 -33.284 -37.353  1.00  0.00     0.000 C 
HETATM   22  C36 UNL     1      -5.555 -31.819 -37.101  1.00  0.00     0.001 C 
HETATM   23  C37 UNL     1      -6.385 -31.221 -38.197  1.00  0.00     0.011 C 
ENDBRANCH  12  18
BRANCH  11  24
HETATM   24  O2  UNL     1     -10.275 -29.889 -39.762  1.00  0.00    -0.345 OA
ATOM     25  H2  UNL     1     -10.681 -29.049 -39.584  1.00  0.00     0.219 HD
ENDBRANCH  11  24
ENDBRANCH   7  11
ENDBRANCH   3   6
ENDBRANCH   1   2
BRANCH   1  26
HETATM   26  C11 UNL     1     -11.962 -24.149 -36.918  1.00  0.00     0.136 C 
BRANCH  26  27
HETATM   27  O4  UNL     1     -12.048 -23.712 -38.146  1.00  0.00    -0.358 OA
ATOM     28  H4  UNL     1     -12.867 -23.263 -38.322  1.00  0.00     0.217 HD
ENDBRANCH  26  27
BRANCH  26  29
HETATM   29  C12 UNL     1     -11.326 -23.281 -36.015  1.00  0.00     0.273 C 
HETATM   30  O5  UNL     1     -11.104 -23.520 -34.817  1.00  0.00    -0.266 OA
HETATM   31  N4  UNL     1     -10.856 -21.975 -36.445  1.00  0.00    -0.347 N 
ATOM     32  H4  UNL     1     -11.008 -21.709 -37.418  1.00  0.00     0.163 HD
BRANCH  31  33
HETATM   33  C13 UNL     1     -10.197 -21.042 -35.595  1.00  0.00     0.022 C 
HETATM   34  C14 UNL     1     -10.004 -19.712 -36.347  1.00  0.00     0.037 C 
HETATM   35  C15 UNL     1      -8.805 -21.493 -35.227  1.00  0.00     0.037 C 
HETATM   36  C16 UNL     1     -10.949 -20.731 -34.340  1.00  0.00     0.037 C 
ENDBRANCH  31  33
ENDBRANCH  26  29
ENDBRANCH   1  26
BRANCH   1  37
HETATM   37  C17 UNL     1     -13.447 -25.607 -35.570  1.00  0.00     0.123 C 
BRANCH  37  38
HETATM   38  N5  UNL     1     -12.617 -26.312 -34.463  1.00  0.00    -0.329 N 
HETATM   39  C18 UNL     1     -12.659 -25.743 -33.168  1.00  0.00     0.361 C 
HETATM   40  O6  UNL     1     -13.324 -24.722 -32.916  1.00  0.00    -0.238 OA
ATOM     41  H5  UNL     1     -12.067 -27.149 -34.661  1.00  0.00     0.165 HD
BRANCH  39  42
HETATM   42  O7  UNL     1     -11.950 -26.306 -32.110  1.00  0.00    -0.299 OA
BRANCH  42  43
HETATM   43  C19 UNL     1     -10.696 -25.794 -31.702  1.00  0.00     0.134 C 
HETATM   44  C20 UNL     1      -9.673 -25.738 -32.798  1.00  0.00     0.033 C 
HETATM   45  C21 UNL     1      -8.648 -26.825 -32.556  1.00  0.00     0.007 C 
HETATM   46  C22 UNL     1      -7.796 -26.554 -31.320  1.00  0.00    -0.010 C 
HETATM   47  C23 UNL     1      -7.110 -27.828 -30.950  1.00  0.00     0.005 C 
HETATM   48  C26 UNL     1      -8.744 -26.185 -30.203  1.00  0.00    -0.008 C 
HETATM   49  C24 UNL     1      -7.334 -27.998 -29.486  1.00  0.00     0.001 C 
HETATM   50  C25 UNL     1      -8.190 -26.854 -28.985  1.00  0.00     0.005 C 
HETATM   51  C27 UNL     1     -10.172 -26.591 -30.523  1.00  0.00     0.037 C 
ENDBRANCH  42  43
ENDBRANCH  39  42
ENDBRANCH  37  38
BRANCH  37  52
HETATM   52  C28 UNL     1     -14.561 -26.669 -35.723  1.00  0.00    -0.028 C 
HETATM   53  C29 UNL     1     -15.113 -26.555 -37.177  1.00  0.00     0.016 C 
HETATM   54  C30 UNL     1     -14.032 -28.065 -35.583  1.00  0.00     0.016 C 
HETATM   55  C31 UNL     1     -15.770 -26.501 -34.884  1.00  0.00     0.016 C 
ENDBRANCH  37  52
ENDBRANCH   1  37
TORSDOF 15
ENDMDL
