MODEL 1
REMARK VINA RESULT: -9.893471810      0.000      0.000
REMARK  13 active torsions:
REMARK  status: ('A' for Active; 'I' for Inactive)
REMARK    1  A    between atoms: O1_2  and  C2_3 
REMARK    2  A    between atoms: C2_3  and  C3_5 
REMARK    3  A    between atoms: C3_5  and  N1_6 
REMARK    4  A    between atoms: C3_5  and  C34_50 
REMARK       I    between atoms: N1_6  and  C4_8 
REMARK    5  A    between atoms: C4_8  and  C5_10 
REMARK    6  A    between atoms: C5_10  and  C6_11 
REMARK    7  A    between atoms: C5_10  and  C29_45 
REMARK    8  A    between atoms: C7_13  and  C8_14 
REMARK    9  A    between atoms: C8_14  and  N3_15 
REMARK       I    between atoms: N3_15  and  C9_17 
REMARK   10  A    between atoms: C9_17  and  C10_19 
REMARK   11  A    between atoms: C10_19  and  C11_20 
REMARK       I    between atoms: N4_24  and  C15_25 
REMARK       I    between atoms: C15_25  and  N7_30 
REMARK   12  A    between atoms: C19_33  and  O5_34 
REMARK   13  A    between atoms: C29_45  and  C30_46 
ROOT
HETATM    1  C11 UNL     1     -12.468 -21.949 -30.687  1.00  0.00    -0.018 C 
HETATM    2  C12 UNL     1     -13.885 -22.444 -30.534  1.00  0.00     0.017 C 
HETATM    3  C13 UNL     1     -12.421 -20.688 -31.568  1.00  0.00     0.032 C 
HETATM    4  C14 UNL     1     -11.376 -21.042 -32.637  1.00  0.00     0.142 C 
HETATM    5  N4  UNL     1     -11.725 -22.455 -32.821  1.00  0.00    -0.216 N 
HETATM    6  C15 UNL     1     -12.013 -23.058 -34.048  1.00  0.00     0.687 C 
HETATM    7  N5  UNL     1     -11.204 -22.961 -35.044  1.00  0.00    -0.126 N 
ATOM      8  H5  UNL     1     -11.438 -23.411 -35.928  1.00  0.00     0.197 HD
HETATM    9  C16 UNL     1     -10.024 -22.256 -34.933  1.00  0.00     0.196 C 
HETATM   10  N6  UNL     1      -9.024 -21.664 -34.860  1.00  0.00    -0.171 NA
HETATM   11  N7  UNL     1     -13.207 -23.815 -34.289  1.00  0.00    -0.217 N 
HETATM   12  C17 UNL     1     -13.068 -25.243 -34.443  1.00  0.00     0.143 C 
HETATM   13  C18 UNL     1     -14.131 -25.884 -35.277  1.00  0.00     0.052 C 
HETATM   14  C19 UNL     1     -14.728 -24.881 -36.231  1.00  0.00     0.121 C 
HETATM   15  C20 UNL     1     -15.374 -23.742 -35.472  1.00  0.00     0.052 C 
HETATM   16  C21 UNL     1     -14.506 -23.212 -34.376  1.00  0.00     0.143 C 
HETATM   17  C22 UNL     1     -11.693 -22.985 -31.466  1.00  0.00     0.151 C 
ENDROOT
BRANCH   1  18
HETATM   18  C10 UNL     1     -11.828 -21.580 -29.398  1.00  0.00     0.113 C 
BRANCH  18  19
HETATM   19  C9  UNL     1     -11.483 -22.792 -28.555  1.00  0.00     0.218 C 
HETATM   20  N3  UNL     1     -12.307 -23.100 -27.499  1.00  0.00    -0.359 N 
ATOM     21  H3  UNL     1     -13.065 -22.424 -27.409  1.00  0.00     0.162 HD
HETATM   22  O4  UNL     1     -10.478 -23.387 -28.917  1.00  0.00    -0.274 OA
BRANCH  20  23
HETATM   23  C8  UNL     1     -12.389 -24.102 -26.502  1.00  0.00     0.147 C 
BRANCH  23  24
HETATM   24  C7  UNL     1     -13.467 -25.132 -26.668  1.00  0.00     0.102 C 
HETATM   25  N2  UNL     1     -13.361 -26.028 -27.726  1.00  0.00    -0.380 N 
HETATM   26  C6  UNL     1     -12.266 -26.401 -28.436  1.00  0.00     0.073 C 
HETATM   27  C25 UNL     1     -14.618 -26.379 -28.269  1.00  0.00     0.097 A 
HETATM   28  C24 UNL     1     -15.615 -25.381 -27.817  1.00  0.00     0.021 A 
HETATM   29  C26 UNL     1     -15.739 -26.830 -27.461  1.00  0.00    -0.021 A 
HETATM   30  C23 UNL     1     -14.828 -24.450 -26.914  1.00  0.00     0.034 C 
HETATM   31  C27 UNL     1     -16.836 -27.549 -28.270  1.00  0.00     0.017 C 
HETATM   32  C28 UNL     1     -15.745 -27.157 -26.009  1.00  0.00     0.017 C 
BRANCH  26  33
HETATM   33  C5  UNL     1     -11.261 -27.311 -27.708  1.00  0.00     0.117 C 
BRANCH  33  34
HETATM   34  C4  UNL     1      -9.931 -26.850 -28.134  1.00  0.00     0.227 C 
HETATM   35  N1  UNL     1      -9.368 -27.290 -29.352  1.00  0.00    -0.346 N 
ATOM     36  H1  UNL     1      -9.882 -27.973 -29.908  1.00  0.00     0.163 HD
HETATM   37  O3  UNL     1      -9.273 -26.042 -27.434  1.00  0.00    -0.273 OA
BRANCH  35  38
HETATM   38  C3  UNL     1      -8.078 -26.809 -29.850  1.00  0.00     0.191 C 
BRANCH  38  39
HETATM   39  C2  UNL     1      -8.466 -25.930 -31.023  1.00  0.00     0.282 C 
HETATM   40  O2  UNL     1      -7.700 -25.023 -31.460  1.00  0.00    -0.263 OA
BRANCH  39  41
HETATM   41  O1  UNL     1      -9.667 -26.063 -31.683  1.00  0.00    -0.325 OA
HETATM   42  C1  UNL     1      -9.776 -25.852 -33.082  1.00  0.00     0.213 C 
ENDBRANCH  39  41
ENDBRANCH  38  39
BRANCH  38  43
HETATM   43  C34 UNL     1      -7.153 -27.851 -30.343  1.00  0.00    -0.022 C 
HETATM   44  C35 UNL     1      -5.694 -27.514 -30.105  1.00  0.00     0.017 C 
HETATM   45  C36 UNL     1      -7.326 -28.247 -31.774  1.00  0.00     0.017 C 
HETATM   46  C37 UNL     1      -7.402 -29.137 -29.535  1.00  0.00     0.017 C 
ENDBRANCH  38  43
ENDBRANCH  35  38
ENDBRANCH  33  34
BRANCH  33  47
HETATM   47  C29 UNL     1     -11.563 -28.724 -27.958  1.00  0.00     0.028 C 
BRANCH  47  48
HETATM   48  C30 UNL     1     -11.278 -29.771 -26.981  1.00  0.00    -0.050 C 
HETATM   49  C31 UNL     1     -10.655 -29.394 -25.680  1.00  0.00     0.014 C 
HETATM   50  C32 UNL     1     -10.267 -30.739 -27.649  1.00  0.00     0.014 C 
HETATM   51  C33 UNL     1     -12.466 -30.663 -26.656  1.00  0.00     0.014 C 
ENDBRANCH  47  48
ENDBRANCH  33  47
ENDBRANCH  26  33
ENDBRANCH  23  24
ENDBRANCH  20  23
ENDBRANCH  18  19
ENDBRANCH   1  18
BRANCH  14  52
HETATM   52  O5  UNL     1     -13.768 -24.401 -37.129  1.00  0.00    -0.395 OA
ATOM     53  H5  UNL     1     -14.096 -23.655 -37.618  1.00  0.00     0.210 HD
ENDBRANCH  14  52
TORSDOF 13
ENDMDL
MODEL 2
REMARK VINA RESULT: -9.630077701      1.779      2.231
REMARK  13 active torsions:
REMARK  status: ('A' for Active; 'I' for Inactive)
REMARK    1  A    between atoms: O1_2  and  C2_3 
REMARK    2  A    between atoms: C2_3  and  C3_5 
REMARK    3  A    between atoms: C3_5  and  N1_6 
REMARK    4  A    between atoms: C3_5  and  C34_50 
REMARK       I    between atoms: N1_6  and  C4_8 
REMARK    5  A    between atoms: C4_8  and  C5_10 
REMARK    6  A    between atoms: C5_10  and  C6_11 
REMARK    7  A    between atoms: C5_10  and  C29_45 
REMARK    8  A    between atoms: C7_13  and  C8_14 
REMARK    9  A    between atoms: C8_14  and  N3_15 
REMARK       I    between atoms: N3_15  and  C9_17 
REMARK   10  A    between atoms: C9_17  and  C10_19 
REMARK   11  A    between atoms: C10_19  and  C11_20 
REMARK       I    between atoms: N4_24  and  C15_25 
REMARK       I    between atoms: C15_25  and  N7_30 
REMARK   12  A    between atoms: C19_33  and  O5_34 
REMARK   13  A    between atoms: C29_45  and  C30_46 
ROOT
HETATM    1  C11 UNL     1     -14.461 -22.165 -32.605  1.00  0.00    -0.018 C 
HETATM    2  C12 UNL     1     -15.608 -22.385 -33.560  1.00  0.00     0.017 C 
HETATM    3  C13 UNL     1     -13.422 -21.204 -33.210  1.00  0.00     0.032 C 
HETATM    4  C14 UNL     1     -12.102 -21.979 -33.079  1.00  0.00     0.142 C 
HETATM    5  N4  UNL     1     -12.611 -23.323 -33.380  1.00  0.00    -0.216 N 
HETATM    6  C15 UNL     1     -12.090 -24.179 -34.354  1.00  0.00     0.687 C 
HETATM    7  N5  UNL     1     -10.836 -24.470 -34.382  1.00  0.00    -0.126 N 
ATOM      8  H5  UNL     1     -10.482 -25.099 -35.103  1.00  0.00     0.197 HD
HETATM    9  C16 UNL     1      -9.965 -23.945 -33.451  1.00  0.00     0.196 C 
HETATM   10  N6  UNL     1      -9.213 -23.511 -32.676  1.00  0.00    -0.171 NA
HETATM   11  N7  UNL     1     -12.892 -24.786 -35.376  1.00  0.00    -0.217 N 
HETATM   12  C17 UNL     1     -13.119 -26.208 -35.285  1.00  0.00     0.143 C 
HETATM   13  C18 UNL     1     -13.379 -26.880 -36.595  1.00  0.00     0.052 C 
HETATM   14  C19 UNL     1     -12.769 -26.088 -37.723  1.00  0.00     0.121 C 
HETATM   15  C20 UNL     1     -13.381 -24.705 -37.795  1.00  0.00     0.052 C 
HETATM   16  C21 UNL     1     -13.466 -24.040 -36.459  1.00  0.00     0.143 C 
HETATM   17  C22 UNL     1     -13.723 -23.474 -32.453  1.00  0.00     0.151 C 
ENDROOT
BRANCH   1  18
HETATM   18  C10 UNL     1     -14.875 -21.568 -31.310  1.00  0.00     0.113 C 
BRANCH  18  19
HETATM   19  C9  UNL     1     -13.862 -21.813 -30.209  1.00  0.00     0.218 C 
HETATM   20  N3  UNL     1     -13.749 -23.087 -29.706  1.00  0.00    -0.359 N 
ATOM     21  H3  UNL     1     -14.412 -23.721 -30.150  1.00  0.00     0.162 HD
HETATM   22  O4  UNL     1     -13.231 -20.819 -29.876  1.00  0.00    -0.274 OA
BRANCH  20  23
HETATM   23  C8  UNL     1     -12.962 -23.757 -28.739  1.00  0.00     0.147 C 
BRANCH  23  24
HETATM   24  C7  UNL     1     -13.595 -24.929 -28.049  1.00  0.00     0.102 C 
HETATM   25  N2  UNL     1     -13.393 -26.195 -28.587  1.00  0.00    -0.380 N 
HETATM   26  C6  UNL     1     -12.413 -26.634 -29.419  1.00  0.00     0.073 C 
HETATM   27  C25 UNL     1     -14.516 -27.038 -28.432  1.00  0.00     0.097 A 
HETATM   28  C24 UNL     1     -15.691 -26.193 -28.115  1.00  0.00     0.021 A 
HETATM   29  C26 UNL     1     -15.196 -27.237 -27.163  1.00  0.00    -0.021 A 
HETATM   30  C23 UNL     1     -15.130 -24.785 -28.046  1.00  0.00     0.034 C 
HETATM   31  C27 UNL     1     -16.096 -28.487 -27.131  1.00  0.00     0.017 C 
HETATM   32  C28 UNL     1     -14.776 -26.759 -25.817  1.00  0.00     0.017 C 
BRANCH  26  33
HETATM   33  C5  UNL     1     -11.015 -26.795 -28.796  1.00  0.00     0.117 C 
BRANCH  33  34
HETATM   34  C4  UNL     1     -10.067 -26.393 -29.847  1.00  0.00     0.227 C 
HETATM   35  N1  UNL     1      -9.349 -27.361 -30.582  1.00  0.00    -0.346 N 
ATOM     36  H1  UNL     1      -9.465 -28.344 -30.338  1.00  0.00     0.163 HD
HETATM   37  O3  UNL     1      -9.887 -25.182 -30.125  1.00  0.00    -0.273 OA
BRANCH  35  38
HETATM   38  C3  UNL     1      -8.445 -27.014 -31.681  1.00  0.00     0.191 C 
BRANCH  38  39
HETATM   39  C2  UNL     1      -9.066 -27.711 -32.874  1.00  0.00     0.282 C 
HETATM   40  O2  UNL     1      -9.490 -28.901 -32.806  1.00  0.00    -0.263 OA
BRANCH  39  41
HETATM   41  O1  UNL     1      -9.211 -27.098 -34.099  1.00  0.00    -0.325 OA
HETATM   42  C1  UNL     1      -9.370 -27.846 -35.294  1.00  0.00     0.213 C 
ENDBRANCH  39  41
ENDBRANCH  38  39
BRANCH  38  43
HETATM   43  C34 UNL     1      -7.054 -27.492 -31.541  1.00  0.00    -0.022 C 
HETATM   44  C35 UNL     1      -6.072 -26.385 -31.214  1.00  0.00     0.017 C 
HETATM   45  C36 UNL     1      -6.521 -28.282 -32.693  1.00  0.00     0.017 C 
HETATM   46  C37 UNL     1      -6.993 -28.447 -30.335  1.00  0.00     0.017 C 
ENDBRANCH  38  43
ENDBRANCH  35  38
ENDBRANCH  33  34
BRANCH  33  47
HETATM   47  C29 UNL     1     -10.840 -28.147 -28.254  1.00  0.00     0.028 C 
BRANCH  47  48
HETATM   48  C30 UNL     1     -10.872 -28.426 -26.821  1.00  0.00    -0.050 C 
HETATM   49  C31 UNL     1      -9.753 -29.200 -26.211  1.00  0.00     0.014 C 
HETATM   50  C32 UNL     1     -12.142 -29.277 -26.563  1.00  0.00     0.014 C 
HETATM   51  C33 UNL     1     -11.082 -27.197 -25.950  1.00  0.00     0.014 C 
ENDBRANCH  47  48
ENDBRANCH  33  47
ENDBRANCH  26  33
ENDBRANCH  23  24
ENDBRANCH  20  23
ENDBRANCH  18  19
ENDBRANCH   1  18
BRANCH  14  52
HETATM   52  O5  UNL     1     -11.378 -26.012 -37.595  1.00  0.00    -0.395 OA
ATOM     53  H5  UNL     1     -11.074 -26.495 -36.835  1.00  0.00     0.210 HD
ENDBRANCH  14  52
TORSDOF 13
ENDMDL
MODEL 3
REMARK VINA RESULT: -9.469253762      6.166      9.769
REMARK  13 active torsions:
REMARK  status: ('A' for Active; 'I' for Inactive)
REMARK    1  A    between atoms: O1_2  and  C2_3 
REMARK    2  A    between atoms: C2_3  and  C3_5 
REMARK    3  A    between atoms: C3_5  and  N1_6 
REMARK    4  A    between atoms: C3_5  and  C34_50 
REMARK       I    between atoms: N1_6  and  C4_8 
REMARK    5  A    between atoms: C4_8  and  C5_10 
REMARK    6  A    between atoms: C5_10  and  C6_11 
REMARK    7  A    between atoms: C5_10  and  C29_45 
REMARK    8  A    between atoms: C7_13  and  C8_14 
REMARK    9  A    between atoms: C8_14  and  N3_15 
REMARK       I    between atoms: N3_15  and  C9_17 
REMARK   10  A    between atoms: C9_17  and  C10_19 
REMARK   11  A    between atoms: C10_19  and  C11_20 
REMARK       I    between atoms: N4_24  and  C15_25 
REMARK       I    between atoms: C15_25  and  N7_30 
REMARK   12  A    between atoms: C19_33  and  O5_34 
REMARK   13  A    between atoms: C29_45  and  C30_46 
ROOT
HETATM    1  C11 UNL     1      -9.102 -30.689 -37.097  1.00  0.00    -0.018 C 
HETATM    2  C12 UNL     1     -10.490 -30.412 -37.619  1.00  0.00     0.017 C 
HETATM    3  C13 UNL     1      -8.045 -30.414 -38.182  1.00  0.00     0.032 C 
HETATM    4  C14 UNL     1      -7.231 -31.717 -38.223  1.00  0.00     0.142 C 
HETATM    5  N4  UNL     1      -8.334 -32.666 -38.028  1.00  0.00    -0.216 N 
HETATM    6  C15 UNL     1      -8.613 -33.754 -38.858  1.00  0.00     0.687 C 
HETATM    7  N5  UNL     1      -7.705 -34.618 -39.150  1.00  0.00    -0.126 N 
ATOM      8  H5  UNL     1      -7.936 -35.404 -39.758  1.00  0.00     0.197 HD
HETATM    9  C16 UNL     1      -6.425 -34.498 -38.654  1.00  0.00     0.196 C 
HETATM   10  N6  UNL     1      -5.337 -34.413 -38.246  1.00  0.00    -0.171 NA
HETATM   11  N7  UNL     1      -9.904 -33.988 -39.437  1.00  0.00    -0.217 N 
HETATM   12  C17 UNL     1     -10.665 -35.105 -38.934  1.00  0.00     0.143 C 
HETATM   13  C18 UNL     1     -11.636 -35.687 -39.912  1.00  0.00     0.052 C 
HETATM   14  C19 UNL     1     -11.195 -35.400 -41.324  1.00  0.00     0.121 C 
HETATM   15  C20 UNL     1     -11.141 -33.908 -41.573  1.00  0.00     0.052 C 
HETATM   16  C21 UNL     1     -10.451 -33.163 -40.476  1.00  0.00     0.143 C 
HETATM   17  C22 UNL     1      -8.991 -32.170 -36.827  1.00  0.00     0.151 C 
ENDROOT
BRANCH   1  18
HETATM   18  C10 UNL     1      -8.729 -29.847 -35.932  1.00  0.00     0.113 C 
BRANCH  18  19
HETATM   19  C9  UNL     1      -9.940 -29.306 -35.197  1.00  0.00     0.218 C 
HETATM   20  N3  UNL     1     -10.031 -27.947 -35.013  1.00  0.00    -0.359 N 
ATOM     21  H3  UNL     1      -9.218 -27.465 -35.397  1.00  0.00     0.162 HD
HETATM   22  O4  UNL     1     -10.734 -30.163 -34.837  1.00  0.00    -0.274 OA
BRANCH  20  23
HETATM   23  C8  UNL     1     -10.946 -27.034 -34.436  1.00  0.00     0.147 C 
BRANCH  23  24
HETATM   24  C7  UNL     1     -11.752 -26.196 -35.384  1.00  0.00     0.102 C 
HETATM   25  N2  UNL     1     -12.346 -25.038 -34.894  1.00  0.00    -0.380 N 
HETATM   26  C6  UNL     1     -12.031 -24.304 -33.796  1.00  0.00     0.073 C 
HETATM   27  C25 UNL     1     -13.593 -24.769 -35.500  1.00  0.00     0.097 A 
HETATM   28  C24 UNL     1     -14.065 -26.006 -36.163  1.00  0.00     0.021 A 
HETATM   29  C26 UNL     1     -13.795 -24.755 -36.940  1.00  0.00    -0.021 A 
HETATM   30  C23 UNL     1     -12.946 -27.003 -35.932  1.00  0.00     0.034 C 
HETATM   31  C27 UNL     1     -15.086 -24.037 -37.377  1.00  0.00     0.017 C 
HETATM   32  C28 UNL     1     -12.763 -24.848 -38.008  1.00  0.00     0.017 C 
BRANCH  26  33
HETATM   33  C5  UNL     1     -10.739 -23.474 -33.881  1.00  0.00     0.117 C 
BRANCH  33  34
HETATM   34  C4  UNL     1     -10.049 -23.686 -32.598  1.00  0.00     0.227 C 
HETATM   35  N1  UNL     1      -9.507 -24.947 -32.268  1.00  0.00    -0.346 N 
ATOM     36  H1  UNL     1      -9.646 -25.723 -32.916  1.00  0.00     0.163 HD
HETATM   37  O3  UNL     1      -9.912 -22.747 -31.776  1.00  0.00    -0.273 OA
BRANCH  35  38
HETATM   38  C3  UNL     1      -8.755 -25.191 -31.035  1.00  0.00     0.191 C 
BRANCH  38  39
HETATM   39  C2  UNL     1      -7.576 -26.018 -31.507  1.00  0.00     0.282 C 
HETATM   40  O2  UNL     1      -6.386 -25.600 -31.410  1.00  0.00    -0.263 OA
BRANCH  39  41
HETATM   41  O1  UNL     1      -7.723 -27.269 -32.063  1.00  0.00    -0.325 OA
HETATM   42  C1  UNL     1      -6.664 -28.213 -32.066  1.00  0.00     0.213 C 
ENDBRANCH  39  41
ENDBRANCH  38  39
BRANCH  38  43
HETATM   43  C34 UNL     1      -9.467 -25.958 -29.992  1.00  0.00    -0.022 C 
HETATM   44  C35 UNL     1      -8.539 -26.772 -29.113  1.00  0.00     0.017 C 
HETATM   45  C36 UNL     1     -10.569 -26.844 -30.478  1.00  0.00     0.017 C 
HETATM   46  C37 UNL     1     -10.144 -24.957 -29.037  1.00  0.00     0.017 C 
ENDBRANCH  38  43
ENDBRANCH  35  38
ENDBRANCH  33  34
BRANCH  33  47
HETATM   47  C29 UNL     1     -11.036 -22.081 -34.228  1.00  0.00     0.028 C 
BRANCH  47  48
HETATM   48  C30 UNL     1     -10.365 -21.387 -35.324  1.00  0.00    -0.050 C 
HETATM   49  C31 UNL     1     -10.606 -19.927 -35.509  1.00  0.00     0.014 C 
HETATM   50  C32 UNL     1     -10.858 -22.049 -36.637  1.00  0.00     0.014 C 
HETATM   51  C33 UNL     1      -8.858 -21.592 -35.364  1.00  0.00     0.014 C 
ENDBRANCH  47  48
ENDBRANCH  33  47
ENDBRANCH  26  33
ENDBRANCH  23  24
ENDBRANCH  20  23
ENDBRANCH  18  19
ENDBRANCH   1  18
BRANCH  14  52
HETATM   52  O5  UNL     1      -9.960 -35.997 -41.602  1.00  0.00    -0.395 OA
ATOM     53  H5  UNL     1      -9.456 -36.132 -40.808  1.00  0.00     0.210 HD
ENDBRANCH  14  52
TORSDOF 13
ENDMDL
MODEL 4
REMARK VINA RESULT: -8.961133125      1.557      2.464
REMARK  13 active torsions:
REMARK  status: ('A' for Active; 'I' for Inactive)
REMARK    1  A    between atoms: O1_2  and  C2_3 
REMARK    2  A    between atoms: C2_3  and  C3_5 
REMARK    3  A    between atoms: C3_5  and  N1_6 
REMARK    4  A    between atoms: C3_5  and  C34_50 
REMARK       I    between atoms: N1_6  and  C4_8 
REMARK    5  A    between atoms: C4_8  and  C5_10 
REMARK    6  A    between atoms: C5_10  and  C6_11 
REMARK    7  A    between atoms: C5_10  and  C29_45 
REMARK    8  A    between atoms: C7_13  and  C8_14 
REMARK    9  A    between atoms: C8_14  and  N3_15 
REMARK       I    between atoms: N3_15  and  C9_17 
REMARK   10  A    between atoms: C9_17  and  C10_19 
REMARK   11  A    between atoms: C10_19  and  C11_20 
REMARK       I    between atoms: N4_24  and  C15_25 
REMARK       I    between atoms: C15_25  and  N7_30 
REMARK   12  A    between atoms: C19_33  and  O5_34 
REMARK   13  A    between atoms: C29_45  and  C30_46 
ROOT
HETATM    1  C11 UNL     1     -11.585 -22.722 -32.485  1.00  0.00    -0.018 C 
HETATM    2  C12 UNL     1     -10.343 -23.465 -32.913  1.00  0.00     0.017 C 
HETATM    3  C13 UNL     1     -12.623 -23.690 -31.890  1.00  0.00     0.032 C 
HETATM    4  C14 UNL     1     -13.897 -23.381 -32.691  1.00  0.00     0.142 C 
HETATM    5  N4  UNL     1     -13.279 -23.160 -34.003  1.00  0.00    -0.216 N 
HETATM    6  C15 UNL     1     -13.653 -23.804 -35.186  1.00  0.00     0.687 C 
HETATM    7  N5  UNL     1     -14.877 -23.809 -35.583  1.00  0.00    -0.126 N 
ATOM      8  H5  UNL     1     -15.123 -24.285 -36.450  1.00  0.00     0.197 HD
HETATM    9  C16 UNL     1     -15.862 -23.178 -34.852  1.00  0.00     0.196 C 
HETATM   10  N6  UNL     1     -16.708 -22.653 -34.249  1.00  0.00    -0.171 NA
HETATM   11  N7  UNL     1     -12.722 -24.495 -36.030  1.00  0.00    -0.217 N 
HETATM   12  C17 UNL     1     -12.415 -23.898 -37.307  1.00  0.00     0.143 C 
HETATM   13  C18 UNL     1     -11.993 -24.871 -38.362  1.00  0.00     0.052 C 
HETATM   14  C19 UNL     1     -12.546 -26.241 -38.065  1.00  0.00     0.121 C 
HETATM   15  C20 UNL     1     -12.020 -26.754 -36.741  1.00  0.00     0.052 C 
HETATM   16  C21 UNL     1     -12.100 -25.732 -35.653  1.00  0.00     0.143 C 
HETATM   17  C22 UNL     1     -12.249 -22.170 -33.724  1.00  0.00     0.151 C 
ENDROOT
BRANCH   1  18
HETATM   18  C10 UNL     1     -11.331 -21.694 -31.444  1.00  0.00     0.113 C 
BRANCH  18  19
HETATM   19  C9  UNL     1     -10.686 -22.276 -30.201  1.00  0.00     0.218 C 
HETATM   20  N3  UNL     1     -11.379 -23.234 -29.501  1.00  0.00    -0.359 N 
ATOM     21  H3  UNL     1     -12.289 -23.417 -29.924  1.00  0.00     0.162 HD
HETATM   22  O4  UNL     1      -9.581 -21.818 -29.946  1.00  0.00    -0.274 OA
BRANCH  20  23
HETATM   23  C8  UNL     1     -11.173 -24.037 -28.354  1.00  0.00     0.147 C 
BRANCH  23  24
HETATM   24  C7  UNL     1     -12.362 -24.789 -27.833  1.00  0.00     0.102 C 
HETATM   25  N2  UNL     1     -12.572 -26.085 -28.291  1.00  0.00    -0.380 N 
HETATM   26  C6  UNL     1     -11.692 -26.958 -28.847  1.00  0.00     0.073 C 
HETATM   27  C25 UNL     1     -13.943 -26.403 -28.415  1.00  0.00     0.097 A 
HETATM   28  C24 UNL     1     -14.716 -25.139 -28.411  1.00  0.00     0.021 A 
HETATM   29  C26 UNL     1     -14.912 -26.181 -27.354  1.00  0.00    -0.021 A 
HETATM   30  C23 UNL     1     -13.666 -24.061 -28.216  1.00  0.00     0.034 C 
HETATM   31  C27 UNL     1     -16.222 -26.973 -27.537  1.00  0.00     0.017 C 
HETATM   32  C28 UNL     1     -14.651 -25.760 -25.951  1.00  0.00     0.017 C 
BRANCH  26  33
HETATM   33  C5  UNL     1     -10.658 -27.579 -27.892  1.00  0.00     0.117 C 
BRANCH  33  34
HETATM   34  C4  UNL     1      -9.357 -27.036 -28.312  1.00  0.00     0.227 C 
HETATM   35  N1  UNL     1      -8.722 -27.502 -29.483  1.00  0.00    -0.346 N 
ATOM     36  H1  UNL     1      -9.160 -28.260 -30.007  1.00  0.00     0.163 HD
HETATM   37  O3  UNL     1      -8.790 -26.133 -27.648  1.00  0.00    -0.273 OA
BRANCH  35  38
HETATM   38  C3  UNL     1      -7.460 -26.947 -29.977  1.00  0.00     0.191 C 
BRANCH  38  39
HETATM   39  C2  UNL     1      -7.883 -26.171 -31.209  1.00  0.00     0.282 C 
HETATM   40  O2  UNL     1      -7.158 -25.262 -31.708  1.00  0.00    -0.263 OA
BRANCH  39  41
HETATM   41  O1  UNL     1      -9.073 -26.406 -31.860  1.00  0.00    -0.325 OA
HETATM   42  C1  UNL     1      -9.111 -26.860 -33.204  1.00  0.00     0.213 C 
ENDBRANCH  39  41
ENDBRANCH  38  39
BRANCH  38  43
HETATM   43  C34 UNL     1      -6.441 -27.936 -30.385  1.00  0.00    -0.022 C 
HETATM   44  C35 UNL     1      -5.036 -27.552 -29.964  1.00  0.00     0.017 C 
HETATM   45  C36 UNL     1      -6.427 -28.292 -31.837  1.00  0.00     0.017 C 
HETATM   46  C37 UNL     1      -6.730 -29.256 -29.648  1.00  0.00     0.017 C 
ENDBRANCH  38  43
ENDBRANCH  35  38
ENDBRANCH  33  34
BRANCH  33  47
HETATM   47  C29 UNL     1     -10.771 -29.042 -27.882  1.00  0.00     0.028 C 
BRANCH  47  48
HETATM   48  C30 UNL     1     -11.379 -29.773 -26.774  1.00  0.00    -0.050 C 
HETATM   49  C31 UNL     1     -10.702 -29.766 -25.446  1.00  0.00     0.014 C 
HETATM   50  C32 UNL     1     -11.427 -31.263 -27.198  1.00  0.00     0.014 C 
HETATM   51  C33 UNL     1     -12.839 -29.426 -26.523  1.00  0.00     0.014 C 
ENDBRANCH  47  48
ENDBRANCH  33  47
ENDBRANCH  26  33
ENDBRANCH  23  24
ENDBRANCH  20  23
ENDBRANCH  18  19
ENDBRANCH   1  18
BRANCH  14  52
HETATM   52  O5  UNL     1     -13.945 -26.238 -38.078  1.00  0.00    -0.395 OA
ATOM     53  H5  UNL     1     -14.294 -25.584 -37.482  1.00  0.00     0.210 HD
ENDBRANCH  14  52
TORSDOF 13
ENDMDL
MODEL 5
REMARK VINA RESULT: -8.867488897      6.162     10.040
REMARK  13 active torsions:
REMARK  status: ('A' for Active; 'I' for Inactive)
REMARK    1  A    between atoms: O1_2  and  C2_3 
REMARK    2  A    between atoms: C2_3  and  C3_5 
REMARK    3  A    between atoms: C3_5  and  N1_6 
REMARK    4  A    between atoms: C3_5  and  C34_50 
REMARK       I    between atoms: N1_6  and  C4_8 
REMARK    5  A    between atoms: C4_8  and  C5_10 
REMARK    6  A    between atoms: C5_10  and  C6_11 
REMARK    7  A    between atoms: C5_10  and  C29_45 
REMARK    8  A    between atoms: C7_13  and  C8_14 
REMARK    9  A    between atoms: C8_14  and  N3_15 
REMARK       I    between atoms: N3_15  and  C9_17 
REMARK   10  A    between atoms: C9_17  and  C10_19 
REMARK   11  A    between atoms: C10_19  and  C11_20 
REMARK       I    between atoms: N4_24  and  C15_25 
REMARK       I    between atoms: C15_25  and  N7_30 
REMARK   12  A    between atoms: C19_33  and  O5_34 
REMARK   13  A    between atoms: C29_45  and  C30_46 
ROOT
HETATM    1  C11 UNL     1      -9.106 -30.682 -37.073  1.00  0.00    -0.018 C 
HETATM    2  C12 UNL     1     -10.500 -30.419 -37.588  1.00  0.00     0.017 C 
HETATM    3  C13 UNL     1      -8.059 -30.409 -38.166  1.00  0.00     0.032 C 
HETATM    4  C14 UNL     1      -7.236 -31.707 -38.201  1.00  0.00     0.142 C 
HETATM    5  N4  UNL     1      -8.331 -32.662 -37.992  1.00  0.00    -0.216 N 
HETATM    6  C15 UNL     1      -8.608 -33.758 -38.812  1.00  0.00     0.687 C 
HETATM    7  N5  UNL     1      -7.696 -34.619 -39.103  1.00  0.00    -0.126 N 
ATOM      8  H5  UNL     1      -7.925 -35.411 -39.703  1.00  0.00     0.197 HD
HETATM    9  C16 UNL     1      -6.414 -34.486 -38.615  1.00  0.00     0.196 C 
HETATM   10  N6  UNL     1      -5.324 -34.390 -38.215  1.00  0.00    -0.171 NA
HETATM   11  N7  UNL     1      -9.901 -34.005 -39.382  1.00  0.00    -0.217 N 
HETATM   12  C17 UNL     1     -10.651 -35.123 -38.865  1.00  0.00     0.143 C 
HETATM   13  C18 UNL     1     -11.624 -35.719 -39.833  1.00  0.00     0.052 C 
HETATM   14  C19 UNL     1     -11.193 -35.440 -41.250  1.00  0.00     0.121 C 
HETATM   15  C20 UNL     1     -11.151 -33.950 -41.511  1.00  0.00     0.052 C 
HETATM   16  C21 UNL     1     -10.459 -33.192 -40.424  1.00  0.00     0.143 C 
HETATM   17  C22 UNL     1      -8.984 -32.161 -36.791  1.00  0.00     0.151 C 
ENDROOT
BRANCH   1  18
HETATM   18  C10 UNL     1      -8.732 -29.829 -35.916  1.00  0.00     0.113 C 
BRANCH  18  19
HETATM   19  C9  UNL     1      -9.942 -29.278 -35.188  1.00  0.00     0.218 C 
HETATM   20  N3  UNL     1     -10.047 -27.914 -35.047  1.00  0.00    -0.359 N 
ATOM     21  H3  UNL     1      -9.243 -27.437 -35.453  1.00  0.00     0.162 HD
HETATM   22  O4  UNL     1     -10.724 -30.132 -34.793  1.00  0.00    -0.274 OA
BRANCH  20  23
HETATM   23  C8  UNL     1     -10.967 -26.994 -34.490  1.00  0.00     0.147 C 
BRANCH  23  24
HETATM   24  C7  UNL     1     -11.874 -26.283 -35.451  1.00  0.00     0.102 C 
HETATM   25  N2  UNL     1     -12.912 -25.517 -34.930  1.00  0.00    -0.380 N 
HETATM   26  C6  UNL     1     -13.048 -24.975 -33.692  1.00  0.00     0.073 C 
HETATM   27  C25 UNL     1     -14.070 -25.548 -35.739  1.00  0.00     0.097 A 
HETATM   28  C24 UNL     1     -13.959 -26.699 -36.665  1.00  0.00     0.021 A 
HETATM   29  C26 UNL     1     -14.051 -25.292 -37.170  1.00  0.00    -0.021 A 
HETATM   30  C23 UNL     1     -12.601 -27.299 -36.354  1.00  0.00     0.034 C 
HETATM   31  C27 UNL     1     -15.436 -24.960 -37.758  1.00  0.00     0.017 C 
HETATM   32  C28 UNL     1     -12.911 -24.810 -37.996  1.00  0.00     0.017 C 
BRANCH  26  33
HETATM   33  C5  UNL     1     -12.146 -23.770 -33.375  1.00  0.00     0.117 C 
BRANCH  33  34
HETATM   34  C4  UNL     1     -12.562 -23.306 -32.042  1.00  0.00     0.227 C 
HETATM   35  N1  UNL     1     -11.603 -22.947 -31.070  1.00  0.00    -0.346 N 
ATOM     36  H1  UNL     1     -10.615 -23.063 -31.293  1.00  0.00     0.163 HD
HETATM   37  O3  UNL     1     -13.777 -23.201 -31.745  1.00  0.00    -0.273 OA
BRANCH  35  38
HETATM   38  C3  UNL     1     -11.967 -22.417 -29.754  1.00  0.00     0.191 C 
BRANCH  38  39
HETATM   39  C2  UNL     1     -11.085 -21.192 -29.618  1.00  0.00     0.282 C 
HETATM   40  O2  UNL     1      -9.861 -21.211 -29.936  1.00  0.00    -0.263 OA
BRANCH  39  41
HETATM   41  O1  UNL     1     -11.558 -19.987 -29.147  1.00  0.00    -0.325 OA
HETATM   42  C1  UNL     1     -12.946 -19.748 -28.972  1.00  0.00     0.213 C 
ENDBRANCH  39  41
ENDBRANCH  38  39
BRANCH  38  43
HETATM   43  C34 UNL     1     -11.695 -23.309 -28.607  1.00  0.00    -0.022 C 
HETATM   44  C35 UNL     1     -12.905 -24.117 -28.181  1.00  0.00     0.017 C 
HETATM   45  C36 UNL     1     -11.109 -22.651 -27.400  1.00  0.00     0.017 C 
HETATM   46  C37 UNL     1     -10.653 -24.352 -29.046  1.00  0.00     0.017 C 
ENDBRANCH  38  43
ENDBRANCH  35  38
ENDBRANCH  33  34
BRANCH  33  47
HETATM   47  C29 UNL     1     -12.208 -22.775 -34.451  1.00  0.00     0.028 C 
BRANCH  47  48
HETATM   48  C30 UNL     1     -11.040 -22.014 -34.884  1.00  0.00    -0.050 C 
HETATM   49  C31 UNL     1     -10.759 -21.888 -36.343  1.00  0.00     0.014 C 
HETATM   50  C32 UNL     1      -9.799 -22.732 -34.292  1.00  0.00     0.014 C 
HETATM   51  C33 UNL     1     -10.955 -20.613 -34.298  1.00  0.00     0.014 C 
ENDBRANCH  47  48
ENDBRANCH  33  47
ENDBRANCH  26  33
ENDBRANCH  23  24
ENDBRANCH  20  23
ENDBRANCH  18  19
ENDBRANCH   1  18
BRANCH  14  52
HETATM   52  O5  UNL     1      -9.957 -36.031 -41.530  1.00  0.00    -0.395 OA
ATOM     53  H5  UNL     1      -9.238 -35.487 -41.228  1.00  0.00     0.210 HD
ENDBRANCH  14  52
TORSDOF 13
ENDMDL
