MODEL 1
REMARK VINA RESULT: -10.791062014      0.000      0.000
REMARK  10 active torsions:
REMARK  status: ('A' for Active; 'I' for Inactive)
REMARK    1  A    between atoms: N1_2  and  C3_4 
REMARK    2  A    between atoms: C3_4  and  C6_7 
REMARK       I    between atoms: C6_7  and  N2_9 
REMARK    3  A    between atoms: N2_9  and  C7_11 
REMARK    4  A    between atoms: C7_11  and  C8_12 
REMARK    5  A    between atoms: C7_11  and  C12_20 
REMARK    6  A    between atoms: C8_12  and  C9_13 
REMARK    7  A    between atoms: C9_13  and  C10_14 
REMARK    8  A    between atoms: C10_14  and  N3_15 
REMARK       I    between atoms: C12_20  and  N6_22 
REMARK    9  A    between atoms: C15_25  and  C16_26 
REMARK       I    between atoms: C16_26  and  N7_28 
REMARK   10  A    between atoms: N7_28  and  C17_30 
ROOT
HETATM    1  C16 UNL     1     -13.047 -23.863 -30.022  1.00  0.00     0.241 C 
HETATM    2  O3  UNL     1     -13.331 -24.874 -30.710  1.00  0.00    -0.271 OA
HETATM    3  N7  UNL     1     -13.260 -23.971 -28.625  1.00  0.00    -0.354 N 
ATOM      4  H7  UNL     1     -13.046 -23.162 -28.043  1.00  0.00     0.162 HD
ENDROOT
BRANCH   1   5
HETATM    5  C15 UNL     1     -12.518 -22.638 -30.652  1.00  0.00     0.180 C 
HETATM    6  N6  UNL     1     -11.650 -22.958 -31.799  1.00  0.00    -0.337 N 
HETATM    7  C12 UNL     1     -11.941 -23.116 -33.168  1.00  0.00     0.243 C 
HETATM    8  C13 UNL     1     -10.565 -23.027 -30.876  1.00  0.00     0.129 C 
HETATM    9  O2  UNL     1     -13.155 -22.909 -33.561  1.00  0.00    -0.271 OA
HETATM   10  C14 UNL     1     -11.306 -22.050 -29.973  1.00  0.00     0.055 C 
BRANCH   7  11
HETATM   11  C7  UNL     1     -11.010 -23.499 -34.230  1.00  0.00     0.176 C 
BRANCH  11  12
HETATM   12  N2  UNL     1     -11.740 -24.033 -35.377  1.00  0.00    -0.346 N 
HETATM   13  C6  UNL     1     -12.239 -25.355 -35.451  1.00  0.00     0.256 C 
HETATM   14  O1  UNL     1     -12.076 -26.149 -34.518  1.00  0.00    -0.271 OA
ATOM     15  H2  UNL     1     -11.899 -23.415 -36.173  1.00  0.00     0.163 HD
BRANCH  13  16
HETATM   16  C3  UNL     1     -12.978 -25.820 -36.668  1.00  0.00     0.231 C 
HETATM   17  C4  UNL     1     -13.918 -24.694 -37.046  1.00  0.00     0.059 C 
HETATM   18  C5  UNL     1     -13.779 -27.066 -36.361  1.00  0.00     0.059 C 
BRANCH  16  19
HETATM   19  N1  UNL     1     -12.075 -26.138 -37.765  1.00  0.00     0.098 N 
HETATM   20  C1  UNL     1     -12.825 -26.283 -39.008  1.00  0.00     0.310 C 
HETATM   21  C2  UNL     1     -11.439 -27.422 -37.522  1.00  0.00     0.310 C 
ENDBRANCH  16  19
ENDBRANCH  13  16
ENDBRANCH  11  12
BRANCH  11  22
HETATM   22  C8  UNL     1     -10.086 -22.406 -34.635  1.00  0.00     0.036 C 
BRANCH  22  23
HETATM   23  C9  UNL     1     -10.537 -21.679 -35.881  1.00  0.00     0.022 C 
BRANCH  23  24
HETATM   24  C10 UNL     1      -9.938 -20.286 -35.934  1.00  0.00     0.122 C 
BRANCH  24  25
HETATM   25  N3  UNL     1      -8.575 -20.278 -35.407  1.00  0.00    -0.367 N 
HETATM   26  C11 UNL     1      -7.576 -19.927 -36.157  1.00  0.00     0.196 C 
HETATM   27  N4  UNL     1      -7.712 -19.535 -37.495  1.00  0.00    -0.067 NA
HETATM   28  N5  UNL     1      -6.281 -19.942 -35.583  1.00  0.00    -0.067 NA
ATOM     29  H3  UNL     1      -8.406 -20.551 -34.439  1.00  0.00     0.161 HD
ENDBRANCH  24  25
ENDBRANCH  23  24
ENDBRANCH  22  23
ENDBRANCH  11  22
ENDBRANCH   7  11
ENDBRANCH   1   5
BRANCH   3  30
HETATM   30  C17 UNL     1     -13.765 -25.167 -27.978  1.00  0.00     0.089 C 
HETATM   31  C18 UNL     1     -15.242 -25.076 -27.700  1.00  0.00     0.030 C 
HETATM   32  C19 UNL     1     -15.690 -26.200 -26.755  1.00  0.00    -0.013 C 
HETATM   33  C20 UNL     1     -15.017 -25.972 -25.441  1.00  0.00     0.005 C 
HETATM   34  C36 UNL     1     -15.544 -27.536 -27.377  1.00  0.00     0.005 C 
HETATM   35  C21 UNL     1     -13.577 -25.658 -25.487  1.00  0.00     0.007 C 
HETATM   36  C22 UNL     1     -12.934 -25.615 -26.854  1.00  0.00     0.011 C 
HETATM   37  C23 UNL     1     -12.017 -26.783 -27.086  1.00  0.00     0.039 C 
HETATM   38  C24 UNL     1     -12.593 -28.054 -27.584  1.00  0.00     0.127 C 
HETATM   39  O4  UNL     1     -11.482 -28.786 -28.087  1.00  0.00    -0.373 OA
HETATM   40  C34 UNL     1     -13.449 -28.832 -26.677  1.00  0.00     0.020 C 
HETATM   41  C25 UNL     1     -10.858 -29.631 -27.260  1.00  0.00     0.076 C 
HETATM   42  C26 UNL     1      -9.979 -29.058 -26.185  1.00  0.00     0.047 C 
HETATM   43  C27 UNL     1      -9.902 -30.445 -28.153  1.00  0.00     0.040 C 
HETATM   44  C37 UNL     1     -11.719 -30.672 -26.609  1.00  0.00     0.060 C 
HETATM   45  C28 UNL     1     -10.083 -31.876 -27.764  1.00  0.00     0.014 C 
HETATM   46  C29 UNL     1     -11.541 -31.967 -27.372  1.00  0.00    -0.023 C 
HETATM   47  C30 UNL     1     -11.852 -33.185 -26.546  1.00  0.00     0.017 C 
HETATM   48  C31 UNL     1     -12.457 -31.914 -28.550  1.00  0.00     0.011 C 
HETATM   49  C32 UNL     1     -13.466 -30.794 -28.273  1.00  0.00     0.007 C 
HETATM   50  C33 UNL     1     -13.136 -30.329 -26.886  1.00  0.00     0.015 C 
HETATM   51  S1  UNL     1     -11.344 -30.936 -24.874  1.00  0.00    -0.082 SA
HETATM   52  C35 UNL     1     -14.902 -28.624 -26.638  1.00  0.00     0.008 C 
ENDBRANCH   3  30
TORSDOF 10
ENDMDL
MODEL 2
REMARK VINA RESULT: -10.507390739      4.201      7.383
REMARK  10 active torsions:
REMARK  status: ('A' for Active; 'I' for Inactive)
REMARK    1  A    between atoms: N1_2  and  C3_4 
REMARK    2  A    between atoms: C3_4  and  C6_7 
REMARK       I    between atoms: C6_7  and  N2_9 
REMARK    3  A    between atoms: N2_9  and  C7_11 
REMARK    4  A    between atoms: C7_11  and  C8_12 
REMARK    5  A    between atoms: C7_11  and  C12_20 
REMARK    6  A    between atoms: C8_12  and  C9_13 
REMARK    7  A    between atoms: C9_13  and  C10_14 
REMARK    8  A    between atoms: C10_14  and  N3_15 
REMARK       I    between atoms: C12_20  and  N6_22 
REMARK    9  A    between atoms: C15_25  and  C16_26 
REMARK       I    between atoms: C16_26  and  N7_28 
REMARK   10  A    between atoms: N7_28  and  C17_30 
ROOT
HETATM    1  C16 UNL     1     -10.387 -24.254 -29.950  1.00  0.00     0.241 C 
HETATM    2  O3  UNL     1     -10.135 -23.029 -30.053  1.00  0.00    -0.271 OA
HETATM    3  N7  UNL     1     -10.706 -24.726 -28.652  1.00  0.00    -0.354 N 
ATOM      4  H7  UNL     1     -10.906 -25.719 -28.538  1.00  0.00     0.162 HD
ENDROOT
BRANCH   1   5
HETATM    5  C15 UNL     1     -10.352 -25.140 -31.130  1.00  0.00     0.180 C 
HETATM    6  N6  UNL     1     -11.009 -24.511 -32.290  1.00  0.00    -0.337 N 
HETATM    7  C12 UNL     1     -10.497 -23.700 -33.321  1.00  0.00     0.243 C 
HETATM    8  C13 UNL     1     -12.232 -25.079 -31.823  1.00  0.00     0.129 C 
HETATM    9  O2  UNL     1      -9.225 -23.467 -33.337  1.00  0.00    -0.271 OA
HETATM   10  C14 UNL     1     -11.430 -26.194 -31.163  1.00  0.00     0.055 C 
BRANCH   7  11
HETATM   11  C7  UNL     1     -11.251 -23.068 -34.404  1.00  0.00     0.176 C 
BRANCH  11  12
HETATM   12  N2  UNL     1     -12.201 -24.016 -34.981  1.00  0.00    -0.346 N 
HETATM   13  C6  UNL     1     -12.504 -24.090 -36.361  1.00  0.00     0.256 C 
HETATM   14  O1  UNL     1     -11.961 -23.332 -37.173  1.00  0.00    -0.271 OA
ATOM     15  H2  UNL     1     -12.675 -24.662 -34.350  1.00  0.00     0.163 HD
BRANCH  13  16
HETATM   16  C3  UNL     1     -13.492 -25.095 -36.868  1.00  0.00     0.231 C 
HETATM   17  C4  UNL     1     -12.925 -25.627 -38.169  1.00  0.00     0.059 C 
HETATM   18  C5  UNL     1     -14.830 -24.441 -37.129  1.00  0.00     0.059 C 
BRANCH  16  19
HETATM   19  N1  UNL     1     -13.710 -26.173 -35.914  1.00  0.00     0.098 N 
HETATM   20  C1  UNL     1     -12.898 -27.333 -36.271  1.00  0.00     0.310 C 
HETATM   21  C2  UNL     1     -15.094 -26.612 -35.975  1.00  0.00     0.310 C 
ENDBRANCH  16  19
ENDBRANCH  13  16
ENDBRANCH  11  12
BRANCH  11  22
HETATM   22  C8  UNL     1     -11.923 -21.802 -34.002  1.00  0.00     0.036 C 
BRANCH  22  23
HETATM   23  C9  UNL     1     -11.061 -20.579 -34.216  1.00  0.00     0.022 C 
BRANCH  23  24
HETATM   24  C10 UNL     1     -10.240 -20.719 -35.484  1.00  0.00     0.122 C 
BRANCH  24  25
HETATM   25  N3  UNL     1      -8.809 -20.731 -35.187  1.00  0.00    -0.367 N 
HETATM   26  C11 UNL     1      -7.960 -20.166 -35.988  1.00  0.00     0.196 C 
HETATM   27  N4  UNL     1      -8.328 -19.511 -37.171  1.00  0.00    -0.067 NA
HETATM   28  N5  UNL     1      -6.588 -20.215 -35.641  1.00  0.00    -0.067 NA
ATOM     29  H3  UNL     1      -8.473 -21.190 -34.340  1.00  0.00     0.161 HD
ENDBRANCH  24  25
ENDBRANCH  23  24
ENDBRANCH  22  23
ENDBRANCH  11  22
ENDBRANCH   7  11
ENDBRANCH   1   5
BRANCH   3  30
HETATM   30  C17 UNL     1     -10.762 -23.876 -27.479  1.00  0.00     0.089 C 
HETATM   31  C18 UNL     1     -10.070 -24.502 -26.297  1.00  0.00     0.030 C 
HETATM   32  C19 UNL     1     -10.400 -23.741 -25.005  1.00  0.00    -0.013 C 
HETATM   33  C20 UNL     1     -11.862 -23.909 -24.751  1.00  0.00     0.005 C 
HETATM   34  C36 UNL     1      -9.860 -22.362 -25.022  1.00  0.00     0.005 C 
HETATM   35  C21 UNL     1     -12.757 -23.704 -25.906  1.00  0.00     0.007 C 
HETATM   36  C22 UNL     1     -12.101 -23.335 -27.215  1.00  0.00     0.011 C 
HETATM   37  C23 UNL     1     -12.362 -21.904 -27.596  1.00  0.00     0.039 C 
HETATM   38  C24 UNL     1     -11.477 -20.848 -27.050  1.00  0.00     0.127 C 
HETATM   39  O4  UNL     1     -11.696 -19.719 -27.887  1.00  0.00    -0.373 OA
HETATM   40  C34 UNL     1     -11.562 -20.542 -25.614  1.00  0.00     0.020 C 
HETATM   41  C25 UNL     1     -12.632 -18.837 -27.522  1.00  0.00     0.076 C 
HETATM   42  C26 UNL     1     -14.076 -19.221 -27.681  1.00  0.00     0.047 C 
HETATM   43  C27 UNL     1     -12.443 -17.629 -28.461  1.00  0.00     0.040 C 
HETATM   44  C37 UNL     1     -12.487 -18.252 -26.148  1.00  0.00     0.060 C 
HETATM   45  C28 UNL     1     -12.475 -16.415 -27.592  1.00  0.00     0.014 C 
HETATM   46  C29 UNL     1     -11.863 -16.881 -26.289  1.00  0.00    -0.023 C 
HETATM   47  C30 UNL     1     -12.175 -15.969 -25.135  1.00  0.00     0.017 C 
HETATM   48  C31 UNL     1     -10.386 -17.076 -26.387  1.00  0.00     0.011 C 
HETATM   49  C32 UNL     1     -10.097 -18.500 -25.897  1.00  0.00     0.007 C 
HETATM   50  C33 UNL     1     -11.429 -19.014 -25.439  1.00  0.00     0.015 C 
HETATM   51  S1  UNL     1     -14.037 -18.123 -25.253  1.00  0.00    -0.082 SA
HETATM   52  C35 UNL     1     -10.712 -21.235 -24.638  1.00  0.00     0.008 C 
ENDBRANCH   3  30
TORSDOF 10
ENDMDL
MODEL 3
REMARK VINA RESULT: -10.364277984      3.723      6.974
REMARK  10 active torsions:
REMARK  status: ('A' for Active; 'I' for Inactive)
REMARK    1  A    between atoms: N1_2  and  C3_4 
REMARK    2  A    between atoms: C3_4  and  C6_7 
REMARK       I    between atoms: C6_7  and  N2_9 
REMARK    3  A    between atoms: N2_9  and  C7_11 
REMARK    4  A    between atoms: C7_11  and  C8_12 
REMARK    5  A    between atoms: C7_11  and  C12_20 
REMARK    6  A    between atoms: C8_12  and  C9_13 
REMARK    7  A    between atoms: C9_13  and  C10_14 
REMARK    8  A    between atoms: C10_14  and  N3_15 
REMARK       I    between atoms: C12_20  and  N6_22 
REMARK    9  A    between atoms: C15_25  and  C16_26 
REMARK       I    between atoms: C16_26  and  N7_28 
REMARK   10  A    between atoms: N7_28  and  C17_30 
ROOT
HETATM    1  C16 UNL     1     -14.475 -24.226 -34.991  1.00  0.00     0.241 C 
HETATM    2  O3  UNL     1     -15.589 -23.742 -34.672  1.00  0.00    -0.271 OA
HETATM    3  N7  UNL     1     -13.407 -23.997 -34.090  1.00  0.00    -0.354 N 
ATOM      4  H7  UNL     1     -12.488 -24.372 -34.328  1.00  0.00     0.162 HD
ENDROOT
BRANCH   1   5
HETATM    5  C15 UNL     1     -14.309 -24.993 -36.241  1.00  0.00     0.180 C 
HETATM    6  N6  UNL     1     -12.933 -25.500 -36.380  1.00  0.00    -0.337 N 
HETATM    7  C12 UNL     1     -12.344 -26.713 -35.971  1.00  0.00     0.243 C 
HETATM    8  C13 UNL     1     -12.612 -24.267 -37.020  1.00  0.00     0.129 C 
HETATM    9  O2  UNL     1     -13.101 -27.600 -35.413  1.00  0.00    -0.271 OA
HETATM   10  C14 UNL     1     -14.064 -24.154 -37.470  1.00  0.00     0.055 C 
BRANCH   7  11
HETATM   11  C7  UNL     1     -10.938 -27.099 -36.101  1.00  0.00     0.176 C 
BRANCH  11  12
HETATM   12  N2  UNL     1     -10.355 -27.343 -34.784  1.00  0.00    -0.346 N 
HETATM   13  C6  UNL     1     -10.043 -26.322 -33.856  1.00  0.00     0.256 C 
HETATM   14  O1  UNL     1     -10.256 -25.134 -34.123  1.00  0.00    -0.271 OA
ATOM     15  H2  UNL     1     -10.161 -28.309 -34.518  1.00  0.00     0.163 HD
BRANCH  13  16
HETATM   16  C3  UNL     1      -9.446 -26.663 -32.525  1.00  0.00     0.231 C 
HETATM   17  C4  UNL     1      -8.874 -28.059 -32.664  1.00  0.00     0.059 C 
HETATM   18  C5  UNL     1     -10.508 -26.656 -31.448  1.00  0.00     0.059 C 
BRANCH  16  19
HETATM   19  N1  UNL     1      -8.416 -25.713 -32.131  1.00  0.00     0.098 N 
HETATM   20  C1  UNL     1      -7.295 -26.413 -31.512  1.00  0.00     0.310 C 
HETATM   21  C2  UNL     1      -8.940 -24.810 -31.120  1.00  0.00     0.310 C 
ENDBRANCH  16  19
ENDBRANCH  13  16
ENDBRANCH  11  12
BRANCH  11  22
HETATM   22  C8  UNL     1     -10.720 -28.253 -37.014  1.00  0.00     0.036 C 
BRANCH  22  23
HETATM   23  C9  UNL     1      -9.421 -28.166 -37.781  1.00  0.00     0.022 C 
BRANCH  23  24
HETATM   24  C10 UNL     1      -9.173 -29.443 -38.560  1.00  0.00     0.122 C 
BRANCH  24  25
HETATM   25  N3  UNL     1      -8.275 -30.339 -37.833  1.00  0.00    -0.367 N 
HETATM   26  C11 UNL     1      -8.712 -31.451 -37.331  1.00  0.00     0.196 C 
HETATM   27  N4  UNL     1     -10.042 -31.882 -37.438  1.00  0.00    -0.067 NA
HETATM   28  N5  UNL     1      -7.789 -32.273 -36.639  1.00  0.00    -0.067 NA
ATOM     29  H3  UNL     1      -7.293 -30.086 -37.720  1.00  0.00     0.161 HD
ENDBRANCH  24  25
ENDBRANCH  23  24
ENDBRANCH  22  23
ENDBRANCH  11  22
ENDBRANCH   7  11
ENDBRANCH   1   5
BRANCH   3  30
HETATM   30  C17 UNL     1     -13.545 -23.260 -32.848  1.00  0.00     0.089 C 
HETATM   31  C18 UNL     1     -14.127 -21.889 -33.069  1.00  0.00     0.030 C 
HETATM   32  C19 UNL     1     -13.982 -21.025 -31.809  1.00  0.00    -0.013 C 
HETATM   33  C20 UNL     1     -12.521 -20.811 -31.581  1.00  0.00     0.005 C 
HETATM   34  C36 UNL     1     -14.781 -21.555 -30.680  1.00  0.00     0.005 C 
HETATM   35  C21 UNL     1     -11.658 -22.002 -31.690  1.00  0.00     0.007 C 
HETATM   36  C22 UNL     1     -12.344 -23.311 -32.004  1.00  0.00     0.011 C 
HETATM   37  C23 UNL     1     -12.361 -24.241 -30.823  1.00  0.00     0.039 C 
HETATM   38  C24 UNL     1     -13.448 -24.107 -29.825  1.00  0.00     0.127 C 
HETATM   39  O4  UNL     1     -13.436 -25.333 -29.105  1.00  0.00    -0.373 OA
HETATM   40  C34 UNL     1     -13.457 -22.916 -28.962  1.00  0.00     0.020 C 
HETATM   41  C25 UNL     1     -12.700 -25.401 -27.990  1.00  0.00     0.076 C 
HETATM   42  C26 UNL     1     -11.206 -25.480 -28.126  1.00  0.00     0.047 C 
HETATM   43  C27 UNL     1     -13.101 -26.729 -27.317  1.00  0.00     0.040 C 
HETATM   44  C37 UNL     1     -12.988 -24.365 -26.945  1.00  0.00     0.060 C 
HETATM   45  C28 UNL     1     -13.328 -26.414 -25.875  1.00  0.00     0.014 C 
HETATM   46  C29 UNL     1     -13.866 -25.000 -25.889  1.00  0.00    -0.023 C 
HETATM   47  C30 UNL     1     -13.765 -24.320 -24.551  1.00  0.00     0.017 C 
HETATM   48  C31 UNL     1     -15.273 -24.926 -26.382  1.00  0.00     0.011 C 
HETATM   49  C32 UNL     1     -15.287 -23.897 -27.519  1.00  0.00     0.007 C 
HETATM   50  C33 UNL     1     -13.891 -23.352 -27.546  1.00  0.00     0.015 C 
HETATM   51  S1  UNL     1     -11.514 -23.685 -26.179  1.00  0.00    -0.082 SA
HETATM   52  C35 UNL     1     -14.176 -21.698 -29.355  1.00  0.00     0.008 C 
ENDBRANCH   3  30
TORSDOF 10
ENDMDL
MODEL 4
REMARK VINA RESULT: -10.310225288      3.889      7.721
REMARK  10 active torsions:
REMARK  status: ('A' for Active; 'I' for Inactive)
REMARK    1  A    between atoms: N1_2  and  C3_4 
REMARK    2  A    between atoms: C3_4  and  C6_7 
REMARK       I    between atoms: C6_7  and  N2_9 
REMARK    3  A    between atoms: N2_9  and  C7_11 
REMARK    4  A    between atoms: C7_11  and  C8_12 
REMARK    5  A    between atoms: C7_11  and  C12_20 
REMARK    6  A    between atoms: C8_12  and  C9_13 
REMARK    7  A    between atoms: C9_13  and  C10_14 
REMARK    8  A    between atoms: C10_14  and  N3_15 
REMARK       I    between atoms: C12_20  and  N6_22 
REMARK    9  A    between atoms: C15_25  and  C16_26 
REMARK       I    between atoms: C16_26  and  N7_28 
REMARK   10  A    between atoms: N7_28  and  C17_30 
ROOT
HETATM    1  C16 UNL     1     -13.415 -26.501 -35.238  1.00  0.00     0.241 C 
HETATM    2  O3  UNL     1     -14.372 -26.763 -34.468  1.00  0.00    -0.271 OA
HETATM    3  N7  UNL     1     -12.756 -25.265 -35.029  1.00  0.00    -0.354 N 
ATOM      4  H7  UNL     1     -11.981 -25.023 -35.646  1.00  0.00     0.162 HD
ENDROOT
BRANCH   1   5
HETATM    5  C15 UNL     1     -13.012 -27.447 -36.298  1.00  0.00     0.180 C 
HETATM    6  N6  UNL     1     -11.563 -27.707 -36.260  1.00  0.00    -0.337 N 
HETATM    7  C12 UNL     1     -10.813 -28.690 -35.586  1.00  0.00     0.243 C 
HETATM    8  C13 UNL     1     -11.403 -26.579 -37.120  1.00  0.00     0.129 C 
HETATM    9  O2  UNL     1     -11.453 -29.580 -34.900  1.00  0.00    -0.271 OA
HETATM   10  C14 UNL     1     -12.808 -26.824 -37.657  1.00  0.00     0.055 C 
BRANCH   7  11
HETATM   11  C7  UNL     1      -9.356 -28.827 -35.563  1.00  0.00     0.176 C 
BRANCH  11  12
HETATM   12  N2  UNL     1      -8.853 -28.669 -34.200  1.00  0.00    -0.346 N 
HETATM   13  C6  UNL     1      -8.976 -27.479 -33.444  1.00  0.00     0.256 C 
HETATM   14  O1  UNL     1      -9.534 -26.482 -33.916  1.00  0.00    -0.271 OA
ATOM     15  H2  UNL     1      -8.384 -29.465 -33.768  1.00  0.00     0.163 HD
BRANCH  13  16
HETATM   16  C3  UNL     1      -8.431 -27.405 -32.052  1.00  0.00     0.231 C 
HETATM   17  C4  UNL     1      -9.630 -27.449 -31.126  1.00  0.00     0.059 C 
HETATM   18  C5  UNL     1      -7.677 -26.111 -31.844  1.00  0.00     0.059 C 
BRANCH  16  19
HETATM   19  N1  UNL     1      -7.512 -28.499 -31.768  1.00  0.00     0.098 N 
HETATM   20  C1  UNL     1      -7.703 -28.976 -30.402  1.00  0.00     0.310 C 
HETATM   21  C2  UNL     1      -6.142 -28.021 -31.843  1.00  0.00     0.310 C 
ENDBRANCH  16  19
ENDBRANCH  13  16
ENDBRANCH  11  12
BRANCH  11  22
HETATM   22  C8  UNL     1      -8.867 -30.089 -36.179  1.00  0.00     0.036 C 
BRANCH  22  23
HETATM   23  C9  UNL     1      -9.261 -30.232 -37.632  1.00  0.00     0.022 C 
BRANCH  23  24
HETATM   24  C10 UNL     1      -8.114 -30.802 -38.444  1.00  0.00     0.122 C 
BRANCH  24  25
HETATM   25  N3  UNL     1      -7.015 -31.226 -37.579  1.00  0.00    -0.367 N 
HETATM   26  C11 UNL     1      -6.156 -32.110 -37.982  1.00  0.00     0.196 C 
HETATM   27  N4  UNL     1      -6.203 -32.717 -39.244  1.00  0.00    -0.067 NA
HETATM   28  N5  UNL     1      -5.116 -32.475 -37.094  1.00  0.00    -0.067 NA
ATOM     29  H3  UNL     1      -6.921 -30.821 -36.647  1.00  0.00     0.161 HD
ENDBRANCH  24  25
ENDBRANCH  23  24
ENDBRANCH  22  23
ENDBRANCH  11  22
ENDBRANCH   7  11
ENDBRANCH   1   5
BRANCH   3  30
HETATM   30  C17 UNL     1     -13.121 -24.325 -33.987  1.00  0.00     0.089 C 
HETATM   31  C18 UNL     1     -14.027 -23.238 -34.502  1.00  0.00     0.030 C 
HETATM   32  C19 UNL     1     -14.152 -22.101 -33.478  1.00  0.00    -0.013 C 
HETATM   33  C20 UNL     1     -12.803 -21.473 -33.343  1.00  0.00     0.005 C 
HETATM   34  C36 UNL     1     -14.827 -22.545 -32.237  1.00  0.00     0.005 C 
HETATM   35  C21 UNL     1     -11.661 -22.394 -33.197  1.00  0.00     0.007 C 
HETATM   36  C22 UNL     1     -11.978 -23.871 -33.185  1.00  0.00     0.011 C 
HETATM   37  C23 UNL     1     -11.797 -24.479 -31.822  1.00  0.00     0.039 C 
HETATM   38  C24 UNL     1     -12.917 -24.403 -30.853  1.00  0.00     0.127 C 
HETATM   39  O4  UNL     1     -12.616 -25.387 -29.871  1.00  0.00    -0.373 OA
HETATM   40  C34 UNL     1     -13.260 -23.090 -30.287  1.00  0.00     0.020 C 
HETATM   41  C25 UNL     1     -11.926 -25.007 -28.790  1.00  0.00     0.076 C 
HETATM   42  C26 UNL     1     -10.458 -24.728 -28.943  1.00  0.00     0.047 C 
HETATM   43  C27 UNL     1     -11.998 -26.203 -27.820  1.00  0.00     0.040 C 
HETATM   44  C37 UNL     1     -12.506 -23.869 -28.005  1.00  0.00     0.060 C 
HETATM   45  C28 UNL     1     -12.348 -25.636 -26.484  1.00  0.00     0.014 C 
HETATM   46  C29 UNL     1     -13.229 -24.450 -26.808  1.00  0.00    -0.023 C 
HETATM   47  C30 UNL     1     -13.351 -23.480 -25.665  1.00  0.00     0.017 C 
HETATM   48  C31 UNL     1     -14.590 -24.855 -27.269  1.00  0.00     0.011 C 
HETATM   49  C32 UNL     1     -14.827 -24.152 -28.610  1.00  0.00     0.007 C 
HETATM   50  C33 UNL     1     -13.617 -23.287 -28.798  1.00  0.00     0.015 C 
HETATM   51  S1  UNL     1     -11.283 -22.677 -27.453  1.00  0.00    -0.082 SA
HETATM   52  C35 UNL     1     -14.252 -22.221 -30.931  1.00  0.00     0.008 C 
ENDBRANCH   3  30
TORSDOF 10
ENDMDL
MODEL 5
REMARK VINA RESULT: -10.201553125      3.889      7.883
REMARK  10 active torsions:
REMARK  status: ('A' for Active; 'I' for Inactive)
REMARK    1  A    between atoms: N1_2  and  C3_4 
REMARK    2  A    between atoms: C3_4  and  C6_7 
REMARK       I    between atoms: C6_7  and  N2_9 
REMARK    3  A    between atoms: N2_9  and  C7_11 
REMARK    4  A    between atoms: C7_11  and  C8_12 
REMARK    5  A    between atoms: C7_11  and  C12_20 
REMARK    6  A    between atoms: C8_12  and  C9_13 
REMARK    7  A    between atoms: C9_13  and  C10_14 
REMARK    8  A    between atoms: C10_14  and  N3_15 
REMARK       I    between atoms: C12_20  and  N6_22 
REMARK    9  A    between atoms: C15_25  and  C16_26 
REMARK       I    between atoms: C16_26  and  N7_28 
REMARK   10  A    between atoms: N7_28  and  C17_30 
ROOT
HETATM    1  C16 UNL     1     -13.448 -26.412 -35.218  1.00  0.00     0.241 C 
HETATM    2  O3  UNL     1     -14.413 -26.674 -34.458  1.00  0.00    -0.271 OA
HETATM    3  N7  UNL     1     -12.787 -25.179 -34.996  1.00  0.00    -0.354 N 
ATOM      4  H7  UNL     1     -12.006 -24.937 -35.604  1.00  0.00     0.162 HD
ENDROOT
BRANCH   1   5
HETATM    5  C15 UNL     1     -13.039 -27.354 -36.278  1.00  0.00     0.180 C 
HETATM    6  N6  UNL     1     -11.583 -27.580 -36.260  1.00  0.00    -0.337 N 
HETATM    7  C12 UNL     1     -10.801 -28.542 -35.591  1.00  0.00     0.243 C 
HETATM    8  C13 UNL     1     -11.462 -26.454 -37.127  1.00  0.00     0.129 C 
HETATM    9  O2  UNL     1     -11.411 -29.443 -34.893  1.00  0.00    -0.271 OA
HETATM   10  C14 UNL     1     -12.868 -26.734 -37.643  1.00  0.00     0.055 C 
BRANCH   7  11
HETATM   11  C7  UNL     1      -9.342 -28.646 -35.588  1.00  0.00     0.176 C 
BRANCH  11  12
HETATM   12  N2  UNL     1      -8.829 -28.551 -34.224  1.00  0.00    -0.346 N 
HETATM   13  C6  UNL     1      -8.953 -27.399 -33.411  1.00  0.00     0.256 C 
HETATM   14  O1  UNL     1      -9.520 -26.383 -33.830  1.00  0.00    -0.271 OA
ATOM     15  H2  UNL     1      -8.353 -29.364 -33.834  1.00  0.00     0.163 HD
BRANCH  13  16
HETATM   16  C3  UNL     1      -8.397 -27.388 -32.020  1.00  0.00     0.231 C 
HETATM   17  C4  UNL     1      -9.591 -27.358 -31.088  1.00  0.00     0.059 C 
HETATM   18  C5  UNL     1      -7.548 -26.157 -31.795  1.00  0.00     0.059 C 
BRANCH  16  19
HETATM   19  N1  UNL     1      -7.561 -28.552 -31.760  1.00  0.00     0.098 N 
HETATM   20  C1  UNL     1      -7.762 -29.020 -30.392  1.00  0.00     0.310 C 
HETATM   21  C2  UNL     1      -6.159 -28.181 -31.860  1.00  0.00     0.310 C 
ENDBRANCH  16  19
ENDBRANCH  13  16
ENDBRANCH  11  12
BRANCH  11  22
HETATM   22  C8  UNL     1      -8.829 -29.861 -36.277  1.00  0.00     0.036 C 
BRANCH  22  23
HETATM   23  C9  UNL     1      -9.163 -29.892 -37.751  1.00  0.00     0.022 C 
BRANCH  23  24
HETATM   24  C10 UNL     1      -8.691 -31.190 -38.379  1.00  0.00     0.122 C 
BRANCH  24  25
HETATM   25  N3  UNL     1      -9.654 -31.682 -39.362  1.00  0.00    -0.367 N 
HETATM   26  C11 UNL     1     -10.442 -32.672 -39.079  1.00  0.00     0.196 C 
HETATM   27  N4  UNL     1     -10.442 -33.336 -37.845  1.00  0.00    -0.067 NA
HETATM   28  N5  UNL     1     -11.351 -33.099 -40.078  1.00  0.00    -0.067 NA
ATOM     29  H3  UNL     1      -9.707 -31.242 -40.281  1.00  0.00     0.161 HD
ENDBRANCH  24  25
ENDBRANCH  23  24
ENDBRANCH  22  23
ENDBRANCH  11  22
ENDBRANCH   7  11
ENDBRANCH   1   5
BRANCH   3  30
HETATM   30  C17 UNL     1     -13.159 -24.243 -33.952  1.00  0.00     0.089 C 
HETATM   31  C18 UNL     1     -14.074 -23.162 -34.465  1.00  0.00     0.030 C 
HETATM   32  C19 UNL     1     -14.207 -22.028 -33.440  1.00  0.00    -0.013 C 
HETATM   33  C20 UNL     1     -12.863 -21.389 -33.306  1.00  0.00     0.005 C 
HETATM   34  C36 UNL     1     -14.878 -22.479 -32.199  1.00  0.00     0.005 C 
HETATM   35  C21 UNL     1     -11.714 -22.302 -33.162  1.00  0.00     0.007 C 
HETATM   36  C22 UNL     1     -12.019 -23.781 -33.151  1.00  0.00     0.011 C 
HETATM   37  C23 UNL     1     -11.832 -24.389 -31.789  1.00  0.00     0.039 C 
HETATM   38  C24 UNL     1     -12.951 -24.323 -30.819  1.00  0.00     0.127 C 
HETATM   39  O4  UNL     1     -12.642 -25.306 -29.839  1.00  0.00    -0.373 OA
HETATM   40  C34 UNL     1     -13.304 -23.014 -30.251  1.00  0.00     0.020 C 
HETATM   41  C25 UNL     1     -11.955 -24.922 -28.758  1.00  0.00     0.076 C 
HETATM   42  C26 UNL     1     -10.488 -24.630 -28.911  1.00  0.00     0.047 C 
HETATM   43  C27 UNL     1     -12.015 -26.119 -27.789  1.00  0.00     0.040 C 
HETATM   44  C37 UNL     1     -12.543 -23.789 -27.970  1.00  0.00     0.060 C 
HETATM   45  C28 UNL     1     -12.369 -25.556 -26.451  1.00  0.00     0.014 C 
HETATM   46  C29 UNL     1     -13.260 -24.376 -26.774  1.00  0.00    -0.023 C 
HETATM   47  C30 UNL     1     -13.389 -23.409 -25.630  1.00  0.00     0.017 C 
HETATM   48  C31 UNL     1     -14.618 -24.792 -27.234  1.00  0.00     0.011 C 
HETATM   49  C32 UNL     1     -14.862 -24.090 -28.574  1.00  0.00     0.007 C 
HETATM   50  C33 UNL     1     -13.658 -23.215 -28.762  1.00  0.00     0.015 C 
HETATM   51  S1  UNL     1     -11.329 -22.588 -27.419  1.00  0.00    -0.082 SA
HETATM   52  C35 UNL     1     -14.304 -22.152 -30.893  1.00  0.00     0.008 C 
ENDBRANCH   3  30
TORSDOF 10
ENDMDL
