MODEL 1
REMARK VINA RESULT: -6.329224948      0.000      0.000
REMARK  5 active torsions:
REMARK  status: ('A' for Active; 'I' for Inactive)
REMARK    1  A    between atoms: C2_2  and  C3_3 
REMARK    2  A    between atoms: C3_3  and  C4_4 
REMARK    3  A    between atoms: C4_4  and  C5_5 
REMARK    4  A    between atoms: N1_16  and  C15_17 
REMARK    5  A    between atoms: C15_17  and  C16_18 
ROOT
HETATM    1  C4  UNL     1      -2.969   5.805  13.804  1.00  0.00    -0.026 C 
HETATM    2  C6  UNL     1      -3.014   6.529  12.443  1.00  0.00     0.015 C 
HETATM    3  C7  UNL     1      -4.388   5.919  12.266  1.00  0.00    -0.008 C 
HETATM    4  C8  UNL     1      -4.404   5.175  10.967  1.00  0.00     0.006 C 
HETATM    5  C9  UNL     1      -3.511   3.959  11.252  1.00  0.00     0.013 C 
HETATM    6  C10 UNL     1      -3.895   3.677  12.653  1.00  0.00     0.001 C 
HETATM    7  C11 UNL     1      -5.316   3.047  12.555  1.00  0.00     0.025 C 
HETATM    8  C12 UNL     1      -5.019   1.750  11.836  1.00  0.00     0.009 C 
HETATM    9  C13 UNL     1      -3.637   1.412  12.286  1.00  0.00     0.037 C 
HETATM   10  C14 UNL     1      -3.307   2.506  13.322  1.00  0.00     0.233 C 
HETATM   11  N1  UNL     1      -4.202   2.383  14.490  1.00  0.00     0.104 N 
HETATM   12  C17 UNL     1      -5.519   2.645  13.999  1.00  0.00     0.279 C 
HETATM   13  C18 UNL     1      -4.048   4.949  13.381  1.00  0.00     0.010 C 
ENDROOT
BRANCH  11  14
HETATM   14  C15 UNL     1      -4.037   1.134  15.159  1.00  0.00     0.385 C 
BRANCH  14  15
HETATM   15  C16 UNL     1      -4.914   1.089  16.342  1.00  0.00     0.202 C 
HETATM   16  O1  UNL     1      -4.881   1.975  17.223  1.00  0.00    -0.647 OA
HETATM   17  O2  UNL     1      -5.806   0.046  16.503  1.00  0.00    -0.647 OA
ENDBRANCH  14  15
ENDBRANCH  11  14
BRANCH   1  18
HETATM   18  C3  UNL     1      -3.047   6.805  14.878  1.00  0.00     0.010 C 
BRANCH  18  19
HETATM   19  C2  UNL     1      -2.599   8.186  14.734  1.00  0.00    -0.004 C 
HETATM   20  C1  UNL     1      -1.477   8.618  15.624  1.00  0.00     0.005 C 
ENDBRANCH  18  19
ENDBRANCH   1  18
BRANCH   1  21
HETATM   21  C5  UNL     1      -1.556   5.188  13.889  1.00  0.00     0.096 C 
HETATM   22  S1  UNL     1      -0.648   6.005  12.508  1.00  0.00    -0.097 SA
ENDBRANCH   1  21
TORSDOF 5
ENDMDL
MODEL 2
REMARK VINA RESULT: -6.209628652      3.574      5.624
REMARK  5 active torsions:
REMARK  status: ('A' for Active; 'I' for Inactive)
REMARK    1  A    between atoms: C2_2  and  C3_3 
REMARK    2  A    between atoms: C3_3  and  C4_4 
REMARK    3  A    between atoms: C4_4  and  C5_5 
REMARK    4  A    between atoms: N1_16  and  C15_17 
REMARK    5  A    between atoms: C15_17  and  C16_18 
ROOT
HETATM    1  C4  UNL     1      -4.870   3.839  14.025  1.00  0.00    -0.026 C 
HETATM    2  C6  UNL     1      -3.699   3.374  14.915  1.00  0.00     0.015 C 
HETATM    3  C7  UNL     1      -3.194   4.799  14.838  1.00  0.00    -0.008 C 
HETATM    4  C8  UNL     1      -1.781   4.766  14.345  1.00  0.00     0.006 C 
HETATM    5  C9  UNL     1      -1.936   4.364  12.871  1.00  0.00     0.013 C 
HETATM    6  C10 UNL     1      -3.173   5.103  12.531  1.00  0.00     0.001 C 
HETATM    7  C11 UNL     1      -2.733   6.594  12.439  1.00  0.00     0.025 C 
HETATM    8  C12 UNL     1      -1.812   6.560  11.240  1.00  0.00     0.009 C 
HETATM    9  C13 UNL     1      -2.384   5.474  10.393  1.00  0.00     0.037 C 
HETATM   10  C14 UNL     1      -3.664   5.054  11.144  1.00  0.00     0.233 C 
HETATM   11  N1  UNL     1      -4.631   6.169  11.159  1.00  0.00     0.104 N 
HETATM   12  C17 UNL     1      -4.013   7.209  11.920  1.00  0.00     0.279 C 
HETATM   13  C18 UNL     1      -4.119   5.013  13.657  1.00  0.00     0.010 C 
ENDROOT
BRANCH  11  14
HETATM   14  C15 UNL     1      -5.041   6.536   9.844  1.00  0.00     0.385 C 
BRANCH  14  15
HETATM   15  C16 UNL     1      -6.490   6.802   9.835  1.00  0.00     0.202 C 
HETATM   16  O1  UNL     1      -7.090   7.230  10.845  1.00  0.00    -0.647 OA
HETATM   17  O2  UNL     1      -7.228   6.577   8.687  1.00  0.00    -0.647 OA
ENDBRANCH  14  15
ENDBRANCH  11  14
BRANCH   1  18
HETATM   18  C3  UNL     1      -6.105   3.835  14.822  1.00  0.00     0.010 C 
BRANCH  18  19
HETATM   19  C2  UNL     1      -6.160   3.453  16.229  1.00  0.00    -0.004 C 
HETATM   20  C1  UNL     1      -6.746   2.110  16.532  1.00  0.00     0.005 C 
ENDBRANCH  18  19
ENDBRANCH   1  18
BRANCH   1  21
HETATM   21  C5  UNL     1      -5.037   2.732  12.962  1.00  0.00     0.096 C 
HETATM   22  S1  UNL     1      -4.215   1.272  13.733  1.00  0.00    -0.097 SA
ENDBRANCH   1  21
TORSDOF 5
ENDMDL
MODEL 3
REMARK VINA RESULT: -6.184662975      2.535      4.028
REMARK  5 active torsions:
REMARK  status: ('A' for Active; 'I' for Inactive)
REMARK    1  A    between atoms: C2_2  and  C3_3 
REMARK    2  A    between atoms: C3_3  and  C4_4 
REMARK    3  A    between atoms: C4_4  and  C5_5 
REMARK    4  A    between atoms: N1_16  and  C15_17 
REMARK    5  A    between atoms: C15_17  and  C16_18 
ROOT
HETATM    1  C4  UNL     1      -1.010   5.088  11.675  1.00  0.00    -0.026 C 
HETATM    2  C6  UNL     1      -0.692   6.597  11.709  1.00  0.00     0.015 C 
HETATM    3  C7  UNL     1      -0.926   6.521  13.202  1.00  0.00    -0.008 C 
HETATM    4  C8  UNL     1      -1.955   7.546  13.565  1.00  0.00     0.006 C 
HETATM    5  C9  UNL     1      -3.247   6.966  12.973  1.00  0.00     0.013 C 
HETATM    6  C10 UNL     1      -3.030   5.526  13.237  1.00  0.00     0.001 C 
HETATM    7  C11 UNL     1      -3.249   5.366  14.771  1.00  0.00     0.025 C 
HETATM    8  C12 UNL     1      -4.721   5.692  14.898  1.00  0.00     0.009 C 
HETATM    9  C13 UNL     1      -5.292   5.233  13.599  1.00  0.00     0.037 C 
HETATM   10  C14 UNL     1      -4.095   4.575  12.880  1.00  0.00     0.233 C 
HETATM   11  N1  UNL     1      -3.653   3.380  13.625  1.00  0.00     0.104 N 
HETATM   12  C17 UNL     1      -3.180   3.860  14.886  1.00  0.00     0.279 C 
HETATM   13  C18 UNL     1      -1.618   5.191  12.978  1.00  0.00     0.010 C 
ENDROOT
BRANCH  11  14
HETATM   14  C15 UNL     1      -4.674   2.387  13.693  1.00  0.00     0.385 C 
BRANCH  14  15
HETATM   15  C16 UNL     1      -4.118   1.080  13.302  1.00  0.00     0.202 C 
HETATM   16  O1  UNL     1      -4.519   0.011  13.811  1.00  0.00    -0.647 OA
HETATM   17  O2  UNL     1      -3.123   1.010  12.344  1.00  0.00    -0.647 OA
ENDBRANCH  14  15
ENDBRANCH  11  14
BRANCH   1  18
HETATM   18  C3  UNL     1       0.221   4.348  11.368  1.00  0.00     0.010 C 
BRANCH  18  19
HETATM   19  C2  UNL     1       1.446   4.977  10.884  1.00  0.00    -0.004 C 
HETATM   20  C1  UNL     1       2.192   4.244   9.814  1.00  0.00     0.005 C 
ENDBRANCH  18  19
ENDBRANCH   1  18
BRANCH   1  21
HETATM   21  C5  UNL     1      -1.945   4.897  10.461  1.00  0.00     0.096 C 
HETATM   22  S1  UNL     1      -1.722   6.456   9.501  1.00  0.00    -0.097 SA
ENDBRANCH   1  21
TORSDOF 5
ENDMDL
MODEL 4
REMARK VINA RESULT: -6.079888222      2.715      4.381
REMARK  5 active torsions:
REMARK  status: ('A' for Active; 'I' for Inactive)
REMARK    1  A    between atoms: C2_2  and  C3_3 
REMARK    2  A    between atoms: C3_3  and  C4_4 
REMARK    3  A    between atoms: C4_4  and  C5_5 
REMARK    4  A    between atoms: N1_16  and  C15_17 
REMARK    5  A    between atoms: C15_17  and  C16_18 
ROOT
HETATM    1  C4  UNL     1      -5.410   3.088  15.418  1.00  0.00    -0.026 C 
HETATM    2  C6  UNL     1      -5.475   4.583  15.789  1.00  0.00     0.015 C 
HETATM    3  C7  UNL     1      -5.958   4.820  14.374  1.00  0.00    -0.008 C 
HETATM    4  C8  UNL     1      -5.062   5.840  13.741  1.00  0.00     0.006 C 
HETATM    5  C9  UNL     1      -3.747   5.072  13.543  1.00  0.00     0.013 C 
HETATM    6  C10 UNL     1      -4.277   3.738  13.181  1.00  0.00     0.001 C 
HETATM    7  C11 UNL     1      -4.804   3.903  11.724  1.00  0.00     0.025 C 
HETATM    8  C12 UNL     1      -3.519   4.165  10.970  1.00  0.00     0.009 C 
HETATM    9  C13 UNL     1      -2.499   3.402  11.746  1.00  0.00     0.037 C 
HETATM   10  C14 UNL     1      -3.324   2.674  12.827  1.00  0.00     0.233 C 
HETATM   11  N1  UNL     1      -4.232   1.696  12.196  1.00  0.00     0.104 N 
HETATM   12  C17 UNL     1      -5.146   2.464  11.409  1.00  0.00     0.279 C 
HETATM   13  C18 UNL     1      -5.450   3.436  14.020  1.00  0.00     0.010 C 
ENDROOT
BRANCH  11  14
HETATM   14  C15 UNL     1      -3.518   0.685  11.489  1.00  0.00     0.385 C 
BRANCH  14  15
HETATM   15  C16 UNL     1      -3.845  -0.636  12.052  1.00  0.00     0.202 C 
HETATM   16  O1  UNL     1      -4.620  -0.767  13.024  1.00  0.00    -0.647 OA
HETATM   17  O2  UNL     1      -3.290  -1.779  11.506  1.00  0.00    -0.647 OA
ENDBRANCH  14  15
ENDBRANCH  11  14
BRANCH   1  18
HETATM   18  C3  UNL     1      -6.465   2.370  16.146  1.00  0.00     0.010 C 
BRANCH  18  19
HETATM   19  C2  UNL     1      -7.029   2.824  17.412  1.00  0.00    -0.004 C 
HETATM   20  C1  UNL     1      -6.414   2.260  18.654  1.00  0.00     0.005 C 
ENDBRANCH  18  19
ENDBRANCH   1  18
BRANCH   1  21
HETATM   21  C5  UNL     1      -4.068   2.585  15.992  1.00  0.00     0.096 C 
HETATM   22  S1  UNL     1      -4.219   0.750  15.888  1.00  0.00    -0.097 SA
ENDBRANCH   1  21
TORSDOF 5
ENDMDL
MODEL 5
REMARK VINA RESULT: -5.933427765      1.935      3.207
REMARK  5 active torsions:
REMARK  status: ('A' for Active; 'I' for Inactive)
REMARK    1  A    between atoms: C2_2  and  C3_3 
REMARK    2  A    between atoms: C3_3  and  C4_4 
REMARK    3  A    between atoms: C4_4  and  C5_5 
REMARK    4  A    between atoms: N1_16  and  C15_17 
REMARK    5  A    between atoms: C15_17  and  C16_18 
ROOT
HETATM    1  C4  UNL     1      -1.782   4.659  12.151  1.00  0.00    -0.026 C 
HETATM    2  C6  UNL     1      -1.860   6.199  12.130  1.00  0.00     0.015 C 
HETATM    3  C7  UNL     1      -2.095   6.118  13.623  1.00  0.00    -0.008 C 
HETATM    4  C8  UNL     1      -3.359   6.857  13.937  1.00  0.00     0.006 C 
HETATM    5  C9  UNL     1      -4.449   5.945  13.355  1.00  0.00     0.013 C 
HETATM    6  C10 UNL     1      -3.876   4.619  13.676  1.00  0.00     0.001 C 
HETATM    7  C11 UNL     1      -4.076   4.461  15.212  1.00  0.00     0.025 C 
HETATM    8  C12 UNL     1      -5.584   4.404  15.312  1.00  0.00     0.009 C 
HETATM    9  C13 UNL     1      -5.994   3.769  14.026  1.00  0.00     0.037 C 
HETATM   10  C14 UNL     1      -4.656   3.416  13.345  1.00  0.00     0.233 C 
HETATM   11  N1  UNL     1      -3.937   2.399  14.139  1.00  0.00     0.104 N 
HETATM   12  C17 UNL     1      -3.627   3.027  15.385  1.00  0.00     0.279 C 
HETATM   13  C18 UNL     1      -2.421   4.648  13.443  1.00  0.00     0.010 C 
ENDROOT
BRANCH  11  14
HETATM   14  C15 UNL     1      -4.672   1.181  14.235  1.00  0.00     0.385 C 
BRANCH  14  15
HETATM   15  C16 UNL     1      -4.680   0.720  15.634  1.00  0.00     0.202 C 
HETATM   16  O1  UNL     1      -3.629   0.407  16.234  1.00  0.00    -0.647 OA
HETATM   17  O2  UNL     1      -5.875   0.622  16.324  1.00  0.00    -0.647 OA
ENDBRANCH  14  15
ENDBRANCH  11  14
BRANCH   1  18
HETATM   18  C3  UNL     1      -0.396   4.248  11.885  1.00  0.00     0.010 C 
BRANCH  18  19
HETATM   19  C2  UNL     1       0.655   5.169  11.466  1.00  0.00    -0.004 C 
HETATM   20  C1  UNL     1       1.873   4.554  10.852  1.00  0.00     0.005 C 
ENDBRANCH  18  19
ENDBRANCH   1  18
BRANCH   1  21
HETATM   21  C5  UNL     1      -2.613   4.194  10.936  1.00  0.00     0.096 C 
HETATM   22  S1  UNL     1      -2.779   5.724   9.920  1.00  0.00    -0.097 SA
ENDBRANCH   1  21
TORSDOF 5
ENDMDL
