MODEL 1
REMARK VINA RESULT: -7.286192599      0.000      0.000
REMARK  5 active torsions:
REMARK  status: ('A' for Active; 'I' for Inactive)
REMARK    1  A    between atoms: C1_2  and  C2_4 
REMARK    2  A    between atoms: C5_7  and  C6_8 
REMARK       I    between atoms: C6_8  and  N2_10 
REMARK    3  A    between atoms: N2_10  and  N3_12 
REMARK    4  A    between atoms: C7_14  and  C8_15 
REMARK    5  A    between atoms: C8_15  and  C9_16 
ROOT
HETATM    1  C6  UNL     1      -4.251   3.359  11.809  1.00  0.00     0.240 C 
HETATM    2  O2  UNL     1      -5.198   2.878  11.137  1.00  0.00    -0.271 OA
HETATM    3  N2  UNL     1      -3.442   4.356  11.209  1.00  0.00    -0.270 N 
ATOM      4  H2  UNL     1      -2.670   4.756  11.742  1.00  0.00     0.190 HD
ENDROOT
BRANCH   3   5
HETATM    5  N3  UNL     1      -3.676   4.802   9.910  1.00  0.00    -0.313 N 
HETATM    6  C7  UNL     1      -4.123   5.992   9.679  1.00  0.00     0.080 C 
ATOM      7  H3  UNL     1      -3.491   4.176   9.126  1.00  0.00     0.185 HD
BRANCH   6   8
HETATM    8  C8  UNL     1      -4.388   6.517   8.334  1.00  0.00     0.050 C 
BRANCH   8   9
HETATM    9  C9  UNL     1      -5.463   7.599   8.347  1.00  0.00    -0.010 C 
HETATM   10  C10 UNL     1      -5.760   7.933   6.919  1.00  0.00     0.005 C 
HETATM   11  C11 UNL     1      -6.636   9.102   6.708  1.00  0.00     0.000 C 
HETATM   12  C12 UNL     1      -7.612   9.385   7.805  1.00  0.00     0.000 C 
HETATM   13  C13 UNL     1      -8.520   8.260   8.143  1.00  0.00     0.000 C 
HETATM   14  C14 UNL     1      -7.835   6.936   8.321  1.00  0.00     0.000 C 
HETATM   15  C15 UNL     1      -6.608   7.119   9.159  1.00  0.00     0.005 C 
ENDBRANCH   8   9
ENDBRANCH   6   8
ENDBRANCH   3   5
BRANCH   1  16
HETATM   16  C5  UNL     1      -4.032   2.863  13.182  1.00  0.00     0.079 C 
HETATM   17  C4  UNL     1      -5.380   2.415  13.713  1.00  0.00     0.015 C 
HETATM   18  C3  UNL     1      -5.674   3.209  14.963  1.00  0.00     0.014 C 
HETATM   19  C2  UNL     1      -4.606   2.838  15.983  1.00  0.00     0.075 C 
HETATM   20  C17 UNL     1      -3.303   3.385  15.472  1.00  0.00     0.014 C 
HETATM   21  C16 UNL     1      -3.405   3.916  14.068  1.00  0.00     0.015 C 
BRANCH  19  22
HETATM   22  C1  UNL     1      -4.557   1.338  16.051  1.00  0.00     0.235 C 
HETATM   23  N1  UNL     1      -5.747   0.600  16.232  1.00  0.00    -0.062 NA
HETATM   24  O1  UNL     1      -3.430   0.773  15.942  1.00  0.00    -0.277 OA
ENDBRANCH  19  22
ENDBRANCH   1  16
TORSDOF 5
ENDMDL
MODEL 2
REMARK VINA RESULT: -7.222081877      1.557      1.812
REMARK  5 active torsions:
REMARK  status: ('A' for Active; 'I' for Inactive)
REMARK    1  A    between atoms: C1_2  and  C2_4 
REMARK    2  A    between atoms: C5_7  and  C6_8 
REMARK       I    between atoms: C6_8  and  N2_10 
REMARK    3  A    between atoms: N2_10  and  N3_12 
REMARK    4  A    between atoms: C7_14  and  C8_15 
REMARK    5  A    between atoms: C8_15  and  C9_16 
ROOT
HETATM    1  C6  UNL     1      -4.410   3.830  12.893  1.00  0.00     0.240 C 
HETATM    2  O2  UNL     1      -4.956   3.523  11.804  1.00  0.00    -0.271 OA
HETATM    3  N2  UNL     1      -3.789   5.099  12.997  1.00  0.00    -0.270 N 
ATOM      4  H2  UNL     1      -3.342   5.363  13.875  1.00  0.00     0.190 HD
ENDROOT
BRANCH   3   5
HETATM    5  N3  UNL     1      -3.773   5.994  11.930  1.00  0.00    -0.313 N 
HETATM    6  C7  UNL     1      -4.490   7.070  11.945  1.00  0.00     0.080 C 
ATOM      7  H3  UNL     1      -3.184   5.797  11.120  1.00  0.00     0.185 HD
BRANCH   6   8
HETATM    8  C8  UNL     1      -4.515   8.048  10.851  1.00  0.00     0.050 C 
BRANCH   8   9
HETATM    9  C9  UNL     1      -5.908   8.194  10.248  1.00  0.00    -0.010 C 
HETATM   10  C10 UNL     1      -5.868   9.385   9.344  1.00  0.00     0.005 C 
HETATM   11  C11 UNL     1      -7.173   9.820   8.808  1.00  0.00     0.000 C 
HETATM   12  C12 UNL     1      -8.200   8.744   8.653  1.00  0.00     0.000 C 
HETATM   13  C13 UNL     1      -7.784   7.596   7.810  1.00  0.00     0.000 C 
HETATM   14  C14 UNL     1      -6.427   7.042   8.134  1.00  0.00     0.000 C 
HETATM   15  C15 UNL     1      -6.287   6.904   9.618  1.00  0.00     0.005 C 
ENDBRANCH   8   9
ENDBRANCH   6   8
ENDBRANCH   3   5
BRANCH   1  16
HETATM   16  C5  UNL     1      -4.445   2.858  14.003  1.00  0.00     0.079 C 
HETATM   17  C4  UNL     1      -5.870   2.831  14.525  1.00  0.00     0.015 C 
HETATM   18  C3  UNL     1      -5.835   3.205  15.987  1.00  0.00     0.014 C 
HETATM   19  C2  UNL     1      -5.038   2.122  16.702  1.00  0.00     0.075 C 
HETATM   20  C17 UNL     1      -3.615   2.244  16.235  1.00  0.00     0.014 C 
HETATM   21  C16 UNL     1      -3.458   3.210  15.093  1.00  0.00     0.015 C 
BRANCH  19  22
HETATM   22  C1  UNL     1      -5.616   0.798  16.288  1.00  0.00     0.235 C 
HETATM   23  N1  UNL     1      -4.806  -0.149  15.623  1.00  0.00    -0.062 NA
HETATM   24  O1  UNL     1      -6.831   0.569  16.552  1.00  0.00    -0.277 OA
ENDBRANCH  19  22
ENDBRANCH   1  16
TORSDOF 5
ENDMDL
MODEL 3
REMARK VINA RESULT: -7.178873245      1.962      2.452
REMARK  5 active torsions:
REMARK  status: ('A' for Active; 'I' for Inactive)
REMARK    1  A    between atoms: C1_2  and  C2_4 
REMARK    2  A    between atoms: C5_7  and  C6_8 
REMARK       I    between atoms: C6_8  and  N2_10 
REMARK    3  A    between atoms: N2_10  and  N3_12 
REMARK    4  A    between atoms: C7_14  and  C8_15 
REMARK    5  A    between atoms: C8_15  and  C9_16 
ROOT
HETATM    1  C6  UNL     1      -5.479   4.643  13.909  1.00  0.00     0.240 C 
HETATM    2  O2  UNL     1      -6.580   5.181  14.184  1.00  0.00    -0.271 OA
HETATM    3  N2  UNL     1      -4.634   5.287  12.972  1.00  0.00    -0.270 N 
ATOM      4  H2  UNL     1      -3.736   4.862  12.738  1.00  0.00     0.190 HD
ENDROOT
BRANCH   3   5
HETATM    5  N3  UNL     1      -4.999   6.485  12.361  1.00  0.00    -0.313 N 
HETATM    6  C7  UNL     1      -4.259   7.027  11.450  1.00  0.00     0.080 C 
ATOM      7  H3  UNL     1      -5.867   6.943  12.638  1.00  0.00     0.185 HD
BRANCH   6   8
HETATM    8  C8  UNL     1      -4.591   8.286  10.773  1.00  0.00     0.050 C 
BRANCH   8   9
HETATM    9  C9  UNL     1      -5.563   8.072   9.617  1.00  0.00    -0.010 C 
HETATM   10  C10 UNL     1      -6.941   8.254  10.169  1.00  0.00     0.005 C 
HETATM   11  C11 UNL     1      -8.044   7.896   9.256  1.00  0.00     0.000 C 
HETATM   12  C12 UNL     1      -7.751   8.047   7.797  1.00  0.00     0.000 C 
HETATM   13  C13 UNL     1      -7.311   9.403   7.382  1.00  0.00     0.000 C 
HETATM   14  C14 UNL     1      -6.235  10.001   8.241  1.00  0.00     0.000 C 
HETATM   15  C15 UNL     1      -5.178   8.974   8.503  1.00  0.00     0.005 C 
ENDBRANCH   8   9
ENDBRANCH   6   8
ENDBRANCH   3   5
BRANCH   1  16
HETATM   16  C5  UNL     1      -5.124   3.374  14.574  1.00  0.00     0.079 C 
HETATM   17  C4  UNL     1      -6.283   3.009  15.482  1.00  0.00     0.015 C 
HETATM   18  C3  UNL     1      -5.753   2.904  16.892  1.00  0.00     0.014 C 
HETATM   19  C2  UNL     1      -4.751   1.758  16.902  1.00  0.00     0.075 C 
HETATM   20  C17 UNL     1      -3.575   2.194  16.076  1.00  0.00     0.014 C 
HETATM   21  C16 UNL     1      -3.826   3.483  15.342  1.00  0.00     0.015 C 
BRANCH  19  22
HETATM   22  C1  UNL     1      -5.425   0.571  16.273  1.00  0.00     0.235 C 
HETATM   23  N1  UNL     1      -4.758  -0.171  15.273  1.00  0.00    -0.062 NA
HETATM   24  O1  UNL     1      -6.589   0.270  16.665  1.00  0.00    -0.277 OA
ENDBRANCH  19  22
ENDBRANCH   1  16
TORSDOF 5
ENDMDL
MODEL 4
REMARK VINA RESULT: -7.177984689      1.530      2.063
REMARK  5 active torsions:
REMARK  status: ('A' for Active; 'I' for Inactive)
REMARK    1  A    between atoms: C1_2  and  C2_4 
REMARK    2  A    between atoms: C5_7  and  C6_8 
REMARK       I    between atoms: C6_8  and  N2_10 
REMARK    3  A    between atoms: N2_10  and  N3_12 
REMARK    4  A    between atoms: C7_14  and  C8_15 
REMARK    5  A    between atoms: C8_15  and  C9_16 
ROOT
HETATM    1  C6  UNL     1      -4.666   3.619  12.802  1.00  0.00     0.240 C 
HETATM    2  O2  UNL     1      -5.164   3.210  11.724  1.00  0.00    -0.271 OA
HETATM    3  N2  UNL     1      -4.184   4.950  12.857  1.00  0.00    -0.270 N 
ATOM      4  H2  UNL     1      -3.777   5.296  13.725  1.00  0.00     0.190 HD
ENDROOT
BRANCH   3   5
HETATM    5  N3  UNL     1      -4.253   5.797  11.753  1.00  0.00    -0.313 N 
HETATM    6  C7  UNL     1      -4.212   7.082  11.889  1.00  0.00     0.080 C 
ATOM      7  H3  UNL     1      -4.338   5.396  10.819  1.00  0.00     0.185 HD
BRANCH   6   8
HETATM    8  C8  UNL     1      -4.281   8.024  10.765  1.00  0.00     0.050 C 
BRANCH   8   9
HETATM    9  C9  UNL     1      -5.401   7.668   9.792  1.00  0.00    -0.010 C 
HETATM   10  C10 UNL     1      -6.664   8.234  10.359  1.00  0.00     0.005 C 
HETATM   11  C11 UNL     1      -7.906   7.834   9.669  1.00  0.00     0.000 C 
HETATM   12  C12 UNL     1      -7.764   7.518   8.214  1.00  0.00     0.000 C 
HETATM   13  C13 UNL     1      -7.181   8.606   7.389  1.00  0.00     0.000 C 
HETATM   14  C14 UNL     1      -5.937   9.223   7.959  1.00  0.00     0.000 C 
HETATM   15  C15 UNL     1      -5.019   8.142   8.438  1.00  0.00     0.005 C 
ENDBRANCH   8   9
ENDBRANCH   6   8
ENDBRANCH   3   5
BRANCH   1  16
HETATM   16  C5  UNL     1      -4.608   2.695  13.952  1.00  0.00     0.079 C 
HETATM   17  C4  UNL     1      -6.005   2.630  14.540  1.00  0.00     0.015 C 
HETATM   18  C3  UNL     1      -5.921   3.068  15.983  1.00  0.00     0.014 C 
HETATM   19  C2  UNL     1      -5.045   2.051  16.703  1.00  0.00     0.075 C 
HETATM   20  C17 UNL     1      -3.652   2.213  16.166  1.00  0.00     0.014 C 
HETATM   21  C16 UNL     1      -3.589   3.135  14.979  1.00  0.00     0.015 C 
BRANCH  19  22
HETATM   22  C1  UNL     1      -5.582   0.688  16.372  1.00  0.00     0.235 C 
HETATM   23  N1  UNL     1      -4.789  -0.225  15.641  1.00  0.00    -0.062 NA
HETATM   24  O1  UNL     1      -6.748   0.394  16.765  1.00  0.00    -0.277 OA
ENDBRANCH  19  22
ENDBRANCH   1  16
TORSDOF 5
ENDMDL
MODEL 5
REMARK VINA RESULT: -7.085755042      0.445      1.283
REMARK  5 active torsions:
REMARK  status: ('A' for Active; 'I' for Inactive)
REMARK    1  A    between atoms: C1_2  and  C2_4 
REMARK    2  A    between atoms: C5_7  and  C6_8 
REMARK       I    between atoms: C6_8  and  N2_10 
REMARK    3  A    between atoms: N2_10  and  N3_12 
REMARK    4  A    between atoms: C7_14  and  C8_15 
REMARK    5  A    between atoms: C8_15  and  C9_16 
ROOT
HETATM    1  C6  UNL     1      -4.220   3.361  11.900  1.00  0.00     0.240 C 
HETATM    2  O2  UNL     1      -5.173   2.897  11.226  1.00  0.00    -0.271 OA
HETATM    3  N2  UNL     1      -3.409   4.363  11.313  1.00  0.00    -0.270 N 
ATOM      4  H2  UNL     1      -2.631   4.750  11.847  1.00  0.00     0.190 HD
ENDROOT
BRANCH   3   5
HETATM    5  N3  UNL     1      -3.647   4.832  10.023  1.00  0.00    -0.313 N 
HETATM    6  C7  UNL     1      -4.070   6.035   9.813  1.00  0.00     0.080 C 
ATOM      7  H3  UNL     1      -3.485   4.213   9.228  1.00  0.00     0.185 HD
BRANCH   6   8
HETATM    8  C8  UNL     1      -4.338   6.584   8.478  1.00  0.00     0.050 C 
BRANCH   8   9
HETATM    9  C9  UNL     1      -5.813   6.926   8.289  1.00  0.00    -0.010 C 
HETATM   10  C10 UNL     1      -6.244   7.678   9.508  1.00  0.00     0.005 C 
HETATM   11  C11 UNL     1      -7.693   7.935   9.617  1.00  0.00     0.000 C 
HETATM   12  C12 UNL     1      -8.431   8.042   8.320  1.00  0.00     0.000 C 
HETATM   13  C13 UNL     1      -7.911   9.071   7.385  1.00  0.00     0.000 C 
HETATM   14  C14 UNL     1      -6.423   9.044   7.191  1.00  0.00     0.000 C 
HETATM   15  C15 UNL     1      -5.972   7.630   6.993  1.00  0.00     0.005 C 
ENDBRANCH   8   9
ENDBRANCH   6   8
ENDBRANCH   3   5
BRANCH   1  16
HETATM   16  C5  UNL     1      -3.996   2.841  13.264  1.00  0.00     0.079 C 
HETATM   17  C4  UNL     1      -5.327   2.307  13.760  1.00  0.00     0.015 C 
HETATM   18  C3  UNL     1      -5.683   3.051  15.025  1.00  0.00     0.014 C 
HETATM   19  C2  UNL     1      -4.612   2.711  16.053  1.00  0.00     0.075 C 
HETATM   20  C17 UNL     1      -3.333   3.340  15.579  1.00  0.00     0.014 C 
HETATM   21  C16 UNL     1      -3.441   3.902  14.188  1.00  0.00     0.015 C 
BRANCH  19  22
HETATM   22  C1  UNL     1      -4.483   1.214  16.083  1.00  0.00     0.235 C 
HETATM   23  N1  UNL     1      -5.636   0.409  16.208  1.00  0.00    -0.062 NA
HETATM   24  O1  UNL     1      -3.325   0.714  15.994  1.00  0.00    -0.277 OA
ENDBRANCH  19  22
ENDBRANCH   1  16
TORSDOF 5
ENDMDL
