MODEL 1
REMARK VINA RESULT: -6.970467779      0.000      0.000
REMARK  7 active torsions:
REMARK  status: ('A' for Active; 'I' for Inactive)
REMARK    1  A    between atoms: C2_2  and  C3_3 
REMARK    2  A    between atoms: C3_3  and  N1_4 
REMARK    3  A    between atoms: N1_4  and  C4_6 
REMARK    4  A    between atoms: C8_12  and  N3_13 
REMARK    5  A    between atoms: N3_13  and  C9_15 
REMARK    6  A    between atoms: C9_15  and  C10_16 
REMARK    7  A    between atoms: C10_16  and  C11_17 
ROOT
HETATM    1  C4  UNL     1      -3.952   2.097  14.783  1.00  0.00     0.129 A 
HETATM    2  N2  UNL     1      -3.354   3.043  15.510  1.00  0.00    -0.351 N 
ATOM      3  H2  UNL     1      -3.215   2.892  16.510  1.00  0.00     0.166 HD
HETATM    4  C5  UNL     1      -2.926   4.204  14.946  1.00  0.00     0.091 A 
HETATM    5  C6  UNL     1      -3.091   4.453  13.601  1.00  0.00     0.034 A 
HETATM    6  C7  UNL     1      -3.707   3.494  12.817  1.00  0.00     0.040 A 
HETATM    7  C8  UNL     1      -3.908   3.671  11.465  1.00  0.00     0.114 A 
HETATM    8  N4  UNL     1      -4.515   2.691  10.773  1.00  0.00    -0.338 N 
ATOM      9  H4  UNL     1      -4.666   2.820   9.772  1.00  0.00     0.168 HD
HETATM   10  C17 UNL     1      -4.930   1.555  11.343  1.00  0.00     0.182 A 
HETATM   11  N5  UNL     1      -4.724   1.404  12.664  1.00  0.00    -0.348 N 
ATOM     12  H5  UNL     1      -5.036   0.540  13.107  1.00  0.00     0.167 HD
HETATM   13  C18 UNL     1      -4.126   2.334  13.427  1.00  0.00     0.091 A 
ENDROOT
BRANCH   7  14
HETATM   14  N3  UNL     1      -3.498   4.773  10.946  1.00  0.00    -0.375 N 
ATOM     15  H3  UNL     1      -2.530   5.053  11.102  1.00  0.00     0.161 HD
BRANCH  14  16
HETATM   16  C9  UNL     1      -4.347   5.636  10.150  1.00  0.00     0.125 C 
BRANCH  16  17
HETATM   17  C10 UNL     1      -5.155   6.533  11.006  1.00  0.00     0.053 C 
BRANCH  17  18
HETATM   18  C11 UNL     1      -6.197   7.307  10.353  1.00  0.00    -0.082 C 
HETATM   19  C12 UNL     1      -6.976   6.931   9.346  1.00  0.00    -0.024 C 
HETATM   20  C13 UNL     1      -7.968   7.947   8.876  1.00  0.00     0.027 C 
HETATM   21  C14 UNL     1      -7.232   9.207   8.511  1.00  0.00     0.004 C 
HETATM   22  C15 UNL     1      -6.440   9.689   9.709  1.00  0.00     0.005 C 
HETATM   23  C16 UNL     1      -6.463   8.714  10.845  1.00  0.00     0.034 C 
ENDBRANCH  17  18
ENDBRANCH  16  17
ENDBRANCH  14  16
ENDBRANCH   7  14
BRANCH   1  24
HETATM   24  N1  UNL     1      -4.380   0.982  15.249  1.00  0.00    -0.371 N 
ATOM     25  H1  UNL     1      -4.208   0.151  14.681  1.00  0.00     0.161 HD
BRANCH  24  26
HETATM   26  C3  UNL     1      -5.073   0.784  16.484  1.00  0.00     0.148 C 
BRANCH  26  27
HETATM   27  C2  UNL     1      -6.319   1.611  16.437  1.00  0.00    -0.018 C 
HETATM   28  C1  UNL     1      -7.377   1.294  17.164  1.00  0.00     0.008 C 
ENDBRANCH  26  27
ENDBRANCH  24  26
ENDBRANCH   1  24
TORSDOF 7
ENDMDL
MODEL 2
REMARK VINA RESULT: -6.891761401      1.169      2.515
REMARK  7 active torsions:
REMARK  status: ('A' for Active; 'I' for Inactive)
REMARK    1  A    between atoms: C2_2  and  C3_3 
REMARK    2  A    between atoms: C3_3  and  N1_4 
REMARK    3  A    between atoms: N1_4  and  C4_6 
REMARK    4  A    between atoms: C8_12  and  N3_13 
REMARK    5  A    between atoms: N3_13  and  C9_15 
REMARK    6  A    between atoms: C9_15  and  C10_16 
REMARK    7  A    between atoms: C10_16  and  C11_17 
ROOT
HETATM    1  C4  UNL     1      -4.129   1.895  14.075  1.00  0.00     0.129 A 
HETATM    2  N2  UNL     1      -4.310   1.109  13.012  1.00  0.00    -0.351 N 
ATOM      3  H2  UNL     1      -4.285   0.096  13.130  1.00  0.00     0.166 HD
HETATM    4  C5  UNL     1      -4.528   1.630  11.776  1.00  0.00     0.091 A 
HETATM    5  C6  UNL     1      -4.572   2.991  11.567  1.00  0.00     0.034 A 
HETATM    6  C7  UNL     1      -4.388   3.837  12.647  1.00  0.00     0.040 A 
HETATM    7  C8  UNL     1      -4.417   5.209  12.518  1.00  0.00     0.114 A 
HETATM    8  N4  UNL     1      -4.229   5.961  13.616  1.00  0.00    -0.338 N 
ATOM      9  H4  UNL     1      -4.249   6.977  13.522  1.00  0.00     0.168 HD
HETATM   10  C17 UNL     1      -4.016   5.431  14.826  1.00  0.00     0.182 A 
HETATM   11  N5  UNL     1      -3.992   4.091  14.928  1.00  0.00    -0.348 N 
ATOM     12  H5  UNL     1      -3.830   3.678  15.847  1.00  0.00     0.167 HD
HETATM   13  C18 UNL     1      -4.169   3.268  13.881  1.00  0.00     0.091 A 
ENDROOT
BRANCH   7  14
HETATM   14  N3  UNL     1      -4.624   5.687  11.343  1.00  0.00    -0.375 N 
ATOM     15  H3  UNL     1      -4.647   5.042  10.552  1.00  0.00     0.161 HD
BRANCH  14  16
HETATM   16  C9  UNL     1      -4.827   7.099  11.088  1.00  0.00     0.125 C 
BRANCH  16  17
HETATM   17  C10 UNL     1      -6.267   7.427  11.002  1.00  0.00     0.053 C 
BRANCH  17  18
HETATM   18  C11 UNL     1      -6.731   8.047   9.772  1.00  0.00    -0.082 C 
HETATM   19  C12 UNL     1      -6.617   9.320   9.412  1.00  0.00    -0.024 C 
HETATM   20  C13 UNL     1      -7.194   9.673   8.078  1.00  0.00     0.027 C 
HETATM   21  C14 UNL     1      -8.641   9.263   8.055  1.00  0.00     0.004 C 
HETATM   22  C15 UNL     1      -8.746   7.781   8.351  1.00  0.00     0.005 C 
HETATM   23  C16 UNL     1      -7.435   7.179   8.750  1.00  0.00     0.034 C 
ENDBRANCH  17  18
ENDBRANCH  16  17
ENDBRANCH  14  16
ENDBRANCH   7  14
BRANCH   1  24
HETATM   24  N1  UNL     1      -3.919   1.472  15.267  1.00  0.00    -0.371 N 
ATOM     25  H1  UNL     1      -3.052   1.770  15.714  1.00  0.00     0.161 HD
BRANCH  24  26
HETATM   26  C3  UNL     1      -4.778   0.623  16.034  1.00  0.00     0.148 C 
BRANCH  26  27
HETATM   27  C2  UNL     1      -5.639   1.504  16.883  1.00  0.00    -0.018 C 
HETATM   28  C1  UNL     1      -6.883   1.168  17.175  1.00  0.00     0.008 C 
ENDBRANCH  26  27
ENDBRANCH  24  26
ENDBRANCH   1  24
TORSDOF 7
ENDMDL
MODEL 3
REMARK VINA RESULT: -6.878514443      3.175      4.069
REMARK  7 active torsions:
REMARK  status: ('A' for Active; 'I' for Inactive)
REMARK    1  A    between atoms: C2_2  and  C3_3 
REMARK    2  A    between atoms: C3_3  and  N1_4 
REMARK    3  A    between atoms: N1_4  and  C4_6 
REMARK    4  A    between atoms: C8_12  and  N3_13 
REMARK    5  A    between atoms: N3_13  and  C9_15 
REMARK    6  A    between atoms: C9_15  and  C10_16 
REMARK    7  A    between atoms: C10_16  and  C11_17 
ROOT
HETATM    1  C4  UNL     1      -5.730   2.957  15.264  1.00  0.00     0.129 A 
HETATM    2  N2  UNL     1      -6.262   4.087  15.735  1.00  0.00    -0.351 N 
ATOM      3  H2  UNL     1      -6.846   4.054  16.571  1.00  0.00     0.166 HD
HETATM    4  C5  UNL     1      -6.040   5.281  15.124  1.00  0.00     0.091 A 
HETATM    5  C6  UNL     1      -5.258   5.376  13.994  1.00  0.00     0.034 A 
HETATM    6  C7  UNL     1      -4.691   4.224  13.477  1.00  0.00     0.040 A 
HETATM    7  C8  UNL     1      -3.898   4.238  12.351  1.00  0.00     0.114 A 
HETATM    8  N4  UNL     1      -3.385   3.076  11.912  1.00  0.00    -0.338 N 
ATOM      9  H4  UNL     1      -2.798   3.084  11.078  1.00  0.00     0.168 HD
HETATM   10  C17 UNL     1      -3.612   1.909  12.526  1.00  0.00     0.182 A 
HETATM   11  N5  UNL     1      -4.389   1.919  13.623  1.00  0.00    -0.348 N 
ATOM     12  H5  UNL     1      -4.567   1.034  14.098  1.00  0.00     0.167 HD
HETATM   13  C18 UNL     1      -4.941   3.036  14.126  1.00  0.00     0.091 A 
ENDROOT
BRANCH   7  14
HETATM   14  N3  UNL     1      -3.698   5.375  11.784  1.00  0.00    -0.375 N 
ATOM     15  H3  UNL     1      -4.507   5.914  11.477  1.00  0.00     0.161 HD
BRANCH  14  16
HETATM   16  C9  UNL     1      -2.376   5.925  11.561  1.00  0.00     0.125 C 
BRANCH  16  17
HETATM   17  C10 UNL     1      -1.709   6.255  12.840  1.00  0.00     0.053 C 
BRANCH  17  18
HETATM   18  C11 UNL     1      -1.911   7.595  13.365  1.00  0.00    -0.082 C 
HETATM   19  C12 UNL     1      -1.703   8.749  12.742  1.00  0.00    -0.024 C 
HETATM   20  C13 UNL     1      -1.998   9.981  13.537  1.00  0.00     0.027 C 
HETATM   21  C14 UNL     1      -1.200   9.935  14.811  1.00  0.00     0.004 C 
HETATM   22  C15 UNL     1      -1.537   8.667  15.569  1.00  0.00     0.005 C 
HETATM   23  C16 UNL     1      -2.416   7.744  14.784  1.00  0.00     0.034 C 
ENDBRANCH  17  18
ENDBRANCH  16  17
ENDBRANCH  14  16
ENDBRANCH   7  14
BRANCH   1  24
HETATM   24  N1  UNL     1      -5.897   1.799  15.789  1.00  0.00    -0.371 N 
ATOM     25  H1  UNL     1      -5.287   1.052  15.457  1.00  0.00     0.161 HD
BRANCH  24  26
HETATM   26  C3  UNL     1      -6.853   1.449  16.794  1.00  0.00     0.148 C 
BRANCH  26  27
HETATM   27  C2  UNL     1      -6.126   1.383  18.101  1.00  0.00    -0.018 C 
HETATM   28  C1  UNL     1      -6.258   2.337  19.005  1.00  0.00     0.008 C 
ENDBRANCH  26  27
ENDBRANCH  24  26
ENDBRANCH   1  24
TORSDOF 7
ENDMDL
MODEL 4
REMARK VINA RESULT: -6.853828614      1.264      2.322
REMARK  7 active torsions:
REMARK  status: ('A' for Active; 'I' for Inactive)
REMARK    1  A    between atoms: C2_2  and  C3_3 
REMARK    2  A    between atoms: C3_3  and  N1_4 
REMARK    3  A    between atoms: N1_4  and  C4_6 
REMARK    4  A    between atoms: C8_12  and  N3_13 
REMARK    5  A    between atoms: N3_13  and  C9_15 
REMARK    6  A    between atoms: C9_15  and  C10_16 
REMARK    7  A    between atoms: C10_16  and  C11_17 
ROOT
HETATM    1  C4  UNL     1      -4.457   1.399  15.008  1.00  0.00     0.129 A 
HETATM    2  N2  UNL     1      -4.333   0.295  14.268  1.00  0.00    -0.351 N 
ATOM      3  H2  UNL     1      -4.368  -0.618  14.722  1.00  0.00     0.166 HD
HETATM    4  C5  UNL     1      -4.161   0.362  12.921  1.00  0.00     0.091 A 
HETATM    5  C6  UNL     1      -4.108   1.572  12.263  1.00  0.00     0.034 A 
HETATM    6  C7  UNL     1      -4.233   2.737  12.999  1.00  0.00     0.040 A 
HETATM    7  C8  UNL     1      -4.190   3.983  12.413  1.00  0.00     0.114 A 
HETATM    8  N4  UNL     1      -4.318   5.066  13.198  1.00  0.00    -0.338 N 
ATOM      9  H4  UNL     1      -4.285   5.990  12.766  1.00  0.00     0.168 HD
HETATM   10  C17 UNL     1      -4.487   4.982  14.523  1.00  0.00     0.182 A 
HETATM   11  N5  UNL     1      -4.527   3.756  15.073  1.00  0.00    -0.348 N 
ATOM     12  H5  UNL     1      -4.656   3.682  16.082  1.00  0.00     0.167 HD
HETATM   13  C18 UNL     1      -4.405   2.624  14.360  1.00  0.00     0.091 A 
ENDROOT
BRANCH   7  14
HETATM   14  N3  UNL     1      -4.027   4.031  11.139  1.00  0.00    -0.375 N 
ATOM     15  H3  UNL     1      -4.492   3.330  10.562  1.00  0.00     0.161 HD
BRANCH  14  16
HETATM   16  C9  UNL     1      -3.214   5.035  10.483  1.00  0.00     0.125 C 
BRANCH  16  17
HETATM   17  C10 UNL     1      -4.029   5.885   9.588  1.00  0.00     0.053 C 
BRANCH  17  18
HETATM   18  C11 UNL     1      -4.876   6.885  10.217  1.00  0.00    -0.082 C 
HETATM   19  C12 UNL     1      -6.203   6.934  10.227  1.00  0.00    -0.024 C 
HETATM   20  C13 UNL     1      -6.806   8.090  10.959  1.00  0.00     0.027 C 
HETATM   21  C14 UNL     1      -6.251   9.366  10.388  1.00  0.00     0.004 C 
HETATM   22  C15 UNL     1      -4.740   9.346  10.492  1.00  0.00     0.005 C 
HETATM   23  C16 UNL     1      -4.212   8.025  10.960  1.00  0.00     0.034 C 
ENDBRANCH  17  18
ENDBRANCH  16  17
ENDBRANCH  14  16
ENDBRANCH   7  14
BRANCH   1  24
HETATM   24  N1  UNL     1      -4.621   1.408  16.280  1.00  0.00    -0.371 N 
ATOM     25  H1  UNL     1      -3.987   1.997  16.820  1.00  0.00     0.161 HD
BRANCH  24  26
HETATM   26  C3  UNL     1      -5.603   0.675  17.018  1.00  0.00     0.148 C 
BRANCH  26  27
HETATM   27  C2  UNL     1      -6.884   1.447  16.949  1.00  0.00    -0.018 C 
HETATM   28  C1  UNL     1      -6.953   2.695  17.375  1.00  0.00     0.008 C 
ENDBRANCH  26  27
ENDBRANCH  24  26
ENDBRANCH   1  24
TORSDOF 7
ENDMDL
MODEL 5
REMARK VINA RESULT: -6.810962092      1.517      6.903
REMARK  7 active torsions:
REMARK  status: ('A' for Active; 'I' for Inactive)
REMARK    1  A    between atoms: C2_2  and  C3_3 
REMARK    2  A    between atoms: C3_3  and  N1_4 
REMARK    3  A    between atoms: N1_4  and  C4_6 
REMARK    4  A    between atoms: C8_12  and  N3_13 
REMARK    5  A    between atoms: N3_13  and  C9_15 
REMARK    6  A    between atoms: C9_15  and  C10_16 
REMARK    7  A    between atoms: C10_16  and  C11_17 
ROOT
HETATM    1  C4  UNL     1      -3.992   6.291  12.139  1.00  0.00     0.129 A 
HETATM    2  N2  UNL     1      -3.672   6.787  13.337  1.00  0.00    -0.351 N 
ATOM      3  H2  UNL     1      -3.647   7.798  13.468  1.00  0.00     0.166 HD
HETATM    4  C5  UNL     1      -3.379   5.971  14.384  1.00  0.00     0.091 A 
HETATM    5  C6  UNL     1      -3.400   4.600  14.255  1.00  0.00     0.034 A 
HETATM    6  C7  UNL     1      -3.728   4.051  13.028  1.00  0.00     0.040 A 
HETATM    7  C8  UNL     1      -3.770   2.689  12.821  1.00  0.00     0.114 A 
HETATM    8  N4  UNL     1      -4.097   2.235  11.599  1.00  0.00    -0.338 N 
ATOM      9  H4  UNL     1      -4.128   1.228  11.444  1.00  0.00     0.168 HD
HETATM   10  C17 UNL     1      -4.383   3.052  10.579  1.00  0.00     0.182 A 
HETATM   11  N5  UNL     1      -4.335   4.377  10.804  1.00  0.00    -0.348 N 
ATOM     12  H5  UNL     1      -4.552   5.007  10.031  1.00  0.00     0.167 HD
HETATM   13  C18 UNL     1      -4.017   4.911  11.994  1.00  0.00     0.091 A 
ENDROOT
BRANCH   7  14
HETATM   14  N3  UNL     1      -3.491   1.931  13.821  1.00  0.00    -0.375 N 
ATOM     15  H3  UNL     1      -2.656   2.138  14.370  1.00  0.00     0.161 HD
BRANCH  14  16
HETATM   16  C9  UNL     1      -4.306   0.796  14.205  1.00  0.00     0.125 C 
BRANCH  16  17
HETATM   17  C10 UNL     1      -4.385   0.667  15.677  1.00  0.00     0.053 C 
BRANCH  17  18
HETATM   18  C11 UNL     1      -5.450   1.393  16.348  1.00  0.00    -0.082 C 
HETATM   19  C12 UNL     1      -5.950   2.580  16.026  1.00  0.00    -0.024 C 
HETATM   20  C13 UNL     1      -7.050   3.084  16.905  1.00  0.00     0.027 C 
HETATM   21  C14 UNL     1      -6.560   3.104  18.327  1.00  0.00     0.004 C 
HETATM   22  C15 UNL     1      -6.102   1.714  18.719  1.00  0.00     0.005 C 
HETATM   23  C16 UNL     1      -6.097   0.762  17.563  1.00  0.00     0.034 C 
ENDBRANCH  17  18
ENDBRANCH  16  17
ENDBRANCH  14  16
ENDBRANCH   7  14
BRANCH   1  24
HETATM   24  N1  UNL     1      -4.279   7.000  11.110  1.00  0.00    -0.371 N 
ATOM     25  H1  UNL     1      -3.797   6.765  10.242  1.00  0.00     0.161 HD
BRANCH  24  26
HETATM   26  C3  UNL     1      -5.205   8.088  11.057  1.00  0.00     0.148 C 
BRANCH  26  27
HETATM   27  C2  UNL     1      -6.559   7.512  10.782  1.00  0.00    -0.018 C 
HETATM   28  C1  UNL     1      -6.883   7.074   9.579  1.00  0.00     0.008 C 
ENDBRANCH  26  27
ENDBRANCH  24  26
ENDBRANCH   1  24
TORSDOF 7
ENDMDL
