MODEL 1
REMARK VINA RESULT: -7.561927623      0.000      0.000
REMARK  5 active torsions:
REMARK  status: ('A' for Active; 'I' for Inactive)
REMARK    1  A    between atoms: C1_2  and  C2_4 
REMARK    2  A    between atoms: C2_4  and  C3_5 
REMARK    3  A    between atoms: C3_5  and  C4_6 
REMARK    4  A    between atoms: C4_6  and  N1_7 
REMARK    5  A    between atoms: C16_19  and  C17_20 
ROOT
HETATM    1  N1  UNL     1      -3.030   4.323  13.048  1.00  0.00    -0.403 N 
HETATM    2  C5  UNL     1      -1.919   4.976  12.504  1.00  0.00     0.080 C 
HETATM    3  C6  UNL     1      -2.060   5.429  11.065  1.00  0.00     0.025 C 
HETATM    4  C7  UNL     1      -3.320   6.103  10.716  1.00  0.00     0.007 C 
HETATM    5  C8  UNL     1      -4.029   6.826  11.830  1.00  0.00    -0.012 C 
HETATM    6  C9  UNL     1      -3.117   7.680  12.648  1.00  0.00     0.009 C 
HETATM    7  C10 UNL     1      -2.529   6.983  13.836  1.00  0.00    -0.010 C 
HETATM    8  C11 UNL     1      -1.399   6.124  13.392  1.00  0.00     0.029 C 
HETATM    9  C12 UNL     1      -3.503   6.139  14.583  1.00  0.00     0.029 C 
HETATM   10  C13 UNL     1      -4.059   5.112  13.609  1.00  0.00     0.080 C 
HETATM   11  C14 UNL     1      -4.877   5.873  12.597  1.00  0.00     0.029 C 
ENDROOT
BRANCH   1  12
HETATM   12  C4  UNL     1      -2.925   2.970  13.459  1.00  0.00     0.128 C 
BRANCH  12  13
HETATM   13  C3  UNL     1      -4.196   2.194  13.465  1.00  0.00    -0.001 A 
HETATM   14  C15 UNL     1      -4.077   0.745  13.025  1.00  0.00     0.029 A 
HETATM   15  C16 UNL     1      -4.983   1.763  12.332  1.00  0.00     0.098 A 
BRANCH  13  16
HETATM   16  C2  UNL     1      -4.943   2.245  14.812  1.00  0.00     0.125 C 
BRANCH  16  17
HETATM   17  C1  UNL     1      -4.393   1.237  15.716  1.00  0.00     0.173 C 
HETATM   18  O1  UNL     1      -3.298   1.257  16.313  1.00  0.00    -0.648 OA
HETATM   19  O2  UNL     1      -5.173   0.075  15.973  1.00  0.00    -0.648 OA
ENDBRANCH  16  17
ENDBRANCH  13  16
BRANCH  15  20
HETATM   20  C17 UNL     1      -4.684   1.877  10.908  1.00  0.00     0.177 C 
HETATM   21  O3  UNL     1      -4.602   3.027  10.341  1.00  0.00    -0.648 OA
HETATM   22  O4  UNL     1      -4.467   0.814  10.045  1.00  0.00    -0.648 OA
ENDBRANCH  15  20
ENDBRANCH  12  13
ENDBRANCH   1  12
TORSDOF 5
ENDMDL
MODEL 2
REMARK VINA RESULT: -7.558583879      1.094      3.447
REMARK  5 active torsions:
REMARK  status: ('A' for Active; 'I' for Inactive)
REMARK    1  A    between atoms: C1_2  and  C2_4 
REMARK    2  A    between atoms: C2_4  and  C3_5 
REMARK    3  A    between atoms: C3_5  and  C4_6 
REMARK    4  A    between atoms: C4_6  and  N1_7 
REMARK    5  A    between atoms: C16_19  and  C17_20 
ROOT
HETATM    1  N1  UNL     1      -2.966   4.006  12.563  1.00  0.00    -0.403 N 
HETATM    2  C5  UNL     1      -3.212   4.610  11.326  1.00  0.00     0.080 C 
HETATM    3  C6  UNL     1      -4.464   5.458  11.243  1.00  0.00     0.025 C 
HETATM    4  C7  UNL     1      -4.700   6.382  12.363  1.00  0.00     0.007 C 
HETATM    5  C8  UNL     1      -3.483   6.868  13.104  1.00  0.00    -0.012 C 
HETATM    6  C9  UNL     1      -2.385   7.317  12.195  1.00  0.00     0.009 C 
HETATM    7  C10 UNL     1      -1.408   6.240  11.838  1.00  0.00    -0.010 C 
HETATM    8  C11 UNL     1      -1.992   5.378  10.777  1.00  0.00     0.029 C 
HETATM    9  C12 UNL     1      -1.013   5.378  12.987  1.00  0.00     0.029 C 
HETATM   10  C13 UNL     1      -2.282   4.754  13.547  1.00  0.00     0.080 C 
HETATM   11  C14 UNL     1      -3.091   5.877  14.144  1.00  0.00     0.029 C 
ENDROOT
BRANCH   1  12
HETATM   12  C4  UNL     1      -2.956   2.592  12.671  1.00  0.00     0.128 C 
BRANCH  12  13
HETATM   13  C3  UNL     1      -4.249   1.962  13.060  1.00  0.00    -0.001 A 
HETATM   14  C15 UNL     1      -5.112   2.778  14.006  1.00  0.00     0.029 A 
HETATM   15  C16 UNL     1      -4.607   1.373  14.330  1.00  0.00     0.098 A 
BRANCH  13  16
HETATM   16  C2  UNL     1      -5.105   1.522  11.857  1.00  0.00     0.125 C 
BRANCH  16  17
HETATM   17  C1  UNL     1      -4.464   0.392  11.187  1.00  0.00     0.173 C 
HETATM   18  O1  UNL     1      -3.880  -0.579  11.708  1.00  0.00    -0.648 OA
HETATM   19  O2  UNL     1      -4.490   0.359   9.765  1.00  0.00    -0.648 OA
ENDBRANCH  16  17
ENDBRANCH  13  16
BRANCH  15  20
HETATM   20  C17 UNL     1      -3.848   1.341  15.576  1.00  0.00     0.177 C 
HETATM   21  O3  UNL     1      -4.001   0.382  16.418  1.00  0.00    -0.648 OA
HETATM   22  O4  UNL     1      -2.923   2.292  15.977  1.00  0.00    -0.648 OA
ENDBRANCH  15  20
ENDBRANCH  12  13
ENDBRANCH   1  12
TORSDOF 5
ENDMDL
MODEL 3
REMARK VINA RESULT: -7.508348026      0.761      1.434
REMARK  5 active torsions:
REMARK  status: ('A' for Active; 'I' for Inactive)
REMARK    1  A    between atoms: C1_2  and  C2_4 
REMARK    2  A    between atoms: C2_4  and  C3_5 
REMARK    3  A    between atoms: C3_5  and  C4_6 
REMARK    4  A    between atoms: C4_6  and  N1_7 
REMARK    5  A    between atoms: C16_19  and  C17_20 
ROOT
HETATM    1  N1  UNL     1      -2.994   3.956  13.178  1.00  0.00    -0.403 N 
HETATM    2  C5  UNL     1      -2.842   4.690  11.997  1.00  0.00     0.080 C 
HETATM    3  C6  UNL     1      -4.062   5.463  11.540  1.00  0.00     0.025 C 
HETATM    4  C7  UNL     1      -4.773   6.228  12.575  1.00  0.00     0.007 C 
HETATM    5  C8  UNL     1      -3.956   6.694  13.750  1.00  0.00    -0.012 C 
HETATM    6  C9  UNL     1      -2.658   7.317  13.351  1.00  0.00     0.009 C 
HETATM    7  C10 UNL     1      -1.514   6.354  13.279  1.00  0.00    -0.010 C 
HETATM    8  C11 UNL     1      -1.592   5.593  12.004  1.00  0.00     0.029 C 
HETATM    9  C12 UNL     1      -1.469   5.384  14.409  1.00  0.00     0.029 C 
HETATM   10  C13 UNL     1      -2.784   4.620  14.407  1.00  0.00     0.080 C 
HETATM   11  C14 UNL     1      -3.862   5.611  14.767  1.00  0.00     0.029 C 
ENDROOT
BRANCH   1  12
HETATM   12  C4  UNL     1      -2.879   2.543  13.153  1.00  0.00     0.128 C 
BRANCH  12  13
HETATM   13  C3  UNL     1      -4.163   1.788  13.197  1.00  0.00    -0.001 A 
HETATM   14  C15 UNL     1      -4.074   0.328  12.789  1.00  0.00     0.029 A 
HETATM   15  C16 UNL     1      -4.974   1.344  12.086  1.00  0.00     0.098 A 
BRANCH  13  16
HETATM   16  C2  UNL     1      -4.888   1.883  14.552  1.00  0.00     0.125 C 
BRANCH  16  17
HETATM   17  C1  UNL     1      -4.388   0.843  15.449  1.00  0.00     0.173 C 
HETATM   18  O1  UNL     1      -4.830  -0.313  15.606  1.00  0.00    -0.648 OA
HETATM   19  O2  UNL     1      -3.258   1.147  16.260  1.00  0.00    -0.648 OA
ENDBRANCH  16  17
ENDBRANCH  13  16
BRANCH  15  20
HETATM   20  C17 UNL     1      -4.695   1.420  10.655  1.00  0.00     0.177 C 
HETATM   21  O3  UNL     1      -4.575   2.555  10.065  1.00  0.00    -0.648 OA
HETATM   22  O4  UNL     1      -4.537   0.334   9.809  1.00  0.00    -0.648 OA
ENDBRANCH  15  20
ENDBRANCH  12  13
ENDBRANCH   1  12
TORSDOF 5
ENDMDL
MODEL 4
REMARK VINA RESULT: -7.469363371      0.366      2.111
REMARK  5 active torsions:
REMARK  status: ('A' for Active; 'I' for Inactive)
REMARK    1  A    between atoms: C1_2  and  C2_4 
REMARK    2  A    between atoms: C2_4  and  C3_5 
REMARK    3  A    between atoms: C3_5  and  C4_6 
REMARK    4  A    between atoms: C4_6  and  N1_7 
REMARK    5  A    between atoms: C16_19  and  C17_20 
ROOT
HETATM    1  N1  UNL     1      -2.977   4.270  13.261  1.00  0.00    -0.403 N 
HETATM    2  C5  UNL     1      -4.224   4.889  13.391  1.00  0.00     0.080 C 
HETATM    3  C6  UNL     1      -4.379   5.817  14.579  1.00  0.00     0.025 C 
HETATM    4  C7  UNL     1      -3.272   6.754  14.821  1.00  0.00     0.007 C 
HETATM    5  C8  UNL     1      -2.456   7.160  13.622  1.00  0.00    -0.012 C 
HETATM    6  C9  UNL     1      -3.295   7.537  12.445  1.00  0.00     0.009 C 
HETATM    7  C10 UNL     1      -3.597   6.399  11.519  1.00  0.00    -0.010 C 
HETATM    8  C11 UNL     1      -4.695   5.578  12.094  1.00  0.00     0.029 C 
HETATM    9  C12 UNL     1      -2.430   5.513  11.252  1.00  0.00     0.029 C 
HETATM   10  C13 UNL     1      -1.951   4.972  12.590  1.00  0.00     0.080 C 
HETATM   11  C14 UNL     1      -1.398   6.145  13.359  1.00  0.00     0.029 C 
ENDROOT
BRANCH   1  12
HETATM   12  C4  UNL     1      -2.875   2.859  13.349  1.00  0.00     0.128 C 
BRANCH  12  13
HETATM   13  C3  UNL     1      -4.166   2.116  13.373  1.00  0.00    -0.001 A 
HETATM   14  C15 UNL     1      -4.082   0.652  12.977  1.00  0.00     0.029 A 
HETATM   15  C16 UNL     1      -4.960   1.671  12.250  1.00  0.00     0.098 A 
BRANCH  13  16
HETATM   16  C2  UNL     1      -4.915   2.228  14.714  1.00  0.00     0.125 C 
BRANCH  16  17
HETATM   17  C1  UNL     1      -4.368   1.261  15.663  1.00  0.00     0.173 C 
HETATM   18  O1  UNL     1      -3.272   1.303  16.257  1.00  0.00    -0.648 OA
HETATM   19  O2  UNL     1      -5.153   0.116  15.977  1.00  0.00    -0.648 OA
ENDBRANCH  16  17
ENDBRANCH  13  16
BRANCH  15  20
HETATM   20  C17 UNL     1      -4.653   1.734  10.825  1.00  0.00     0.177 C 
HETATM   21  O3  UNL     1      -4.490   2.863  10.234  1.00  0.00    -0.648 OA
HETATM   22  O4  UNL     1      -4.512   0.640   9.985  1.00  0.00    -0.648 OA
ENDBRANCH  15  20
ENDBRANCH  12  13
ENDBRANCH   1  12
TORSDOF 5
ENDMDL
MODEL 5
REMARK VINA RESULT: -7.410079645      1.392      1.633
REMARK  5 active torsions:
REMARK  status: ('A' for Active; 'I' for Inactive)
REMARK    1  A    between atoms: C1_2  and  C2_4 
REMARK    2  A    between atoms: C2_4  and  C3_5 
REMARK    3  A    between atoms: C3_5  and  C4_6 
REMARK    4  A    between atoms: C4_6  and  N1_7 
REMARK    5  A    between atoms: C16_19  and  C17_20 
ROOT
HETATM    1  N1  UNL     1      -3.452   4.304  14.436  1.00  0.00    -0.403 N 
HETATM    2  C5  UNL     1      -2.270   4.595  13.747  1.00  0.00     0.080 C 
HETATM    3  C6  UNL     1      -2.333   4.450  12.241  1.00  0.00     0.025 C 
HETATM    4  C7  UNL     1      -3.512   5.029  11.579  1.00  0.00     0.007 C 
HETATM    5  C8  UNL     1      -4.172   6.190  12.274  1.00  0.00    -0.012 C 
HETATM    6  C9  UNL     1      -3.200   7.222  12.744  1.00  0.00     0.009 C 
HETATM    7  C10 UNL     1      -2.711   7.008  14.144  1.00  0.00    -0.010 C 
HETATM    8  C11 UNL     1      -1.660   5.955  14.142  1.00  0.00     0.029 C 
HETATM    9  C12 UNL     1      -3.779   6.612  15.103  1.00  0.00     0.029 C 
HETATM   10  C13 UNL     1      -4.411   5.331  14.579  1.00  0.00     0.080 C 
HETATM   11  C14 UNL     1      -5.127   5.691  13.302  1.00  0.00     0.029 C 
ENDROOT
BRANCH   1  12
HETATM   12  C4  UNL     1      -3.490   3.222  15.352  1.00  0.00     0.128 C 
BRANCH  12  13
HETATM   13  C3  UNL     1      -4.618   2.265  15.178  1.00  0.00    -0.001 A 
HETATM   14  C15 UNL     1      -4.223   0.801  15.095  1.00  0.00     0.029 A 
HETATM   15  C16 UNL     1      -4.989   1.530  13.990  1.00  0.00     0.098 A 
BRANCH  13  16
HETATM   16  C2  UNL     1      -5.727   2.422  16.236  1.00  0.00     0.125 C 
BRANCH  16  17
HETATM   17  C1  UNL     1      -5.894   1.165  16.962  1.00  0.00     0.173 C 
HETATM   18  O1  UNL     1      -5.152   0.680  17.839  1.00  0.00    -0.648 OA
HETATM   19  O2  UNL     1      -7.033   0.367  16.660  1.00  0.00    -0.648 OA
ENDBRANCH  16  17
ENDBRANCH  13  16
BRANCH  15  20
HETATM   20  C17 UNL     1      -4.300   1.449  12.706  1.00  0.00     0.177 C 
HETATM   21  O3  UNL     1      -4.928   1.662  11.606  1.00  0.00    -0.648 OA
HETATM   22  O4  UNL     1      -2.958   1.147  12.532  1.00  0.00    -0.648 OA
ENDBRANCH  15  20
ENDBRANCH  12  13
ENDBRANCH   1  12
TORSDOF 5
ENDMDL
