MODEL 1
REMARK VINA RESULT: -4.981580374      0.000      0.000
REMARK  13 active torsions:
REMARK  status: ('A' for Active; 'I' for Inactive)
REMARK    1  A    between atoms: C1_2  and  O2_4 
REMARK    2  A    between atoms: O2_4  and  C2_5 
REMARK    3  A    between atoms: C2_5  and  C3_6 
REMARK    4  A    between atoms: C3_6  and  N2_7 
REMARK    5  A    between atoms: C3_6  and  O3_11 
REMARK    6  A    between atoms: C3_6  and  C5_21 
REMARK    7  A    between atoms: O3_11  and  C4_12 
REMARK    8  A    between atoms: C4_12  and  N3_13 
REMARK    9  A    between atoms: C4_12  and  N4_17 
REMARK   10  A    between atoms: C6_23  and  C7_24 
REMARK   11  A    between atoms: C8_27  and  N5_28 
REMARK   12  A    between atoms: C10_33  and  N6_34 
REMARK   13  A    between atoms: C10_33  and  C11_38 
ROOT
HETATM    1  C5  UNL     1      22.648   2.269  17.520  1.00  0.00     0.235 C 
HETATM    2  O4  UNL     1      21.630   2.641  18.354  1.00  0.00    -0.360 OA
HETATM    3  C6  UNL     1      20.883   1.605  18.872  1.00  0.00     0.253 C 
HETATM    4  C8  UNL     1      21.719   0.565  19.569  1.00  0.00     0.225 C 
HETATM    5  C9  UNL     1      22.860   0.177  18.711  1.00  0.00     0.089 C 
HETATM    6  C10 UNL     1      23.602   1.414  18.247  1.00  0.00     0.242 C 
ENDROOT
BRANCH   1   7
HETATM    7  C3  UNL     1      23.177   3.429  16.722  1.00  0.00     0.278 C 
BRANCH   7   8
HETATM    8  C2  UNL     1      22.776   3.498  15.320  1.00  0.00     0.251 C 
BRANCH   8   9
HETATM    9  O2  UNL     1      22.681   4.783  14.761  1.00  0.00    -0.301 OA
BRANCH   9  10
HETATM   10  C1  UNL     1      23.383   5.225  13.678  1.00  0.00     0.372 C 
HETATM   11  N1  UNL     1      24.485   6.108  13.824  1.00  0.00    -0.032 NA
HETATM   12  O1  UNL     1      23.035   4.833  12.544  1.00  0.00    -0.242 OA
ENDBRANCH   9  10
ENDBRANCH   8   9
ENDBRANCH   7   8
BRANCH   7  13
HETATM   13  N2  UNL     1      22.739   4.671  17.407  1.00  0.00    -0.042 N 
ATOM     14  H23 UNL     1      23.467   5.384  17.424  1.00  0.00     0.278 HD
ATOM     15  H22 UNL     1      22.045   5.189  16.867  1.00  0.00     0.278 HD
ATOM     16  H21 UNL     1      22.405   4.431  18.341  1.00  0.00     0.278 HD
ENDBRANCH   7  13
BRANCH   7  17
HETATM   17  O3  UNL     1      24.536   3.385  16.861  1.00  0.00    -0.296 OA
BRANCH  17  18
HETATM   18  C4  UNL     1      25.303   4.465  16.947  1.00  0.00     0.521 C 
BRANCH  18  19
HETATM   19  N3  UNL     1      26.256   4.439  15.817  1.00  0.00    -0.027 N 
ATOM     20  H33 UNL     1      27.119   3.943  16.040  1.00  0.00     0.279 HD
ATOM     21  H32 UNL     1      25.946   3.837  15.054  1.00  0.00     0.279 HD
ATOM     22  H31 UNL     1      26.418   5.401  15.520  1.00  0.00     0.279 HD
ENDBRANCH  18  19
BRANCH  18  23
HETATM   23  N4  UNL     1      26.206   4.436  18.135  1.00  0.00    -0.027 N 
ATOM     24  H43 UNL     1      25.718   4.080  18.957  1.00  0.00     0.279 HD
ATOM     25  H42 UNL     1      26.915   3.710  18.038  1.00  0.00     0.279 HD
ATOM     26  H41 UNL     1      26.632   5.342  18.326  1.00  0.00     0.279 HD
ENDBRANCH  18  23
ENDBRANCH  17  18
ENDBRANCH   7  17
ENDBRANCH   1   7
BRANCH   6  27
HETATM   27  N6  UNL     1      24.612   0.815  17.349  1.00  0.00    -0.057 N 
ATOM     28  H63 UNL     1      25.070   0.016  17.789  1.00  0.00     0.276 HD
ATOM     29  H62 UNL     1      24.171   0.336  16.564  1.00  0.00     0.276 HD
ATOM     30  H61 UNL     1      25.296   1.499  17.026  1.00  0.00     0.276 HD
ENDBRANCH   6  27
BRANCH   6  31
HETATM   31  C11 UNL     1      24.235   1.990  19.436  1.00  0.00     0.213 C 
HETATM   32  O7  UNL     1      24.011   3.111  19.935  1.00  0.00    -0.646 OA
HETATM   33  O8  UNL     1      25.198   1.217  20.106  1.00  0.00    -0.646 OA
ENDBRANCH   6  31
BRANCH   3  34
HETATM   34  C7  UNL     1      19.925   1.018  17.952  1.00  0.00     0.205 C 
HETATM   35  O5  UNL     1      18.853   0.517  18.375  1.00  0.00    -0.646 OA
HETATM   36  O6  UNL     1      20.076   0.948  16.569  1.00  0.00    -0.646 OA
ENDBRANCH   3  34
BRANCH   4  37
HETATM   37  N5  UNL     1      20.862  -0.602  19.870  1.00  0.00    -0.072 N 
ATOM     38  H53 UNL     1      21.172  -1.111  20.697  1.00  0.00     0.274 HD
ATOM     39  H52 UNL     1      19.939  -0.332  20.209  1.00  0.00     0.274 HD
ATOM     40  H51 UNL     1      20.817  -1.195  19.041  1.00  0.00     0.274 HD
ENDBRANCH   4  37
TORSDOF 13
ENDMDL
MODEL 2
REMARK VINA RESULT: -4.326308337      2.070      5.296
REMARK  13 active torsions:
REMARK  status: ('A' for Active; 'I' for Inactive)
REMARK    1  A    between atoms: C1_2  and  O2_4 
REMARK    2  A    between atoms: O2_4  and  C2_5 
REMARK    3  A    between atoms: C2_5  and  C3_6 
REMARK    4  A    between atoms: C3_6  and  N2_7 
REMARK    5  A    between atoms: C3_6  and  O3_11 
REMARK    6  A    between atoms: C3_6  and  C5_21 
REMARK    7  A    between atoms: O3_11  and  C4_12 
REMARK    8  A    between atoms: C4_12  and  N3_13 
REMARK    9  A    between atoms: C4_12  and  N4_17 
REMARK   10  A    between atoms: C6_23  and  C7_24 
REMARK   11  A    between atoms: C8_27  and  N5_28 
REMARK   12  A    between atoms: C10_33  and  N6_34 
REMARK   13  A    between atoms: C10_33  and  C11_38 
ROOT
HETATM    1  C5  UNL     1      23.679   1.637  18.456  1.00  0.00     0.235 C 
HETATM    2  O4  UNL     1      23.597   1.581  17.092  1.00  0.00    -0.360 OA
HETATM    3  C6  UNL     1      23.780   2.782  16.441  1.00  0.00     0.253 C 
HETATM    4  C8  UNL     1      25.065   3.469  16.817  1.00  0.00     0.225 C 
HETATM    5  C9  UNL     1      25.209   3.501  18.289  1.00  0.00     0.089 C 
HETATM    6  C10 UNL     1      25.015   2.109  18.857  1.00  0.00     0.242 C 
ENDROOT
BRANCH   1   7
HETATM    7  C3  UNL     1      23.123   0.399  19.106  1.00  0.00     0.278 C 
BRANCH   7   8
HETATM    8  C2  UNL     1      21.827   0.531  19.765  1.00  0.00     0.251 C 
BRANCH   8   9
HETATM    9  O2  UNL     1      20.900   1.389  19.150  1.00  0.00    -0.301 OA
BRANCH   9  10
HETATM   10  C1  UNL     1      19.988   1.017  18.206  1.00  0.00     0.372 C 
HETATM   11  N1  UNL     1      20.285   1.103  16.820  1.00  0.00    -0.032 NA
HETATM   12  O1  UNL     1      18.876   0.594  18.587  1.00  0.00    -0.242 OA
ENDBRANCH   9  10
ENDBRANCH   8   9
ENDBRANCH   7   8
BRANCH   7  13
HETATM   13  N2  UNL     1      23.023  -0.643  18.055  1.00  0.00    -0.042 N 
ATOM     14  H23 UNL     1      22.897  -1.577  18.443  1.00  0.00     0.278 HD
ATOM     15  H22 UNL     1      22.148  -0.587  17.534  1.00  0.00     0.278 HD
ATOM     16  H21 UNL     1      23.841  -0.580  17.449  1.00  0.00     0.278 HD
ENDBRANCH   7  13
BRANCH   7  17
HETATM   17  O3  UNL     1      24.091  -0.032  19.970  1.00  0.00    -0.296 OA
BRANCH  17  18
HETATM   18  C4  UNL     1      24.258  -1.304  20.313  1.00  0.00     0.521 C 
BRANCH  18  19
HETATM   19  N3  UNL     1      24.150  -1.397  21.784  1.00  0.00    -0.027 N 
ATOM     20  H33 UNL     1      23.197  -1.582  22.099  1.00  0.00     0.279 HD
ATOM     21  H32 UNL     1      24.583  -2.240  22.160  1.00  0.00     0.279 HD
ATOM     22  H31 UNL     1      24.538  -0.542  22.182  1.00  0.00     0.279 HD
ENDBRANCH  18  19
BRANCH  18  23
HETATM   23  N4  UNL     1      25.645  -1.790  20.057  1.00  0.00    -0.027 N 
ATOM     24  H43 UNL     1      26.336  -1.118  20.389  1.00  0.00     0.279 HD
ATOM     25  H42 UNL     1      25.876  -2.577  20.663  1.00  0.00     0.279 HD
ATOM     26  H41 UNL     1      25.804  -2.023  19.077  1.00  0.00     0.279 HD
ENDBRANCH  18  23
ENDBRANCH  17  18
ENDBRANCH   7  17
ENDBRANCH   1   7
BRANCH   6  27
HETATM   27  N6  UNL     1      25.099   2.385  20.308  1.00  0.00    -0.057 N 
ATOM     28  H63 UNL     1      25.015   3.384  20.499  1.00  0.00     0.276 HD
ATOM     29  H62 UNL     1      24.266   2.056  20.795  1.00  0.00     0.276 HD
ATOM     30  H61 UNL     1      25.946   2.000  20.725  1.00  0.00     0.276 HD
ENDBRANCH   6  27
BRANCH   6  31
HETATM   31  C11 UNL     1      26.162   1.314  18.408  1.00  0.00     0.213 C 
HETATM   32  O7  UNL     1      26.129   0.284  17.706  1.00  0.00    -0.646 OA
HETATM   33  O8  UNL     1      27.444   1.737  18.795  1.00  0.00    -0.646 OA
ENDBRANCH   6  31
BRANCH   3  34
HETATM   34  C7  UNL     1      22.640   3.682  16.480  1.00  0.00     0.205 C 
HETATM   35  O5  UNL     1      22.085   4.062  15.419  1.00  0.00    -0.646 OA
HETATM   36  O6  UNL     1      22.063   4.199  17.638  1.00  0.00    -0.646 OA
ENDBRANCH   3  34
BRANCH   4  37
HETATM   37  N5  UNL     1      25.048   4.838  16.257  1.00  0.00    -0.072 N 
ATOM     38  H53 UNL     1      25.984   5.190  16.057  1.00  0.00     0.274 HD
ATOM     39  H52 UNL     1      24.681   4.867  15.306  1.00  0.00     0.274 HD
ATOM     40  H51 UNL     1      24.530   5.443  16.895  1.00  0.00     0.274 HD
ENDBRANCH   4  37
TORSDOF 13
ENDMDL
MODEL 3
REMARK VINA RESULT: -4.288373101      2.932      6.486
REMARK  13 active torsions:
REMARK  status: ('A' for Active; 'I' for Inactive)
REMARK    1  A    between atoms: C1_2  and  O2_4 
REMARK    2  A    between atoms: O2_4  and  C2_5 
REMARK    3  A    between atoms: C2_5  and  C3_6 
REMARK    4  A    between atoms: C3_6  and  N2_7 
REMARK    5  A    between atoms: C3_6  and  O3_11 
REMARK    6  A    between atoms: C3_6  and  C5_21 
REMARK    7  A    between atoms: O3_11  and  C4_12 
REMARK    8  A    between atoms: C4_12  and  N3_13 
REMARK    9  A    between atoms: C4_12  and  N4_17 
REMARK   10  A    between atoms: C6_23  and  C7_24 
REMARK   11  A    between atoms: C8_27  and  N5_28 
REMARK   12  A    between atoms: C10_33  and  N6_34 
REMARK   13  A    between atoms: C10_33  and  C11_38 
ROOT
HETATM    1  C5  UNL     1      24.291   6.135  15.351  1.00  0.00     0.235 C 
HETATM    2  O4  UNL     1      25.098   5.203  14.757  1.00  0.00    -0.360 OA
HETATM    3  C6  UNL     1      25.056   5.178  13.380  1.00  0.00     0.253 C 
HETATM    4  C8  UNL     1      25.332   6.520  12.756  1.00  0.00     0.225 C 
HETATM    5  C9  UNL     1      24.511   7.561  13.411  1.00  0.00     0.089 C 
HETATM    6  C10 UNL     1      24.684   7.486  14.914  1.00  0.00     0.242 C 
ENDROOT
BRANCH   1   7
HETATM    7  C3  UNL     1      24.111   5.873  16.821  1.00  0.00     0.278 C 
BRANCH   7   8
HETATM    8  C2  UNL     1      22.869   5.217  17.222  1.00  0.00     0.251 C 
BRANCH   8   9
HETATM    9  O2  UNL     1      22.300   4.336  16.288  1.00  0.00    -0.301 OA
BRANCH   9  10
HETATM   10  C1  UNL     1      22.419   2.978  16.311  1.00  0.00     0.372 C 
HETATM   11  N1  UNL     1      23.673   2.344  16.110  1.00  0.00    -0.032 NA
HETATM   12  O1  UNL     1      21.394   2.294  16.516  1.00  0.00    -0.242 OA
ENDBRANCH   9  10
ENDBRANCH   8   9
ENDBRANCH   7   8
BRANCH   7  13
HETATM   13  N2  UNL     1      25.257   5.040  17.263  1.00  0.00    -0.042 N 
ATOM     14  H23 UNL     1      25.349   5.011  18.278  1.00  0.00     0.278 HD
ATOM     15  H22 UNL     1      25.098   4.045  17.106  1.00  0.00     0.278 HD
ATOM     16  H21 UNL     1      26.104   5.376  16.804  1.00  0.00     0.278 HD
ENDBRANCH   7  13
BRANCH   7  17
HETATM   17  O3  UNL     1      24.268   7.083  17.436  1.00  0.00    -0.296 OA
BRANCH  17  18
HETATM   18  C4  UNL     1      24.757   7.229  18.661  1.00  0.00     0.521 C 
BRANCH  18  19
HETATM   19  N3  UNL     1      23.745   7.936  19.474  1.00  0.00    -0.027 N 
ATOM     20  H33 UNL     1      23.161   8.563  18.919  1.00  0.00     0.279 HD
ATOM     21  H32 UNL     1      23.004   7.319  19.807  1.00  0.00     0.279 HD
ATOM     22  H31 UNL     1      24.230   8.416  20.232  1.00  0.00     0.279 HD
ENDBRANCH  18  19
BRANCH  18  23
HETATM   23  N4  UNL     1      25.922   8.160  18.708  1.00  0.00    -0.027 N 
ATOM     24  H43 UNL     1      26.282   8.343  17.772  1.00  0.00     0.279 HD
ATOM     25  H42 UNL     1      25.627   9.103  18.959  1.00  0.00     0.279 HD
ATOM     26  H41 UNL     1      26.663   7.830  19.327  1.00  0.00     0.279 HD
ENDBRANCH  18  23
ENDBRANCH  17  18
ENDBRANCH   7  17
ENDBRANCH   1   7
BRANCH   6  27
HETATM   27  N6  UNL     1      23.724   8.519  15.359  1.00  0.00    -0.057 N 
ATOM     28  H63 UNL     1      22.954   8.617  14.697  1.00  0.00     0.276 HD
ATOM     29  H62 UNL     1      23.197   8.207  16.175  1.00  0.00     0.276 HD
ATOM     30  H61 UNL     1      24.177   9.416  15.534  1.00  0.00     0.276 HD
ENDBRANCH   6  27
BRANCH   6  31
HETATM   31  C11 UNL     1      26.063   7.897  15.194  1.00  0.00     0.213 C 
HETATM   32  O7  UNL     1      26.928   7.246  15.814  1.00  0.00    -0.646 OA
HETATM   33  O8  UNL     1      26.480   9.154  14.724  1.00  0.00    -0.646 OA
ENDBRANCH   6  31
BRANCH   3  34
HETATM   34  C7  UNL     1      23.883   4.536  12.812  1.00  0.00     0.205 C 
HETATM   35  O5  UNL     1      22.734   5.004  13.014  1.00  0.00    -0.646 OA
HETATM   36  O6  UNL     1      23.898   3.390  12.021  1.00  0.00    -0.646 OA
ENDBRANCH   3  34
BRANCH   4  37
HETATM   37  N5  UNL     1      25.029   6.437  11.311  1.00  0.00    -0.072 N 
ATOM     38  H53 UNL     1      25.831   6.134  10.759  1.00  0.00     0.274 HD
ATOM     39  H52 UNL     1      24.404   5.663  11.086  1.00  0.00     0.274 HD
ATOM     40  H51 UNL     1      24.662   7.338  11.004  1.00  0.00     0.274 HD
ENDBRANCH   4  37
TORSDOF 13
ENDMDL
MODEL 4
REMARK VINA RESULT: -4.284335125      1.521      2.059
REMARK  13 active torsions:
REMARK  status: ('A' for Active; 'I' for Inactive)
REMARK    1  A    between atoms: C1_2  and  O2_4 
REMARK    2  A    between atoms: O2_4  and  C2_5 
REMARK    3  A    between atoms: C2_5  and  C3_6 
REMARK    4  A    between atoms: C3_6  and  N2_7 
REMARK    5  A    between atoms: C3_6  and  O3_11 
REMARK    6  A    between atoms: C3_6  and  C5_21 
REMARK    7  A    between atoms: O3_11  and  C4_12 
REMARK    8  A    between atoms: C4_12  and  N3_13 
REMARK    9  A    between atoms: C4_12  and  N4_17 
REMARK   10  A    between atoms: C6_23  and  C7_24 
REMARK   11  A    between atoms: C8_27  and  N5_28 
REMARK   12  A    between atoms: C10_33  and  N6_34 
REMARK   13  A    between atoms: C10_33  and  C11_38 
ROOT
HETATM    1  C5  UNL     1      22.505   2.509  17.375  1.00  0.00     0.235 C 
HETATM    2  O4  UNL     1      21.473   2.817  18.219  1.00  0.00    -0.360 OA
HETATM    3  C6  UNL     1      20.810   1.736  18.757  1.00  0.00     0.253 C 
HETATM    4  C8  UNL     1      21.726   0.766  19.453  1.00  0.00     0.225 C 
HETATM    5  C9  UNL     1      22.881   0.450  18.584  1.00  0.00     0.089 C 
HETATM    6  C10 UNL     1      23.526   1.732  18.097  1.00  0.00     0.242 C 
ENDROOT
BRANCH   1   7
HETATM    7  C3  UNL     1      22.940   3.695  16.559  1.00  0.00     0.278 C 
BRANCH   7   8
HETATM    8  C2  UNL     1      24.377   3.942  16.474  1.00  0.00     0.251 C 
BRANCH   8   9
HETATM    9  O2  UNL     1      24.935   3.940  15.185  1.00  0.00    -0.301 OA
BRANCH   9  10
HETATM   10  C1  UNL     1      25.279   5.052  14.474  1.00  0.00     0.372 C 
HETATM   11  N1  UNL     1      24.293   5.872  13.865  1.00  0.00    -0.032 NA
HETATM   12  O1  UNL     1      26.490   5.339  14.369  1.00  0.00    -0.242 OA
ENDBRANCH   9  10
ENDBRANCH   8   9
ENDBRANCH   7   8
BRANCH   7  13
HETATM   13  N2  UNL     1      22.405   3.506  15.188  1.00  0.00    -0.042 N 
ATOM     14  H23 UNL     1      22.884   4.085  14.499  1.00  0.00     0.278 HD
ATOM     15  H22 UNL     1      22.646   2.594  14.799  1.00  0.00     0.278 HD
ATOM     16  H21 UNL     1      21.398   3.669  15.202  1.00  0.00     0.278 HD
ENDBRANCH   7  13
BRANCH   7  17
HETATM   17  O3  UNL     1      22.270   4.768  17.077  1.00  0.00    -0.296 OA
BRANCH  17  18
HETATM   18  C4  UNL     1      22.803   5.976  17.209  1.00  0.00     0.521 C 
BRANCH  18  19
HETATM   19  N3  UNL     1      22.185   6.621  18.387  1.00  0.00    -0.027 N 
ATOM     20  H33 UNL     1      21.704   7.491  18.154  1.00  0.00     0.279 HD
ATOM     21  H32 UNL     1      21.375   6.109  18.738  1.00  0.00     0.279 HD
ATOM     22  H31 UNL     1      22.909   6.747  19.093  1.00  0.00     0.279 HD
ENDBRANCH  18  19
BRANCH  18  23
HETATM   23  N4  UNL     1      22.424   6.896  16.097  1.00  0.00    -0.027 N 
ATOM     24  H43 UNL     1      21.992   6.383  15.329  1.00  0.00     0.279 HD
ATOM     25  H42 UNL     1      21.637   7.487  16.363  1.00  0.00     0.279 HD
ATOM     26  H41 UNL     1      23.209   7.457  15.767  1.00  0.00     0.279 HD
ENDBRANCH  18  23
ENDBRANCH  17  18
ENDBRANCH   7  17
ENDBRANCH   1   7
BRANCH   6  27
HETATM   27  N6  UNL     1      24.565   1.196  17.192  1.00  0.00    -0.057 N 
ATOM     28  H63 UNL     1      24.407   0.208  16.993  1.00  0.00     0.276 HD
ATOM     29  H62 UNL     1      24.461   1.570  16.249  1.00  0.00     0.276 HD
ATOM     30  H61 UNL     1      25.507   1.354  17.549  1.00  0.00     0.276 HD
ENDBRANCH   6  27
BRANCH   6  31
HETATM   31  C11 UNL     1      24.132   2.364  19.273  1.00  0.00     0.213 C 
HETATM   32  O7  UNL     1      23.884   3.501  19.722  1.00  0.00    -0.646 OA
HETATM   33  O8  UNL     1      25.095   1.632  19.988  1.00  0.00    -0.646 OA
ENDBRANCH   6  31
BRANCH   3  34
HETATM   34  C7  UNL     1      19.883   1.073  17.856  1.00  0.00     0.205 C 
HETATM   35  O5  UNL     1      18.856   0.499  18.299  1.00  0.00    -0.646 OA
HETATM   36  O6  UNL     1      20.020   1.001  16.472  1.00  0.00    -0.646 OA
ENDBRANCH   3  34
BRANCH   4  37
HETATM   37  N5  UNL     1      20.958  -0.456  19.777  1.00  0.00    -0.072 N 
ATOM     38  H53 UNL     1      21.169  -0.816  20.708  1.00  0.00     0.274 HD
ATOM     39  H52 UNL     1      19.966  -0.268  19.922  1.00  0.00     0.274 HD
ATOM     40  H51 UNL     1      21.122  -1.147  19.045  1.00  0.00     0.274 HD
ENDBRANCH   4  37
TORSDOF 13
ENDMDL
MODEL 5
REMARK VINA RESULT: -4.237017337      2.086      6.153
REMARK  13 active torsions:
REMARK  status: ('A' for Active; 'I' for Inactive)
REMARK    1  A    between atoms: C1_2  and  O2_4 
REMARK    2  A    between atoms: O2_4  and  C2_5 
REMARK    3  A    between atoms: C2_5  and  C3_6 
REMARK    4  A    between atoms: C3_6  and  N2_7 
REMARK    5  A    between atoms: C3_6  and  O3_11 
REMARK    6  A    between atoms: C3_6  and  C5_21 
REMARK    7  A    between atoms: O3_11  and  C4_12 
REMARK    8  A    between atoms: C4_12  and  N3_13 
REMARK    9  A    between atoms: C4_12  and  N4_17 
REMARK   10  A    between atoms: C6_23  and  C7_24 
REMARK   11  A    between atoms: C8_27  and  N5_28 
REMARK   12  A    between atoms: C10_33  and  N6_34 
REMARK   13  A    between atoms: C10_33  and  C11_38 
ROOT
HETATM    1  C5  UNL     1      23.764   4.976  15.600  1.00  0.00     0.235 C 
HETATM    2  O4  UNL     1      24.934   4.957  14.892  1.00  0.00    -0.360 OA
HETATM    3  C6  UNL     1      25.072   5.955  13.953  1.00  0.00     0.253 C 
HETATM    4  C8  UNL     1      24.879   7.334  14.523  1.00  0.00     0.225 C 
HETATM    5  C9  UNL     1      23.645   7.376  15.337  1.00  0.00     0.089 C 
HETATM    6  C10 UNL     1      23.650   6.243  16.343  1.00  0.00     0.242 C 
ENDROOT
BRANCH   1   7
HETATM    7  C3  UNL     1      23.523   3.683  16.330  1.00  0.00     0.278 C 
BRANCH   7   8
HETATM    8  C2  UNL     1      22.814   3.771  17.603  1.00  0.00     0.251 C 
BRANCH   8   9
HETATM    9  O2  UNL     1      21.547   3.169  17.654  1.00  0.00    -0.301 OA
BRANCH   9  10
HETATM   10  C1  UNL     1      21.287   1.921  18.139  1.00  0.00     0.372 C 
HETATM   11  N1  UNL     1      22.150   0.828  17.863  1.00  0.00    -0.032 NA
HETATM   12  O1  UNL     1      20.265   1.755  18.838  1.00  0.00    -0.242 OA
ENDBRANCH   9  10
ENDBRANCH   8   9
ENDBRANCH   7   8
BRANCH   7  13
HETATM   13  N2  UNL     1      22.759   2.798  15.416  1.00  0.00    -0.042 N 
ATOM     14  H23 UNL     1      22.876   1.811  15.642  1.00  0.00     0.278 HD
ATOM     15  H22 UNL     1      21.752   2.860  15.567  1.00  0.00     0.278 HD
ATOM     16  H21 UNL     1      23.022   3.011  14.454  1.00  0.00     0.278 HD
ENDBRANCH   7  13
BRANCH   7  17
HETATM   17  O3  UNL     1      24.753   3.103  16.471  1.00  0.00    -0.296 OA
BRANCH  17  18
HETATM   18  C4  UNL     1      25.233   2.669  17.630  1.00  0.00     0.521 C 
BRANCH  18  19
HETATM   19  N3  UNL     1      26.669   3.014  17.685  1.00  0.00    -0.027 N 
ATOM     20  H33 UNL     1      26.831   4.017  17.774  1.00  0.00     0.279 HD
ATOM     21  H32 UNL     1      27.111   2.727  18.559  1.00  0.00     0.279 HD
ATOM     22  H31 UNL     1      27.121   2.612  16.864  1.00  0.00     0.279 HD
ENDBRANCH  18  19
BRANCH  18  23
HETATM   23  N4  UNL     1      25.252   1.179  17.722  1.00  0.00    -0.027 N 
ATOM     24  H43 UNL     1      25.763   0.771  16.940  1.00  0.00     0.279 HD
ATOM     25  H42 UNL     1      25.847   0.867  18.489  1.00  0.00     0.279 HD
ATOM     26  H41 UNL     1      24.317   0.780  17.797  1.00  0.00     0.279 HD
ENDBRANCH  18  23
ENDBRANCH  17  18
ENDBRANCH   7  17
ENDBRANCH   1   7
BRANCH   6  27
HETATM   27  N6  UNL     1      22.318   6.410  16.962  1.00  0.00    -0.057 N 
ATOM     28  H63 UNL     1      22.263   7.283  17.489  1.00  0.00     0.276 HD
ATOM     29  H62 UNL     1      21.605   6.601  16.259  1.00  0.00     0.276 HD
ATOM     30  H61 UNL     1      22.059   5.613  17.542  1.00  0.00     0.276 HD
ENDBRANCH   6  27
BRANCH   6  31
HETATM   31  C11 UNL     1      24.716   6.545  17.303  1.00  0.00     0.213 C 
HETATM   32  O7  UNL     1      25.815   5.965  17.408  1.00  0.00    -0.646 OA
HETATM   33  O8  UNL     1      24.501   7.595  18.211  1.00  0.00    -0.646 OA
ENDBRANCH   6  31
BRANCH   3  34
HETATM   34  C7  UNL     1      24.320   5.754  12.727  1.00  0.00     0.205 C 
HETATM   35  O5  UNL     1      24.779   6.136  11.621  1.00  0.00    -0.646 OA
HETATM   36  O6  UNL     1      23.070   5.146  12.641  1.00  0.00    -0.646 OA
ENDBRANCH   3  34
BRANCH   4  37
HETATM   37  N5  UNL     1      24.808   8.300  13.405  1.00  0.00    -0.072 N 
ATOM     38  H53 UNL     1      25.713   8.449  12.960  1.00  0.00     0.274 HD
ATOM     39  H52 UNL     1      24.314   7.925  12.595  1.00  0.00     0.274 HD
ATOM     40  H51 UNL     1      24.395   9.166  13.750  1.00  0.00     0.274 HD
ENDBRANCH   4  37
TORSDOF 13
ENDMDL
