MODEL 1
REMARK VINA RESULT: -5.219590139      0.000      0.000
REMARK  11 active torsions:
REMARK  status: ('A' for Active; 'I' for Inactive)
REMARK       I    between atoms: C1_4  and  N3_6 
REMARK    1  A    between atoms: N3_6  and  C2_8 
REMARK    2  A    between atoms: C2_8  and  C3_9 
REMARK    3  A    between atoms: C3_9  and  C4_10 
REMARK    4  A    between atoms: C4_10  and  C5_11 
REMARK    5  A    between atoms: C5_11  and  N4_12 
REMARK    6  A    between atoms: N4_12  and  C6_14 
REMARK    7  A    between atoms: C7_17  and  N6_18 
REMARK       I    between atoms: N6_18  and  C8_20 
REMARK       I    between atoms: C8_20  and  N7_21 
REMARK       I    between atoms: C8_20  and  N8_25 
REMARK    8  A    between atoms: N10_33  and  C10_34 
REMARK    9  A    between atoms: C10_34  and  O2_35 
REMARK   10  A    between atoms: O2_35  and  C11_36 
REMARK       I    between atoms: C11_36  and  N11_38 
REMARK   11  A    between atoms: N11_38  and  N12_40 
ROOT
HETATM    1  C6  UNL     1      23.607  -1.066  19.642  1.00  0.00     0.700 A 
HETATM    2  N5  UNL     1      23.802  -2.302  19.128  1.00  0.00    -0.022 N 
ATOM      3  H5  UNL     1      23.707  -3.105  19.750  1.00  0.00     0.203 HD
HETATM    4  C7  UNL     1      24.113  -2.527  17.843  1.00  0.00     0.699 A 
HETATM    5  N9  UNL     1      24.242  -1.483  17.016  1.00  0.00    -0.140 N 
ATOM      6  H9  UNL     1      24.479  -1.625  16.035  1.00  0.00     0.189 HD
HETATM    7  C9  UNL     1      24.051  -0.224  17.506  1.00  0.00     0.356 A 
HETATM    8  O1  UNL     1      24.182   0.727  16.690  1.00  0.00    -0.245 OA
HETATM    9  N10 UNL     1      23.739  -0.019  18.796  1.00  0.00    -0.109 N 
ENDROOT
BRANCH   1  10
HETATM   10  N4  UNL     1      23.308  -0.872  20.883  1.00  0.00    -0.225 N 
ATOM     11  H4  UNL     1      23.556  -0.006  21.359  1.00  0.00     0.177 HD
BRANCH  10  12
HETATM   12  C5  UNL     1      22.605  -1.935  21.573  1.00  0.00     0.138 C 
BRANCH  12  13
HETATM   13  C4  UNL     1      21.112  -1.856  21.352  1.00  0.00     0.022 C 
BRANCH  13  14
HETATM   14  C3  UNL     1      20.415  -2.727  22.383  1.00  0.00     0.021 C 
BRANCH  14  15
HETATM   15  C2  UNL     1      19.952  -3.980  21.671  1.00  0.00     0.122 C 
BRANCH  15  16
HETATM   16  N3  UNL     1      21.017  -4.937  21.526  1.00  0.00    -0.365 N 
HETATM   17  C1  UNL     1      21.369  -5.421  20.253  1.00  0.00     0.181 C 
HETATM   18  N1  UNL     1      20.418  -6.042  19.601  1.00  0.00    -0.374 N 
HETATM   19  N2  UNL     1      22.643  -5.273  19.674  1.00  0.00    -0.064 NA
ATOM     20  H12 UNL     1      20.673  -6.393  18.677  1.00  0.00     0.158 HD
ATOM     21  H11 UNL     1      19.495  -6.148  20.021  1.00  0.00     0.158 HD
ATOM     22  H3  UNL     1      21.520  -5.266  22.351  1.00  0.00     0.162 HD
ENDBRANCH  15  16
ENDBRANCH  14  15
ENDBRANCH  13  14
ENDBRANCH  12  13
ENDBRANCH  10  12
ENDBRANCH   1  10
BRANCH   9  23
HETATM   23  C10 UNL     1      23.538   1.342  19.301  1.00  0.00     0.335 C 
BRANCH  23  24
HETATM   24  O2  UNL     1      22.181   1.505  19.689  1.00  0.00    -0.282 OA
BRANCH  24  25
HETATM   25  C11 UNL     1      21.157   1.527  18.772  1.00  0.00     0.380 C 
HETATM   26  O3  UNL     1      21.034   2.499  18.003  1.00  0.00    -0.237 OA
HETATM   27  N11 UNL     1      20.254   0.450  18.705  1.00  0.00    -0.252 N 
ATOM     28  H11 UNL     1      20.353  -0.348  19.332  1.00  0.00     0.191 HD
BRANCH  27  29
HETATM   29  N12 UNL     1      19.219   0.486  17.768  1.00  0.00    -0.341 N 
ATOM     30 2H12 UNL     1      18.870   1.388  17.441  1.00  0.00     0.177 HD
ATOM     31 1H12 UNL     1      18.827  -0.391  17.425  1.00  0.00     0.177 HD
ENDBRANCH  27  29
ENDBRANCH  24  25
ENDBRANCH  23  24
ENDBRANCH   9  23
BRANCH   4  32
HETATM   32  N6  UNL     1      24.286  -3.726  17.413  1.00  0.00    -0.173 N 
HETATM   33  C8  UNL     1      23.678  -4.288  16.251  1.00  0.00     0.494 C 
HETATM   34  N7  UNL     1      22.394  -4.876  16.664  1.00  0.00    -0.032 N 
HETATM   35  N8  UNL     1      24.484  -5.428  15.783  1.00  0.00    -0.032 N 
ATOM     36  H73 UNL     1      22.491  -5.547  17.426  1.00  0.00     0.278 HD
ATOM     37  H72 UNL     1      21.790  -4.212  17.148  1.00  0.00     0.278 HD
ATOM     38  H71 UNL     1      21.960  -5.279  15.833  1.00  0.00     0.278 HD
ATOM     39  H83 UNL     1      25.458  -5.173  15.625  1.00  0.00     0.278 HD
ATOM     40  H82 UNL     1      24.633  -6.122  16.515  1.00  0.00     0.278 HD
ATOM     41  H81 UNL     1      24.049  -5.830  14.952  1.00  0.00     0.278 HD
ATOM     42  H6  UNL     1      24.913  -4.328  17.949  1.00  0.00     0.181 HD
ENDBRANCH   4  32
TORSDOF 11
ENDMDL
MODEL 2
REMARK VINA RESULT: -5.194832346      3.075      5.969
REMARK  11 active torsions:
REMARK  status: ('A' for Active; 'I' for Inactive)
REMARK       I    between atoms: C1_4  and  N3_6 
REMARK    1  A    between atoms: N3_6  and  C2_8 
REMARK    2  A    between atoms: C2_8  and  C3_9 
REMARK    3  A    between atoms: C3_9  and  C4_10 
REMARK    4  A    between atoms: C4_10  and  C5_11 
REMARK    5  A    between atoms: C5_11  and  N4_12 
REMARK    6  A    between atoms: N4_12  and  C6_14 
REMARK    7  A    between atoms: C7_17  and  N6_18 
REMARK       I    between atoms: N6_18  and  C8_20 
REMARK       I    between atoms: C8_20  and  N7_21 
REMARK       I    between atoms: C8_20  and  N8_25 
REMARK    8  A    between atoms: N10_33  and  C10_34 
REMARK    9  A    between atoms: C10_34  and  O2_35 
REMARK   10  A    between atoms: O2_35  and  C11_36 
REMARK       I    between atoms: C11_36  and  N11_38 
REMARK   11  A    between atoms: N11_38  and  N12_40 
ROOT
HETATM    1  C6  UNL     1      24.316  -0.256  18.147  1.00  0.00     0.700 A 
HETATM    2  N5  UNL     1      24.553  -1.019  17.055  1.00  0.00    -0.022 N 
ATOM      3  H5  UNL     1      25.046  -0.596  16.268  1.00  0.00     0.203 HD
HETATM    4  C7  UNL     1      24.175  -2.300  16.953  1.00  0.00     0.699 A 
HETATM    5  N9  UNL     1      23.526  -2.867  17.977  1.00  0.00    -0.140 N 
ATOM      6  H9  UNL     1      23.225  -3.840  17.926  1.00  0.00     0.189 HD
HETATM    7  C9  UNL     1      23.272  -2.123  19.092  1.00  0.00     0.356 A 
HETATM    8  O1  UNL     1      22.660  -2.699  20.030  1.00  0.00    -0.245 OA
HETATM    9  N10 UNL     1      23.660  -0.841  19.175  1.00  0.00    -0.109 N 
ENDROOT
BRANCH   1  10
HETATM   10  N4  UNL     1      24.691   0.977  18.224  1.00  0.00    -0.225 N 
ATOM     11  H4  UNL     1      25.408   1.273  18.886  1.00  0.00     0.177 HD
BRANCH  10  12
HETATM   12  C5  UNL     1      24.052   1.925  17.333  1.00  0.00     0.138 C 
BRANCH  12  13
HETATM   13  C4  UNL     1      23.749   3.232  18.029  1.00  0.00     0.022 C 
BRANCH  13  14
HETATM   14  C3  UNL     1      22.567   3.894  17.339  1.00  0.00     0.021 C 
BRANCH  14  15
HETATM   15  C2  UNL     1      22.487   3.319  15.941  1.00  0.00     0.122 C 
BRANCH  15  16
HETATM   16  N3  UNL     1      22.337   4.350  14.948  1.00  0.00    -0.365 N 
HETATM   17  C1  UNL     1      23.385   4.631  14.052  1.00  0.00     0.181 C 
HETATM   18  N1  UNL     1      24.513   5.008  14.602  1.00  0.00    -0.374 N 
HETATM   19  N2  UNL     1      23.280   4.528  12.653  1.00  0.00    -0.064 NA
ATOM     20  H12 UNL     1      25.273   5.212  13.953  1.00  0.00     0.158 HD
ATOM     21  H11 UNL     1      24.589   5.082  15.616  1.00  0.00     0.158 HD
ATOM     22  H3  UNL     1      21.467   4.880  14.893  1.00  0.00     0.162 HD
ENDBRANCH  15  16
ENDBRANCH  14  15
ENDBRANCH  13  14
ENDBRANCH  12  13
ENDBRANCH  10  12
ENDBRANCH   1  10
BRANCH   9  23
HETATM   23  C10 UNL     1      23.378  -0.060  20.384  1.00  0.00     0.335 C 
BRANCH  23  24
HETATM   24  O2  UNL     1      22.347   0.878  20.109  1.00  0.00    -0.282 OA
BRANCH  24  25
HETATM   25  C11 UNL     1      21.108   0.489  19.660  1.00  0.00     0.380 C 
HETATM   26  O3  UNL     1      20.356  -0.169  20.405  1.00  0.00    -0.237 OA
HETATM   27  N11 UNL     1      20.692   0.837  18.361  1.00  0.00    -0.252 N 
ATOM     28  H11 UNL     1      21.304   1.377  17.750  1.00  0.00     0.191 HD
BRANCH  27  29
HETATM   29  N12 UNL     1      19.430   0.436  17.919  1.00  0.00    -0.341 N 
ATOM     30 2H12 UNL     1      18.666   0.357  18.590  1.00  0.00     0.177 HD
ATOM     31 1H12 UNL     1      19.292   0.227  16.930  1.00  0.00     0.177 HD
ENDBRANCH  27  29
ENDBRANCH  24  25
ENDBRANCH  23  24
ENDBRANCH   9  23
BRANCH   4  32
HETATM   32  N6  UNL     1      24.429  -2.974  15.888  1.00  0.00    -0.173 N 
HETATM   33  C8  UNL     1      24.410  -4.397  15.781  1.00  0.00     0.494 C 
HETATM   34  N7  UNL     1      25.756  -4.884  16.124  1.00  0.00    -0.032 N 
HETATM   35  N8  UNL     1      24.218  -4.777  14.371  1.00  0.00    -0.032 N 
ATOM     36  H73 UNL     1      26.490  -4.452  15.562  1.00  0.00     0.278 HD
ATOM     37  H72 UNL     1      26.077  -4.557  17.035  1.00  0.00     0.278 HD
ATOM     38  H71 UNL     1      25.744  -5.901  16.047  1.00  0.00     0.278 HD
ATOM     39  H83 UNL     1      23.387  -4.348  13.966  1.00  0.00     0.278 HD
ATOM     40  H82 UNL     1      24.914  -4.352  13.758  1.00  0.00     0.278 HD
ATOM     41  H81 UNL     1      24.206  -5.794  14.294  1.00  0.00     0.278 HD
ATOM     42  H6  UNL     1      24.664  -2.446  15.047  1.00  0.00     0.181 HD
ENDBRANCH   4  32
TORSDOF 11
ENDMDL
MODEL 3
REMARK VINA RESULT: -5.038715929      2.310      4.968
REMARK  11 active torsions:
REMARK  status: ('A' for Active; 'I' for Inactive)
REMARK       I    between atoms: C1_4  and  N3_6 
REMARK    1  A    between atoms: N3_6  and  C2_8 
REMARK    2  A    between atoms: C2_8  and  C3_9 
REMARK    3  A    between atoms: C3_9  and  C4_10 
REMARK    4  A    between atoms: C4_10  and  C5_11 
REMARK    5  A    between atoms: C5_11  and  N4_12 
REMARK    6  A    between atoms: N4_12  and  C6_14 
REMARK    7  A    between atoms: C7_17  and  N6_18 
REMARK       I    between atoms: N6_18  and  C8_20 
REMARK       I    between atoms: C8_20  and  N7_21 
REMARK       I    between atoms: C8_20  and  N8_25 
REMARK    8  A    between atoms: N10_33  and  C10_34 
REMARK    9  A    between atoms: C10_34  and  O2_35 
REMARK   10  A    between atoms: O2_35  and  C11_36 
REMARK       I    between atoms: C11_36  and  N11_38 
REMARK   11  A    between atoms: N11_38  and  N12_40 
ROOT
HETATM    1  C6  UNL     1      22.806   0.987  19.587  1.00  0.00     0.700 A 
HETATM    2  N5  UNL     1      22.845  -0.104  20.388  1.00  0.00    -0.022 N 
ATOM      3  H5  UNL     1      23.739  -0.368  20.801  1.00  0.00     0.203 HD
HETATM    4  C7  UNL     1      21.769  -0.853  20.666  1.00  0.00     0.699 A 
HETATM    5  N9  UNL     1      20.590  -0.518  20.129  1.00  0.00    -0.140 N 
ATOM      6  H9  UNL     1      19.756  -1.072  20.324  1.00  0.00     0.189 HD
HETATM    7  C9  UNL     1      20.520   0.576  19.318  1.00  0.00     0.356 A 
HETATM    8  O1  UNL     1      19.389   0.853  18.836  1.00  0.00    -0.245 OA
HETATM    9  N10 UNL     1      21.608   1.315  19.051  1.00  0.00    -0.109 N 
ENDROOT
BRANCH   1  10
HETATM   10  N4  UNL     1      23.855   1.695  19.332  1.00  0.00    -0.225 N 
ATOM     11  H4  UNL     1      23.814   2.714  19.310  1.00  0.00     0.177 HD
BRANCH  10  12
HETATM   12  C5  UNL     1      25.093   0.986  19.079  1.00  0.00     0.138 C 
BRANCH  12  13
HETATM   13  C4  UNL     1      25.101   0.343  17.711  1.00  0.00     0.022 C 
BRANCH  13  14
HETATM   14  C3  UNL     1      25.233  -1.162  17.877  1.00  0.00     0.021 C 
BRANCH  14  15
HETATM   15  C2  UNL     1      24.211  -1.803  16.962  1.00  0.00     0.122 C 
BRANCH  15  16
HETATM   16  N3  UNL     1      24.612  -3.125  16.557  1.00  0.00    -0.365 N 
HETATM   17  C1  UNL     1      23.673  -4.011  15.999  1.00  0.00     0.181 C 
HETATM   18  N1  UNL     1      22.652  -4.309  16.765  1.00  0.00    -0.374 N 
HETATM   19  N2  UNL     1      23.777  -4.569  14.712  1.00  0.00    -0.064 NA
ATOM     20  H12 UNL     1      21.970  -4.952  16.361  1.00  0.00     0.158 HD
ATOM     21  H11 UNL     1      22.577  -3.905  17.698  1.00  0.00     0.158 HD
ATOM     22  H3  UNL     1      25.581  -3.420  16.674  1.00  0.00     0.162 HD
ENDBRANCH  15  16
ENDBRANCH  14  15
ENDBRANCH  13  14
ENDBRANCH  12  13
ENDBRANCH  10  12
ENDBRANCH   1  10
BRANCH   9  23
HETATM   23  C10 UNL     1      21.510   2.488  18.177  1.00  0.00     0.335 C 
BRANCH  23  24
HETATM   24  O2  UNL     1      22.097   2.188  16.919  1.00  0.00    -0.282 OA
BRANCH  24  25
HETATM   25  C11 UNL     1      22.833   3.113  16.218  1.00  0.00     0.380 C 
HETATM   26  O3  UNL     1      23.991   3.392  16.585  1.00  0.00    -0.237 OA
HETATM   27  N11 UNL     1      22.277   3.740  15.086  1.00  0.00    -0.252 N 
ATOM     28  H11 UNL     1      21.331   3.513  14.783  1.00  0.00     0.191 HD
BRANCH  27  29
HETATM   29  N12 UNL     1      23.038   4.677  14.385  1.00  0.00    -0.341 N 
ATOM     30 2H12 UNL     1      24.052   4.680  14.491  1.00  0.00     0.177 HD
ATOM     31 1H12 UNL     1      22.565   5.345  13.776  1.00  0.00     0.177 HD
ENDBRANCH  27  29
ENDBRANCH  24  25
ENDBRANCH  23  24
ENDBRANCH   9  23
BRANCH   4  32
HETATM   32  N6  UNL     1      21.869  -1.879  21.435  1.00  0.00    -0.173 N 
HETATM   33  C8  UNL     1      20.851  -2.854  21.655  1.00  0.00     0.494 C 
HETATM   34  N7  UNL     1      20.027  -2.387  22.782  1.00  0.00    -0.032 N 
HETATM   35  N8  UNL     1      21.468  -4.104  22.130  1.00  0.00    -0.032 N 
ATOM     36  H73 UNL     1      20.575  -2.187  23.619  1.00  0.00     0.278 HD
ATOM     37  H72 UNL     1      19.654  -1.448  22.640  1.00  0.00     0.278 HD
ATOM     38  H71 UNL     1      19.299  -3.085  22.940  1.00  0.00     0.278 HD
ATOM     39  H83 UNL     1      22.195  -4.439  21.499  1.00  0.00     0.278 HD
ATOM     40  H82 UNL     1      22.049  -3.958  22.956  1.00  0.00     0.278 HD
ATOM     41  H81 UNL     1      20.740  -4.801  22.288  1.00  0.00     0.278 HD
ATOM     42  H6  UNL     1      22.751  -2.007  21.930  1.00  0.00     0.181 HD
ENDBRANCH   4  32
TORSDOF 11
ENDMDL
MODEL 4
REMARK VINA RESULT: -4.983210173      2.297      4.709
REMARK  11 active torsions:
REMARK  status: ('A' for Active; 'I' for Inactive)
REMARK       I    between atoms: C1_4  and  N3_6 
REMARK    1  A    between atoms: N3_6  and  C2_8 
REMARK    2  A    between atoms: C2_8  and  C3_9 
REMARK    3  A    between atoms: C3_9  and  C4_10 
REMARK    4  A    between atoms: C4_10  and  C5_11 
REMARK    5  A    between atoms: C5_11  and  N4_12 
REMARK    6  A    between atoms: N4_12  and  C6_14 
REMARK    7  A    between atoms: C7_17  and  N6_18 
REMARK       I    between atoms: N6_18  and  C8_20 
REMARK       I    between atoms: C8_20  and  N7_21 
REMARK       I    between atoms: C8_20  and  N8_25 
REMARK    8  A    between atoms: N10_33  and  C10_34 
REMARK    9  A    between atoms: C10_34  and  O2_35 
REMARK   10  A    between atoms: O2_35  and  C11_36 
REMARK       I    between atoms: C11_36  and  N11_38 
REMARK   11  A    between atoms: N11_38  and  N12_40 
ROOT
HETATM    1  C6  UNL     1      22.857   0.875  19.595  1.00  0.00     0.700 A 
HETATM    2  N5  UNL     1      22.885  -0.235  20.369  1.00  0.00    -0.022 N 
ATOM      3  H5  UNL     1      23.781  -0.536  20.750  1.00  0.00     0.203 HD
HETATM    4  C7  UNL     1      21.795  -0.959  20.661  1.00  0.00     0.699 A 
HETATM    5  N9  UNL     1      20.612  -0.576  20.166  1.00  0.00    -0.140 N 
ATOM      6  H9  UNL     1      19.767  -1.110  20.371  1.00  0.00     0.189 HD
HETATM    7  C9  UNL     1      20.552   0.539  19.382  1.00  0.00     0.356 A 
HETATM    8  O1  UNL     1      19.417   0.860  18.940  1.00  0.00    -0.245 OA
HETATM    9  N10 UNL     1      21.655   1.251  19.102  1.00  0.00    -0.109 N 
ENDROOT
BRANCH   1  10
HETATM   10  N4  UNL     1      23.919   1.558  19.327  1.00  0.00    -0.225 N 
ATOM     11  H4  UNL     1      23.939   2.572  19.436  1.00  0.00     0.177 HD
BRANCH  10  12
HETATM   12  C5  UNL     1      25.083   0.828  18.865  1.00  0.00     0.138 C 
BRANCH  12  13
HETATM   13  C4  UNL     1      24.798   0.071  17.588  1.00  0.00     0.022 C 
BRANCH  13  14
HETATM   14  C3  UNL     1      25.477  -1.287  17.660  1.00  0.00     0.021 C 
BRANCH  14  15
HETATM   15  C2  UNL     1      24.507  -2.301  17.093  1.00  0.00     0.122 C 
BRANCH  15  16
HETATM   16  N3  UNL     1      23.444  -2.597  18.017  1.00  0.00    -0.365 N 
HETATM   17  C1  UNL     1      23.100  -3.932  18.299  1.00  0.00     0.181 C 
HETATM   18  N1  UNL     1      22.711  -4.645  17.272  1.00  0.00    -0.374 N 
HETATM   19  N2  UNL     1      23.152  -4.509  19.582  1.00  0.00    -0.064 NA
ATOM     20  H12 UNL     1      22.461  -5.613  17.476  1.00  0.00     0.158 HD
ATOM     21  H11 UNL     1      22.674  -4.226  16.342  1.00  0.00     0.158 HD
ATOM     22  H3  UNL     1      22.938  -1.836  18.470  1.00  0.00     0.162 HD
ENDBRANCH  15  16
ENDBRANCH  14  15
ENDBRANCH  13  14
ENDBRANCH  12  13
ENDBRANCH  10  12
ENDBRANCH   1  10
BRANCH   9  23
HETATM   23  C10 UNL     1      21.568   2.447  18.258  1.00  0.00     0.335 C 
BRANCH  23  24
HETATM   24  O2  UNL     1      22.040   2.139  16.954  1.00  0.00    -0.282 OA
BRANCH  24  25
HETATM   25  C11 UNL     1      22.790   3.026  16.221  1.00  0.00     0.380 C 
HETATM   26  O3  UNL     1      23.944   3.318  16.592  1.00  0.00    -0.237 OA
HETATM   27  N11 UNL     1      22.255   3.601  15.052  1.00  0.00    -0.252 N 
ATOM     28  H11 UNL     1      21.312   3.363  14.746  1.00  0.00     0.191 HD
BRANCH  27  29
HETATM   29  N12 UNL     1      23.030   4.500  14.318  1.00  0.00    -0.341 N 
ATOM     30 2H12 UNL     1      23.676   4.146  13.613  1.00  0.00     0.177 HD
ATOM     31 1H12 UNL     1      22.938   5.500  14.500  1.00  0.00     0.177 HD
ENDBRANCH  27  29
ENDBRANCH  24  25
ENDBRANCH  23  24
ENDBRANCH   9  23
BRANCH   4  32
HETATM   32  N6  UNL     1      21.885  -2.005  21.402  1.00  0.00    -0.173 N 
HETATM   33  C8  UNL     1      20.811  -2.884  21.733  1.00  0.00     0.494 C 
HETATM   34  N7  UNL     1      20.174  -2.365  22.954  1.00  0.00    -0.032 N 
HETATM   35  N8  UNL     1      21.356  -4.196  22.119  1.00  0.00    -0.032 N 
ATOM     36  H73 UNL     1      20.833  -2.235  23.722  1.00  0.00     0.278 HD
ATOM     37  H72 UNL     1      19.880  -1.392  22.866  1.00  0.00     0.278 HD
ATOM     38  H71 UNL     1      19.406  -2.993  23.191  1.00  0.00     0.278 HD
ATOM     39  H83 UNL     1      21.968  -4.586  21.403  1.00  0.00     0.278 HD
ATOM     40  H82 UNL     1      22.042  -4.123  22.871  1.00  0.00     0.278 HD
ATOM     41  H81 UNL     1      20.588  -4.825  22.356  1.00  0.00     0.278 HD
ATOM     42  H6  UNL     1      22.803  -2.226  21.787  1.00  0.00     0.181 HD
ENDBRANCH   4  32
TORSDOF 11
ENDMDL
MODEL 5
REMARK VINA RESULT: -4.982032646      1.407      1.427
REMARK  11 active torsions:
REMARK  status: ('A' for Active; 'I' for Inactive)
REMARK       I    between atoms: C1_4  and  N3_6 
REMARK    1  A    between atoms: N3_6  and  C2_8 
REMARK    2  A    between atoms: C2_8  and  C3_9 
REMARK    3  A    between atoms: C3_9  and  C4_10 
REMARK    4  A    between atoms: C4_10  and  C5_11 
REMARK    5  A    between atoms: C5_11  and  N4_12 
REMARK    6  A    between atoms: N4_12  and  C6_14 
REMARK    7  A    between atoms: C7_17  and  N6_18 
REMARK       I    between atoms: N6_18  and  C8_20 
REMARK       I    between atoms: C8_20  and  N7_21 
REMARK       I    between atoms: C8_20  and  N8_25 
REMARK    8  A    between atoms: N10_33  and  C10_34 
REMARK    9  A    between atoms: C10_34  and  O2_35 
REMARK   10  A    between atoms: O2_35  and  C11_36 
REMARK       I    between atoms: C11_36  and  N11_38 
REMARK   11  A    between atoms: N11_38  and  N12_40 
ROOT
HETATM    1  C6  UNL     1      22.985  -0.844  19.375  1.00  0.00     0.700 A 
HETATM    2  N5  UNL     1      23.266  -2.062  18.856  1.00  0.00    -0.022 N 
ATOM      3  H5  UNL     1      22.854  -2.883  19.298  1.00  0.00     0.203 HD
HETATM    4  C7  UNL     1      24.058  -2.244  17.789  1.00  0.00     0.699 A 
HETATM    5  N9  UNL     1      24.606  -1.175  17.199  1.00  0.00    -0.140 N 
ATOM      6  H9  UNL     1      25.213  -1.286  16.388  1.00  0.00     0.189 HD
HETATM    7  C9  UNL     1      24.341   0.065  17.701  1.00  0.00     0.356 A 
HETATM    8  O1  UNL     1      24.878   1.041  17.113  1.00  0.00    -0.245 OA
HETATM    9  N10 UNL     1      23.544   0.228  18.770  1.00  0.00    -0.109 N 
ENDROOT
BRANCH   1  10
HETATM   10  N4  UNL     1      22.218  -0.692  20.403  1.00  0.00    -0.225 N 
ATOM     11  H4  UNL     1      21.281  -0.301  20.312  1.00  0.00     0.177 HD
BRANCH  10  12
HETATM   12  C5  UNL     1      22.743  -1.097  21.692  1.00  0.00     0.138 C 
BRANCH  12  13
HETATM   13  C4  UNL     1      21.774  -1.984  22.438  1.00  0.00     0.022 C 
BRANCH  13  14
HETATM   14  C3  UNL     1      20.508  -2.136  21.610  1.00  0.00     0.021 C 
BRANCH  14  15
HETATM   15  C2  UNL     1      20.066  -3.578  21.731  1.00  0.00     0.122 C 
BRANCH  15  16
HETATM   16  N3  UNL     1      21.169  -4.490  21.579  1.00  0.00    -0.365 N 
HETATM   17  C1  UNL     1      21.415  -5.106  20.338  1.00  0.00     0.181 C 
HETATM   18  N1  UNL     1      20.442  -5.850  19.873  1.00  0.00    -0.374 N 
HETATM   19  N2  UNL     1      22.610  -4.966  19.607  1.00  0.00    -0.064 NA
ATOM     20  H12 UNL     1      20.621  -6.297  18.973  1.00  0.00     0.158 HD
ATOM     21  H11 UNL     1      19.577  -5.951  20.403  1.00  0.00     0.158 HD
ATOM     22  H3  UNL     1      21.775  -4.690  22.374  1.00  0.00     0.162 HD
ENDBRANCH  15  16
ENDBRANCH  14  15
ENDBRANCH  13  14
ENDBRANCH  12  13
ENDBRANCH  10  12
ENDBRANCH   1  10
BRANCH   9  23
HETATM   23  C10 UNL     1      23.272   1.571  19.292  1.00  0.00     0.335 C 
BRANCH  23  24
HETATM   24  O2  UNL     1      21.993   1.999  18.846  1.00  0.00    -0.282 OA
BRANCH  24  25
HETATM   25  C11 UNL     1      21.732   2.264  17.523  1.00  0.00     0.380 C 
HETATM   26  O3  UNL     1      20.759   1.724  16.961  1.00  0.00    -0.237 OA
HETATM   27  N11 UNL     1      22.562   3.148  16.808  1.00  0.00    -0.252 N 
ATOM     28  H11 UNL     1      23.357   3.593  17.265  1.00  0.00     0.191 HD
BRANCH  27  29
HETATM   29  N12 UNL     1      22.284   3.408  15.465  1.00  0.00    -0.341 N 
ATOM     30 2H12 UNL     1      21.406   3.080  15.062  1.00  0.00     0.177 HD
ATOM     31 1H12 UNL     1      22.965   3.923  14.906  1.00  0.00     0.177 HD
ENDBRANCH  27  29
ENDBRANCH  24  25
ENDBRANCH  23  24
ENDBRANCH   9  23
BRANCH   4  32
HETATM   32  N6  UNL     1      24.288  -3.427  17.341  1.00  0.00    -0.173 N 
HETATM   33  C8  UNL     1      23.689  -4.009  16.184  1.00  0.00     0.494 C 
HETATM   34  N7  UNL     1      22.448  -4.672  16.615  1.00  0.00    -0.032 N 
HETATM   35  N8  UNL     1      24.546  -5.097  15.687  1.00  0.00    -0.032 N 
ATOM     36  H73 UNL     1      22.597  -5.344  17.367  1.00  0.00     0.278 HD
ATOM     37  H72 UNL     1      21.817  -4.048  17.119  1.00  0.00     0.278 HD
ATOM     38  H71 UNL     1      22.019  -5.088  15.788  1.00  0.00     0.278 HD
ATOM     39  H83 UNL     1      25.502  -4.787  15.513  1.00  0.00     0.278 HD
ATOM     40  H82 UNL     1      24.748  -5.790  16.408  1.00  0.00     0.278 HD
ATOM     41  H81 UNL     1      24.118  -5.514  14.860  1.00  0.00     0.278 HD
ATOM     42  H6  UNL     1      24.957  -3.999  17.857  1.00  0.00     0.181 HD
ENDBRANCH   4  32
TORSDOF 11
ENDMDL
