MODEL 1
REMARK VINA RESULT: -4.973145562      0.000      0.000
REMARK  14 active torsions:
REMARK  status: ('A' for Active; 'I' for Inactive)
REMARK    1  A    between atoms: N1_1  and  C1_4 
REMARK    2  A    between atoms: C2_7  and  C3_8 
REMARK       I    between atoms: C3_8  and  N3_10 
REMARK    3  A    between atoms: N3_10  and  N4_12 
REMARK    4  A    between atoms: C4_15  and  S1_16 
REMARK    5  A    between atoms: S1_16  and  N5_19 
REMARK    6  A    between atoms: N5_19  and  C5_21 
REMARK    7  A    between atoms: C5_21  and  C6_22 
REMARK    8  A    between atoms: C5_21  and  C7_25 
REMARK    9  A    between atoms: C6_22  and  O4_23 
REMARK   10  A    between atoms: C7_25  and  O5_26 
REMARK   11  A    between atoms: C7_25  and  N6_28 
REMARK   12  A    between atoms: N6_28  and  C8_30 
REMARK   13  A    between atoms: C8_30  and  C9_31 
REMARK   14  A    between atoms: C9_31  and  O6_32 
ROOT
HETATM    1  C1  UNL     1      23.210   8.275  16.655  1.00  0.00     0.676 A 
HETATM    2  N2  UNL     1      22.926   7.296  15.803  1.00  0.00    -0.185 N 
ATOM      3  H2  UNL     1      22.279   7.495  15.039  1.00  0.00     0.184 HD
HETATM    4  C2  UNL     1      23.458   6.027  15.894  1.00  0.00     0.143 A 
HETATM    5  C4  UNL     1      24.331   5.745  16.914  1.00  0.00     0.128 A 
HETATM    6  C10 UNL     1      24.615   6.778  17.794  1.00  0.00     0.134 A 
HETATM    7  N7  UNL     1      24.058   7.990  17.644  1.00  0.00    -0.201 N 
ATOM      8  H7  UNL     1      24.293   8.723  18.313  1.00  0.00     0.183 HD
ENDROOT
BRANCH   5   9
HETATM    9  S1  UNL     1      25.024   4.179  17.062  1.00  0.00     0.263 S 
HETATM   10  O2  UNL     1      26.117   4.034  16.005  1.00  0.00    -0.200 OA
HETATM   11  O3  UNL     1      25.670   4.028  18.435  1.00  0.00    -0.200 OA
BRANCH   9  12
HETATM   12  N5  UNL     1      23.992   2.851  16.819  1.00  0.00    -0.304 N 
ATOM     13  H5  UNL     1      23.834   2.468  15.887  1.00  0.00     0.173 HD
BRANCH  12  14
HETATM   14  C5  UNL     1      23.353   2.290  17.969  1.00  0.00     0.164 C 
BRANCH  14  15
HETATM   15  C6  UNL     1      21.879   2.523  17.889  1.00  0.00     0.194 C 
BRANCH  15  16
HETATM   16  O4  UNL     1      21.454   2.234  16.592  1.00  0.00    -0.399 OA
ATOM     17  H4  UNL     1      21.607   2.997  16.047  1.00  0.00     0.209 HD
ENDBRANCH  15  16
ENDBRANCH  14  15
BRANCH  14  18
HETATM   18  C7  UNL     1      23.608   0.736  17.917  1.00  0.00     0.239 C 
BRANCH  18  19
HETATM   19  O5  UNL     1      24.059   0.449  16.673  1.00  0.00    -0.375 OA
ATOM     20  H5  UNL     1      24.486  -0.398  16.720  1.00  0.00     0.212 HD
ENDBRANCH  18  19
BRANCH  18  21
HETATM   21  N6  UNL     1      22.445   0.101  18.393  1.00  0.00    -0.393 N 
ATOM     22  H6  UNL     1      21.587   0.083  17.841  1.00  0.00     0.155 HD
BRANCH  21  23
HETATM   23  C8  UNL     1      22.512  -0.510  19.669  1.00  0.00     0.142 C 
BRANCH  23  24
HETATM   24  C9  UNL     1      21.234  -0.365  20.443  1.00  0.00     0.183 C 
BRANCH  24  25
HETATM   25  O6  UNL     1      20.177  -0.081  19.618  1.00  0.00    -0.399 OA
ATOM     26  H6  UNL     1      19.695   0.679  19.920  1.00  0.00     0.209 HD
ENDBRANCH  24  25
ENDBRANCH  23  24
ENDBRANCH  21  23
ENDBRANCH  18  21
ENDBRANCH  14  18
ENDBRANCH  12  14
ENDBRANCH   9  12
ENDBRANCH   5   9
BRANCH   4  27
HETATM   27  C3  UNL     1      23.002   5.126  14.865  1.00  0.00     0.288 C 
HETATM   28  O1  UNL     1      21.962   4.481  14.908  1.00  0.00    -0.264 OA
HETATM   29  N3  UNL     1      23.801   4.937  13.673  1.00  0.00    -0.271 N 
ATOM     30  H3  UNL     1      24.680   5.446  13.578  1.00  0.00     0.189 HD
BRANCH  29  31
HETATM   31  N4  UNL     1      23.401   4.077  12.653  1.00  0.00    -0.342 N 
ATOM     32  H42 UNL     1      22.422   3.791  12.621  1.00  0.00     0.176 HD
ATOM     33  H41 UNL     1      24.058   3.736  11.952  1.00  0.00     0.176 HD
ENDBRANCH  29  31
ENDBRANCH   4  27
BRANCH   1  34
HETATM   34  N1  UNL     1      22.682   9.466  16.531  1.00  0.00    -0.234 N 
ATOM     35  H12 UNL     1      21.674   9.594  16.440  1.00  0.00     0.174 HD
ATOM     36  H11 UNL     1      23.259  10.307  16.523  1.00  0.00     0.174 HD
ENDBRANCH   1  34
TORSDOF 14
ENDMDL
MODEL 2
REMARK VINA RESULT: -4.881912378      5.697      8.490
REMARK  14 active torsions:
REMARK  status: ('A' for Active; 'I' for Inactive)
REMARK    1  A    between atoms: N1_1  and  C1_4 
REMARK    2  A    between atoms: C2_7  and  C3_8 
REMARK       I    between atoms: C3_8  and  N3_10 
REMARK    3  A    between atoms: N3_10  and  N4_12 
REMARK    4  A    between atoms: C4_15  and  S1_16 
REMARK    5  A    between atoms: S1_16  and  N5_19 
REMARK    6  A    between atoms: N5_19  and  C5_21 
REMARK    7  A    between atoms: C5_21  and  C6_22 
REMARK    8  A    between atoms: C5_21  and  C7_25 
REMARK    9  A    between atoms: C6_22  and  O4_23 
REMARK   10  A    between atoms: C7_25  and  O5_26 
REMARK   11  A    between atoms: C7_25  and  N6_28 
REMARK   12  A    between atoms: N6_28  and  C8_30 
REMARK   13  A    between atoms: C8_30  and  C9_31 
REMARK   14  A    between atoms: C9_31  and  O6_32 
ROOT
HETATM    1  C1  UNL     1      24.019  -5.108  15.119  1.00  0.00     0.676 A 
HETATM    2  N2  UNL     1      24.408  -3.905  15.525  1.00  0.00    -0.185 N 
ATOM      3  H2  UNL     1      24.907  -3.311  14.863  1.00  0.00     0.184 HD
HETATM    4  C2  UNL     1      24.174  -3.416  16.793  1.00  0.00     0.143 A 
HETATM    5  C4  UNL     1      23.503  -4.203  17.695  1.00  0.00     0.128 A 
HETATM    6  C10 UNL     1      23.105  -5.455  17.253  1.00  0.00     0.134 A 
HETATM    7  N7  UNL     1      23.368  -5.865  16.003  1.00  0.00    -0.201 N 
ATOM      8  H7  UNL     1      23.058  -6.794  15.717  1.00  0.00     0.183 HD
ENDROOT
BRANCH   5   9
HETATM    9  S1  UNL     1      23.184  -3.630  19.283  1.00  0.00     0.263 S 
HETATM   10  O2  UNL     1      22.095  -4.505  19.902  1.00  0.00    -0.200 OA
HETATM   11  O3  UNL     1      24.439  -3.760  20.140  1.00  0.00    -0.200 OA
BRANCH   9  12
HETATM   12  N5  UNL     1      22.609  -2.037  19.431  1.00  0.00    -0.304 N 
ATOM     13  H5  UNL     1      22.288  -1.513  18.618  1.00  0.00     0.173 HD
BRANCH  12  14
HETATM   14  C5  UNL     1      22.593  -1.458  20.739  1.00  0.00     0.164 C 
BRANCH  14  15
HETATM   15  C6  UNL     1      23.620  -0.375  20.821  1.00  0.00     0.194 C 
BRANCH  15  16
HETATM   16  O4  UNL     1      23.989  -0.015  19.525  1.00  0.00    -0.399 OA
ATOM     17  H4  UNL     1      24.919   0.179  19.520  1.00  0.00     0.209 HD
ENDBRANCH  15  16
ENDBRANCH  14  15
BRANCH  14  18
HETATM   18  C7  UNL     1      21.173  -0.804  20.928  1.00  0.00     0.239 C 
BRANCH  18  19
HETATM   19  O5  UNL     1      20.452  -1.640  21.711  1.00  0.00    -0.375 OA
ATOM     20  H5  UNL     1      20.525  -1.319  22.602  1.00  0.00     0.212 HD
ENDBRANCH  18  19
BRANCH  18  21
HETATM   21  N6  UNL     1      20.689  -0.467  19.649  1.00  0.00    -0.393 N 
ATOM     22  H6  UNL     1      20.494  -1.185  18.950  1.00  0.00     0.155 HD
BRANCH  21  23
HETATM   23  C8  UNL     1      20.486   0.906  19.370  1.00  0.00     0.142 C 
BRANCH  23  24
HETATM   24  C9  UNL     1      21.108   1.327  18.070  1.00  0.00     0.183 C 
BRANCH  24  25
HETATM   25  O6  UNL     1      21.867   0.321  17.529  1.00  0.00    -0.399 OA
ATOM     26  H6  UNL     1      21.533  -0.534  17.770  1.00  0.00     0.209 HD
ENDBRANCH  24  25
ENDBRANCH  23  24
ENDBRANCH  21  23
ENDBRANCH  18  21
ENDBRANCH  14  18
ENDBRANCH  12  14
ENDBRANCH   9  12
ENDBRANCH   5   9
BRANCH   4  27
HETATM   27  C3  UNL     1      24.695  -2.090  17.014  1.00  0.00     0.288 C 
HETATM   28  O1  UNL     1      24.176  -1.057  16.613  1.00  0.00    -0.264 OA
HETATM   29  N3  UNL     1      25.924  -1.918  17.760  1.00  0.00    -0.271 N 
ATOM     30  H3  UNL     1      26.405  -2.741  18.121  1.00  0.00     0.189 HD
BRANCH  29  31
HETATM   31  N4  UNL     1      26.465  -0.657  17.998  1.00  0.00    -0.342 N 
ATOM     32  H42 UNL     1      26.185  -0.165  18.848  1.00  0.00     0.176 HD
ATOM     33  H41 UNL     1      27.122  -0.225  17.349  1.00  0.00     0.176 HD
ENDBRANCH  29  31
ENDBRANCH   4  27
BRANCH   1  34
HETATM   34  N1  UNL     1      24.261  -5.533  13.905  1.00  0.00    -0.234 N 
ATOM     35  H12 UNL     1      24.641  -4.912  13.190  1.00  0.00     0.174 HD
ATOM     36  H11 UNL     1      24.080  -6.498  13.631  1.00  0.00     0.174 HD
ENDBRANCH   1  34
TORSDOF 14
ENDMDL
MODEL 3
REMARK VINA RESULT: -4.772082963      2.712      4.340
REMARK  14 active torsions:
REMARK  status: ('A' for Active; 'I' for Inactive)
REMARK    1  A    between atoms: N1_1  and  C1_4 
REMARK    2  A    between atoms: C2_7  and  C3_8 
REMARK       I    between atoms: C3_8  and  N3_10 
REMARK    3  A    between atoms: N3_10  and  N4_12 
REMARK    4  A    between atoms: C4_15  and  S1_16 
REMARK    5  A    between atoms: S1_16  and  N5_19 
REMARK    6  A    between atoms: N5_19  and  C5_21 
REMARK    7  A    between atoms: C5_21  and  C6_22 
REMARK    8  A    between atoms: C5_21  and  C7_25 
REMARK    9  A    between atoms: C6_22  and  O4_23 
REMARK   10  A    between atoms: C7_25  and  O5_26 
REMARK   11  A    between atoms: C7_25  and  N6_28 
REMARK   12  A    between atoms: N6_28  and  C8_30 
REMARK   13  A    between atoms: C8_30  and  C9_31 
REMARK   14  A    between atoms: C9_31  and  O6_32 
ROOT
HETATM    1  C1  UNL     1      23.382   5.123  18.082  1.00  0.00     0.676 A 
HETATM    2  N2  UNL     1      22.402   4.245  17.899  1.00  0.00    -0.185 N 
ATOM      3  H2  UNL     1      21.453   4.600  17.781  1.00  0.00     0.184 HD
HETATM    4  C2  UNL     1      22.599   2.880  17.858  1.00  0.00     0.143 A 
HETATM    5  C4  UNL     1      23.870   2.388  18.013  1.00  0.00     0.128 A 
HETATM    6  C10 UNL     1      24.879   3.318  18.204  1.00  0.00     0.134 A 
HETATM    7  N7  UNL     1      24.614   4.634  18.233  1.00  0.00    -0.201 N 
ATOM      8  H7  UNL     1      25.385   5.286  18.376  1.00  0.00     0.183 HD
ENDROOT
BRANCH   5   9
HETATM    9  S1  UNL     1      24.161   0.695  17.962  1.00  0.00     0.263 S 
HETATM   10  O2  UNL     1      24.124   0.243  16.503  1.00  0.00    -0.200 OA
HETATM   11  O3  UNL     1      25.550   0.393  18.516  1.00  0.00    -0.200 OA
BRANCH   9  12
HETATM   12  N5  UNL     1      23.047  -0.307  18.765  1.00  0.00    -0.304 N 
ATOM     13  H5  UNL     1      22.177  -0.596  18.317  1.00  0.00     0.173 HD
BRANCH  12  14
HETATM   14  C5  UNL     1      23.373  -0.729  20.091  1.00  0.00     0.164 C 
BRANCH  14  15
HETATM   15  C6  UNL     1      22.150  -0.678  20.949  1.00  0.00     0.194 C 
BRANCH  15  16
HETATM   16  O4  UNL     1      21.034  -0.909  20.145  1.00  0.00    -0.399 OA
ATOM     17  H4  UNL     1      20.687  -0.071  19.864  1.00  0.00     0.209 HD
ENDBRANCH  15  16
ENDBRANCH  14  15
BRANCH  14  18
HETATM   18  C7  UNL     1      23.838  -2.231  19.988  1.00  0.00     0.239 C 
BRANCH  18  19
HETATM   19  O5  UNL     1      25.184  -2.220  19.846  1.00  0.00    -0.375 OA
ATOM     20  H5  UNL     1      25.367  -2.007  18.939  1.00  0.00     0.212 HD
ENDBRANCH  18  19
BRANCH  18  21
HETATM   21  N6  UNL     1      23.045  -2.852  19.004  1.00  0.00    -0.393 N 
ATOM     22  H6  UNL     1      22.067  -2.593  18.870  1.00  0.00     0.155 HD
BRANCH  21  23
HETATM   23  C8  UNL     1      23.658  -3.850  18.208  1.00  0.00     0.142 C 
BRANCH  23  24
HETATM   24  C9  UNL     1      23.686  -3.487  16.751  1.00  0.00     0.183 C 
BRANCH  24  25
HETATM   25  O6  UNL     1      22.928  -2.373  16.498  1.00  0.00    -0.399 OA
ATOM     26  H6  UNL     1      23.466  -1.593  16.439  1.00  0.00     0.209 HD
ENDBRANCH  24  25
ENDBRANCH  23  24
ENDBRANCH  21  23
ENDBRANCH  18  21
ENDBRANCH  14  18
ENDBRANCH  12  14
ENDBRANCH   9  12
ENDBRANCH   5   9
BRANCH   4  27
HETATM   27  C3  UNL     1      21.389   2.121  17.657  1.00  0.00     0.288 C 
HETATM   28  O1  UNL     1      20.954   1.771  16.569  1.00  0.00    -0.264 OA
HETATM   29  N3  UNL     1      20.597   1.721  18.801  1.00  0.00    -0.271 N 
ATOM     30  H3  UNL     1      20.907   1.983  19.737  1.00  0.00     0.189 HD
BRANCH  29  31
HETATM   31  N4  UNL     1      19.422   0.987  18.656  1.00  0.00    -0.342 N 
ATOM     32  H42 UNL     1      18.663   1.158  19.317  1.00  0.00     0.176 HD
ATOM     33  H41 UNL     1      19.311   0.296  17.915  1.00  0.00     0.176 HD
ENDBRANCH  29  31
ENDBRANCH   4  27
BRANCH   1  34
HETATM   34  N1  UNL     1      23.151   6.410  18.114  1.00  0.00    -0.234 N 
ATOM     35  H12 UNL     1      22.697   6.888  17.335  1.00  0.00     0.174 HD
ATOM     36  H11 UNL     1      23.415   6.980  18.917  1.00  0.00     0.174 HD
ENDBRANCH   1  34
TORSDOF 14
ENDMDL
MODEL 4
REMARK VINA RESULT: -4.755270719      5.989     10.106
REMARK  14 active torsions:
REMARK  status: ('A' for Active; 'I' for Inactive)
REMARK    1  A    between atoms: N1_1  and  C1_4 
REMARK    2  A    between atoms: C2_7  and  C3_8 
REMARK       I    between atoms: C3_8  and  N3_10 
REMARK    3  A    between atoms: N3_10  and  N4_12 
REMARK    4  A    between atoms: C4_15  and  S1_16 
REMARK    5  A    between atoms: S1_16  and  N5_19 
REMARK    6  A    between atoms: N5_19  and  C5_21 
REMARK    7  A    between atoms: C5_21  and  C6_22 
REMARK    8  A    between atoms: C5_21  and  C7_25 
REMARK    9  A    between atoms: C6_22  and  O4_23 
REMARK   10  A    between atoms: C7_25  and  O5_26 
REMARK   11  A    between atoms: C7_25  and  N6_28 
REMARK   12  A    between atoms: N6_28  and  C8_30 
REMARK   13  A    between atoms: C8_30  and  C9_31 
REMARK   14  A    between atoms: C9_31  and  O6_32 
ROOT
HETATM    1  C1  UNL     1      19.011  -6.315  21.070  1.00  0.00     0.676 A 
HETATM    2  N2  UNL     1      19.333  -5.163  21.646  1.00  0.00    -0.185 N 
ATOM      3  H2  UNL     1      18.688  -4.770  22.333  1.00  0.00     0.184 HD
HETATM    4  C2  UNL     1      20.491  -4.468  21.367  1.00  0.00     0.143 A 
HETATM    5  C4  UNL     1      21.369  -4.984  20.448  1.00  0.00     0.128 A 
HETATM    6  C10 UNL     1      21.017  -6.186  19.856  1.00  0.00     0.134 A 
HETATM    7  N7  UNL     1      19.871  -6.807  20.177  1.00  0.00    -0.201 N 
ATOM      8  H7  UNL     1      19.648  -7.691  19.719  1.00  0.00     0.183 HD
ENDROOT
BRANCH   5   9
HETATM    9  S1  UNL     1      22.828  -4.155  20.075  1.00  0.00     0.263 S 
HETATM   10  O2  UNL     1      23.496  -3.741  21.385  1.00  0.00    -0.200 OA
HETATM   11  O3  UNL     1      23.778  -5.090  19.334  1.00  0.00    -0.200 OA
BRANCH   9  12
HETATM   12  N5  UNL     1      22.694  -2.720  19.173  1.00  0.00    -0.304 N 
ATOM     13  H5  UNL     1      22.019  -2.634  18.414  1.00  0.00     0.173 HD
BRANCH  12  14
HETATM   14  C5  UNL     1      23.563  -1.638  19.518  1.00  0.00     0.164 C 
BRANCH  14  15
HETATM   15  C6  UNL     1      24.102  -1.011  18.273  1.00  0.00     0.194 C 
BRANCH  15  16
HETATM   16  O4  UNL     1      23.111  -1.047  17.293  1.00  0.00    -0.399 OA
ATOM     17  H4  UNL     1      23.004  -0.171  16.940  1.00  0.00     0.209 HD
ENDBRANCH  15  16
ENDBRANCH  14  15
BRANCH  14  18
HETATM   18  C7  UNL     1      22.681  -0.568  20.265  1.00  0.00     0.239 C 
BRANCH  18  19
HETATM   19  O5  UNL     1      22.816  -0.797  21.592  1.00  0.00    -0.375 OA
ATOM     20  H5  UNL     1      23.531  -0.252  21.897  1.00  0.00     0.212 HD
ENDBRANCH  18  19
BRANCH  18  21
HETATM   21  N6  UNL     1      21.397  -0.601  19.686  1.00  0.00    -0.393 N 
ATOM     22  H6  UNL     1      20.999  -1.469  19.327  1.00  0.00     0.155 HD
BRANCH  21  23
HETATM   23  C8  UNL     1      20.680   0.619  19.622  1.00  0.00     0.142 C 
BRANCH  23  24
HETATM   24  C9  UNL     1      20.876   1.332  18.315  1.00  0.00     0.183 C 
BRANCH  24  25
HETATM   25  O6  UNL     1      20.460   0.564  17.257  1.00  0.00    -0.399 OA
ATOM     26  H6  UNL     1      20.749   0.928  16.429  1.00  0.00     0.209 HD
ENDBRANCH  24  25
ENDBRANCH  23  24
ENDBRANCH  21  23
ENDBRANCH  18  21
ENDBRANCH  14  18
ENDBRANCH  12  14
ENDBRANCH   9  12
ENDBRANCH   5   9
BRANCH   4  27
HETATM   27  C3  UNL     1      20.627  -3.237  22.105  1.00  0.00     0.288 C 
HETATM   28  O1  UNL     1      20.100  -2.175  21.802  1.00  0.00    -0.264 OA
HETATM   29  N3  UNL     1      21.439  -3.207  23.304  1.00  0.00    -0.271 N 
ATOM     30  H3  UNL     1      21.906  -4.060  23.610  1.00  0.00     0.189 HD
BRANCH  29  31
HETATM   31  N4  UNL     1      21.600  -2.041  24.049  1.00  0.00    -0.342 N 
ATOM     32  H42 UNL     1      21.901  -2.128  25.020  1.00  0.00     0.176 HD
ATOM     33  H41 UNL     1      21.424  -1.120  23.647  1.00  0.00     0.176 HD
ENDBRANCH  29  31
ENDBRANCH   4  27
BRANCH   1  34
HETATM   34  N1  UNL     1      17.901  -6.942  21.365  1.00  0.00    -0.234 N 
ATOM     35  H12 UNL     1      17.006  -6.652  20.970  1.00  0.00     0.174 HD
ATOM     36  H11 UNL     1      17.892  -7.742  21.997  1.00  0.00     0.174 HD
ENDBRANCH   1  34
TORSDOF 14
ENDMDL
MODEL 5
REMARK VINA RESULT: -4.745686561      4.792      8.976
REMARK  14 active torsions:
REMARK  status: ('A' for Active; 'I' for Inactive)
REMARK    1  A    between atoms: N1_1  and  C1_4 
REMARK    2  A    between atoms: C2_7  and  C3_8 
REMARK       I    between atoms: C3_8  and  N3_10 
REMARK    3  A    between atoms: N3_10  and  N4_12 
REMARK    4  A    between atoms: C4_15  and  S1_16 
REMARK    5  A    between atoms: S1_16  and  N5_19 
REMARK    6  A    between atoms: N5_19  and  C5_21 
REMARK    7  A    between atoms: C5_21  and  C6_22 
REMARK    8  A    between atoms: C5_21  and  C7_25 
REMARK    9  A    between atoms: C6_22  and  O4_23 
REMARK   10  A    between atoms: C7_25  and  O5_26 
REMARK   11  A    between atoms: C7_25  and  N6_28 
REMARK   12  A    between atoms: N6_28  and  C8_30 
REMARK   13  A    between atoms: C8_30  and  C9_31 
REMARK   14  A    between atoms: C9_31  and  O6_32 
ROOT
HETATM    1  C1  UNL     1      19.691  -5.022  21.569  1.00  0.00     0.676 A 
HETATM    2  N2  UNL     1      20.713  -5.254  20.753  1.00  0.00    -0.185 N 
ATOM      3  H2  UNL     1      20.821  -6.193  20.370  1.00  0.00     0.184 HD
HETATM    4  C2  UNL     1      21.636  -4.293  20.395  1.00  0.00     0.143 A 
HETATM    5  C4  UNL     1      21.503  -3.024  20.900  1.00  0.00     0.128 A 
HETATM    6  C10 UNL     1      20.431  -2.802  21.750  1.00  0.00     0.134 A 
HETATM    7  N7  UNL     1      19.571  -3.786  22.055  1.00  0.00    -0.201 N 
ATOM      8  H7  UNL     1      18.796  -3.581  22.684  1.00  0.00     0.183 HD
ENDROOT
BRANCH   5   9
HETATM    9  S1  UNL     1      22.626  -1.795  20.475  1.00  0.00     0.263 S 
HETATM   10  O2  UNL     1      22.315  -0.550  21.304  1.00  0.00    -0.200 OA
HETATM   11  O3  UNL     1      24.042  -2.249  20.815  1.00  0.00    -0.200 OA
BRANCH   9  12
HETATM   12  N5  UNL     1      22.619  -1.265  18.860  1.00  0.00    -0.304 N 
ATOM     13  H5  UNL     1      21.832  -1.462  18.242  1.00  0.00     0.173 HD
BRANCH  12  14
HETATM   14  C5  UNL     1      23.756  -0.531  18.399  1.00  0.00     0.164 C 
BRANCH  14  15
HETATM   15  C6  UNL     1      24.355  -1.224  17.217  1.00  0.00     0.194 C 
BRANCH  15  16
HETATM   16  O4  UNL     1      23.366  -1.994  16.607  1.00  0.00    -0.399 OA
ATOM     17  H4  UNL     1      23.471  -2.896  16.885  1.00  0.00     0.209 HD
ENDBRANCH  15  16
ENDBRANCH  14  15
BRANCH  14  18
HETATM   18  C7  UNL     1      23.229   0.876  17.928  1.00  0.00     0.239 C 
BRANCH  18  19
HETATM   19  O5  UNL     1      24.314   1.624  17.619  1.00  0.00    -0.375 OA
ATOM     20  H5  UNL     1      24.208   2.462  18.053  1.00  0.00     0.212 HD
ENDBRANCH  18  19
BRANCH  18  21
HETATM   21  N6  UNL     1      22.328   1.339  18.907  1.00  0.00    -0.393 N 
ATOM     22  H6  UNL     1      22.521   1.223  19.902  1.00  0.00     0.155 HD
BRANCH  21  23
HETATM   23  C8  UNL     1      21.144   1.970  18.456  1.00  0.00     0.142 C 
BRANCH  23  24
HETATM   24  C9  UNL     1      19.982   1.022  18.377  1.00  0.00     0.183 C 
BRANCH  24  25
HETATM   25  O6  UNL     1      19.967   0.157  19.441  1.00  0.00    -0.399 OA
ATOM     26  H6  UNL     1      19.255  -0.467  19.371  1.00  0.00     0.209 HD
ENDBRANCH  24  25
ENDBRANCH  23  24
ENDBRANCH  21  23
ENDBRANCH  18  21
ENDBRANCH  14  18
ENDBRANCH  12  14
ENDBRANCH   9  12
ENDBRANCH   5   9
BRANCH   4  27
HETATM   27  C3  UNL     1      22.664  -4.773  19.506  1.00  0.00     0.288 C 
HETATM   28  O1  UNL     1      23.681  -5.355  19.859  1.00  0.00    -0.264 OA
HETATM   29  N3  UNL     1      22.527  -4.572  18.078  1.00  0.00    -0.271 N 
ATOM     30  H3  UNL     1      21.702  -4.092  17.721  1.00  0.00     0.189 HD
BRANCH  29  31
HETATM   31  N4  UNL     1      23.495  -5.018  17.181  1.00  0.00    -0.342 N 
ATOM     32  H42 UNL     1      24.276  -5.562  17.547  1.00  0.00     0.176 HD
ATOM     33  H41 UNL     1      23.435  -4.812  16.184  1.00  0.00     0.176 HD
ENDBRANCH  29  31
ENDBRANCH   4  27
BRANCH   1  34
HETATM   34  N1  UNL     1      18.837  -5.963  21.882  1.00  0.00    -0.234 N 
ATOM     35  H12 UNL     1      18.446  -6.583  21.173  1.00  0.00     0.174 HD
ATOM     36  H11 UNL     1      18.535  -6.111  22.845  1.00  0.00     0.174 HD
ENDBRANCH   1  34
TORSDOF 14
ENDMDL
