MODEL 1
REMARK VINA RESULT: -6.708080323      0.000      0.000
REMARK  8 active torsions:
REMARK  status: ('A' for Active; 'I' for Inactive)
REMARK    1  A    between atoms: C2_2  and  O1_3 
REMARK    2  A    between atoms: C2_2  and  C3_5 
REMARK    3  A    between atoms: C4_6  and  C5_7 
REMARK    4  A    between atoms: C5_7  and  C6_8 
REMARK    5  A    between atoms: C6_8  and  C7_9 
REMARK    6  A    between atoms: C6_8  and  C8_12 
REMARK    7  A    between atoms: C7_9  and  O2_10 
REMARK    8  A    between atoms: C8_12  and  C9_13 
ROOT
HETATM    1  C6  UNL     1      -2.895   5.039  13.622  1.00  0.00     0.013 C 
ENDROOT
BRANCH   1   2
HETATM    2  C5  UNL     1      -3.361   6.520  13.635  1.00  0.00     0.033 C 
BRANCH   2   3
HETATM    3  C4  UNL     1      -3.951   6.965  12.375  1.00  0.00    -0.028 C 
HETATM    4  C3  UNL     1      -5.247   6.729  12.128  1.00  0.00    -0.000 C 
BRANCH   4   5
HETATM    5  C2  UNL     1      -5.917   7.145  10.882  1.00  0.00     0.136 C 
HETATM    6  C1  UNL     1      -5.045   8.104  10.097  1.00  0.00     0.043 C 
BRANCH   5   7
HETATM    7  O1  UNL     1      -6.061   5.985  10.091  1.00  0.00    -0.392 OA
ATOM      8  H1  UNL     1      -5.183   5.685   9.883  1.00  0.00     0.210 HD
ENDBRANCH   5   7
ENDBRANCH   4   5
ENDBRANCH   2   3
ENDBRANCH   1   2
BRANCH   1   9
HETATM    9  C7  UNL     1      -1.449   5.138  14.156  1.00  0.00     0.168 C 
BRANCH   9  10
HETATM   10  O2  UNL     1      -1.234   4.047  15.046  1.00  0.00    -0.400 OA
ATOM     11  H2  UNL     1      -2.052   3.571  15.130  1.00  0.00     0.209 HD
ENDBRANCH   9  10
ENDBRANCH   1   9
BRANCH   1  12
HETATM   12  C8  UNL     1      -3.812   4.314  14.505  1.00  0.00     0.021 C 
BRANCH  12  13
HETATM   13  C9  UNL     1      -4.977   3.577  14.013  1.00  0.00     0.080 C 
HETATM   14  C10 UNL     1      -6.125   3.961  15.029  1.00  0.00     0.039 C 
HETATM   15  C11 UNL     1      -5.942   2.920  16.117  1.00  0.00     0.088 C 
HETATM   16  C12 UNL     1      -7.313   2.386  16.472  1.00  0.00     0.025 C 
HETATM   17  N1  UNL     1      -5.244   1.787  15.487  1.00  0.00    -0.347 N 
HETATM   18  C13 UNL     1      -7.227   1.151  17.303  1.00  0.00     0.004 C 
HETATM   19  C14 UNL     1      -5.859   0.624  17.542  1.00  0.00     0.020 C 
HETATM   20  C15 UNL     1      -4.954   0.663  16.332  1.00  0.00     0.126 C 
HETATM   21  C16 UNL     1      -5.025   2.120  14.109  1.00  0.00     0.224 C 
HETATM   22  O3  UNL     1      -4.906   1.301  13.196  1.00  0.00    -0.273 OA
ENDBRANCH  12  13
ENDBRANCH   1  12
TORSDOF 8
ENDMDL
MODEL 2
REMARK VINA RESULT: -6.696411796      2.480      3.398
REMARK  8 active torsions:
REMARK  status: ('A' for Active; 'I' for Inactive)
REMARK    1  A    between atoms: C2_2  and  O1_3 
REMARK    2  A    between atoms: C2_2  and  C3_5 
REMARK    3  A    between atoms: C4_6  and  C5_7 
REMARK    4  A    between atoms: C5_7  and  C6_8 
REMARK    5  A    between atoms: C6_8  and  C7_9 
REMARK    6  A    between atoms: C6_8  and  C8_12 
REMARK    7  A    between atoms: C7_9  and  O2_10 
REMARK    8  A    between atoms: C8_12  and  C9_13 
ROOT
HETATM    1  C6  UNL     1      -3.121   5.956  13.950  1.00  0.00     0.013 C 
ENDROOT
BRANCH   1   2
HETATM    2  C5  UNL     1      -2.966   7.247  14.799  1.00  0.00     0.033 C 
BRANCH   2   3
HETATM    3  C4  UNL     1      -1.771   8.025  14.480  1.00  0.00    -0.028 C 
HETATM    4  C3  UNL     1      -1.403   9.036  15.279  1.00  0.00    -0.000 C 
BRANCH   4   5
HETATM    5  C2  UNL     1      -0.212   9.869  15.026  1.00  0.00     0.136 C 
HETATM    6  C1  UNL     1       0.561   9.351  13.831  1.00  0.00     0.043 C 
BRANCH   5   7
HETATM    7  O1  UNL     1      -0.682  11.154  14.681  1.00  0.00    -0.392 OA
ATOM      8  H1  UNL     1      -1.527  11.260  15.103  1.00  0.00     0.210 HD
ENDBRANCH   5   7
ENDBRANCH   4   5
ENDBRANCH   2   3
ENDBRANCH   1   2
BRANCH   1   9
HETATM    9  C7  UNL     1      -1.660   5.488  13.782  1.00  0.00     0.168 C 
BRANCH   9  10
HETATM   10  O2  UNL     1      -1.462   4.354  14.619  1.00  0.00    -0.400 OA
ATOM     11  H2  UNL     1      -1.117   3.650  14.083  1.00  0.00     0.209 HD
ENDBRANCH   9  10
ENDBRANCH   1   9
BRANCH   1  12
HETATM   12  C8  UNL     1      -3.955   5.045  14.739  1.00  0.00     0.021 C 
BRANCH  12  13
HETATM   13  C9  UNL     1      -5.186   4.445  14.225  1.00  0.00     0.080 C 
HETATM   14  C10 UNL     1      -6.186   4.525  15.447  1.00  0.00     0.039 C 
HETATM   15  C11 UNL     1      -5.882   3.237  16.187  1.00  0.00     0.088 C 
HETATM   16  C12 UNL     1      -7.203   2.604  16.563  1.00  0.00     0.025 C 
HETATM   17  N1  UNL     1      -5.291   2.324  15.193  1.00  0.00    -0.347 N 
HETATM   18  C13 UNL     1      -7.032   1.194  17.019  1.00  0.00     0.004 C 
HETATM   19  C14 UNL     1      -5.653   0.647  16.929  1.00  0.00     0.020 C 
HETATM   20  C15 UNL     1      -4.914   1.021  15.666  1.00  0.00     0.126 C 
HETATM   21  C16 UNL     1      -5.247   3.014  13.937  1.00  0.00     0.224 C 
HETATM   22  O3  UNL     1      -5.263   2.468  12.833  1.00  0.00    -0.273 OA
ENDBRANCH  12  13
ENDBRANCH   1  12
TORSDOF 8
ENDMDL
MODEL 3
REMARK VINA RESULT: -6.629560739      2.490      6.272
REMARK  8 active torsions:
REMARK  status: ('A' for Active; 'I' for Inactive)
REMARK    1  A    between atoms: C2_2  and  O1_3 
REMARK    2  A    between atoms: C2_2  and  C3_5 
REMARK    3  A    between atoms: C4_6  and  C5_7 
REMARK    4  A    between atoms: C5_7  and  C6_8 
REMARK    5  A    between atoms: C6_8  and  C7_9 
REMARK    6  A    between atoms: C6_8  and  C8_12 
REMARK    7  A    between atoms: C7_9  and  O2_10 
REMARK    8  A    between atoms: C8_12  and  C9_13 
ROOT
HETATM    1  C6  UNL     1      -3.996   0.855  11.826  1.00  0.00     0.013 C 
ENDROOT
BRANCH   1   2
HETATM    2  C5  UNL     1      -4.140   0.195  13.224  1.00  0.00     0.033 C 
BRANCH   2   3
HETATM    3  C4  UNL     1      -4.486   1.134  14.289  1.00  0.00    -0.028 C 
HETATM    4  C3  UNL     1      -4.543   0.708  15.558  1.00  0.00    -0.000 C 
BRANCH   4   5
HETATM    5  C2  UNL     1      -4.884   1.592  16.689  1.00  0.00     0.136 C 
HETATM    6  C1  UNL     1      -6.049   2.492  16.334  1.00  0.00     0.043 C 
BRANCH   5   7
HETATM    7  O1  UNL     1      -5.321   0.756  17.739  1.00  0.00    -0.392 OA
ATOM      8  H1  UNL     1      -5.153   1.224  18.549  1.00  0.00     0.210 HD
ENDBRANCH   5   7
ENDBRANCH   4   5
ENDBRANCH   2   3
ENDBRANCH   1   2
BRANCH   1   9
HETATM    9  C7  UNL     1      -4.819  -0.089  10.923  1.00  0.00     0.168 C 
BRANCH   9  10
HETATM   10  O2  UNL     1      -4.773   0.422   9.595  1.00  0.00    -0.400 OA
ATOM     11  H2  UNL     1      -5.664   0.599   9.318  1.00  0.00     0.209 HD
ENDBRANCH   9  10
ENDBRANCH   1   9
BRANCH   1  12
HETATM   12  C8  UNL     1      -4.555   2.204  11.950  1.00  0.00     0.021 C 
BRANCH  12  13
HETATM   13  C9  UNL     1      -3.966   3.374  11.298  1.00  0.00     0.080 C 
HETATM   14  C10 UNL     1      -2.573   3.552  12.026  1.00  0.00     0.039 C 
HETATM   15  C11 UNL     1      -2.949   4.418  13.213  1.00  0.00     0.088 C 
HETATM   16  C12 UNL     1      -1.907   5.509  13.329  1.00  0.00     0.025 C 
HETATM   17  N1  UNL     1      -4.190   5.116  12.835  1.00  0.00    -0.347 N 
HETATM   18  C13 UNL     1      -2.338   6.589  14.263  1.00  0.00     0.004 C 
HETATM   19  C14 UNL     1      -3.711   6.458  14.816  1.00  0.00     0.020 C 
HETATM   20  C15 UNL     1      -4.748   6.007  13.813  1.00  0.00     0.126 C 
HETATM   21  C16 UNL     1      -4.537   4.702  11.506  1.00  0.00     0.224 C 
HETATM   22  O3  UNL     1      -5.196   5.372  10.709  1.00  0.00    -0.273 OA
ENDBRANCH  12  13
ENDBRANCH   1  12
TORSDOF 8
ENDMDL
MODEL 4
REMARK VINA RESULT: -6.514954081      2.405      6.476
REMARK  8 active torsions:
REMARK  status: ('A' for Active; 'I' for Inactive)
REMARK    1  A    between atoms: C2_2  and  O1_3 
REMARK    2  A    between atoms: C2_2  and  C3_5 
REMARK    3  A    between atoms: C4_6  and  C5_7 
REMARK    4  A    between atoms: C5_7  and  C6_8 
REMARK    5  A    between atoms: C6_8  and  C7_9 
REMARK    6  A    between atoms: C6_8  and  C8_12 
REMARK    7  A    between atoms: C7_9  and  O2_10 
REMARK    8  A    between atoms: C8_12  and  C9_13 
ROOT
HETATM    1  C6  UNL     1      -3.882   3.069  12.551  1.00  0.00     0.013 C 
ENDROOT
BRANCH   1   2
HETATM    2  C5  UNL     1      -4.455   1.737  13.106  1.00  0.00     0.033 C 
BRANCH   2   3
HETATM    3  C4  UNL     1      -5.044   1.856  14.438  1.00  0.00    -0.028 C 
HETATM    4  C3  UNL     1      -4.719   0.970  15.390  1.00  0.00    -0.000 C 
BRANCH   4   5
HETATM    5  C2  UNL     1      -5.270   1.020  16.757  1.00  0.00     0.136 C 
HETATM    6  C1  UNL     1      -6.352   2.075  16.862  1.00  0.00     0.043 C 
BRANCH   5   7
HETATM    7  O1  UNL     1      -5.892  -0.225  16.990  1.00  0.00    -0.392 OA
ATOM      8  H1  UNL     1      -6.412  -0.128  17.779  1.00  0.00     0.210 HD
ENDBRANCH   5   7
ENDBRANCH   4   5
ENDBRANCH   2   3
ENDBRANCH   1   2
BRANCH   1   9
HETATM    9  C7  UNL     1      -4.467   3.116  11.123  1.00  0.00     0.168 C 
BRANCH   9  10
HETATM   10  O2  UNL     1      -5.635   2.303  11.100  1.00  0.00    -0.400 OA
ATOM     11  H2  UNL     1      -5.361   1.395  11.165  1.00  0.00     0.209 HD
ENDBRANCH   9  10
ENDBRANCH   1   9
BRANCH   1  12
HETATM   12  C8  UNL     1      -4.375   4.127  13.437  1.00  0.00     0.021 C 
BRANCH  12  13
HETATM   13  C9  UNL     1      -3.646   4.579  14.623  1.00  0.00     0.080 C 
HETATM   14  C10 UNL     1      -4.076   6.093  14.778  1.00  0.00     0.039 C 
HETATM   15  C11 UNL     1      -3.061   6.798  13.900  1.00  0.00     0.088 C 
HETATM   16  C12 UNL     1      -2.559   8.005  14.663  1.00  0.00     0.025 C 
HETATM   17  N1  UNL     1      -1.900   5.896  13.810  1.00  0.00    -0.347 N 
HETATM   18  C13 UNL     1      -1.345   8.595  14.030  1.00  0.00     0.004 C 
HETATM   19  C14 UNL     1      -0.801   7.857  12.860  1.00  0.00     0.020 C 
HETATM   20  C15 UNL     1      -0.793   6.354  13.018  1.00  0.00     0.126 C 
HETATM   21  C16 UNL     1      -2.194   4.727  14.586  1.00  0.00     0.224 C 
HETATM   22  O3  UNL     1      -1.350   4.001  15.115  1.00  0.00    -0.273 OA
ENDBRANCH  12  13
ENDBRANCH   1  12
TORSDOF 8
ENDMDL
MODEL 5
REMARK VINA RESULT: -6.504988366      2.470      6.550
REMARK  8 active torsions:
REMARK  status: ('A' for Active; 'I' for Inactive)
REMARK    1  A    between atoms: C2_2  and  O1_3 
REMARK    2  A    between atoms: C2_2  and  C3_5 
REMARK    3  A    between atoms: C4_6  and  C5_7 
REMARK    4  A    between atoms: C5_7  and  C6_8 
REMARK    5  A    between atoms: C6_8  and  C7_9 
REMARK    6  A    between atoms: C6_8  and  C8_12 
REMARK    7  A    between atoms: C7_9  and  O2_10 
REMARK    8  A    between atoms: C8_12  and  C9_13 
ROOT
HETATM    1  C6  UNL     1      -3.838   1.730  12.353  1.00  0.00     0.013 C 
ENDROOT
BRANCH   1   2
HETATM    2  C5  UNL     1      -4.884   2.160  13.417  1.00  0.00     0.033 C 
BRANCH   2   3
HETATM    3  C4  UNL     1      -4.672   1.558  14.731  1.00  0.00    -0.028 C 
HETATM    4  C3  UNL     1      -5.561   1.773  15.712  1.00  0.00    -0.000 C 
BRANCH   4   5
HETATM    5  C2  UNL     1      -5.419   1.203  17.065  1.00  0.00     0.136 C 
HETATM    6  C1  UNL     1      -6.294   1.945  18.054  1.00  0.00     0.043 C 
BRANCH   5   7
HETATM    7  O1  UNL     1      -5.908  -0.120  17.001  1.00  0.00    -0.392 OA
ATOM      8  H1  UNL     1      -5.190  -0.664  16.700  1.00  0.00     0.210 HD
ENDBRANCH   5   7
ENDBRANCH   4   5
ENDBRANCH   2   3
ENDBRANCH   1   2
BRANCH   1   9
HETATM    9  C7  UNL     1      -4.706   1.534  11.091  1.00  0.00     0.168 C 
BRANCH   9  10
HETATM   10  O2  UNL     1      -5.920   2.255  11.276  1.00  0.00    -0.400 OA
ATOM     11  H2  UNL     1      -6.458   2.127  10.504  1.00  0.00     0.209 HD
ENDBRANCH   9  10
ENDBRANCH   1   9
BRANCH   1  12
HETATM   12  C8  UNL     1      -2.878   2.833  12.254  1.00  0.00     0.021 C 
BRANCH  12  13
HETATM   13  C9  UNL     1      -3.127   4.039  11.465  1.00  0.00     0.080 C 
HETATM   14  C10 UNL     1      -1.741   4.799  11.487  1.00  0.00     0.039 C 
HETATM   15  C11 UNL     1      -1.854   5.621  12.757  1.00  0.00     0.088 C 
HETATM   16  C12 UNL     1      -1.367   7.018  12.440  1.00  0.00     0.025 C 
HETATM   17  N1  UNL     1      -3.296   5.771  13.020  1.00  0.00    -0.347 N 
HETATM   18  C13 UNL     1      -1.718   7.985  13.520  1.00  0.00     0.004 C 
HETATM   19  C14 UNL     1      -2.544   7.444  14.630  1.00  0.00     0.020 C 
HETATM   20  C15 UNL     1      -3.658   6.523  14.189  1.00  0.00     0.126 C 
HETATM   21  C16 UNL     1      -4.004   5.089  11.977  1.00  0.00     0.224 C 
HETATM   22  O3  UNL     1      -5.144   5.366  11.602  1.00  0.00    -0.273 OA
ENDBRANCH  12  13
ENDBRANCH   1  12
TORSDOF 8
ENDMDL
