MODEL 1
REMARK VINA RESULT: -6.419874659      0.000      0.000
REMARK  7 active torsions:
REMARK  status: ('A' for Active; 'I' for Inactive)
REMARK    1  A    between atoms: C2_2  and  N1_3 
REMARK    2  A    between atoms: C8_9  and  C9_10 
REMARK    3  A    between atoms: C9_10  and  N2_11 
REMARK    4  A    between atoms: N2_11  and  C10_14 
REMARK    5  A    between atoms: C10_14  and  C11_15 
REMARK    6  A    between atoms: C11_15  and  N3_16 
REMARK    7  A    between atoms: C11_15  and  C12_20 
ROOT
HETATM    1  N2  UNL     1      -3.416   1.840  13.039  1.00  0.00    -0.073 N 
ATOM      2  H21 UNL     1      -2.503   1.871  13.491  1.00  0.00     0.277 HD
ATOM      3  H22 UNL     1      -3.282   1.021  12.447  1.00  0.00     0.277 HD
ENDROOT
BRANCH   1   4
HETATM    4  C9  UNL     1      -3.630   3.005  12.251  1.00  0.00     0.237 C 
BRANCH   4   5
HETATM    5  C8  UNL     1      -3.257   4.295  12.871  1.00  0.00     0.016 C 
HETATM    6  C7  UNL     1      -4.285   5.296  13.258  1.00  0.00     0.047 C 
HETATM    7  C2  UNL     1      -3.488   6.403  12.604  1.00  0.00     0.157 C 
HETATM    8  C1  UNL     1      -4.307   7.302  11.707  1.00  0.00     0.049 C 
HETATM    9  C17 UNL     1      -2.852   5.289  11.757  1.00  0.00     0.047 C 
BRANCH   7  10
HETATM   10  N1  UNL     1      -2.511   7.087  13.329  1.00  0.00     0.097 N 
HETATM   11  C3  UNL     1      -2.832   7.467  14.675  1.00  0.00     0.273 C 
HETATM   12  C4  UNL     1      -1.585   8.260  15.086  1.00  0.00     0.032 C 
HETATM   13  C5  UNL     1      -0.836   8.582  13.815  1.00  0.00     0.032 C 
HETATM   14  C6  UNL     1      -1.882   8.217  12.745  1.00  0.00     0.273 C 
ENDBRANCH   7  10
ENDBRANCH   4   5
ENDBRANCH   1   4
BRANCH   1  15
HETATM   15  C10 UNL     1      -4.444   1.614  13.990  1.00  0.00     0.265 C 
BRANCH  15  16
HETATM   16  C11 UNL     1      -4.039   1.244  15.373  1.00  0.00     0.213 C 
BRANCH  16  17
HETATM   17  N3  UNL     1      -4.390  -0.167  15.560  1.00  0.00    -0.073 N 
ATOM     18  H33 UNL     1      -5.369  -0.367  15.354  1.00  0.00     0.274 HD
ATOM     19  H32 UNL     1      -3.981  -0.779  14.853  1.00  0.00     0.274 HD
ATOM     20  H31 UNL     1      -4.122  -0.418  16.511  1.00  0.00     0.274 HD
ENDBRANCH  16  17
BRANCH  16  21
HETATM   21  C12 UNL     1      -4.782   2.059  16.384  1.00  0.00     0.018 C 
HETATM   22  C13 UNL     1      -5.544   1.163  17.346  1.00  0.00     0.007 C 
HETATM   23  C14 UNL     1      -6.626   2.049  17.885  1.00  0.00     0.000 C 
HETATM   24  C15 UNL     1      -6.892   3.092  16.843  1.00  0.00     0.000 C 
HETATM   25  C16 UNL     1      -5.848   2.922  15.773  1.00  0.00     0.007 C 
ENDBRANCH  16  21
ENDBRANCH  15  16
ENDBRANCH   1  15
TORSDOF 7
ENDMDL
MODEL 2
REMARK VINA RESULT: -6.363441708      0.726      1.196
REMARK  7 active torsions:
REMARK  status: ('A' for Active; 'I' for Inactive)
REMARK    1  A    between atoms: C2_2  and  N1_3 
REMARK    2  A    between atoms: C8_9  and  C9_10 
REMARK    3  A    between atoms: C9_10  and  N2_11 
REMARK    4  A    between atoms: N2_11  and  C10_14 
REMARK    5  A    between atoms: C10_14  and  C11_15 
REMARK    6  A    between atoms: C11_15  and  N3_16 
REMARK    7  A    between atoms: C11_15  and  C12_20 
ROOT
HETATM    1  N2  UNL     1      -3.371   1.771  12.977  1.00  0.00    -0.073 N 
ATOM      2  H21 UNL     1      -2.475   1.846  13.458  1.00  0.00     0.277 HD
ATOM      3  H22 UNL     1      -3.178   0.960  12.390  1.00  0.00     0.277 HD
ENDROOT
BRANCH   1   4
HETATM    4  C9  UNL     1      -3.617   2.924  12.181  1.00  0.00     0.237 C 
BRANCH   4   5
HETATM    5  C8  UNL     1      -2.931   4.168  12.598  1.00  0.00     0.016 C 
HETATM    6  C7  UNL     1      -2.634   4.448  14.027  1.00  0.00     0.047 C 
HETATM    7  C2  UNL     1      -3.173   5.854  13.887  1.00  0.00     0.157 C 
HETATM    8  C1  UNL     1      -4.133   6.256  14.984  1.00  0.00     0.049 C 
HETATM    9  C17 UNL     1      -3.973   5.307  12.693  1.00  0.00     0.047 C 
BRANCH   7  10
HETATM   10  N1  UNL     1      -2.332   6.892  13.481  1.00  0.00     0.097 N 
HETATM   11  C3  UNL     1      -1.659   7.635  14.507  1.00  0.00     0.273 C 
HETATM   12  C4  UNL     1      -0.936   8.715  13.692  1.00  0.00     0.032 C 
HETATM   13  C5  UNL     1      -1.566   8.719  12.320  1.00  0.00     0.032 C 
HETATM   14  C6  UNL     1      -2.817   7.854  12.558  1.00  0.00     0.273 C 
ENDBRANCH   7  10
ENDBRANCH   4   5
ENDBRANCH   1   4
BRANCH   1  15
HETATM   15  C10 UNL     1      -4.416   1.494  13.895  1.00  0.00     0.265 C 
BRANCH  15  16
HETATM   16  C11 UNL     1      -4.042   1.222  15.309  1.00  0.00     0.213 C 
BRANCH  16  17
HETATM   17  N3  UNL     1      -4.442  -0.158  15.600  1.00  0.00    -0.073 N 
ATOM     18  H33 UNL     1      -4.979  -0.246  16.463  1.00  0.00     0.274 HD
ATOM     19  H32 UNL     1      -5.158  -0.511  14.965  1.00  0.00     0.274 HD
ATOM     20  H31 UNL     1      -3.591  -0.721  15.599  1.00  0.00     0.274 HD
ENDBRANCH  16  17
BRANCH  16  21
HETATM   21  C12 UNL     1      -4.772   2.138  16.241  1.00  0.00     0.018 C 
HETATM   22  C13 UNL     1      -5.598   1.345  17.240  1.00  0.00     0.007 C 
HETATM   23  C14 UNL     1      -6.651   2.313  17.686  1.00  0.00     0.000 C 
HETATM   24  C15 UNL     1      -6.843   3.292  16.568  1.00  0.00     0.000 C 
HETATM   25  C16 UNL     1      -5.782   3.002  15.542  1.00  0.00     0.007 C 
ENDBRANCH  16  21
ENDBRANCH  15  16
ENDBRANCH   1  15
TORSDOF 7
ENDMDL
MODEL 3
REMARK VINA RESULT: -6.225754008      1.673      3.192
REMARK  7 active torsions:
REMARK  status: ('A' for Active; 'I' for Inactive)
REMARK    1  A    between atoms: C2_2  and  N1_3 
REMARK    2  A    between atoms: C8_9  and  C9_10 
REMARK    3  A    between atoms: C9_10  and  N2_11 
REMARK    4  A    between atoms: N2_11  and  C10_14 
REMARK    5  A    between atoms: C10_14  and  C11_15 
REMARK    6  A    between atoms: C11_15  and  N3_16 
REMARK    7  A    between atoms: C11_15  and  C12_20 
ROOT
HETATM    1  N2  UNL     1      -3.508   2.328  13.075  1.00  0.00    -0.073 N 
ATOM      2  H21 UNL     1      -2.611   1.859  13.192  1.00  0.00     0.277 HD
ATOM      3  H22 UNL     1      -3.694   2.094  12.100  1.00  0.00     0.277 HD
ENDROOT
BRANCH   1   4
HETATM    4  C9  UNL     1      -3.369   3.734  13.241  1.00  0.00     0.237 C 
BRANCH   4   5
HETATM    5  C8  UNL     1      -4.075   4.585  12.258  1.00  0.00     0.016 C 
HETATM    6  C7  UNL     1      -3.333   5.370  11.237  1.00  0.00     0.047 C 
HETATM    7  C2  UNL     1      -4.158   6.599  11.549  1.00  0.00     0.157 C 
HETATM    8  C1  UNL     1      -3.338   7.855  11.744  1.00  0.00     0.049 C 
HETATM    9  C17 UNL     1      -4.409   5.944  12.917  1.00  0.00     0.047 C 
BRANCH   7  10
HETATM   10  N1  UNL     1      -5.363   6.823  10.883  1.00  0.00     0.097 N 
HETATM   11  C3  UNL     1      -5.361   6.700   9.453  1.00  0.00     0.273 C 
HETATM   12  C4  UNL     1      -6.796   7.109   9.098  1.00  0.00     0.032 C 
HETATM   13  C5  UNL     1      -7.368   7.791  10.317  1.00  0.00     0.032 C 
HETATM   14  C6  UNL     1      -6.103   7.999  11.171  1.00  0.00     0.273 C 
ENDBRANCH   7  10
ENDBRANCH   4   5
ENDBRANCH   1   4
BRANCH   1  15
HETATM   15  C10 UNL     1      -4.490   1.761  13.927  1.00  0.00     0.265 C 
BRANCH  15  16
HETATM   16  C11 UNL     1      -4.064   1.328  15.284  1.00  0.00     0.213 C 
BRANCH  16  17
HETATM   17  N3  UNL     1      -4.406  -0.093  15.408  1.00  0.00    -0.073 N 
ATOM     18  H33 UNL     1      -4.282  -0.611  14.538  1.00  0.00     0.274 HD
ATOM     19  H32 UNL     1      -3.736  -0.619  15.969  1.00  0.00     0.274 HD
ATOM     20  H31 UNL     1      -5.358  -0.140  15.770  1.00  0.00     0.274 HD
ENDBRANCH  16  17
BRANCH  16  21
HETATM   21  C12 UNL     1      -4.798   2.089  16.344  1.00  0.00     0.018 C 
HETATM   22  C13 UNL     1      -5.495   1.141  17.305  1.00  0.00     0.007 C 
HETATM   23  C14 UNL     1      -6.585   1.974  17.906  1.00  0.00     0.000 C 
HETATM   24  C15 UNL     1      -6.922   3.037  16.906  1.00  0.00     0.000 C 
HETATM   25  C16 UNL     1      -5.911   2.932  15.796  1.00  0.00     0.007 C 
ENDBRANCH  16  21
ENDBRANCH  15  16
ENDBRANCH   1  15
TORSDOF 7
ENDMDL
MODEL 4
REMARK VINA RESULT: -6.149962640      2.156      3.356
REMARK  7 active torsions:
REMARK  status: ('A' for Active; 'I' for Inactive)
REMARK    1  A    between atoms: C2_2  and  N1_3 
REMARK    2  A    between atoms: C8_9  and  C9_10 
REMARK    3  A    between atoms: C9_10  and  N2_11 
REMARK    4  A    between atoms: N2_11  and  C10_14 
REMARK    5  A    between atoms: C10_14  and  C11_15 
REMARK    6  A    between atoms: C11_15  and  N3_16 
REMARK    7  A    between atoms: C11_15  and  C12_20 
ROOT
HETATM    1  N2  UNL     1      -4.469   1.462  12.493  1.00  0.00    -0.073 N 
ATOM      2  H21 UNL     1      -4.304   0.645  11.906  1.00  0.00     0.277 HD
ATOM      3  H22 UNL     1      -5.445   1.642  12.258  1.00  0.00     0.277 HD
ENDROOT
BRANCH   1   4
HETATM    4  C9  UNL     1      -3.643   2.548  12.093  1.00  0.00     0.237 C 
BRANCH   4   5
HETATM    5  C8  UNL     1      -4.324   3.686  11.438  1.00  0.00     0.016 C 
HETATM    6  C7  UNL     1      -3.704   4.408  10.296  1.00  0.00     0.047 C 
HETATM    7  C2  UNL     1      -4.029   5.741  10.933  1.00  0.00     0.157 C 
HETATM    8  C1  UNL     1      -2.868   6.710  10.954  1.00  0.00     0.049 C 
HETATM    9  C17 UNL     1      -4.065   4.969  12.262  1.00  0.00     0.047 C 
BRANCH   7  10
HETATM   10  N1  UNL     1      -5.258   6.356  10.688  1.00  0.00     0.097 N 
HETATM   11  C3  UNL     1      -5.570   6.688   9.328  1.00  0.00     0.273 C 
HETATM   12  C4  UNL     1      -6.912   7.415   9.480  1.00  0.00     0.032 C 
HETATM   13  C5  UNL     1      -7.055   7.763  10.942  1.00  0.00     0.032 C 
HETATM   14  C6  UNL     1      -5.631   7.486  11.460  1.00  0.00     0.273 C 
ENDBRANCH   7  10
ENDBRANCH   4   5
ENDBRANCH   1   4
BRANCH   1  15
HETATM   15  C10 UNL     1      -4.333   1.134  13.866  1.00  0.00     0.265 C 
BRANCH  15  16
HETATM   16  C11 UNL     1      -4.444   2.238  14.857  1.00  0.00     0.213 C 
BRANCH  16  17
HETATM   17  N3  UNL     1      -3.274   2.143  15.736  1.00  0.00    -0.073 N 
ATOM     18  H33 UNL     1      -3.248   2.873  16.448  1.00  0.00     0.274 HD
ATOM     19  H32 UNL     1      -3.312   1.345  16.370  1.00  0.00     0.274 HD
ATOM     20  H31 UNL     1      -2.449   2.139  15.135  1.00  0.00     0.274 HD
ENDBRANCH  16  17
BRANCH  16  21
HETATM   21  C12 UNL     1      -5.679   2.089  15.689  1.00  0.00     0.018 C 
HETATM   22  C13 UNL     1      -6.313   3.443  15.960  1.00  0.00     0.007 C 
HETATM   23  C14 UNL     1      -7.131   3.218  17.195  1.00  0.00     0.000 C 
HETATM   24  C15 UNL     1      -6.490   2.088  17.941  1.00  0.00     0.000 C 
HETATM   25  C16 UNL     1      -5.402   1.539  17.057  1.00  0.00     0.007 C 
ENDBRANCH  16  21
ENDBRANCH  15  16
ENDBRANCH   1  15
TORSDOF 7
ENDMDL
MODEL 5
REMARK VINA RESULT: -6.087972785      0.923      1.572
REMARK  7 active torsions:
REMARK  status: ('A' for Active; 'I' for Inactive)
REMARK    1  A    between atoms: C2_2  and  N1_3 
REMARK    2  A    between atoms: C8_9  and  C9_10 
REMARK    3  A    between atoms: C9_10  and  N2_11 
REMARK    4  A    between atoms: N2_11  and  C10_14 
REMARK    5  A    between atoms: C10_14  and  C11_15 
REMARK    6  A    between atoms: C11_15  and  N3_16 
REMARK    7  A    between atoms: C11_15  and  C12_20 
ROOT
HETATM    1  N2  UNL     1      -3.541   2.582  13.270  1.00  0.00    -0.073 N 
ATOM      2  H21 UNL     1      -2.836   2.979  13.892  1.00  0.00     0.277 HD
ATOM      3  H22 UNL     1      -2.935   2.043  12.653  1.00  0.00     0.277 HD
ENDROOT
BRANCH   1   4
HETATM    4  C9  UNL     1      -4.214   3.607  12.549  1.00  0.00     0.237 C 
BRANCH   4   5
HETATM    5  C8  UNL     1      -3.687   4.980  12.712  1.00  0.00     0.016 C 
HETATM    6  C7  UNL     1      -2.829   5.609  11.674  1.00  0.00     0.047 C 
HETATM    7  C2  UNL     1      -1.850   6.071  12.730  1.00  0.00     0.157 C 
HETATM    8  C1  UNL     1      -0.405   5.772  12.401  1.00  0.00     0.049 C 
HETATM    9  C17 UNL     1      -2.416   4.930  13.591  1.00  0.00     0.047 C 
BRANCH   7  10
HETATM   10  N1  UNL     1      -2.029   7.301  13.364  1.00  0.00     0.097 N 
HETATM   11  C3  UNL     1      -1.682   8.481  12.627  1.00  0.00     0.273 C 
HETATM   12  C4  UNL     1      -1.917   9.584  13.666  1.00  0.00     0.032 C 
HETATM   13  C5  UNL     1      -2.009   8.903  15.010  1.00  0.00     0.032 C 
HETATM   14  C6  UNL     1      -1.504   7.489  14.669  1.00  0.00     0.273 C 
ENDBRANCH   7  10
ENDBRANCH   4   5
ENDBRANCH   1   4
BRANCH   1  15
HETATM   15  C10 UNL     1      -4.422   1.731  13.984  1.00  0.00     0.265 C 
BRANCH  15  16
HETATM   16  C11 UNL     1      -4.034   1.329  15.362  1.00  0.00     0.213 C 
BRANCH  16  17
HETATM   17  N3  UNL     1      -4.386  -0.087  15.510  1.00  0.00    -0.073 N 
ATOM     18  H33 UNL     1      -3.802  -0.576  16.188  1.00  0.00     0.274 HD
ATOM     19  H32 UNL     1      -5.279  -0.231  15.982  1.00  0.00     0.274 HD
ATOM     20  H31 UNL     1      -4.353  -0.501  14.579  1.00  0.00     0.274 HD
ENDBRANCH  16  17
BRANCH  16  21
HETATM   21  C12 UNL     1      -4.790   2.119  16.384  1.00  0.00     0.018 C 
HETATM   22  C13 UNL     1      -5.477   1.198  17.378  1.00  0.00     0.007 C 
HETATM   23  C14 UNL     1      -6.589   2.034  17.936  1.00  0.00     0.000 C 
HETATM   24  C15 UNL     1      -6.937   3.049  16.889  1.00  0.00     0.000 C 
HETATM   25  C16 UNL     1      -5.915   2.917  15.793  1.00  0.00     0.007 C 
ENDBRANCH  16  21
ENDBRANCH  15  16
ENDBRANCH   1  15
TORSDOF 7
ENDMDL
