MODEL 1
REMARK VINA RESULT: -6.108850037      0.000      0.000
REMARK  8 active torsions:
REMARK  status: ('A' for Active; 'I' for Inactive)
REMARK    1  A    between atoms: N1_2  and  C2_5 
REMARK    2  A    between atoms: N4_11  and  N5_12 
REMARK       I    between atoms: N5_12  and  C4_14 
REMARK    3  A    between atoms: C4_14  and  C5_16 
REMARK    4  A    between atoms: C5_16  and  C6_17 
REMARK    5  A    between atoms: C7_21  and  C8_22 
REMARK    6  A    between atoms: C8_22  and  O2_23 
REMARK    7  A    between atoms: N8_25  and  O3_27 
REMARK    8  A    between atoms: C10_32  and  O4_33 
ROOT
HETATM    1  N5  UNL     1      23.431   2.911  17.415  1.00  0.00    -0.252 N 
ATOM      2  H5  UNL     1      24.102   3.554  17.835  1.00  0.00     0.191 HD
HETATM    3  C4  UNL     1      22.581   3.419  16.410  1.00  0.00     0.244 C 
HETATM    4  O1  UNL     1      21.747   2.694  15.860  1.00  0.00    -0.271 OA
ENDROOT
BRANCH   1   5
HETATM    5  N4  UNL     1      23.422   1.587  17.877  1.00  0.00    -0.216 N 
HETATM    6  N3  UNL     1      24.039   0.651  17.060  1.00  0.00    -0.279 N 
HETATM    7  C3  UNL     1      24.350  -0.493  17.486  1.00  0.00     0.198 C 
ATOM      8  H3  UNL     1      24.246   0.895  16.092  1.00  0.00     0.189 HD
HETATM    9  N2  UNL     1      24.102  -0.902  18.791  1.00  0.00    -0.328 N 
HETATM   10  C2  UNL     1      23.170  -0.177  19.564  1.00  0.00     0.333 C 
ATOM     11  H2  UNL     1      24.584  -1.711  19.183  1.00  0.00     0.165 HD
HETATM   12  C9  UNL     1      22.814   1.180  19.102  1.00  0.00     0.243 C 
HETATM   13  O5  UNL     1      21.977  -0.936  19.631  1.00  0.00    -0.334 OA
HETATM   14  C10 UNL     1      21.285   1.091  18.967  1.00  0.00     0.175 C 
HETATM   15  C11 UNL     1      21.015   0.007  19.991  1.00  0.00     0.207 C 
BRANCH  10  16
HETATM   16  N1  UNL     1      23.628  -0.146  20.967  1.00  0.00    -0.025 N 
HETATM   17  C1  UNL     1      24.769   0.702  21.141  1.00  0.00     0.273 C 
ATOM     18  H12 UNL     1      23.809  -1.086  21.319  1.00  0.00     0.282 HD
ATOM     19  H11 UNL     1      22.871   0.119  21.597  1.00  0.00     0.282 HD
ENDBRANCH  10  16
BRANCH  14  20
HETATM   20  O4  UNL     1      20.917   0.636  17.722  1.00  0.00    -0.391 OA
ATOM     21  H4  UNL     1      21.429   1.050  17.037  1.00  0.00     0.210 HD
ENDBRANCH  14  20
ENDBRANCH   1   5
BRANCH   3  22
HETATM   22  C5  UNL     1      22.708   4.839  16.026  1.00  0.00     0.181 C 
BRANCH  22  23
HETATM   23  C6  UNL     1      23.078   4.979  14.605  1.00  0.00     0.099 C 
HETATM   24  N6  UNL     1      22.880   4.111  13.663  1.00  0.00    -0.290 N 
HETATM   25  N7  UNL     1      23.365   4.596  12.451  1.00  0.00    -0.106 NA
ATOM     26  H6  UNL     1      22.432   3.203  13.791  1.00  0.00     0.183 HD
HETATM   27  C7  UNL     1      23.412   6.034  12.596  1.00  0.00     0.275 C 
HETATM   28  N9  UNL     1      23.738   6.115  14.030  1.00  0.00    -0.352 N 
ATOM     29  H9  UNL     1      24.303   6.818  14.505  1.00  0.00     0.163 HD
BRANCH  27  30
HETATM   30  C8  UNL     1      24.521   6.658  11.814  1.00  0.00     0.176 C 
HETATM   31  N8  UNL     1      24.542   7.930  11.753  1.00  0.00    -0.248 N 
ATOM     32  H8  UNL     1      25.298   8.360  11.219  1.00  0.00     0.196 HD
BRANCH  30  33
HETATM   33  O2  UNL     1      25.445   5.832  11.203  1.00  0.00    -0.345 OA
ATOM     34  H2  UNL     1      26.337   5.830  11.528  1.00  0.00     0.219 HD
ENDBRANCH  30  33
BRANCH  31  35
HETATM   35  O3  UNL     1      23.651   8.756  12.335  1.00  0.00    -0.288 OA
ATOM     36  H3  UNL     1      23.827   9.645  12.621  1.00  0.00     0.244 HD
ENDBRANCH  31  35
ENDBRANCH  27  30
ENDBRANCH  22  23
ENDBRANCH   3  22
TORSDOF 8
ENDMDL
MODEL 2
REMARK VINA RESULT: -5.934864472      1.354      2.098
REMARK  8 active torsions:
REMARK  status: ('A' for Active; 'I' for Inactive)
REMARK    1  A    between atoms: N1_2  and  C2_5 
REMARK    2  A    between atoms: N4_11  and  N5_12 
REMARK       I    between atoms: N5_12  and  C4_14 
REMARK    3  A    between atoms: C4_14  and  C5_16 
REMARK    4  A    between atoms: C5_16  and  C6_17 
REMARK    5  A    between atoms: C7_21  and  C8_22 
REMARK    6  A    between atoms: C8_22  and  O2_23 
REMARK    7  A    between atoms: N8_25  and  O3_27 
REMARK    8  A    between atoms: C10_32  and  O4_33 
ROOT
HETATM    1  N5  UNL     1      23.162   2.507  18.446  1.00  0.00    -0.252 N 
ATOM      2  H5  UNL     1      23.754   3.116  19.012  1.00  0.00     0.191 HD
HETATM    3  C4  UNL     1      22.317   3.116  17.495  1.00  0.00     0.244 C 
HETATM    4  O1  UNL     1      21.578   2.436  16.778  1.00  0.00    -0.271 OA
ENDROOT
BRANCH   1   5
HETATM    5  N4  UNL     1      23.249   1.125  18.671  1.00  0.00    -0.216 N 
HETATM    6  N3  UNL     1      23.866   0.382  17.675  1.00  0.00    -0.279 N 
HETATM    7  C3  UNL     1      24.261  -0.795  17.880  1.00  0.00     0.198 C 
ATOM      8  H3  UNL     1      24.003   0.801  16.755  1.00  0.00     0.189 HD
HETATM    9  N2  UNL     1      24.111  -1.437  19.105  1.00  0.00    -0.328 N 
HETATM   10  C2  UNL     1      23.190  -0.913  20.036  1.00  0.00     0.333 C 
ATOM     11  H2  UNL     1      24.657  -2.269  19.326  1.00  0.00     0.165 HD
HETATM   12  C9  UNL     1      22.737   0.478  19.835  1.00  0.00     0.243 C 
HETATM   13  O5  UNL     1      22.044  -1.744  20.028  1.00  0.00    -0.334 OA
HETATM   14  C10 UNL     1      21.209   0.319  19.761  1.00  0.00     0.175 C 
HETATM   15  C11 UNL     1      21.056  -0.937  20.593  1.00  0.00     0.207 C 
BRANCH  10  16
HETATM   16  N1  UNL     1      23.727  -1.093  21.399  1.00  0.00    -0.025 N 
HETATM   17  C1  UNL     1      24.631  -0.045  21.764  1.00  0.00     0.273 C 
ATOM     18  H12 UNL     1      24.161  -2.010  21.508  1.00  0.00     0.282 HD
ATOM     19  H11 UNL     1      22.976  -1.189  22.083  1.00  0.00     0.282 HD
ENDBRANCH  10  16
BRANCH  14  20
HETATM   20  O4  UNL     1      20.793   0.063  18.475  1.00  0.00    -0.391 OA
ATOM     21  H4  UNL     1      20.368   0.820  18.091  1.00  0.00     0.210 HD
ENDBRANCH  14  20
ENDBRANCH   1   5
BRANCH   3  22
HETATM   22  C5  UNL     1      22.335   4.587  17.370  1.00  0.00     0.181 C 
BRANCH  22  23
HETATM   23  C6  UNL     1      22.963   5.010  16.104  1.00  0.00     0.099 C 
HETATM   24  N6  UNL     1      23.820   5.970  15.947  1.00  0.00    -0.290 N 
HETATM   25  N7  UNL     1      24.187   6.073  14.607  1.00  0.00    -0.106 NA
ATOM     26  H6  UNL     1      24.174   6.565  16.697  1.00  0.00     0.183 HD
HETATM   27  C7  UNL     1      23.899   4.782  14.022  1.00  0.00     0.275 C 
HETATM   28  N9  UNL     1      22.714   4.423  14.820  1.00  0.00    -0.352 N 
ATOM     29  H9  UNL     1      21.903   3.880  14.526  1.00  0.00     0.163 HD
BRANCH  27  30
HETATM   30  C8  UNL     1      23.503   4.874  12.585  1.00  0.00     0.176 C 
HETATM   31  N8  UNL     1      23.151   3.793  12.011  1.00  0.00    -0.248 N 
ATOM     32  H8  UNL     1      22.881   3.852  11.029  1.00  0.00     0.196 HD
BRANCH  30  33
HETATM   33  O2  UNL     1      23.546   6.109  11.966  1.00  0.00    -0.345 OA
ATOM     34  H2  UNL     1      23.281   6.170  11.056  1.00  0.00     0.219 HD
ENDBRANCH  30  33
BRANCH  31  35
HETATM   35  O3  UNL     1      23.106   2.578  12.592  1.00  0.00    -0.288 OA
ATOM     36  H3  UNL     1      22.952   1.756  12.141  1.00  0.00     0.244 HD
ENDBRANCH  31  35
ENDBRANCH  27  30
ENDBRANCH  22  23
ENDBRANCH   3  22
TORSDOF 8
ENDMDL
MODEL 3
REMARK VINA RESULT: -5.923506442      2.196      8.647
REMARK  8 active torsions:
REMARK  status: ('A' for Active; 'I' for Inactive)
REMARK    1  A    between atoms: N1_2  and  C2_5 
REMARK    2  A    between atoms: N4_11  and  N5_12 
REMARK       I    between atoms: N5_12  and  C4_14 
REMARK    3  A    between atoms: C4_14  and  C5_16 
REMARK    4  A    between atoms: C5_16  and  C6_17 
REMARK    5  A    between atoms: C7_21  and  C8_22 
REMARK    6  A    between atoms: C8_22  and  O2_23 
REMARK    7  A    between atoms: N8_25  and  O3_27 
REMARK    8  A    between atoms: C10_32  and  O4_33 
ROOT
HETATM    1  N5  UNL     1      24.106   6.334  14.109  1.00  0.00    -0.252 N 
ATOM      2  H5  UNL     1      24.625   6.869  14.805  1.00  0.00     0.191 HD
HETATM    3  C4  UNL     1      23.095   5.466  14.572  1.00  0.00     0.244 C 
HETATM    4  O1  UNL     1      22.429   4.792  13.782  1.00  0.00    -0.271 OA
ENDROOT
BRANCH   1   5
HETATM    5  N4  UNL     1      24.450   6.515  12.761  1.00  0.00    -0.216 N 
HETATM    6  N3  UNL     1      23.471   7.074  11.952  1.00  0.00    -0.279 N 
HETATM    7  C3  UNL     1      23.745   7.548  10.819  1.00  0.00     0.198 C 
ATOM      8  H3  UNL     1      22.507   7.101  12.284  1.00  0.00     0.189 HD
HETATM    9  N2  UNL     1      25.034   7.549  10.295  1.00  0.00    -0.328 N 
HETATM   10  C2  UNL     1      25.999   6.693  10.867  1.00  0.00     0.333 C 
ATOM     11  H2  UNL     1      25.277   8.158   9.513  1.00  0.00     0.165 HD
HETATM   12  C9  UNL     1      25.713   6.150  12.210  1.00  0.00     0.243 C 
HETATM   13  O5  UNL     1      26.182   5.598   9.989  1.00  0.00    -0.334 OA
HETATM   14  C10 UNL     1      25.806   4.633  11.978  1.00  0.00     0.175 C 
HETATM   15  C11 UNL     1      26.763   4.626  10.804  1.00  0.00     0.207 C 
BRANCH  10  16
HETATM   16  N1  UNL     1      27.313   7.365  10.845  1.00  0.00    -0.025 N 
HETATM   17  C1  UNL     1      27.416   8.376  11.854  1.00  0.00     0.273 C 
ATOM     18  H12 UNL     1      27.520   7.743   9.920  1.00  0.00     0.282 HD
ATOM     19  H11 UNL     1      28.074   6.691  10.918  1.00  0.00     0.282 HD
ENDBRANCH  10  16
BRANCH  14  20
HETATM   20  O4  UNL     1      24.598   4.112  11.578  1.00  0.00    -0.391 OA
ATOM     21  H4  UNL     1      24.268   4.556  10.805  1.00  0.00     0.210 HD
ENDBRANCH  14  20
ENDBRANCH   1   5
BRANCH   3  22
HETATM   22  C5  UNL     1      22.845   5.381  16.025  1.00  0.00     0.181 C 
BRANCH  22  23
HETATM   23  C6  UNL     1      22.827   3.980  16.485  1.00  0.00     0.099 C 
HETATM   24  N6  UNL     1      23.307   2.952  15.858  1.00  0.00    -0.290 N 
HETATM   25  N7  UNL     1      23.104   1.794  16.606  1.00  0.00    -0.106 NA
ATOM     26  H6  UNL     1      23.766   2.986  14.948  1.00  0.00     0.183 HD
HETATM   27  C7  UNL     1      22.931   2.236  17.972  1.00  0.00     0.275 C 
HETATM   28  N9  UNL     1      22.258   3.521  17.719  1.00  0.00    -0.352 N 
ATOM     29  H9  UNL     1      21.549   3.980  18.291  1.00  0.00     0.163 HD
BRANCH  27  30
HETATM   30  C8  UNL     1      22.012   1.355  18.752  1.00  0.00     0.176 C 
HETATM   31  N8  UNL     1      20.889   1.073  18.220  1.00  0.00    -0.248 N 
ATOM     32  H8  UNL     1      20.259   0.473  18.751  1.00  0.00     0.196 HD
BRANCH  30  33
HETATM   33  O2  UNL     1      22.422   0.907  19.993  1.00  0.00    -0.345 OA
ATOM     34  H2  UNL     1      22.525  -0.028  20.127  1.00  0.00     0.219 HD
ENDBRANCH  30  33
BRANCH  31  35
HETATM   35  O3  UNL     1      20.466   1.502  17.015  1.00  0.00    -0.288 OA
ATOM     36  H3  UNL     1      19.616   1.319  16.632  1.00  0.00     0.244 HD
ENDBRANCH  31  35
ENDBRANCH  27  30
ENDBRANCH  22  23
ENDBRANCH   3  22
TORSDOF 8
ENDMDL
MODEL 4
REMARK VINA RESULT: -5.779262347      2.154      8.245
REMARK  8 active torsions:
REMARK  status: ('A' for Active; 'I' for Inactive)
REMARK    1  A    between atoms: N1_2  and  C2_5 
REMARK    2  A    between atoms: N4_11  and  N5_12 
REMARK       I    between atoms: N5_12  and  C4_14 
REMARK    3  A    between atoms: C4_14  and  C5_16 
REMARK    4  A    between atoms: C5_16  and  C6_17 
REMARK    5  A    between atoms: C7_21  and  C8_22 
REMARK    6  A    between atoms: C8_22  and  O2_23 
REMARK    7  A    between atoms: N8_25  and  O3_27 
REMARK    8  A    between atoms: C10_32  and  O4_33 
ROOT
HETATM    1  N5  UNL     1      24.447   5.005  16.592  1.00  0.00    -0.252 N 
ATOM      2  H5  UNL     1      25.310   5.169  17.109  1.00  0.00     0.191 HD
HETATM    3  C4  UNL     1      23.827   3.746  16.735  1.00  0.00     0.244 C 
HETATM    4  O1  UNL     1      22.779   3.485  16.138  1.00  0.00    -0.271 OA
ENDROOT
BRANCH   1   5
HETATM    5  N4  UNL     1      23.962   6.050  15.790  1.00  0.00    -0.216 N 
HETATM    6  N3  UNL     1      22.788   6.653  16.218  1.00  0.00    -0.279 N 
HETATM    7  C3  UNL     1      22.415   7.765  15.762  1.00  0.00     0.198 C 
ATOM      8  H3  UNL     1      22.214   6.183  16.919  1.00  0.00     0.189 HD
HETATM    9  N2  UNL     1      23.140   8.468  14.806  1.00  0.00    -0.328 N 
HETATM   10  C2  UNL     1      24.122   7.781  14.060  1.00  0.00     0.333 C 
ATOM     11  H2  UNL     1      22.966   9.460  14.647  1.00  0.00     0.165 HD
HETATM   12  C9  UNL     1      24.598   6.489  14.592  1.00  0.00     0.243 C 
HETATM   13  O5  UNL     1      23.599   7.548  12.766  1.00  0.00    -0.334 OA
HETATM   14  C10 UNL     1      24.319   5.529  13.424  1.00  0.00     0.175 C 
HETATM   15  C11 UNL     1      24.399   6.516  12.277  1.00  0.00     0.207 C 
BRANCH  10  16
HETATM   16  N1  UNL     1      25.257   8.691  13.806  1.00  0.00    -0.025 N 
HETATM   17  C1  UNL     1      26.104   8.826  14.952  1.00  0.00     0.273 C 
ATOM     18  H12 UNL     1      24.935   9.601  13.474  1.00  0.00     0.282 HD
ATOM     19  H11 UNL     1      25.788   8.399  12.986  1.00  0.00     0.282 HD
ENDBRANCH  10  16
BRANCH  14  20
HETATM   20  O4  UNL     1      23.045   5.017  13.490  1.00  0.00    -0.391 OA
ATOM     21  H4  UNL     1      23.021   4.111  13.204  1.00  0.00     0.210 HD
ENDBRANCH  14  20
ENDBRANCH   1   5
BRANCH   3  22
HETATM   22  C5  UNL     1      24.455   2.744  17.618  1.00  0.00     0.181 C 
BRANCH  22  23
HETATM   23  C6  UNL     1      23.547   1.610  17.874  1.00  0.00     0.099 C 
HETATM   24  N6  UNL     1      23.628   0.422  17.362  1.00  0.00    -0.290 N 
HETATM   25  N7  UNL     1      22.593  -0.380  17.839  1.00  0.00    -0.106 NA
ATOM     26  H6  UNL     1      24.346   0.117  16.704  1.00  0.00     0.183 HD
HETATM   27  C7  UNL     1      22.165   0.231  19.078  1.00  0.00     0.275 C 
HETATM   28  N9  UNL     1      22.403   1.644  18.738  1.00  0.00    -0.352 N 
ATOM     29  H9  UNL     1      21.875   2.460  19.046  1.00  0.00     0.163 HD
BRANCH  27  30
HETATM   30  C8  UNL     1      20.708   0.038  19.345  1.00  0.00     0.176 C 
HETATM   31  N8  UNL     1      19.905   0.310  18.395  1.00  0.00    -0.248 N 
ATOM     32  H8  UNL     1      18.909   0.180  18.574  1.00  0.00     0.196 HD
BRANCH  30  33
HETATM   33  O2  UNL     1      20.319  -0.412  20.592  1.00  0.00    -0.345 OA
ATOM     34  H2  UNL     1      20.710  -0.013  21.361  1.00  0.00     0.219 HD
ENDBRANCH  30  33
BRANCH  31  35
HETATM   35  O3  UNL     1      20.260   0.754  17.173  1.00  0.00    -0.288 OA
ATOM     36  H3  UNL     1      21.150   0.908  16.880  1.00  0.00     0.244 HD
ENDBRANCH  31  35
ENDBRANCH  27  30
ENDBRANCH  22  23
ENDBRANCH   3  22
TORSDOF 8
ENDMDL
MODEL 5
REMARK VINA RESULT: -5.765232051      1.447      1.542
REMARK  8 active torsions:
REMARK  status: ('A' for Active; 'I' for Inactive)
REMARK    1  A    between atoms: N1_2  and  C2_5 
REMARK    2  A    between atoms: N4_11  and  N5_12 
REMARK       I    between atoms: N5_12  and  C4_14 
REMARK    3  A    between atoms: C4_14  and  C5_16 
REMARK    4  A    between atoms: C5_16  and  C6_17 
REMARK    5  A    between atoms: C7_21  and  C8_22 
REMARK    6  A    between atoms: C8_22  and  O2_23 
REMARK    7  A    between atoms: N8_25  and  O3_27 
REMARK    8  A    between atoms: C10_32  and  O4_33 
ROOT
HETATM    1  N5  UNL     1      23.990   3.354  17.496  1.00  0.00    -0.252 N 
ATOM      2  H5  UNL     1      24.517   3.799  18.247  1.00  0.00     0.191 HD
HETATM    3  C4  UNL     1      23.794   4.090  16.309  1.00  0.00     0.244 C 
HETATM    4  O1  UNL     1      23.167   3.608  15.362  1.00  0.00    -0.271 OA
ENDROOT
BRANCH   1   5
HETATM    5  N4  UNL     1      23.512   2.054  17.720  1.00  0.00    -0.216 N 
HETATM    6  N3  UNL     1      24.074   1.054  16.939  1.00  0.00    -0.279 N 
HETATM    7  C3  UNL     1      23.950  -0.163  17.236  1.00  0.00     0.198 C 
ATOM      8  H3  UNL     1      24.602   1.313  16.105  1.00  0.00     0.189 HD
HETATM    9  N2  UNL     1      23.247  -0.596  18.355  1.00  0.00    -0.328 N 
HETATM   10  C2  UNL     1      22.353   0.298  18.982  1.00  0.00     0.333 C 
ATOM     11  H2  UNL     1      23.376  -1.541  18.717  1.00  0.00     0.165 HD
HETATM   12  C9  UNL     1      22.501   1.735  18.673  1.00  0.00     0.243 C 
HETATM   13  O5  UNL     1      21.037  -0.085  18.628  1.00  0.00    -0.334 OA
HETATM   14  C10 UNL     1      21.102   2.105  18.153  1.00  0.00     0.175 C 
HETATM   15  C11 UNL     1      20.286   1.061  18.888  1.00  0.00     0.207 C 
BRANCH  10  16
HETATM   16  N1  UNL     1      22.388   0.072  20.440  1.00  0.00    -0.025 N 
HETATM   17  C1  UNL     1      23.719  -0.158  20.916  1.00  0.00     0.273 C 
ATOM     18  H12 UNL     1      21.762  -0.687  20.713  1.00  0.00     0.282 HD
ATOM     19  H11 UNL     1      21.942   0.838  20.944  1.00  0.00     0.282 HD
ENDBRANCH  10  16
BRANCH  14  20
HETATM   20  O4  UNL     1      20.997   1.888  16.799  1.00  0.00    -0.391 OA
ATOM     21  H4  UNL     1      20.377   2.487  16.399  1.00  0.00     0.210 HD
ENDBRANCH  14  20
ENDBRANCH   1   5
BRANCH   3  22
HETATM   22  C5  UNL     1      24.359   5.451  16.219  1.00  0.00     0.181 C 
BRANCH  22  23
HETATM   23  C6  UNL     1      24.570   5.852  14.815  1.00  0.00     0.099 C 
HETATM   24  N6  UNL     1      25.599   5.576  14.076  1.00  0.00    -0.290 N 
HETATM   25  N7  UNL     1      25.441   6.125  12.806  1.00  0.00    -0.106 NA
ATOM     26  H6  UNL     1      26.408   5.035  14.382  1.00  0.00     0.183 HD
HETATM   27  C7  UNL     1      24.018   6.320  12.638  1.00  0.00     0.275 C 
HETATM   28  N9  UNL     1      23.658   6.634  14.031  1.00  0.00    -0.352 N 
ATOM     29  H9  UNL     1      22.928   7.264  14.363  1.00  0.00     0.163 HD
BRANCH  27  30
HETATM   30  C8  UNL     1      23.693   7.497  11.779  1.00  0.00     0.176 C 
HETATM   31  N8  UNL     1      24.170   8.624  12.135  1.00  0.00    -0.248 N 
ATOM     32  H8  UNL     1      23.949   9.430  11.551  1.00  0.00     0.196 HD
BRANCH  30  33
HETATM   33  O2  UNL     1      22.899   7.303  10.665  1.00  0.00    -0.345 OA
ATOM     34  H2  UNL     1      23.167   6.656  10.023  1.00  0.00     0.219 HD
ENDBRANCH  30  33
BRANCH  31  35
HETATM   35  O3  UNL     1      24.942   8.838  13.219  1.00  0.00    -0.288 OA
ATOM     36  H3  UNL     1      25.241   9.687  13.523  1.00  0.00     0.244 HD
ENDBRANCH  31  35
ENDBRANCH  27  30
ENDBRANCH  22  23
ENDBRANCH   3  22
TORSDOF 8
ENDMDL
