MODEL 1
REMARK VINA RESULT: -6.155132590      0.000      0.000
REMARK  7 active torsions:
REMARK  status: ('A' for Active; 'I' for Inactive)
REMARK    1  A    between atoms: N1_1  and  C1_4 
REMARK       I    between atoms: N3_8  and  C3_10 
REMARK       I    between atoms: C3_10  and  N4_11 
REMARK       I    between atoms: C3_10  and  N5_15 
REMARK    2  A    between atoms: C6_24  and  N7_25 
REMARK    3  A    between atoms: N7_25  and  C7_26 
REMARK    4  A    between atoms: C7_26  and  O2_27 
REMARK    5  A    between atoms: C7_26  and  C8_29 
REMARK    6  A    between atoms: C8_29  and  N8_30 
REMARK    7  A    between atoms: N9_35  and  C10_36 
ROOT
HETATM    1  C1  UNL     1      24.673   6.231  15.515  1.00  0.00     0.143 C 
HETATM    2  N2  UNL     1      24.516   6.198  14.180  1.00  0.00    -0.175 N 
ATOM      3  H2  UNL     1      25.115   6.824  13.642  1.00  0.00     0.186 HD
HETATM    4  C2  UNL     1      23.649   5.423  13.455  1.00  0.00     0.685 C 
HETATM    5  N3  UNL     1      23.326   5.805  12.278  1.00  0.00    -0.173 N 
ATOM      6  H3  UNL     1      22.681   5.216  11.754  1.00  0.00     0.181 HD
HETATM    7  C3  UNL     1      23.799   6.994  11.640  1.00  0.00     0.494 C 
HETATM    8  N4  UNL     1      22.887   7.444  10.589  1.00  0.00    -0.032 N 
ATOM      9  H41 UNL     1      23.224   8.291  10.133  1.00  0.00     0.278 HD
ATOM     10  H42 UNL     1      21.940   7.565  10.946  1.00  0.00     0.278 HD
ATOM     11  H43 UNL     1      22.708   6.704   9.910  1.00  0.00     0.278 HD
HETATM   12  N5  UNL     1      25.067   6.708  11.002  1.00  0.00    -0.032 N 
ATOM     13  H51 UNL     1      25.404   7.556  10.546  1.00  0.00     0.278 HD
ATOM     14  H52 UNL     1      25.012   5.917  10.361  1.00  0.00     0.278 HD
ATOM     15  H53 UNL     1      25.750   6.317  11.651  1.00  0.00     0.278 HD
HETATM   16  N6  UNL     1      23.064   4.253  13.850  1.00  0.00    -0.155 N 
ATOM     17  H6  UNL     1      22.616   3.704  13.115  1.00  0.00     0.187 HD
HETATM   18  C4  UNL     1      23.006   3.733  15.103  1.00  0.00     0.275 C 
HETATM   19  O1  UNL     1      22.835   2.530  15.231  1.00  0.00    -0.267 OA
HETATM   20  C5  UNL     1      23.122   4.426  16.265  1.00  0.00     0.106 A 
HETATM   21  C6  UNL     1      22.484   4.080  17.468  1.00  0.00     0.144 A 
HETATM   22  C9  UNL     1      22.918   5.061  18.339  1.00  0.00     0.161 A 
HETATM   23  N9  UNL     1      23.751   5.931  17.715  1.00  0.00    -0.147 N 
HETATM   24  C11 UNL     1      23.894   5.565  16.445  1.00  0.00     0.119 A 
ENDROOT
BRANCH   1  25
HETATM   25  N1  UNL     1      25.630   6.929  15.992  1.00  0.00    -0.383 N 
ATOM     26  H12 UNL     1      26.420   7.082  15.366  1.00  0.00     0.157 HD
ATOM     27  H11 UNL     1      25.538   7.284  16.943  1.00  0.00     0.157 HD
ENDBRANCH   1  25
BRANCH  23  28
HETATM   28  C10 UNL     1      24.382   7.061  18.326  1.00  0.00     0.720 A 
HETATM   29  N10 UNL     1      25.521   7.108  19.034  1.00  0.00    -0.114 N 
HETATM   30  N11 UNL     1      25.731   8.344  19.412  1.00  0.00    -0.213 N 
ATOM     31  H10 UNL     1      26.125   6.312  19.242  1.00  0.00     0.207 HD
HETATM   32  N12 UNL     1      24.759   9.105  18.973  1.00  0.00    -0.213 N 
ATOM     33  H11 UNL     1      26.528   8.664  19.964  1.00  0.00     0.210 HD
HETATM   34  N13 UNL     1      23.927   8.331  18.305  1.00  0.00    -0.114 N 
ATOM     35  H12 UNL     1      24.664  10.110  19.119  1.00  0.00     0.210 HD
ATOM     36  H13 UNL     1      23.072   8.644  17.844  1.00  0.00     0.207 HD
ENDBRANCH  23  28
BRANCH  21  37
HETATM   37  N7  UNL     1      21.664   2.969  17.608  1.00  0.00    -0.381 NA
BRANCH  37  38
HETATM   38  C7  UNL     1      20.887   1.915  17.741  1.00  0.00     0.216 C 
BRANCH  38  39
HETATM   39  O2  UNL     1      20.245   1.372  16.723  1.00  0.00    -0.338 OA
ATOM     40  H2  UNL     1      20.151   0.433  16.620  1.00  0.00     0.220 HD
ENDBRANCH  38  39
BRANCH  38  41
HETATM   41  C8  UNL     1      20.555   1.121  18.979  1.00  0.00     0.329 C 
BRANCH  41  42
HETATM   42  N8  UNL     1      19.783  -0.012  18.611  1.00  0.00    -0.071 N 
ATOM     43  H83 UNL     1      19.532  -0.007  17.622  1.00  0.00     0.274 HD
ATOM     44  H82 UNL     1      20.330  -0.872  18.616  1.00  0.00     0.274 HD
ATOM     45  H81 UNL     1      18.965  -0.069  19.217  1.00  0.00     0.274 HD
ENDBRANCH  41  42
ENDBRANCH  38  41
ENDBRANCH  37  38
ENDBRANCH  21  37
TORSDOF 7
ENDMDL
MODEL 2
REMARK VINA RESULT: -5.364278285      4.284      8.616
REMARK  7 active torsions:
REMARK  status: ('A' for Active; 'I' for Inactive)
REMARK    1  A    between atoms: N1_1  and  C1_4 
REMARK       I    between atoms: N3_8  and  C3_10 
REMARK       I    between atoms: C3_10  and  N4_11 
REMARK       I    between atoms: C3_10  and  N5_15 
REMARK    2  A    between atoms: C6_24  and  N7_25 
REMARK    3  A    between atoms: N7_25  and  C7_26 
REMARK    4  A    between atoms: C7_26  and  O2_27 
REMARK    5  A    between atoms: C7_26  and  C8_29 
REMARK    6  A    between atoms: C8_29  and  N8_30 
REMARK    7  A    between atoms: N9_35  and  C10_36 
ROOT
HETATM    1  C1  UNL     1      23.348  -0.366  21.253  1.00  0.00     0.143 C 
HETATM    2  N2  UNL     1      22.251  -1.134  21.378  1.00  0.00    -0.175 N 
ATOM      3  H2  UNL     1      22.214  -1.732  22.204  1.00  0.00     0.186 HD
HETATM    4  C2  UNL     1      21.178  -1.210  20.530  1.00  0.00     0.685 C 
HETATM    5  N3  UNL     1      20.450  -2.262  20.559  1.00  0.00    -0.173 N 
ATOM      6  H3  UNL     1      19.655  -2.300  19.921  1.00  0.00     0.181 HD
HETATM    7  C3  UNL     1      20.663  -3.387  21.415  1.00  0.00     0.494 C 
HETATM    8  N4  UNL     1      20.056  -4.602  20.873  1.00  0.00    -0.032 N 
ATOM      9  H41 UNL     1      20.207  -5.405  21.484  1.00  0.00     0.278 HD
ATOM     10  H42 UNL     1      20.381  -4.789  19.925  1.00  0.00     0.278 HD
ATOM     11  H43 UNL     1      19.064  -4.467  20.677  1.00  0.00     0.278 HD
HETATM   12  N5  UNL     1      20.025  -3.131  22.690  1.00  0.00    -0.032 N 
ATOM     13  H51 UNL     1      20.177  -3.934  23.300  1.00  0.00     0.278 HD
ATOM     14  H52 UNL     1      19.037  -2.897  22.591  1.00  0.00     0.278 HD
ATOM     15  H53 UNL     1      20.337  -2.256  23.112  1.00  0.00     0.278 HD
HETATM   16  N6  UNL     1      20.777  -0.270  19.622  1.00  0.00    -0.155 N 
ATOM     17  H6  UNL     1      19.845  -0.396  19.227  1.00  0.00     0.187 HD
HETATM   18  C4  UNL     1      21.470   0.812  19.184  1.00  0.00     0.275 C 
HETATM   19  O1  UNL     1      20.851   1.757  18.720  1.00  0.00    -0.267 OA
HETATM   20  C5  UNL     1      22.820   0.963  19.207  1.00  0.00     0.106 A 
HETATM   21  C6  UNL     1      23.557   1.703  18.268  1.00  0.00     0.144 A 
HETATM   22  C9  UNL     1      24.856   1.568  18.721  1.00  0.00     0.161 A 
HETATM   23  N9  UNL     1      24.902   0.809  19.844  1.00  0.00    -0.147 N 
HETATM   24  C11 UNL     1      23.670   0.425  20.164  1.00  0.00     0.119 A 
ENDROOT
BRANCH   1  25
HETATM   25  N1  UNL     1      24.179  -0.341  22.221  1.00  0.00    -0.383 N 
ATOM     26  H12 UNL     1      23.955  -0.943  23.013  1.00  0.00     0.157 HD
ATOM     27  H11 UNL     1      24.998   0.261  22.136  1.00  0.00     0.157 HD
ENDBRANCH   1  25
BRANCH  23  28
HETATM   28  C10 UNL     1      26.087   0.474  20.572  1.00  0.00     0.720 A 
HETATM   29  N10 UNL     1      26.727   1.189  21.511  1.00  0.00    -0.114 N 
HETATM   30  N11 UNL     1      27.773   0.512  21.915  1.00  0.00    -0.213 N 
ATOM     31  H10 UNL     1      26.446   2.108  21.853  1.00  0.00     0.207 HD
HETATM   32  N12 UNL     1      27.835  -0.624  21.266  1.00  0.00    -0.213 N 
ATOM     33  H11 UNL     1      28.437   0.822  22.626  1.00  0.00     0.210 HD
HETATM   34  N13 UNL     1      26.807  -0.659  20.441  1.00  0.00    -0.114 N 
ATOM     35  H12 UNL     1      28.545  -1.347  21.377  1.00  0.00     0.210 HD
ATOM     36  H13 UNL     1      26.590  -1.425  19.802  1.00  0.00     0.207 HD
ENDBRANCH  23  28
BRANCH  21  37
HETATM   37  N7  UNL     1      22.979   2.383  17.205  1.00  0.00    -0.381 NA
BRANCH  37  38
HETATM   38  C7  UNL     1      22.430   3.028  16.198  1.00  0.00     0.216 C 
BRANCH  38  39
HETATM   39  O2  UNL     1      21.273   2.672  15.670  1.00  0.00    -0.338 OA
ATOM     40  H2  UNL     1      20.845   3.176  14.989  1.00  0.00     0.220 HD
ENDBRANCH  38  39
BRANCH  38  41
HETATM   41  C8  UNL     1      22.931   4.237  15.449  1.00  0.00     0.329 C 
BRANCH  41  42
HETATM   42  N8  UNL     1      22.801   4.008  14.055  1.00  0.00    -0.071 N 
ATOM     43  H83 UNL     1      21.906   3.583  13.813  1.00  0.00     0.274 HD
ATOM     44  H82 UNL     1      22.695   4.874  13.528  1.00  0.00     0.274 HD
ATOM     45  H81 UNL     1      23.593   3.452  13.732  1.00  0.00     0.274 HD
ENDBRANCH  41  42
ENDBRANCH  38  41
ENDBRANCH  37  38
ENDBRANCH  21  37
TORSDOF 7
ENDMDL
MODEL 3
REMARK VINA RESULT: -5.270272172      3.071      5.220
REMARK  7 active torsions:
REMARK  status: ('A' for Active; 'I' for Inactive)
REMARK    1  A    between atoms: N1_1  and  C1_4 
REMARK       I    between atoms: N3_8  and  C3_10 
REMARK       I    between atoms: C3_10  and  N4_11 
REMARK       I    between atoms: C3_10  and  N5_15 
REMARK    2  A    between atoms: C6_24  and  N7_25 
REMARK    3  A    between atoms: N7_25  and  C7_26 
REMARK    4  A    between atoms: C7_26  and  O2_27 
REMARK    5  A    between atoms: C7_26  and  C8_29 
REMARK    6  A    between atoms: C8_29  and  N8_30 
REMARK    7  A    between atoms: N9_35  and  C10_36 
ROOT
HETATM    1  C1  UNL     1      23.028   5.563  14.941  1.00  0.00     0.143 C 
HETATM    2  N2  UNL     1      23.396   6.350  13.915  1.00  0.00    -0.175 N 
ATOM      3  H2  UNL     1      23.609   5.875  13.038  1.00  0.00     0.186 HD
HETATM    4  C2  UNL     1      23.519   7.715  13.907  1.00  0.00     0.685 C 
HETATM    5  N3  UNL     1      24.267   8.255  13.021  1.00  0.00    -0.173 N 
ATOM      6  H3  UNL     1      24.346   9.271  13.029  1.00  0.00     0.181 HD
HETATM    7  C3  UNL     1      25.002   7.546  12.020  1.00  0.00     0.494 C 
HETATM    8  N4  UNL     1      26.141   8.322  11.533  1.00  0.00    -0.032 N 
ATOM      9  H41 UNL     1      26.665   7.817  10.818  1.00  0.00     0.278 HD
ATOM     10  H42 UNL     1      26.746   8.616  12.299  1.00  0.00     0.278 HD
ATOM     11  H43 UNL     1      25.849   9.241  11.198  1.00  0.00     0.278 HD
HETATM   12  N5  UNL     1      24.136   7.311  10.884  1.00  0.00    -0.032 N 
ATOM     13  H51 UNL     1      24.660   6.806  10.170  1.00  0.00     0.278 HD
ATOM     14  H52 UNL     1      23.720   8.172  10.526  1.00  0.00     0.278 HD
ATOM     15  H53 UNL     1      23.272   6.835  11.144  1.00  0.00     0.278 HD
HETATM   16  N6  UNL     1      22.922   8.601  14.760  1.00  0.00    -0.155 N 
ATOM     17  H6  UNL     1      22.954   9.582  14.482  1.00  0.00     0.187 HD
HETATM   18  C4  UNL     1      22.293   8.332  15.932  1.00  0.00     0.275 C 
HETATM   19  O1  UNL     1      21.471   9.132  16.353  1.00  0.00    -0.267 OA
HETATM   20  C5  UNL     1      22.482   7.235  16.711  1.00  0.00     0.106 A 
HETATM   21  C6  UNL     1      22.357   7.219  18.110  1.00  0.00     0.144 A 
HETATM   22  C9  UNL     1      22.627   5.901  18.427  1.00  0.00     0.161 A 
HETATM   23  N9  UNL     1      22.893   5.178  17.311  1.00  0.00    -0.147 N 
HETATM   24  C11 UNL     1      22.811   5.970  16.246  1.00  0.00     0.119 A 
ENDROOT
BRANCH   1  25
HETATM   25  N1  UNL     1      22.846   4.321  14.711  1.00  0.00    -0.383 N 
ATOM     26  H12 UNL     1      22.243   4.101  13.919  1.00  0.00     0.157 HD
ATOM     27  H11 UNL     1      23.312   3.646  15.318  1.00  0.00     0.157 HD
ENDBRANCH   1  25
BRANCH  23  28
HETATM   28  C10 UNL     1      23.210   3.783  17.281  1.00  0.00     0.720 A 
HETATM   29  N10 UNL     1      22.378   2.731  17.332  1.00  0.00    -0.114 N 
HETATM   30  N11 UNL     1      23.087   1.630  17.281  1.00  0.00    -0.213 N 
ATOM     31  H10 UNL     1      21.361   2.779  17.399  1.00  0.00     0.207 HD
HETATM   32  N12 UNL     1      24.359   1.936  17.199  1.00  0.00    -0.213 N 
ATOM     33  H11 UNL     1      22.708   0.683  17.301  1.00  0.00     0.210 HD
HETATM   34  N13 UNL     1      24.447   3.250  17.197  1.00  0.00    -0.114 N 
ATOM     35  H12 UNL     1      25.137   1.278  17.147  1.00  0.00     0.210 HD
ATOM     36  H13 UNL     1      25.315   3.783  17.142  1.00  0.00     0.207 HD
ENDBRANCH  23  28
BRANCH  21  37
HETATM   37  N7  UNL     1      22.007   8.333  18.861  1.00  0.00    -0.381 NA
BRANCH  37  38
HETATM   38  C7  UNL     1      21.675   9.389  19.573  1.00  0.00     0.216 C 
BRANCH  38  39
HETATM   39  O2  UNL     1      20.618  10.130  19.295  1.00  0.00    -0.338 OA
ATOM     40  H2  UNL     1      20.603  11.070  19.432  1.00  0.00     0.220 HD
ENDBRANCH  38  39
BRANCH  38  41
HETATM   41  C8  UNL     1      22.352   9.977  20.785  1.00  0.00     0.329 C 
BRANCH  41  42
HETATM   42  N8  UNL     1      23.519   9.224  21.078  1.00  0.00    -0.071 N 
ATOM     43  H83 UNL     1      23.783   9.285  22.061  1.00  0.00     0.274 HD
ATOM     44  H82 UNL     1      23.352   8.220  21.036  1.00  0.00     0.274 HD
ATOM     45  H81 UNL     1      24.271   9.519  20.455  1.00  0.00     0.274 HD
ENDBRANCH  41  42
ENDBRANCH  38  41
ENDBRANCH  37  38
ENDBRANCH  21  37
TORSDOF 7
ENDMDL
MODEL 4
REMARK VINA RESULT: -5.174278170      1.373      1.594
REMARK  7 active torsions:
REMARK  status: ('A' for Active; 'I' for Inactive)
REMARK    1  A    between atoms: N1_1  and  C1_4 
REMARK       I    between atoms: N3_8  and  C3_10 
REMARK       I    between atoms: C3_10  and  N4_11 
REMARK       I    between atoms: C3_10  and  N5_15 
REMARK    2  A    between atoms: C6_24  and  N7_25 
REMARK    3  A    between atoms: N7_25  and  C7_26 
REMARK    4  A    between atoms: C7_26  and  O2_27 
REMARK    5  A    between atoms: C7_26  and  C8_29 
REMARK    6  A    between atoms: C8_29  and  N8_30 
REMARK    7  A    between atoms: N9_35  and  C10_36 
ROOT
HETATM    1  C1  UNL     1      25.514   5.512  16.148  1.00  0.00     0.143 C 
HETATM    2  N2  UNL     1      25.176   5.945  14.921  1.00  0.00    -0.175 N 
ATOM      3  H2  UNL     1      25.852   6.550  14.456  1.00  0.00     0.186 HD
HETATM    4  C2  UNL     1      24.032   5.670  14.220  1.00  0.00     0.685 C 
HETATM    5  N3  UNL     1      23.678   6.473  13.289  1.00  0.00    -0.173 N 
ATOM      6  H3  UNL     1      22.824   6.252  12.777  1.00  0.00     0.181 HD
HETATM    7  C3  UNL     1      24.385   7.656  12.910  1.00  0.00     0.494 C 
HETATM    8  N4  UNL     1      23.509   8.620  12.243  1.00  0.00    -0.032 N 
ATOM      9  H41 UNL     1      24.014   9.464  11.972  1.00  0.00     0.278 HD
ATOM     10  H42 UNL     1      22.696   8.841  12.816  1.00  0.00     0.278 HD
ATOM     11  H43 UNL     1      23.033   8.200  11.445  1.00  0.00     0.278 HD
HETATM   12  N5  UNL     1      25.417   7.298  11.959  1.00  0.00    -0.032 N 
ATOM     13  H51 UNL     1      25.921   8.142  11.688  1.00  0.00     0.278 HD
ATOM     14  H52 UNL     1      25.047   6.790  11.156  1.00  0.00     0.278 HD
ATOM     15  H53 UNL     1      26.037   6.571  12.314  1.00  0.00     0.278 HD
HETATM   16  N6  UNL     1      23.190   4.608  14.400  1.00  0.00    -0.155 N 
ATOM     17  H6  UNL     1      22.507   4.444  13.659  1.00  0.00     0.187 HD
HETATM   18  C4  UNL     1      23.153   3.744  15.447  1.00  0.00     0.275 C 
HETATM   19  O1  UNL     1      22.659   2.639  15.279  1.00  0.00    -0.267 OA
HETATM   20  C5  UNL     1      23.622   3.982  16.700  1.00  0.00     0.106 A 
HETATM   21  C6  UNL     1      23.079   3.431  17.872  1.00  0.00     0.144 A 
HETATM   22  C9  UNL     1      23.893   3.950  18.861  1.00  0.00     0.161 A 
HETATM   23  N9  UNL     1      24.851   4.751  18.331  1.00  0.00    -0.147 N 
HETATM   24  C11 UNL     1      24.708   4.787  17.009  1.00  0.00     0.119 A 
ENDROOT
BRANCH   1  25
HETATM   25  N1  UNL     1      26.687   5.774  16.577  1.00  0.00    -0.383 N 
ATOM     26  H12 UNL     1      27.356   5.004  16.536  1.00  0.00     0.157 HD
ATOM     27  H11 UNL     1      26.876   6.716  16.916  1.00  0.00     0.157 HD
ENDBRANCH   1  25
BRANCH  23  28
HETATM   28  C10 UNL     1      25.859   5.444  19.072  1.00  0.00     0.720 A 
HETATM   29  N10 UNL     1      27.037   4.985  19.522  1.00  0.00    -0.114 N 
HETATM   30  N11 UNL     1      27.651   5.952  20.158  1.00  0.00    -0.213 N 
ATOM     31  H10 UNL     1      27.396   4.039  19.391  1.00  0.00     0.207 HD
HETATM   32  N12 UNL     1      26.905   7.030  20.136  1.00  0.00    -0.213 N 
ATOM     33  H11 UNL     1      28.567   5.878  20.601  1.00  0.00     0.210 HD
HETATM   34  N13 UNL     1      25.806   6.731  19.474  1.00  0.00    -0.114 N 
ATOM     35  H12 UNL     1      27.133   7.931  20.555  1.00  0.00     0.210 HD
ATOM     36  H13 UNL     1      25.034   7.374  19.292  1.00  0.00     0.207 HD
ENDBRANCH  23  28
BRANCH  21  37
HETATM   37  N7  UNL     1      21.998   2.559  17.881  1.00  0.00    -0.381 NA
BRANCH  37  38
HETATM   38  C7  UNL     1      20.973   1.735  17.889  1.00  0.00     0.216 C 
BRANCH  38  39
HETATM   39  O2  UNL     1      20.290   1.437  16.799  1.00  0.00    -0.338 OA
ATOM     40  H2  UNL     1      20.087   0.543  16.551  1.00  0.00     0.220 HD
ENDBRANCH  38  39
BRANCH  38  41
HETATM   41  C8  UNL     1      20.363   0.979  19.043  1.00  0.00     0.329 C 
BRANCH  41  42
HETATM   42  N8  UNL     1      19.482  -0.012  18.536  1.00  0.00    -0.071 N 
ATOM     43  H83 UNL     1      18.731  -0.234  19.189  1.00  0.00     0.274 HD
ATOM     44  H82 UNL     1      18.908   0.337  17.770  1.00  0.00     0.274 HD
ATOM     45  H81 UNL     1      20.022  -0.835  18.272  1.00  0.00     0.274 HD
ENDBRANCH  41  42
ENDBRANCH  38  41
ENDBRANCH  37  38
ENDBRANCH  21  37
TORSDOF 7
ENDMDL
MODEL 5
REMARK VINA RESULT: -5.149459806      2.303      6.897
REMARK  7 active torsions:
REMARK  status: ('A' for Active; 'I' for Inactive)
REMARK    1  A    between atoms: N1_1  and  C1_4 
REMARK       I    between atoms: N3_8  and  C3_10 
REMARK       I    between atoms: C3_10  and  N4_11 
REMARK       I    between atoms: C3_10  and  N5_15 
REMARK    2  A    between atoms: C6_24  and  N7_25 
REMARK    3  A    between atoms: N7_25  and  C7_26 
REMARK    4  A    between atoms: C7_26  and  O2_27 
REMARK    5  A    between atoms: C7_26  and  C8_29 
REMARK    6  A    between atoms: C8_29  and  N8_30 
REMARK    7  A    between atoms: N9_35  and  C10_36 
ROOT
HETATM    1  C1  UNL     1      23.741   2.980  19.020  1.00  0.00     0.143 C 
HETATM    2  N2  UNL     1      24.429   3.952  19.645  1.00  0.00    -0.175 N 
ATOM      3  H2  UNL     1      24.642   3.791  20.629  1.00  0.00     0.186 HD
HETATM    4  C2  UNL     1      24.878   5.134  19.117  1.00  0.00     0.685 C 
HETATM    5  N3  UNL     1      25.124   6.104  19.914  1.00  0.00    -0.173 N 
ATOM      6  H3  UNL     1      25.458   6.976  19.503  1.00  0.00     0.181 HD
HETATM    7  C3  UNL     1      24.966   6.063  21.334  1.00  0.00     0.494 C 
HETATM    8  N4  UNL     1      24.790   7.401  21.898  1.00  0.00    -0.032 N 
ATOM      9  H41 UNL     1      24.678   7.372  22.912  1.00  0.00     0.278 HD
ATOM     10  H42 UNL     1      24.016   7.893  21.453  1.00  0.00     0.278 HD
ATOM     11  H43 UNL     1      25.552   8.022  21.627  1.00  0.00     0.278 HD
HETATM   12  N5  UNL     1      26.171   5.515  21.921  1.00  0.00    -0.032 N 
ATOM     13  H51 UNL     1      26.059   5.486  22.935  1.00  0.00     0.278 HD
ATOM     14  H52 UNL     1      27.009   6.022  21.636  1.00  0.00     0.278 HD
ATOM     15  H53 UNL     1      26.415   4.605  21.530  1.00  0.00     0.278 HD
HETATM   16  N6  UNL     1      25.101   5.415  17.798  1.00  0.00    -0.155 N 
ATOM     17  H6  UNL     1      25.631   6.265  17.604  1.00  0.00     0.187 HD
HETATM   18  C4  UNL     1      24.702   4.699  16.716  1.00  0.00     0.275 C 
HETATM   19  O1  UNL     1      25.313   4.833  15.666  1.00  0.00    -0.267 OA
HETATM   20  C5  UNL     1      23.666   3.822  16.672  1.00  0.00     0.106 A 
HETATM   21  C6  UNL     1      22.880   3.571  15.536  1.00  0.00     0.144 A 
HETATM   22  C9  UNL     1      21.989   2.614  15.983  1.00  0.00     0.161 A 
HETATM   23  N9  UNL     1      22.217   2.309  17.285  1.00  0.00    -0.147 N 
HETATM   24  C11 UNL     1      23.239   3.034  17.732  1.00  0.00     0.119 A 
ENDROOT
BRANCH   1  25
HETATM   25  N1  UNL     1      23.527   1.893  19.653  1.00  0.00    -0.383 N 
ATOM     26  H12 UNL     1      24.120   1.729  20.466  1.00  0.00     0.157 HD
ATOM     27  H11 UNL     1      22.787   1.277  19.315  1.00  0.00     0.157 HD
ENDBRANCH   1  25
BRANCH  23  28
HETATM   28  C10 UNL     1      21.480   1.357  18.057  1.00  0.00     0.720 A 
HETATM   29  N10 UNL     1      21.711   0.044  18.218  1.00  0.00    -0.114 N 
HETATM   30  N11 UNL     1      20.789  -0.453  19.004  1.00  0.00    -0.213 N 
ATOM     31  H10 UNL     1      22.478  -0.480  17.797  1.00  0.00     0.207 HD
HETATM   32  N12 UNL     1      19.961   0.499  19.360  1.00  0.00    -0.213 N 
ATOM     33  H11 UNL     1      20.726  -1.429  19.294  1.00  0.00     0.210 HD
HETATM   34  N13 UNL     1      20.374   1.612  18.788  1.00  0.00    -0.114 N 
ATOM     35  H12 UNL     1      19.148   0.398  19.968  1.00  0.00     0.210 HD
ATOM     36  H13 UNL     1      19.928   2.524  18.882  1.00  0.00     0.207 HD
ENDBRANCH  23  28
BRANCH  21  37
HETATM   37  N7  UNL     1      23.085   4.190  14.310  1.00  0.00    -0.381 NA
BRANCH  37  38
HETATM   38  C7  UNL     1      23.278   4.776  13.148  1.00  0.00     0.216 C 
BRANCH  38  39
HETATM   39  O2  UNL     1      23.013   4.183  11.999  1.00  0.00    -0.338 OA
ATOM     40  H2  UNL     1      23.676   4.031  11.336  1.00  0.00     0.220 HD
ENDBRANCH  38  39
BRANCH  38  41
HETATM   41  C8  UNL     1      23.806   6.157  12.849  1.00  0.00     0.329 C 
BRANCH  41  42
HETATM   42  N8  UNL     1      23.804   6.924  14.042  1.00  0.00    -0.071 N 
ATOM     43  H83 UNL     1      24.620   6.737  14.625  1.00  0.00     0.274 HD
ATOM     44  H82 UNL     1      23.977   7.913  13.867  1.00  0.00     0.274 HD
ATOM     45  H81 UNL     1      22.929   6.766  14.540  1.00  0.00     0.274 HD
ENDBRANCH  41  42
ENDBRANCH  38  41
ENDBRANCH  37  38
ENDBRANCH  21  37
TORSDOF 7
ENDMDL
