MODEL 1
REMARK VINA RESULT: -5.658252238      0.000      0.000
REMARK  5 active torsions:
REMARK  status: ('A' for Active; 'I' for Inactive)
REMARK       I    between atoms: C1_2  and  N1_3 
REMARK    1  A    between atoms: C1_2  and  C9_25 
REMARK       I    between atoms: N1_3  and  C2_5 
REMARK       I    between atoms: C2_5  and  N3_10 
REMARK    2  A    between atoms: N2_6  and  O2_8 
REMARK    3  A    between atoms: C4_12  and  C5_13 
REMARK    4  A    between atoms: C5_13  and  O3_14 
REMARK    5  A    between atoms: C7_21  and  C8_22 
ROOT
HETATM    1  O1  UNL     1      23.438   8.674  15.946  1.00  0.00    -0.263 OA
HETATM    2  C1  UNL     1      22.658   7.900  16.512  1.00  0.00     0.306 C 
HETATM    3  N1  UNL     1      22.543   6.555  16.136  1.00  0.00    -0.151 N 
ATOM      4  H1  UNL     1      21.880   5.970  16.644  1.00  0.00     0.188 HD
HETATM    5  C2  UNL     1      23.277   5.971  15.111  1.00  0.00     0.704 C 
HETATM    6  N2  UNL     1      23.046   4.659  14.875  1.00  0.00    -0.099 N 
ATOM      7  H2  UNL     1      23.563   4.189  14.132  1.00  0.00     0.213 HD
HETATM    8  N3  UNL     1      24.242   6.516  14.257  1.00  0.00    -0.182 N 
HETATM    9  C3  UNL     1      25.515   7.161  14.215  1.00  0.00     0.178 C 
HETATM   10  C4  UNL     1      25.745   6.546  12.805  1.00  0.00     0.133 C 
HETATM   11  N4  UNL     1      26.130   5.181  12.924  1.00  0.00    -0.120 NA
HETATM   12  N5  UNL     1      25.106   4.426  12.361  1.00  0.00    -0.270 N 
ATOM     13  H5  UNL     1      25.192   3.456  12.059  1.00  0.00     0.185 HD
HETATM   14  C6  UNL     1      23.931   5.203  12.272  1.00  0.00     0.275 C 
HETATM   15  O4  UNL     1      22.781   4.918  11.864  1.00  0.00    -0.269 OA
HETATM   16  C7  UNL     1      24.270   6.570  12.786  1.00  0.00     0.246 C 
ENDROOT
BRANCH   6  17
HETATM   17  O2  UNL     1      22.148   3.958  15.598  1.00  0.00    -0.276 OA
ATOM     18  H2  UNL     1      22.161   3.009  15.621  1.00  0.00     0.245 HD
ENDBRANCH   6  17
BRANCH   2  19
HETATM   19  C9  UNL     1      21.860   8.474  17.601  1.00  0.00     0.201 A 
HETATM   20  N6  UNL     1      21.728   9.752  17.938  1.00  0.00    -0.266 N 
HETATM   21  N7  UNL     1      20.906   9.788  18.989  1.00  0.00    -0.007 NA
ATOM     22  H6  UNL     1      22.170  10.551  17.482  1.00  0.00     0.185 HD
HETATM   23  N8  UNL     1      20.531   8.557  19.302  1.00  0.00    -0.007 NA
HETATM   24  N9  UNL     1      21.123   7.741  18.441  1.00  0.00    -0.266 N 
ATOM     25  H9  UNL     1      21.031   6.724  18.424  1.00  0.00     0.185 HD
ENDBRANCH   2  19
BRANCH  16  26
HETATM   26  C8  UNL     1      23.531   7.623  12.142  1.00  0.00     0.215 C 
HETATM   27  O5  UNL     1      22.990   8.631  12.622  1.00  0.00    -0.646 OA
HETATM   28  O6  UNL     1      23.391   7.507  10.739  1.00  0.00    -0.646 OA
ENDBRANCH  16  26
BRANCH  10  29
HETATM   29  C5  UNL     1      26.520   7.433  11.925  1.00  0.00     0.198 C 
BRANCH  29  30
HETATM   30  O3  UNL     1      26.590   6.915  10.634  1.00  0.00    -0.399 OA
ATOM     31  H3  UNL     1      27.259   7.359  10.126  1.00  0.00     0.209 HD
ENDBRANCH  29  30
ENDBRANCH  10  29
TORSDOF 5
ENDMDL
MODEL 2
REMARK VINA RESULT: -5.507658435      3.784      6.243
REMARK  5 active torsions:
REMARK  status: ('A' for Active; 'I' for Inactive)
REMARK       I    between atoms: C1_2  and  N1_3 
REMARK    1  A    between atoms: C1_2  and  C9_25 
REMARK       I    between atoms: N1_3  and  C2_5 
REMARK       I    between atoms: C2_5  and  N3_10 
REMARK    2  A    between atoms: N2_6  and  O2_8 
REMARK    3  A    between atoms: C4_12  and  C5_13 
REMARK    4  A    between atoms: C5_13  and  O3_14 
REMARK    5  A    between atoms: C7_21  and  C8_22 
ROOT
HETATM    1  O1  UNL     1      24.877   6.600  15.193  1.00  0.00    -0.263 OA
HETATM    2  C1  UNL     1      23.964   6.162  14.485  1.00  0.00     0.306 C 
HETATM    3  N1  UNL     1      23.187   5.061  14.872  1.00  0.00    -0.151 N 
ATOM      4  H1  UNL     1      22.449   4.750  14.240  1.00  0.00     0.188 HD
HETATM    5  C2  UNL     1      23.363   4.369  16.063  1.00  0.00     0.704 C 
HETATM    6  N2  UNL     1      22.527   3.328  16.285  1.00  0.00    -0.099 N 
ATOM      7  H2  UNL     1      22.619   2.792  17.147  1.00  0.00     0.213 HD
HETATM    8  N3  UNL     1      24.277   4.564  17.104  1.00  0.00    -0.182 N 
HETATM    9  C3  UNL     1      24.728   5.498  18.085  1.00  0.00     0.178 C 
HETATM   10  C4  UNL     1      25.155   4.301  18.983  1.00  0.00     0.133 C 
HETATM   11  N4  UNL     1      24.017   3.746  19.631  1.00  0.00    -0.120 NA
HETATM   12  N5  UNL     1      23.859   2.459  19.129  1.00  0.00    -0.270 N 
ATOM     13  H5  UNL     1      23.309   1.721  19.570  1.00  0.00     0.185 HD
HETATM   14  C6  UNL     1      24.572   2.325  17.918  1.00  0.00     0.275 C 
HETATM   15  O4  UNL     1      24.679   1.362  17.123  1.00  0.00    -0.269 OA
HETATM   16  C7  UNL     1      25.265   3.632  17.672  1.00  0.00     0.246 C 
ENDROOT
BRANCH   6  17
HETATM   17  O2  UNL     1      21.574   2.984  15.394  1.00  0.00    -0.276 OA
ATOM     18  H2  UNL     1      20.766   2.565  15.667  1.00  0.00     0.245 HD
ENDBRANCH   6  17
BRANCH   2  19
HETATM   19  C9  UNL     1      23.742   6.862  13.215  1.00  0.00     0.201 A 
HETATM   20  N6  UNL     1      23.600   6.338  12.003  1.00  0.00    -0.266 N 
HETATM   21  N7  UNL     1      23.421   7.361  11.163  1.00  0.00    -0.007 NA
ATOM     22  H6  UNL     1      23.622   5.347  11.761  1.00  0.00     0.185 HD
HETATM   23  N8  UNL     1      23.451   8.500  11.837  1.00  0.00    -0.007 NA
HETATM   24  N9  UNL     1      23.650   8.191  13.111  1.00  0.00    -0.266 N 
ATOM     25  H9  UNL     1      23.722   8.857  13.882  1.00  0.00     0.185 HD
ENDBRANCH   2  19
BRANCH  16  26
HETATM   26  C8  UNL     1      26.523   3.492  16.988  1.00  0.00     0.215 C 
HETATM   27  O5  UNL     1      26.961   4.085  15.989  1.00  0.00    -0.646 OA
HETATM   28  O6  UNL     1      27.412   2.534  17.527  1.00  0.00    -0.646 OA
ENDBRANCH  16  26
BRANCH  10  29
HETATM   29  C5  UNL     1      26.358   4.596  19.776  1.00  0.00     0.198 C 
BRANCH  29  30
HETATM   30  O3  UNL     1      26.740   3.488  20.529  1.00  0.00    -0.399 OA
ATOM     31  H3  UNL     1      26.933   3.738  21.425  1.00  0.00     0.209 HD
ENDBRANCH  29  30
ENDBRANCH  10  29
TORSDOF 5
ENDMDL
MODEL 3
REMARK VINA RESULT: -5.494376714      1.842      2.741
REMARK  5 active torsions:
REMARK  status: ('A' for Active; 'I' for Inactive)
REMARK       I    between atoms: C1_2  and  N1_3 
REMARK    1  A    between atoms: C1_2  and  C9_25 
REMARK       I    between atoms: N1_3  and  C2_5 
REMARK       I    between atoms: C2_5  and  N3_10 
REMARK    2  A    between atoms: N2_6  and  O2_8 
REMARK    3  A    between atoms: C4_12  and  C5_13 
REMARK    4  A    between atoms: C5_13  and  O3_14 
REMARK    5  A    between atoms: C7_21  and  C8_22 
ROOT
HETATM    1  O1  UNL     1      24.918   7.870  15.196  1.00  0.00    -0.263 OA
HETATM    2  C1  UNL     1      23.776   7.468  14.948  1.00  0.00     0.306 C 
HETATM    3  N1  UNL     1      23.530   6.472  13.993  1.00  0.00    -0.151 N 
ATOM      4  H1  UNL     1      22.563   6.185  13.838  1.00  0.00     0.188 HD
HETATM    5  C2  UNL     1      24.523   5.852  13.246  1.00  0.00     0.704 C 
HETATM    6  N2  UNL     1      24.117   4.909  12.366  1.00  0.00    -0.099 N 
ATOM      7  H2  UNL     1      24.812   4.427  11.796  1.00  0.00     0.213 HD
HETATM    8  N3  UNL     1      25.911   6.036  13.244  1.00  0.00    -0.182 N 
HETATM    9  C3  UNL     1      27.085   5.972  14.054  1.00  0.00     0.178 C 
HETATM   10  C4  UNL     1      27.912   5.657  12.775  1.00  0.00     0.133 C 
HETATM   11  N4  UNL     1      27.751   4.290  12.413  1.00  0.00    -0.120 NA
HETATM   12  N5  UNL     1      27.089   4.276  11.189  1.00  0.00    -0.270 N 
ATOM     13  H5  UNL     1      27.058   3.482  10.549  1.00  0.00     0.185 HD
HETATM   14  C6  UNL     1      26.466   5.523  10.966  1.00  0.00     0.275 C 
HETATM   15  O4  UNL     1      25.750   5.932  10.023  1.00  0.00    -0.269 OA
HETATM   16  C7  UNL     1      26.808   6.398  12.135  1.00  0.00     0.246 C 
ENDROOT
BRANCH   6  17
HETATM   17  O2  UNL     1      22.814   4.590  12.223  1.00  0.00    -0.276 OA
ATOM     18  H2  UNL     1      22.450   4.349  11.379  1.00  0.00     0.245 HD
ENDBRANCH   6  17
BRANCH   2  19
HETATM   19  C9  UNL     1      22.693   8.095  15.714  1.00  0.00     0.201 A 
HETATM   20  N6  UNL     1      22.175   9.308  15.559  1.00  0.00    -0.266 N 
HETATM   21  N7  UNL     1      21.217   9.435  16.481  1.00  0.00    -0.007 NA
ATOM     22  H6  UNL     1      22.454  10.007  14.870  1.00  0.00     0.185 HD
HETATM   23  N8  UNL     1      21.139   8.324  17.196  1.00  0.00    -0.007 NA
HETATM   24  N9  UNL     1      22.055   7.491  16.721  1.00  0.00    -0.266 N 
ATOM     25  H9  UNL     1      22.241   6.549  17.066  1.00  0.00     0.185 HD
ENDBRANCH   2  19
BRANCH  16  26
HETATM   26  C8  UNL     1      26.919   7.791  11.793  1.00  0.00     0.215 C 
HETATM   27  O5  UNL     1      26.349   8.782  12.276  1.00  0.00    -0.646 OA
HETATM   28  O6  UNL     1      27.816   8.096  10.743  1.00  0.00    -0.646 OA
ENDBRANCH  16  26
BRANCH  10  29
HETATM   29  C5  UNL     1      29.266   6.228  12.827  1.00  0.00     0.198 C 
BRANCH  29  30
HETATM   30  O3  UNL     1      29.970   5.945  11.659  1.00  0.00    -0.399 OA
ATOM     31  H3  UNL     1      30.209   6.745  11.205  1.00  0.00     0.209 HD
ENDBRANCH  29  30
ENDBRANCH  10  29
TORSDOF 5
ENDMDL
MODEL 4
REMARK VINA RESULT: -5.423267376      3.075      3.780
REMARK  5 active torsions:
REMARK  status: ('A' for Active; 'I' for Inactive)
REMARK       I    between atoms: C1_2  and  N1_3 
REMARK    1  A    between atoms: C1_2  and  C9_25 
REMARK       I    between atoms: N1_3  and  C2_5 
REMARK       I    between atoms: C2_5  and  N3_10 
REMARK    2  A    between atoms: N2_6  and  O2_8 
REMARK    3  A    between atoms: C4_12  and  C5_13 
REMARK    4  A    between atoms: C5_13  and  O3_14 
REMARK    5  A    between atoms: C7_21  and  C8_22 
ROOT
HETATM    1  O1  UNL     1      23.574   4.775  16.191  1.00  0.00    -0.263 OA
HETATM    2  C1  UNL     1      22.909   3.883  15.654  1.00  0.00     0.306 C 
HETATM    3  N1  UNL     1      22.951   3.655  14.271  1.00  0.00    -0.151 N 
ATOM      4  H1  UNL     1      22.378   2.901  13.892  1.00  0.00     0.188 HD
HETATM    5  C2  UNL     1      23.727   4.394  13.388  1.00  0.00     0.704 C 
HETATM    6  N2  UNL     1      23.655   4.045  12.083  1.00  0.00    -0.099 N 
ATOM      7  H2  UNL     1      24.208   4.560  11.398  1.00  0.00     0.213 HD
HETATM    8  N3  UNL     1      24.597   5.466  13.616  1.00  0.00    -0.182 N 
HETATM    9  C3  UNL     1      25.780   5.866  14.310  1.00  0.00     0.178 C 
HETATM   10  C4  UNL     1      26.050   6.904  13.183  1.00  0.00     0.133 C 
HETATM   11  N4  UNL     1      26.603   6.257  12.044  1.00  0.00    -0.120 NA
HETATM   12  N5  UNL     1      25.668   6.377  11.021  1.00  0.00    -0.270 N 
ATOM     13  H5  UNL     1      25.865   6.252  10.028  1.00  0.00     0.185 HD
HETATM   14  C6  UNL     1      24.403   6.695  11.563  1.00  0.00     0.275 C 
HETATM   15  O4  UNL     1      23.288   6.861  11.018  1.00  0.00    -0.269 OA
HETATM   16  C7  UNL     1      24.583   6.823  13.047  1.00  0.00     0.246 C 
ENDROOT
BRANCH   6  17
HETATM   17  O2  UNL     1      22.868   3.032  11.665  1.00  0.00    -0.276 OA
ATOM     18  H2  UNL     1      23.210   2.321  11.135  1.00  0.00     0.245 HD
ENDBRANCH   6  17
BRANCH   2  19
HETATM   19  C9  UNL     1      22.072   3.075  16.549  1.00  0.00     0.201 A 
HETATM   20  N6  UNL     1      22.034   3.094  17.876  1.00  0.00    -0.266 N 
HETATM   21  N7  UNL     1      21.124   2.190  18.247  1.00  0.00    -0.007 NA
ATOM     22  H6  UNL     1      22.592   3.685  18.494  1.00  0.00     0.185 HD
HETATM   23  N8  UNL     1      20.604   1.618  17.171  1.00  0.00    -0.007 NA
HETATM   24  N9  UNL     1      21.192   2.167  16.117  1.00  0.00    -0.266 N 
ATOM     25  H9  UNL     1      21.004   1.935  15.141  1.00  0.00     0.185 HD
ENDBRANCH   2  19
BRANCH  16  26
HETATM   26  C8  UNL     1      23.705   7.791  13.647  1.00  0.00     0.215 C 
HETATM   27  O5  UNL     1      23.300   7.888  14.817  1.00  0.00    -0.646 OA
HETATM   28  O6  UNL     1      23.218   8.800  12.783  1.00  0.00    -0.646 OA
ENDBRANCH  16  26
BRANCH  10  29
HETATM   29  C5  UNL     1      26.689   8.129  13.690  1.00  0.00     0.198 C 
BRANCH  29  30
HETATM   30  O3  UNL     1      27.251   8.863  12.649  1.00  0.00    -0.399 OA
ATOM     31  H3  UNL     1      26.911   9.750  12.638  1.00  0.00     0.209 HD
ENDBRANCH  29  30
ENDBRANCH  10  29
TORSDOF 5
ENDMDL
MODEL 5
REMARK VINA RESULT: -5.413285730      2.768      4.403
REMARK  5 active torsions:
REMARK  status: ('A' for Active; 'I' for Inactive)
REMARK       I    between atoms: C1_2  and  N1_3 
REMARK    1  A    between atoms: C1_2  and  C9_25 
REMARK       I    between atoms: N1_3  and  C2_5 
REMARK       I    between atoms: C2_5  and  N3_10 
REMARK    2  A    between atoms: N2_6  and  O2_8 
REMARK    3  A    between atoms: C4_12  and  C5_13 
REMARK    4  A    between atoms: C5_13  and  O3_14 
REMARK    5  A    between atoms: C7_21  and  C8_22 
ROOT
HETATM    1  O1  UNL     1      23.665   4.670  13.866  1.00  0.00    -0.263 OA
HETATM    2  C1  UNL     1      23.239   5.113  14.938  1.00  0.00     0.306 C 
HETATM    3  N1  UNL     1      23.379   6.462  15.292  1.00  0.00    -0.151 N 
ATOM      4  H1  UNL     1      23.004   6.763  16.192  1.00  0.00     0.188 HD
HETATM    5  C2  UNL     1      23.997   7.414  14.491  1.00  0.00     0.704 C 
HETATM    6  N2  UNL     1      24.048   8.674  14.980  1.00  0.00    -0.099 N 
ATOM      7  H2  UNL     1      24.492   9.406  14.425  1.00  0.00     0.213 HD
HETATM    8  N3  UNL     1      24.592   7.296  13.230  1.00  0.00    -0.182 N 
HETATM    9  C3  UNL     1      24.351   6.937  11.868  1.00  0.00     0.178 C 
HETATM   10  C4  UNL     1      25.480   7.919  11.444  1.00  0.00     0.133 C 
HETATM   11  N4  UNL     1      24.999   9.257  11.467  1.00  0.00    -0.120 NA
HETATM   12  N5  UNL     1      25.704   9.920  12.466  1.00  0.00    -0.270 N 
ATOM     13  H5  UNL     1      25.780  10.933  12.556  1.00  0.00     0.185 HD
HETATM   14  C6  UNL     1      26.297   8.981  13.337  1.00  0.00     0.275 C 
HETATM   15  O4  UNL     1      26.984   9.134  14.374  1.00  0.00    -0.269 OA
HETATM   16  C7  UNL     1      25.963   7.619  12.805  1.00  0.00     0.246 C 
ENDROOT
BRANCH   6  17
HETATM   17  O2  UNL     1      23.525   8.987  16.184  1.00  0.00    -0.276 OA
ATOM     18  H2  UNL     1      23.372   9.888  16.441  1.00  0.00     0.245 HD
ENDBRANCH   6  17
BRANCH   2  19
HETATM   19  C9  UNL     1      22.579   4.143  15.819  1.00  0.00     0.201 A 
HETATM   20  N6  UNL     1      22.401   4.216  17.133  1.00  0.00    -0.266 N 
HETATM   21  N7  UNL     1      21.753   3.106  17.494  1.00  0.00    -0.007 NA
ATOM     22  H6  UNL     1      22.702   4.973  17.748  1.00  0.00     0.185 HD
HETATM   23  N8  UNL     1      21.529   2.356  16.426  1.00  0.00    -0.007 NA
HETATM   24  N9  UNL     1      22.041   2.999  15.386  1.00  0.00    -0.266 N 
ATOM     25  H9  UNL     1      22.028   2.675  14.418  1.00  0.00     0.185 HD
ENDBRANCH   2  19
BRANCH  16  26
HETATM   26  C8  UNL     1      26.988   6.641  13.055  1.00  0.00     0.215 C 
HETATM   27  O5  UNL     1      26.917   5.526  13.596  1.00  0.00    -0.646 OA
HETATM   28  O6  UNL     1      28.289   6.988  12.619  1.00  0.00    -0.646 OA
ENDBRANCH  16  26
BRANCH  10  29
HETATM   29  C5  UNL     1      26.222   7.445  10.265  1.00  0.00     0.198 C 
BRANCH  29  30
HETATM   30  O3  UNL     1      27.302   8.281   9.989  1.00  0.00    -0.399 OA
ATOM     31  H3  UNL     1      28.125   7.824  10.117  1.00  0.00     0.209 HD
ENDBRANCH  29  30
ENDBRANCH  10  29
TORSDOF 5
ENDMDL
