MODEL 1
REMARK VINA RESULT: -5.262403906      0.000      0.000
REMARK  10 active torsions:
REMARK  status: ('A' for Active; 'I' for Inactive)
REMARK    1  A    between atoms: C2_2  and  N1_3 
REMARK    2  A    between atoms: C9_14  and  O3_15 
REMARK    3  A    between atoms: C10_17  and  C11_18 
REMARK    4  A    between atoms: C11_18  and  O4_19 
REMARK    5  A    between atoms: C11_18  and  C12_21 
REMARK    6  A    between atoms: C12_21  and  O5_22 
REMARK    7  A    between atoms: C12_21  and  C13_24 
REMARK    8  A    between atoms: C13_24  and  O6_25 
REMARK    9  A    between atoms: C13_24  and  N3_27 
REMARK   10  A    between atoms: N3_27  and  O7_28 
ROOT
HETATM    1  N1  UNL     1      23.341   4.577  15.866  1.00  0.00    -0.230 NA
HETATM    2  C3  UNL     1      24.424   5.539  15.509  1.00  0.00     0.133 C 
HETATM    3  C4  UNL     1      25.670   5.300  16.336  1.00  0.00     0.139 C 
HETATM    4  N2  UNL     1      25.349   5.801  17.654  1.00  0.00    -0.359 N 
ATOM      5  H2  UNL     1      25.521   6.778  17.888  1.00  0.00     0.162 HD
HETATM    6  C5  UNL     1      24.801   4.934  18.607  1.00  0.00     0.234 C 
HETATM    7  O1  UNL     1      23.847   5.340  19.315  1.00  0.00    -0.272 OA
HETATM    8  C6  UNL     1      25.318   3.599  18.780  1.00  0.00     0.120 C 
HETATM    9  C7  UNL     1      26.858   3.524  18.928  1.00  0.00     0.034 C 
HETATM   10  C8  UNL     1      24.795   2.949  20.082  1.00  0.00     0.197 C 
HETATM   11  O2  UNL     1      24.613   1.826  19.323  1.00  0.00    -0.348 OA
HETATM   12  C9  UNL     1      24.788   2.462  18.072  1.00  0.00     0.224 C 
HETATM   13  C10 UNL     1      23.628   2.502  17.164  1.00  0.00     0.093 C 
HETATM   14  N4  UNL     1      23.813   3.354  16.052  1.00  0.00    -0.319 N 
ATOM     15  H4  UNL     1      24.382   2.977  15.294  1.00  0.00     0.180 HD
ENDROOT
BRANCH  13  16
HETATM   16  C11 UNL     1      22.245   2.436  17.739  1.00  0.00     0.203 C 
BRANCH  16  17
HETATM   17  O4  UNL     1      21.420   2.336  16.561  1.00  0.00    -0.387 OA
ATOM     18  H4  UNL     1      20.614   2.756  16.837  1.00  0.00     0.210 HD
ENDBRANCH  16  17
BRANCH  16  19
HETATM   19  C12 UNL     1      21.804   1.168  18.368  1.00  0.00     0.199 C 
BRANCH  19  20
HETATM   20  O5  UNL     1      22.457   0.050  17.799  1.00  0.00    -0.389 OA
ATOM     21  H5  UNL     1      22.327  -0.734  18.320  1.00  0.00     0.210 HD
ENDBRANCH  19  20
BRANCH  19  22
HETATM   22  C13 UNL     1      20.320   0.972  18.118  1.00  0.00     0.269 C 
BRANCH  22  23
HETATM   23  O6  UNL     1      19.987   0.103  17.124  1.00  0.00    -0.375 OA
ATOM     24  H6  UNL     1      19.409  -0.611  17.367  1.00  0.00     0.211 HD
ENDBRANCH  22  23
BRANCH  22  25
HETATM   25  N3  UNL     1      19.636   0.614  19.363  1.00  0.00    -0.069 NA
BRANCH  25  26
HETATM   26  O7  UNL     1      20.142  -0.612  19.691  1.00  0.00    -0.294 OA
ATOM     27  H7  UNL     1      20.593  -0.471  20.516  1.00  0.00     0.238 HD
ENDBRANCH  25  26
ENDBRANCH  22  25
ENDBRANCH  19  22
ENDBRANCH  16  19
ENDBRANCH  13  16
BRANCH  12  28
HETATM   28  O3  UNL     1      25.839   1.667  17.495  1.00  0.00    -0.360 OA
ATOM     29  H3  UNL     1      25.613   0.744  17.491  1.00  0.00     0.213 HD
ENDBRANCH  12  28
BRANCH   1  30
HETATM   30  C2  UNL     1      22.412   4.809  14.767  1.00  0.00     0.109 C 
HETATM   31  C1  UNL     1      23.039   4.780  13.413  1.00  0.00     0.023 C 
ENDBRANCH   1  30
TORSDOF 10
ENDMDL
MODEL 2
REMARK VINA RESULT: -5.084700400      2.341      5.129
REMARK  10 active torsions:
REMARK  status: ('A' for Active; 'I' for Inactive)
REMARK    1  A    between atoms: C2_2  and  N1_3 
REMARK    2  A    between atoms: C9_14  and  O3_15 
REMARK    3  A    between atoms: C10_17  and  C11_18 
REMARK    4  A    between atoms: C11_18  and  O4_19 
REMARK    5  A    between atoms: C11_18  and  C12_21 
REMARK    6  A    between atoms: C12_21  and  O5_22 
REMARK    7  A    between atoms: C12_21  and  C13_24 
REMARK    8  A    between atoms: C13_24  and  O6_25 
REMARK    9  A    between atoms: C13_24  and  N3_27 
REMARK   10  A    between atoms: N3_27  and  O7_28 
ROOT
HETATM    1  N1  UNL     1      21.603   1.147  17.873  1.00  0.00    -0.230 NA
HETATM    2  C3  UNL     1      21.726   0.349  19.128  1.00  0.00     0.133 C 
HETATM    3  C4  UNL     1      22.913   0.798  19.954  1.00  0.00     0.139 C 
HETATM    4  N2  UNL     1      24.072   0.294  19.252  1.00  0.00    -0.359 N 
ATOM      5  H2  UNL     1      24.430  -0.639  19.455  1.00  0.00     0.162 HD
HETATM    6  C5  UNL     1      24.700   1.096  18.291  1.00  0.00     0.234 C 
HETATM    7  O1  UNL     1      25.061   0.571  17.209  1.00  0.00    -0.272 OA
HETATM    8  C6  UNL     1      24.933   2.498  18.533  1.00  0.00     0.120 C 
HETATM    9  C7  UNL     1      25.603   2.810  19.894  1.00  0.00     0.034 C 
HETATM   10  C8  UNL     1      25.914   3.099  17.499  1.00  0.00     0.197 C 
HETATM   11  O2  UNL     1      25.050   4.159  17.455  1.00  0.00    -0.348 OA
HETATM   12  C9  UNL     1      23.995   3.521  18.147  1.00  0.00     0.224 C 
HETATM   13  C10 UNL     1      22.746   3.279  17.404  1.00  0.00     0.093 C 
HETATM   14  N4  UNL     1      21.841   2.432  18.083  1.00  0.00    -0.319 N 
ATOM     15  H4  UNL     1      21.301   2.868  18.831  1.00  0.00     0.180 HD
ENDROOT
BRANCH  13  16
HETATM   16  C11 UNL     1      22.795   3.152  15.911  1.00  0.00     0.203 C 
BRANCH  16  17
HETATM   17  O4  UNL     1      21.438   2.789  15.582  1.00  0.00    -0.387 OA
ATOM     18  H4  UNL     1      20.933   3.471  16.007  1.00  0.00     0.210 HD
ENDBRANCH  16  17
BRANCH  16  19
HETATM   19  C12 UNL     1      22.843   4.392  15.100  1.00  0.00     0.199 C 
BRANCH  19  20
HETATM   20  O5  UNL     1      21.546   4.843  14.761  1.00  0.00    -0.389 OA
ATOM     21  H5  UNL     1      21.483   5.790  14.802  1.00  0.00     0.210 HD
ENDBRANCH  19  20
BRANCH  19  22
HETATM   22  C13 UNL     1      23.556   4.110  13.790  1.00  0.00     0.269 C 
BRANCH  22  23
HETATM   23  O6  UNL     1      23.078   3.066  13.059  1.00  0.00    -0.375 OA
ATOM     24  H6  UNL     1      22.546   3.290  12.304  1.00  0.00     0.211 HD
ENDBRANCH  22  23
BRANCH  22  25
HETATM   25  N3  UNL     1      23.618   5.323  12.972  1.00  0.00    -0.069 NA
BRANCH  25  26
HETATM   26  O7  UNL     1      22.768   5.079  11.931  1.00  0.00    -0.294 OA
ATOM     27  H7  UNL     1      22.522   5.941  11.617  1.00  0.00     0.238 HD
ENDBRANCH  25  26
ENDBRANCH  22  25
ENDBRANCH  19  22
ENDBRANCH  16  19
ENDBRANCH  13  16
BRANCH  12  28
HETATM   28  O3  UNL     1      23.758   4.448  19.221  1.00  0.00    -0.360 OA
ATOM     29  H3  UNL     1      24.527   4.547  19.770  1.00  0.00     0.213 HD
ENDBRANCH  12  28
BRANCH   1  30
HETATM   30  C2  UNL     1      20.270   0.744  17.437  1.00  0.00     0.109 C 
HETATM   31  C1  UNL     1      19.238   0.761  18.514  1.00  0.00     0.023 C 
ENDBRANCH   1  30
TORSDOF 10
ENDMDL
MODEL 3
REMARK VINA RESULT: -5.006515270      3.410      4.973
REMARK  10 active torsions:
REMARK  status: ('A' for Active; 'I' for Inactive)
REMARK    1  A    between atoms: C2_2  and  N1_3 
REMARK    2  A    between atoms: C9_14  and  O3_15 
REMARK    3  A    between atoms: C10_17  and  C11_18 
REMARK    4  A    between atoms: C11_18  and  O4_19 
REMARK    5  A    between atoms: C11_18  and  C12_21 
REMARK    6  A    between atoms: C12_21  and  O5_22 
REMARK    7  A    between atoms: C12_21  and  C13_24 
REMARK    8  A    between atoms: C13_24  and  O6_25 
REMARK    9  A    between atoms: C13_24  and  N3_27 
REMARK   10  A    between atoms: N3_27  and  O7_28 
ROOT
HETATM    1  N1  UNL     1      21.318   0.837  19.010  1.00  0.00    -0.230 NA
HETATM    2  C3  UNL     1      21.869   2.003  18.261  1.00  0.00     0.133 C 
HETATM    3  C4  UNL     1      23.333   1.805  17.930  1.00  0.00     0.139 C 
HETATM    4  N2  UNL     1      24.032   1.990  19.182  1.00  0.00    -0.359 N 
ATOM      5  H2  UNL     1      24.341   2.920  19.465  1.00  0.00     0.162 HD
HETATM    6  C5  UNL     1      24.280   0.885  20.005  1.00  0.00     0.234 C 
HETATM    7  O1  UNL     1      24.097   0.999  21.242  1.00  0.00    -0.272 OA
HETATM    8  C6  UNL     1      24.741  -0.364  19.449  1.00  0.00     0.120 C 
HETATM    9  C7  UNL     1      25.948  -0.230  18.488  1.00  0.00     0.034 C 
HETATM   10  C8  UNL     1      25.256  -1.321  20.549  1.00  0.00     0.197 C 
HETATM   11  O2  UNL     1      24.571  -2.294  19.874  1.00  0.00    -0.348 OA
HETATM   12  C9  UNL     1      23.841  -1.413  19.042  1.00  0.00     0.224 C 
HETATM   13  C10 UNL     1      22.378  -1.378  19.211  1.00  0.00     0.093 C 
HETATM   14  N4  UNL     1      21.757  -0.313  18.522  1.00  0.00    -0.319 N 
ATOM     15  H4  UNL     1      21.629  -0.447  17.519  1.00  0.00     0.180 HD
ENDROOT
BRANCH  13  16
HETATM   16  C11 UNL     1      21.783  -1.763  20.533  1.00  0.00     0.203 C 
BRANCH  16  17
HETATM   17  O4  UNL     1      20.367  -1.730  20.261  1.00  0.00    -0.387 OA
ATOM     18  H4  UNL     1      19.999  -2.145  21.032  1.00  0.00     0.210 HD
ENDBRANCH  16  17
BRANCH  16  19
HETATM   19  C12 UNL     1      21.847  -3.185  20.946  1.00  0.00     0.199 C 
BRANCH  19  20
HETATM   20  O5  UNL     1      21.225  -4.031  19.999  1.00  0.00    -0.389 OA
ATOM     21  H5  UNL     1      20.685  -4.690  20.420  1.00  0.00     0.210 HD
ENDBRANCH  19  20
BRANCH  19  22
HETATM   22  C13 UNL     1      21.087  -3.365  22.248  1.00  0.00     0.269 C 
BRANCH  22  23
HETATM   23  O6  UNL     1      20.724  -2.223  22.895  1.00  0.00    -0.375 OA
ATOM     24  H6  UNL     1      19.895  -2.249  23.357  1.00  0.00     0.211 HD
ENDBRANCH  22  23
BRANCH  22  25
HETATM   25  N3  UNL     1      19.923  -4.230  22.043  1.00  0.00    -0.069 NA
BRANCH  25  26
HETATM   26  O7  UNL     1      18.885  -3.366  21.836  1.00  0.00    -0.294 OA
ATOM     27  H7  UNL     1      18.207  -3.899  21.438  1.00  0.00     0.238 HD
ENDBRANCH  25  26
ENDBRANCH  22  25
ENDBRANCH  19  22
ENDBRANCH  16  19
ENDBRANCH  13  16
BRANCH  12  28
HETATM   28  O3  UNL     1      24.176  -1.914  17.736  1.00  0.00    -0.360 OA
ATOM     29  H3  UNL     1      24.541  -2.790  17.783  1.00  0.00     0.213 HD
ENDBRANCH  12  28
BRANCH   1  30
HETATM   30  C2  UNL     1      19.891   1.130  18.936  1.00  0.00     0.109 C 
HETATM   31  C1  UNL     1      19.204   0.550  17.744  1.00  0.00     0.023 C 
ENDBRANCH   1  30
TORSDOF 10
ENDMDL
MODEL 4
REMARK VINA RESULT: -5.000851593      3.285      6.057
REMARK  10 active torsions:
REMARK  status: ('A' for Active; 'I' for Inactive)
REMARK    1  A    between atoms: C2_2  and  N1_3 
REMARK    2  A    between atoms: C9_14  and  O3_15 
REMARK    3  A    between atoms: C10_17  and  C11_18 
REMARK    4  A    between atoms: C11_18  and  O4_19 
REMARK    5  A    between atoms: C11_18  and  C12_21 
REMARK    6  A    between atoms: C12_21  and  O5_22 
REMARK    7  A    between atoms: C12_21  and  C13_24 
REMARK    8  A    between atoms: C13_24  and  O6_25 
REMARK    9  A    between atoms: C13_24  and  N3_27 
REMARK   10  A    between atoms: N3_27  and  O7_28 
ROOT
HETATM    1  N1  UNL     1      23.447   3.862  17.216  1.00  0.00    -0.230 NA
HETATM    2  C3  UNL     1      23.548   4.236  18.657  1.00  0.00     0.133 C 
HETATM    3  C4  UNL     1      23.654   5.736  18.832  1.00  0.00     0.139 C 
HETATM    4  N2  UNL     1      24.998   6.070  18.417  1.00  0.00    -0.359 N 
ATOM      5  H2  UNL     1      25.763   6.053  19.092  1.00  0.00     0.162 HD
HETATM    6  C5  UNL     1      25.244   6.415  17.083  1.00  0.00     0.234 C 
HETATM    7  O1  UNL     1      26.258   5.944  16.513  1.00  0.00    -0.272 OA
HETATM    8  C6  UNL     1      24.354   7.299  16.370  1.00  0.00     0.120 C 
HETATM    9  C7  UNL     1      24.012   8.607  17.125  1.00  0.00     0.034 C 
HETATM   10  C8  UNL     1      24.983   7.795  15.047  1.00  0.00     0.197 C 
HETATM   11  O2  UNL     1      23.753   7.556  14.497  1.00  0.00    -0.348 OA
HETATM   12  C9  UNL     1      23.241   6.819  15.591  1.00  0.00     0.224 C 
HETATM   13  C10 UNL     1      22.925   5.399  15.362  1.00  0.00     0.093 C 
HETATM   14  N4  UNL     1      22.651   4.684  16.550  1.00  0.00    -0.319 N 
ATOM     15  H4  UNL     1      21.720   4.819  16.945  1.00  0.00     0.180 HD
ENDROOT
BRANCH  13  16
HETATM   16  C11 UNL     1      23.645   4.653  14.279  1.00  0.00     0.203 C 
BRANCH  16  17
HETATM   17  O4  UNL     1      22.884   3.433  14.178  1.00  0.00    -0.387 OA
ATOM     18  H4  UNL     1      23.188   3.067  13.356  1.00  0.00     0.210 HD
ENDBRANCH  16  17
BRANCH  16  19
HETATM   19  C12 UNL     1      23.456   5.092  12.876  1.00  0.00     0.199 C 
BRANCH  19  20
HETATM   20  O5  UNL     1      22.818   4.095  12.100  1.00  0.00    -0.389 OA
ATOM     21  H5  UNL     1      22.135   3.654  12.592  1.00  0.00     0.210 HD
ENDBRANCH  19  20
BRANCH  19  22
HETATM   22  C13 UNL     1      24.811   5.332  12.236  1.00  0.00     0.269 C 
BRANCH  22  23
HETATM   23  O6  UNL     1      25.315   4.308  11.493  1.00  0.00    -0.375 OA
ATOM     24  H6  UNL     1      25.999   3.791  11.901  1.00  0.00     0.211 HD
ENDBRANCH  22  23
BRANCH  22  25
HETATM   25  N3  UNL     1      24.794   6.572  11.456  1.00  0.00    -0.069 NA
BRANCH  25  26
HETATM   26  O7  UNL     1      23.485   6.963  11.462  1.00  0.00    -0.294 OA
ATOM     27  H7  UNL     1      23.514   7.896  11.284  1.00  0.00     0.238 HD
ENDBRANCH  25  26
ENDBRANCH  22  25
ENDBRANCH  19  22
ENDBRANCH  16  19
ENDBRANCH  13  16
BRANCH  12  28
HETATM   28  O3  UNL     1      22.039   7.551  15.887  1.00  0.00    -0.360 OA
ATOM     29  H3  UNL     1      21.950   8.314  15.328  1.00  0.00     0.213 HD
ENDBRANCH  12  28
BRANCH   1  30
HETATM   30  C2  UNL     1      23.062   2.460  17.336  1.00  0.00     0.109 C 
HETATM   31  C1  UNL     1      21.661   2.244  17.804  1.00  0.00     0.023 C 
ENDBRANCH   1  30
TORSDOF 10
ENDMDL
MODEL 5
REMARK VINA RESULT: -4.876767764      2.334      5.018
REMARK  10 active torsions:
REMARK  status: ('A' for Active; 'I' for Inactive)
REMARK    1  A    between atoms: C2_2  and  N1_3 
REMARK    2  A    between atoms: C9_14  and  O3_15 
REMARK    3  A    between atoms: C10_17  and  C11_18 
REMARK    4  A    between atoms: C11_18  and  O4_19 
REMARK    5  A    between atoms: C11_18  and  C12_21 
REMARK    6  A    between atoms: C12_21  and  O5_22 
REMARK    7  A    between atoms: C12_21  and  C13_24 
REMARK    8  A    between atoms: C13_24  and  O6_25 
REMARK    9  A    between atoms: C13_24  and  N3_27 
REMARK   10  A    between atoms: N3_27  and  O7_28 
ROOT
HETATM    1  N1  UNL     1      21.849   1.126  18.115  1.00  0.00    -0.230 NA
HETATM    2  C3  UNL     1      21.712  -0.004  19.080  1.00  0.00     0.133 C 
HETATM    3  C4  UNL     1      22.904  -0.084  20.009  1.00  0.00     0.139 C 
HETATM    4  N2  UNL     1      23.981  -0.607  19.199  1.00  0.00    -0.359 N 
ATOM      5  H2  UNL     1      24.121  -1.614  19.120  1.00  0.00     0.162 HD
HETATM    6  C5  UNL     1      24.829   0.278  18.522  1.00  0.00     0.234 C 
HETATM    7  O1  UNL     1      25.150   0.019  17.336  1.00  0.00    -0.272 OA
HETATM    8  C6  UNL     1      25.331   1.465  19.169  1.00  0.00     0.120 C 
HETATM    9  C7  UNL     1      25.951   1.217  20.567  1.00  0.00     0.034 C 
HETATM   10  C8  UNL     1      26.487   2.106  18.367  1.00  0.00     0.197 C 
HETATM   11  O2  UNL     1      25.868   3.297  18.631  1.00  0.00    -0.348 OA
HETATM   12  C9  UNL     1      24.656   2.735  19.096  1.00  0.00     0.224 C 
HETATM   13  C10 UNL     1      23.441   2.997  18.305  1.00  0.00     0.093 C 
HETATM   14  N4  UNL     1      22.333   2.213  18.697  1.00  0.00    -0.319 N 
ATOM     15  H4  UNL     1      21.844   2.523  19.537  1.00  0.00     0.180 HD
ENDROOT
BRANCH  13  16
HETATM   16  C11 UNL     1      23.570   3.297  16.841  1.00  0.00     0.203 C 
BRANCH  16  17
HETATM   17  O4  UNL     1      23.446   1.991  16.242  1.00  0.00    -0.387 OA
ATOM     18  H4  UNL     1      24.350   1.704  16.183  1.00  0.00     0.210 HD
ENDBRANCH  16  17
BRANCH  16  19
HETATM   19  C12 UNL     1      22.417   3.917  16.146  1.00  0.00     0.199 C 
BRANCH  19  20
HETATM   20  O5  UNL     1      21.683   2.962  15.403  1.00  0.00    -0.389 OA
ATOM     21  H5  UNL     1      20.747   3.055  15.541  1.00  0.00     0.210 HD
ENDBRANCH  19  20
BRANCH  19  22
HETATM   22  C13 UNL     1      22.923   4.942  15.148  1.00  0.00     0.269 C 
BRANCH  22  23
HETATM   23  O6  UNL     1      23.778   5.883  15.634  1.00  0.00    -0.375 OA
ATOM     24  H6  UNL     1      23.498   6.787  15.551  1.00  0.00     0.211 HD
ENDBRANCH  22  23
BRANCH  22  25
HETATM   25  N3  UNL     1      23.505   4.273  13.982  1.00  0.00    -0.069 NA
BRANCH  25  26
HETATM   26  O7  UNL     1      22.671   4.597  12.949  1.00  0.00    -0.294 OA
ATOM     27  H7  UNL     1      23.221   4.549  12.175  1.00  0.00     0.238 HD
ENDBRANCH  25  26
ENDBRANCH  22  25
ENDBRANCH  19  22
ENDBRANCH  16  19
ENDBRANCH  13  16
BRANCH  12  28
HETATM   28  O3  UNL     1      24.541   3.344  20.394  1.00  0.00    -0.360 OA
ATOM     29  H3  UNL     1      23.677   3.717  20.527  1.00  0.00     0.213 HD
ENDBRANCH  12  28
BRANCH   1  30
HETATM   30  C2  UNL     1      20.497   1.170  17.569  1.00  0.00     0.109 C 
HETATM   31  C1  UNL     1      19.425   0.822  18.548  1.00  0.00     0.023 C 
ENDBRANCH   1  30
TORSDOF 10
ENDMDL
