MODEL 1
REMARK VINA RESULT: -6.077742737      0.000      0.000
REMARK  11 active torsions:
REMARK  status: ('A' for Active; 'I' for Inactive)
REMARK       I    between atoms: C2_2  and  N1_4 
REMARK    1  A    between atoms: N1_4  and  C3_6 
REMARK    2  A    between atoms: C5_8  and  N2_9 
REMARK    3  A    between atoms: C6_11  and  O2_12 
REMARK    4  A    between atoms: C6_11  and  C7_14 
REMARK    5  A    between atoms: C7_14  and  O3_15 
REMARK    6  A    between atoms: C8_17  and  O4_18 
REMARK    7  A    between atoms: C9_20  and  O5_21 
REMARK    8  A    between atoms: C10_23  and  C11_24 
REMARK    9  A    between atoms: C11_24  and  O6_25 
REMARK   10  A    between atoms: O6_25  and  N3_26 
REMARK   11  A    between atoms: N4_29  and  N5_30 
ROOT
HETATM    1  C7  UNL     1      23.522   4.260  16.548  1.00  0.00     0.226 C 
HETATM    2  C8  UNL     1      24.222   5.577  16.186  1.00  0.00     0.208 C 
HETATM    3  C9  UNL     1      23.174   6.181  15.275  1.00  0.00     0.173 C 
HETATM    4  C10 UNL     1      22.738   4.988  14.462  1.00  0.00     0.140 C 
HETATM    5  N4  UNL     1      22.904   3.848  15.289  1.00  0.00    -0.184 NA
ENDROOT
BRANCH   1   6
HETATM    6  C6  UNL     1      24.482   3.221  16.883  1.00  0.00     0.173 C 
HETATM    7  N2  UNL     1      24.486   1.979  17.422  1.00  0.00    -0.323 N 
ATOM      8  H2  UNL     1      25.411   1.558  17.505  1.00  0.00     0.169 HD
BRANCH   7   9
HETATM    9  C5  UNL     1      23.439   1.173  17.886  1.00  0.00     0.111 A 
HETATM   10  C4  UNL     1      23.693  -0.170  18.244  1.00  0.00     0.097 A 
HETATM   11  C3  UNL     1      22.661  -0.961  18.695  1.00  0.00     0.112 A 
HETATM   12  N7  UNL     1      21.409  -0.473  18.802  1.00  0.00    -0.332 N 
HETATM   13  C12 UNL     1      21.147   0.804  18.466  1.00  0.00     0.080 A 
ATOM     14  H7  UNL     1      20.657  -1.074  19.140  1.00  0.00     0.168 HD
HETATM   15  N6  UNL     1      22.154   1.534  18.038  1.00  0.00    -0.332 N 
HETATM   16  C13 UNL     1      19.751   1.356  18.583  1.00  0.00     0.089 C 
ATOM     17  H6  UNL     1      21.930   2.498  17.790  1.00  0.00     0.168 HD
BRANCH  11  18
HETATM   18  N1  UNL     1      22.973  -2.307  19.042  1.00  0.00    -0.313 N 
HETATM   19  C2  UNL     1      23.177  -2.683  20.383  1.00  0.00     0.219 C 
HETATM   20  C1  UNL     1      23.108  -1.818  21.556  1.00  0.00     0.117 C 
HETATM   21  O1  UNL     1      23.451  -3.923  20.571  1.00  0.00    -0.274 OA
ATOM     22  H1  UNL     1      23.049  -3.010  18.306  1.00  0.00     0.170 HD
ENDBRANCH  11  18
ENDBRANCH   7   9
BRANCH   6  23
HETATM   23  O2  UNL     1      25.713   3.653  16.547  1.00  0.00    -0.346 OA
ATOM     24  H2  UNL     1      25.697   4.414  15.980  1.00  0.00     0.219 HD
ENDBRANCH   6  23
ENDBRANCH   1   6
BRANCH   1  25
HETATM   25  O3  UNL     1      22.628   4.545  17.510  1.00  0.00    -0.365 OA
ATOM     26  H3  UNL     1      21.765   4.791  17.200  1.00  0.00     0.212 HD
ENDBRANCH   1  25
BRANCH   2  27
HETATM   27  O4  UNL     1      24.377   6.401  17.276  1.00  0.00    -0.388 OA
ATOM     28  H4  UNL     1      25.213   6.854  17.270  1.00  0.00     0.210 HD
ENDBRANCH   2  27
BRANCH   5  29
HETATM   29  N5  UNL     1      21.769   3.085  15.473  1.00  0.00    -0.360 NA
ATOM     30  H52 UNL     1      21.484   2.956  16.444  1.00  0.00     0.171 HD
ATOM     31  H51 UNL     1      21.827   2.172  15.021  1.00  0.00     0.171 HD
ENDBRANCH   5  29
BRANCH   3  32
HETATM   32  O5  UNL     1      22.100   6.697  15.994  1.00  0.00    -0.391 OA
ATOM     33  H5  UNL     1      21.274   6.551  15.548  1.00  0.00     0.210 HD
ENDBRANCH   3  32
BRANCH   4  34
HETATM   34  C11 UNL     1      23.736   4.864  13.305  1.00  0.00     0.224 C 
BRANCH  34  35
HETATM   35  O6  UNL     1      22.983   4.490  12.194  1.00  0.00    -0.286 OA
BRANCH  35  36
HETATM   36  N3  UNL     1      23.211   3.204  11.924  1.00  0.00    -0.311 N 
ATOM     37  H32 UNL     1      24.116   2.743  12.020  1.00  0.00     0.184 HD
ATOM     38  H31 UNL     1      22.343   2.769  11.610  1.00  0.00     0.184 HD
ENDBRANCH  35  36
ENDBRANCH  34  35
ENDBRANCH   4  34
TORSDOF 11
ENDMDL
MODEL 2
REMARK VINA RESULT: -6.063519346      2.445      7.411
REMARK  11 active torsions:
REMARK  status: ('A' for Active; 'I' for Inactive)
REMARK       I    between atoms: C2_2  and  N1_4 
REMARK    1  A    between atoms: N1_4  and  C3_6 
REMARK    2  A    between atoms: C5_8  and  N2_9 
REMARK    3  A    between atoms: C6_11  and  O2_12 
REMARK    4  A    between atoms: C6_11  and  C7_14 
REMARK    5  A    between atoms: C7_14  and  O3_15 
REMARK    6  A    between atoms: C8_17  and  O4_18 
REMARK    7  A    between atoms: C9_20  and  O5_21 
REMARK    8  A    between atoms: C10_23  and  C11_24 
REMARK    9  A    between atoms: C11_24  and  O6_25 
REMARK   10  A    between atoms: O6_25  and  N3_26 
REMARK   11  A    between atoms: N4_29  and  N5_30 
ROOT
HETATM    1  C7  UNL     1      23.289   2.783  16.971  1.00  0.00     0.226 C 
HETATM    2  C8  UNL     1      22.961   3.436  18.321  1.00  0.00     0.208 C 
HETATM    3  C9  UNL     1      23.607   2.434  19.253  1.00  0.00     0.173 C 
HETATM    4  C10 UNL     1      23.219   1.121  18.622  1.00  0.00     0.140 C 
HETATM    5  N4  UNL     1      23.097   1.358  17.230  1.00  0.00    -0.184 NA
ENDROOT
BRANCH   1   6
HETATM    6  C6  UNL     1      22.315   3.143  15.954  1.00  0.00     0.173 C 
HETATM    7  N2  UNL     1      22.172   4.055  14.963  1.00  0.00    -0.323 N 
ATOM      8  H2  UNL     1      21.294   3.986  14.449  1.00  0.00     0.169 HD
BRANCH   7   9
HETATM    9  C5  UNL     1      23.022   5.077  14.523  1.00  0.00     0.111 A 
HETATM   10  C4  UNL     1      23.564   5.026  13.219  1.00  0.00     0.097 A 
HETATM   11  C3  UNL     1      24.403   6.029  12.791  1.00  0.00     0.112 A 
HETATM   12  N7  UNL     1      24.716   7.064  13.597  1.00  0.00    -0.332 N 
HETATM   13  C12 UNL     1      24.210   7.130  14.843  1.00  0.00     0.080 A 
ATOM     14  H7  UNL     1      25.338   7.799  13.262  1.00  0.00     0.168 HD
HETATM   15  N6  UNL     1      23.412   6.156  15.224  1.00  0.00    -0.332 N 
HETATM   16  C13 UNL     1      24.555   8.282  15.750  1.00  0.00     0.089 C 
ATOM     17  H6  UNL     1      23.041   6.229  16.171  1.00  0.00     0.168 HD
BRANCH  11  18
HETATM   18  N1  UNL     1      24.921   5.928  11.467  1.00  0.00    -0.313 N 
HETATM   19  C2  UNL     1      26.171   5.331  11.221  1.00  0.00     0.219 C 
HETATM   20  C1  UNL     1      27.079   4.756  12.209  1.00  0.00     0.117 C 
HETATM   21  O1  UNL     1      26.531   5.297   9.989  1.00  0.00    -0.274 OA
ATOM     22  H1  UNL     1      24.377   6.295  10.686  1.00  0.00     0.170 HD
ENDBRANCH  11  18
ENDBRANCH   7   9
BRANCH   6  23
HETATM   23  O2  UNL     1      21.264   2.308  16.056  1.00  0.00    -0.346 OA
ATOM     24  H2  UNL     1      21.350   1.688  16.770  1.00  0.00     0.219 HD
ENDBRANCH   6  23
ENDBRANCH   1   6
BRANCH   1  25
HETATM   25  O3  UNL     1      24.562   3.104  16.682  1.00  0.00    -0.365 OA
ATOM     26  H3  UNL     1      25.190   2.930  17.374  1.00  0.00     0.212 HD
ENDBRANCH   1  25
BRANCH   2  27
HETATM   27  O4  UNL     1      23.593   4.648  18.481  1.00  0.00    -0.388 OA
ATOM     28  H4  UNL     1      23.131   5.218  19.085  1.00  0.00     0.210 HD
ENDBRANCH   2  27
BRANCH   5  29
HETATM   29  N5  UNL     1      23.881   0.556  16.425  1.00  0.00    -0.360 NA
ATOM     30  H52 UNL     1      24.457   1.053  15.745  1.00  0.00     0.171 HD
ATOM     31  H51 UNL     1      23.346  -0.167  15.943  1.00  0.00     0.171 HD
ENDBRANCH   5  29
BRANCH   3  32
HETATM   32  O5  UNL     1      24.992   2.569  19.279  1.00  0.00    -0.391 OA
ATOM     33  H5  UNL     1      25.354   2.341  20.126  1.00  0.00     0.210 HD
ENDBRANCH   3  32
BRANCH   4  34
HETATM   34  C11 UNL     1      21.821   0.780  19.154  1.00  0.00     0.224 C 
BRANCH  34  35
HETATM   35  O6  UNL     1      21.170   0.123  18.113  1.00  0.00    -0.286 OA
BRANCH  35  36
HETATM   36  N3  UNL     1      19.906   0.545  18.052  1.00  0.00    -0.311 N 
ATOM     37  H32 UNL     1      19.623   1.495  17.812  1.00  0.00     0.184 HD
ATOM     38  H31 UNL     1      19.283  -0.229  18.281  1.00  0.00     0.184 HD
ENDBRANCH  35  36
ENDBRANCH  34  35
ENDBRANCH   4  34
TORSDOF 11
ENDMDL
MODEL 3
REMARK VINA RESULT: -5.922285777      2.764      7.410
REMARK  11 active torsions:
REMARK  status: ('A' for Active; 'I' for Inactive)
REMARK       I    between atoms: C2_2  and  N1_4 
REMARK    1  A    between atoms: N1_4  and  C3_6 
REMARK    2  A    between atoms: C5_8  and  N2_9 
REMARK    3  A    between atoms: C6_11  and  O2_12 
REMARK    4  A    between atoms: C6_11  and  C7_14 
REMARK    5  A    between atoms: C7_14  and  O3_15 
REMARK    6  A    between atoms: C8_17  and  O4_18 
REMARK    7  A    between atoms: C9_20  and  O5_21 
REMARK    8  A    between atoms: C10_23  and  C11_24 
REMARK    9  A    between atoms: C11_24  and  O6_25 
REMARK   10  A    between atoms: O6_25  and  N3_26 
REMARK   11  A    between atoms: N4_29  and  N5_30 
ROOT
HETATM    1  C7  UNL     1      23.440   1.634  18.052  1.00  0.00     0.226 C 
HETATM    2  C8  UNL     1      23.710   0.393  18.915  1.00  0.00     0.208 C 
HETATM    3  C9  UNL     1      22.693  -0.557  18.320  1.00  0.00     0.173 C 
HETATM    4  C10 UNL     1      21.490   0.336  18.146  1.00  0.00     0.140 C 
HETATM    5  N4  UNL     1      21.984   1.646  17.922  1.00  0.00    -0.184 NA
ENDROOT
BRANCH   1   6
HETATM    6  C6  UNL     1      23.792   2.858  18.753  1.00  0.00     0.173 C 
HETATM    7  N2  UNL     1      23.842   4.188  18.508  1.00  0.00    -0.323 N 
ATOM      8  H2  UNL     1      24.168   4.750  19.294  1.00  0.00     0.169 HD
BRANCH   7   9
HETATM    9  C5  UNL     1      23.522   4.927  17.362  1.00  0.00     0.111 A 
HETATM   10  C4  UNL     1      22.694   6.066  17.470  1.00  0.00     0.097 A 
HETATM   11  C3  UNL     1      22.378   6.787  16.341  1.00  0.00     0.112 A 
HETATM   12  N7  UNL     1      22.848   6.423  15.130  1.00  0.00    -0.332 N 
HETATM   13  C12 UNL     1      23.639   5.340  15.007  1.00  0.00     0.080 A 
ATOM     14  H7  UNL     1      22.605   6.970  14.305  1.00  0.00     0.168 HD
HETATM   15  N6  UNL     1      23.923   4.672  16.104  1.00  0.00    -0.332 N 
HETATM   16  C13 UNL     1      24.168   4.927  13.660  1.00  0.00     0.089 C 
ATOM     17  H6  UNL     1      24.523   3.856  15.986  1.00  0.00     0.168 HD
BRANCH  11  18
HETATM   18  N1  UNL     1      21.539   7.927  16.506  1.00  0.00    -0.313 N 
HETATM   19  C2  UNL     1      22.077   9.180  16.852  1.00  0.00     0.219 C 
HETATM   20  C1  UNL     1      23.483   9.498  17.083  1.00  0.00     0.117 C 
HETATM   21  O1  UNL     1      21.223  10.131  16.972  1.00  0.00    -0.274 OA
ATOM     22  H1  UNL     1      20.532   7.832  16.371  1.00  0.00     0.170 HD
ENDBRANCH  11  18
ENDBRANCH   7   9
BRANCH   6  23
HETATM   23  O2  UNL     1      24.175   2.538  20.003  1.00  0.00    -0.346 OA
ATOM     24  H2  UNL     1      23.442   2.416  20.596  1.00  0.00     0.219 HD
ENDBRANCH   6  23
ENDBRANCH   1   6
BRANCH   1  25
HETATM   25  O3  UNL     1      24.075   1.441  16.883  1.00  0.00    -0.365 OA
ATOM     26  H3  UNL     1      23.888   0.615  16.453  1.00  0.00     0.212 HD
ENDBRANCH   1  25
BRANCH   2  27
HETATM   27  O4  UNL     1      24.966  -0.126  18.703  1.00  0.00    -0.388 OA
ATOM     28  H4  UNL     1      25.247  -0.690  19.414  1.00  0.00     0.210 HD
ENDBRANCH   2  27
BRANCH   5  29
HETATM   29  N5  UNL     1      21.554   2.246  16.756  1.00  0.00    -0.360 NA
ATOM     30  H52 UNL     1      20.929   3.043  16.881  1.00  0.00     0.171 HD
ATOM     31  H51 UNL     1      21.127   1.587  16.105  1.00  0.00     0.171 HD
ENDBRANCH   5  29
BRANCH   3  32
HETATM   32  O5  UNL     1      23.109  -1.056  17.089  1.00  0.00    -0.391 OA
ATOM     33  H5  UNL     1      23.803  -1.697  17.184  1.00  0.00     0.210 HD
ENDBRANCH   3  32
BRANCH   4  34
HETATM   34  C11 UNL     1      20.758   0.346  19.493  1.00  0.00     0.224 C 
BRANCH  34  35
HETATM   35  O6  UNL     1      19.425   0.620  19.198  1.00  0.00    -0.286 OA
BRANCH  35  36
HETATM   36  N3  UNL     1      19.193   0.331  17.916  1.00  0.00    -0.311 N 
ATOM     37  H32 UNL     1      19.815   0.575  17.146  1.00  0.00     0.184 HD
ATOM     38  H31 UNL     1      18.305  -0.165  17.840  1.00  0.00     0.184 HD
ENDBRANCH  35  36
ENDBRANCH  34  35
ENDBRANCH   4  34
TORSDOF 11
ENDMDL
MODEL 4
REMARK VINA RESULT: -5.890679092      2.617      7.760
REMARK  11 active torsions:
REMARK  status: ('A' for Active; 'I' for Inactive)
REMARK       I    between atoms: C2_2  and  N1_4 
REMARK    1  A    between atoms: N1_4  and  C3_6 
REMARK    2  A    between atoms: C5_8  and  N2_9 
REMARK    3  A    between atoms: C6_11  and  O2_12 
REMARK    4  A    between atoms: C6_11  and  C7_14 
REMARK    5  A    between atoms: C7_14  and  O3_15 
REMARK    6  A    between atoms: C8_17  and  O4_18 
REMARK    7  A    between atoms: C9_20  and  O5_21 
REMARK    8  A    between atoms: C10_23  and  C11_24 
REMARK    9  A    between atoms: C11_24  and  O6_25 
REMARK   10  A    between atoms: O6_25  and  N3_26 
REMARK   11  A    between atoms: N4_29  and  N5_30 
ROOT
HETATM    1  C7  UNL     1      23.381   3.012  16.885  1.00  0.00     0.226 C 
HETATM    2  C8  UNL     1      23.065   3.697  18.220  1.00  0.00     0.208 C 
HETATM    3  C9  UNL     1      23.658   2.683  19.175  1.00  0.00     0.173 C 
HETATM    4  C10 UNL     1      23.223   1.378  18.557  1.00  0.00     0.140 C 
HETATM    5  N4  UNL     1      23.128   1.599  17.161  1.00  0.00    -0.184 NA
ENDROOT
BRANCH   1   6
HETATM    6  C6  UNL     1      22.435   3.396  15.850  1.00  0.00     0.173 C 
HETATM    7  N2  UNL     1      22.200   4.447  15.029  1.00  0.00    -0.323 N 
ATOM      8  H2  UNL     1      21.390   4.335  14.420  1.00  0.00     0.169 HD
BRANCH   7   9
HETATM    9  C5  UNL     1      22.878   5.662  14.873  1.00  0.00     0.111 A 
HETATM   10  C4  UNL     1      23.657   5.887  13.715  1.00  0.00     0.097 A 
HETATM   11  C3  UNL     1      24.326   7.080  13.566  1.00  0.00     0.112 A 
HETATM   12  N7  UNL     1      24.249   8.041  14.508  1.00  0.00    -0.332 N 
HETATM   13  C12 UNL     1      23.513   7.846  15.618  1.00  0.00     0.080 A 
ATOM     14  H7  UNL     1      24.751   8.920  14.380  1.00  0.00     0.168 HD
HETATM   15  N6  UNL     1      22.885   6.696  15.732  1.00  0.00    -0.332 N 
HETATM   16  C13 UNL     1      23.422   8.914  16.675  1.00  0.00     0.089 C 
ATOM     17  H6  UNL     1      22.334   6.571  16.581  1.00  0.00     0.168 HD
BRANCH  11  18
HETATM   18  N1  UNL     1      25.097   7.254  12.380  1.00  0.00    -0.313 N 
HETATM   19  C2  UNL     1      24.485   7.599  11.160  1.00  0.00     0.219 C 
HETATM   20  C1  UNL     1      23.062   7.820  10.925  1.00  0.00     0.117 C 
HETATM   21  O1  UNL     1      25.282   7.728  10.163  1.00  0.00    -0.274 OA
ATOM     22  H1  UNL     1      26.109   7.126  12.416  1.00  0.00     0.170 HD
ENDBRANCH  11  18
ENDBRANCH   7   9
BRANCH   6  23
HETATM   23  O2  UNL     1      21.550   2.394  15.688  1.00  0.00    -0.346 OA
ATOM     24  H2  UNL     1      21.956   1.536  15.700  1.00  0.00     0.219 HD
ENDBRANCH   6  23
ENDBRANCH   1   6
BRANCH   1  25
HETATM   25  O3  UNL     1      24.670   3.275  16.607  1.00  0.00    -0.365 OA
ATOM     26  H3  UNL     1      25.029   4.039  17.041  1.00  0.00     0.212 HD
ENDBRANCH   1  25
BRANCH   2  27
HETATM   27  O4  UNL     1      23.744   4.884  18.371  1.00  0.00    -0.388 OA
ATOM     28  H4  UNL     1      23.695   5.428  17.593  1.00  0.00     0.210 HD
ENDBRANCH   2  27
BRANCH   5  29
HETATM   29  N5  UNL     1      23.888   0.754  16.377  1.00  0.00    -0.360 NA
ATOM     30  H52 UNL     1      24.115   1.109  15.448  1.00  0.00     0.171 HD
ATOM     31  H51 UNL     1      23.480  -0.177  16.286  1.00  0.00     0.171 HD
ENDBRANCH   5  29
BRANCH   3  32
HETATM   32  O5  UNL     1      25.047   2.762  19.215  1.00  0.00    -0.391 OA
ATOM     33  H5  UNL     1      25.414   2.191  19.880  1.00  0.00     0.210 HD
ENDBRANCH   3  32
BRANCH   4  34
HETATM   34  C11 UNL     1      21.807   1.103  19.077  1.00  0.00     0.224 C 
BRANCH  34  35
HETATM   35  O6  UNL     1      21.132   0.484  18.027  1.00  0.00    -0.286 OA
BRANCH  35  36
HETATM   36  N3  UNL     1      19.949   1.076  17.859  1.00  0.00    -0.311 N 
ATOM     37  H32 UNL     1      19.061   0.581  17.771  1.00  0.00     0.184 HD
ATOM     38  H31 UNL     1      20.080   2.087  17.832  1.00  0.00     0.184 HD
ENDBRANCH  35  36
ENDBRANCH  34  35
ENDBRANCH   4  34
TORSDOF 11
ENDMDL
MODEL 5
REMARK VINA RESULT: -5.860332591      2.495      7.457
REMARK  11 active torsions:
REMARK  status: ('A' for Active; 'I' for Inactive)
REMARK       I    between atoms: C2_2  and  N1_4 
REMARK    1  A    between atoms: N1_4  and  C3_6 
REMARK    2  A    between atoms: C5_8  and  N2_9 
REMARK    3  A    between atoms: C6_11  and  O2_12 
REMARK    4  A    between atoms: C6_11  and  C7_14 
REMARK    5  A    between atoms: C7_14  and  O3_15 
REMARK    6  A    between atoms: C8_17  and  O4_18 
REMARK    7  A    between atoms: C9_20  and  O5_21 
REMARK    8  A    between atoms: C10_23  and  C11_24 
REMARK    9  A    between atoms: C11_24  and  O6_25 
REMARK   10  A    between atoms: O6_25  and  N3_26 
REMARK   11  A    between atoms: N4_29  and  N5_30 
ROOT
HETATM    1  C7  UNL     1      23.385   2.979  16.747  1.00  0.00     0.226 C 
HETATM    2  C8  UNL     1      23.006   3.739  18.025  1.00  0.00     0.208 C 
HETATM    3  C9  UNL     1      23.541   2.776  19.063  1.00  0.00     0.173 C 
HETATM    4  C10 UNL     1      23.127   1.441  18.497  1.00  0.00     0.140 C 
HETATM    5  N4  UNL     1      23.106   1.585  17.087  1.00  0.00    -0.184 NA
ENDROOT
BRANCH   1   6
HETATM    6  C6  UNL     1      22.496   3.311  15.646  1.00  0.00     0.173 C 
HETATM    7  N2  UNL     1      22.465   4.152  14.585  1.00  0.00    -0.323 N 
ATOM      8  H2  UNL     1      21.618   4.089  14.021  1.00  0.00     0.169 HD
BRANCH   7   9
HETATM    9  C5  UNL     1      23.396   5.094  14.129  1.00  0.00     0.111 A 
HETATM   10  C4  UNL     1      23.477   6.359  14.752  1.00  0.00     0.097 A 
HETATM   11  C3  UNL     1      24.389   7.284  14.298  1.00  0.00     0.112 A 
HETATM   12  N7  UNL     1      25.211   7.001  13.267  1.00  0.00    -0.332 N 
HETATM   13  C12 UNL     1      25.149   5.801  12.661  1.00  0.00     0.080 A 
ATOM     14  H7  UNL     1      25.882   7.698  12.946  1.00  0.00     0.168 HD
HETATM   15  N6  UNL     1      24.266   4.938  13.116  1.00  0.00    -0.332 N 
HETATM   16  C13 UNL     1      26.062   5.476  11.508  1.00  0.00     0.089 C 
ATOM     17  H6  UNL     1      24.239   4.037  12.641  1.00  0.00     0.168 HD
BRANCH  11  18
HETATM   18  N1  UNL     1      24.428   8.544  14.962  1.00  0.00    -0.313 N 
HETATM   19  C2  UNL     1      25.252   8.748  16.085  1.00  0.00     0.219 C 
HETATM   20  C1  UNL     1      26.139   7.773  16.711  1.00  0.00     0.117 C 
HETATM   21  O1  UNL     1      25.202   9.925  16.597  1.00  0.00    -0.274 OA
ATOM     22  H1  UNL     1      23.849   9.311  14.618  1.00  0.00     0.170 HD
ENDBRANCH  11  18
ENDBRANCH   7   9
BRANCH   6  23
HETATM   23  O2  UNL     1      21.396   2.541  15.738  1.00  0.00    -0.346 OA
ATOM     24  H2  UNL     1      21.529   1.662  15.404  1.00  0.00     0.219 HD
ENDBRANCH   6  23
ENDBRANCH   1   6
BRANCH   1  25
HETATM   25  O3  UNL     1      24.689   3.219  16.522  1.00  0.00    -0.365 OA
ATOM     26  H3  UNL     1      25.169   3.568  17.264  1.00  0.00     0.212 HD
ENDBRANCH   1  25
BRANCH   2  27
HETATM   27  O4  UNL     1      23.687   4.929  18.145  1.00  0.00    -0.388 OA
ATOM     28  H4  UNL     1      23.752   5.217  19.048  1.00  0.00     0.210 HD
ENDBRANCH   2  27
BRANCH   5  29
HETATM   29  N5  UNL     1      23.897   0.694  16.392  1.00  0.00    -0.360 NA
ATOM     30  H52 UNL     1      23.689  -0.292  16.554  1.00  0.00     0.171 HD
ATOM     31  H51 UNL     1      24.895   0.852  16.537  1.00  0.00     0.171 HD
ENDBRANCH   5  29
BRANCH   3  32
HETATM   32  O5  UNL     1      24.927   2.849  19.171  1.00  0.00    -0.391 OA
ATOM     33  H5  UNL     1      25.197   3.196  20.012  1.00  0.00     0.210 HD
ENDBRANCH   3  32
BRANCH   4  34
HETATM   34  C11 UNL     1      21.684   1.203  18.956  1.00  0.00     0.224 C 
BRANCH  34  35
HETATM   35  O6  UNL     1      21.078   0.472  17.938  1.00  0.00    -0.286 OA
BRANCH  35  36
HETATM   36  N3  UNL     1      19.847   0.944  17.733  1.00  0.00    -0.311 N 
ATOM     37  H32 UNL     1      19.266   1.378  18.450  1.00  0.00     0.184 HD
ATOM     38  H31 UNL     1      19.591   0.799  16.756  1.00  0.00     0.184 HD
ENDBRANCH  35  36
ENDBRANCH  34  35
ENDBRANCH   4  34
TORSDOF 11
ENDMDL
