MODEL 1
REMARK VINA RESULT: -6.169550976      0.000      0.000
REMARK  6 active torsions:
REMARK  status: ('A' for Active; 'I' for Inactive)
REMARK    1  A    between atoms: N3_5  and  N4_6 
REMARK       I    between atoms: N4_6  and  C2_8 
REMARK    2  A    between atoms: C2_8  and  C3_10 
REMARK    3  A    between atoms: C4_13  and  N6_14 
REMARK    4  A    between atoms: C5_16  and  C6_17 
REMARK    5  A    between atoms: C9_24  and  O2_25 
REMARK    6  A    between atoms: C10_27  and  O3_28 
ROOT
HETATM    1  C3  UNL     1      22.510   3.449  16.518  1.00  0.00     0.108 C 
HETATM    2  N5  UNL     1      22.419   3.531  15.072  1.00  0.00    -0.363 N 
ATOM      3  H5  UNL     1      21.786   3.035  14.445  1.00  0.00     0.161 HD
HETATM    4  C4  UNL     1      23.479   4.517  14.731  1.00  0.00     0.213 C 
HETATM    5  C9  UNL     1      23.600   5.406  15.984  1.00  0.00     0.195 C 
HETATM    6  C10 UNL     1      23.522   4.356  17.058  1.00  0.00     0.205 C 
ENDROOT
BRANCH   1   7
HETATM    7  C2  UNL     1      22.150   2.244  17.186  1.00  0.00     0.286 C 
HETATM    8  N4  UNL     1      23.049   1.412  17.893  1.00  0.00    -0.240 N 
ATOM      9  H4  UNL     1      24.016   1.723  17.992  1.00  0.00     0.192 HD
HETATM   10  O1  UNL     1      20.913   1.867  17.108  1.00  0.00    -0.264 OA
BRANCH   8  11
HETATM   11  N3  UNL     1      22.692   0.199  18.458  1.00  0.00    -0.158 N 
HETATM   12  N2  UNL     1      21.850   0.122  19.569  1.00  0.00    -0.248 N 
HETATM   13  C1  UNL     1      21.523  -1.004  20.116  1.00  0.00     0.223 A 
ATOM     14  H2  UNL     1      21.478   0.986  19.963  1.00  0.00     0.192 HD
HETATM   15  N1  UNL     1      20.663  -1.000  21.231  1.00  0.00    -0.061 NA
HETATM   16  N11 UNL     1      22.074  -2.195  19.514  1.00  0.00    -0.270 N 
HETATM   17  N10 UNL     1      22.899  -2.162  18.422  1.00  0.00    -0.268 N 
ATOM     18  H11 UNL     1      21.838  -3.100  19.921  1.00  0.00     0.189 HD
HETATM   19  C11 UNL     1      23.224  -0.986  17.875  1.00  0.00     0.245 A 
ATOM     20  H10 UNL     1      23.264  -3.030  18.028  1.00  0.00     0.190 HD
HETATM   21  N9  UNL     1      24.046  -1.053  16.721  1.00  0.00    -0.059 NA
ENDBRANCH   8  11
ENDBRANCH   1   7
BRANCH   6  22
HETATM   22  O3  UNL     1      23.070   4.997  18.262  1.00  0.00    -0.387 OA
ATOM     23  H3  UNL     1      22.564   4.403  18.806  1.00  0.00     0.210 HD
ENDBRANCH   6  22
BRANCH   4  24
HETATM   24  N6  UNL     1      23.091   5.274  13.609  1.00  0.00    -0.374 N 
HETATM   25  C5  UNL     1      23.729   5.557  12.569  1.00  0.00     0.116 C 
ATOM     26  H6  UNL     1      22.144   5.649  13.649  1.00  0.00     0.161 HD
BRANCH  25  27
HETATM   27  C6  UNL     1      25.062   5.197  12.120  1.00  0.00     0.063 A 
HETATM   28  C7  UNL     1      26.202   5.861  12.512  1.00  0.00     0.119 A 
HETATM   29  N7  UNL     1      27.236   5.288  11.883  1.00  0.00    -0.360 N 
HETATM   30  C8  UNL     1      26.787   4.308  11.121  1.00  0.00     0.180 A 
ATOM     31  H7  UNL     1      28.214   5.564  11.978  1.00  0.00     0.166 HD
HETATM   32  N8  UNL     1      25.442   4.266  11.281  1.00  0.00    -0.350 N 
ATOM     33  H8  UNL     1      24.818   3.606  10.815  1.00  0.00     0.166 HD
ENDBRANCH  25  27
ENDBRANCH   4  24
BRANCH   5  34
HETATM   34  O2  UNL     1      22.391   6.134  16.008  1.00  0.00    -0.389 OA
ATOM     35  H2  UNL     1      22.449   6.707  15.252  1.00  0.00     0.210 HD
ENDBRANCH   5  34
TORSDOF 6
ENDMDL
MODEL 2
REMARK VINA RESULT: -6.043491322      2.988      4.383
REMARK  6 active torsions:
REMARK  status: ('A' for Active; 'I' for Inactive)
REMARK    1  A    between atoms: N3_5  and  N4_6 
REMARK       I    between atoms: N4_6  and  C2_8 
REMARK    2  A    between atoms: C2_8  and  C3_10 
REMARK    3  A    between atoms: C4_13  and  N6_14 
REMARK    4  A    between atoms: C5_16  and  C6_17 
REMARK    5  A    between atoms: C9_24  and  O2_25 
REMARK    6  A    between atoms: C10_27  and  O3_28 
ROOT
HETATM    1  C3  UNL     1      23.437   3.722  15.834  1.00  0.00     0.108 C 
HETATM    2  N5  UNL     1      23.988   4.887  16.503  1.00  0.00    -0.363 N 
ATOM      3  H5  UNL     1      24.526   4.929  17.368  1.00  0.00     0.161 HD
HETATM    4  C4  UNL     1      23.572   6.003  15.613  1.00  0.00     0.213 C 
HETATM    5  C9  UNL     1      23.445   5.362  14.218  1.00  0.00     0.195 C 
HETATM    6  C10 UNL     1      22.764   4.072  14.584  1.00  0.00     0.205 C 
ENDROOT
BRANCH   1   7
HETATM    7  C2  UNL     1      23.062   2.577  16.594  1.00  0.00     0.286 C 
HETATM    8  N4  UNL     1      22.098   2.575  17.629  1.00  0.00    -0.240 N 
ATOM      9  H4  UNL     1      21.582   3.437  17.808  1.00  0.00     0.192 HD
HETATM   10  O1  UNL     1      23.677   1.466  16.340  1.00  0.00    -0.264 OA
BRANCH   8  11
HETATM   11  N3  UNL     1      21.815   1.469  18.414  1.00  0.00    -0.158 N 
HETATM   12  N2  UNL     1      22.681   1.038  19.419  1.00  0.00    -0.248 N 
HETATM   13  C1  UNL     1      22.436  -0.004  20.147  1.00  0.00     0.223 A 
ATOM     14  H2  UNL     1      23.540   1.562  19.586  1.00  0.00     0.192 HD
HETATM   15  N1  UNL     1      23.356  -0.374  21.147  1.00  0.00    -0.061 NA
HETATM   16  N11 UNL     1      21.205  -0.706  19.871  1.00  0.00    -0.270 N 
HETATM   17  N10 UNL     1      20.326  -0.311  18.897  1.00  0.00    -0.268 N 
ATOM     18  H11 UNL     1      20.980  -1.533  20.425  1.00  0.00     0.189 HD
HETATM   19  C11 UNL     1      20.603   0.767  18.156  1.00  0.00     0.245 A 
ATOM     20  H10 UNL     1      19.466  -0.837  18.737  1.00  0.00     0.190 HD
HETATM   21  N9  UNL     1      19.615   1.126  17.205  1.00  0.00    -0.059 NA
ENDBRANCH   8  11
ENDBRANCH   1   7
BRANCH   6  22
HETATM   22  O3  UNL     1      23.047   3.119  13.546  1.00  0.00    -0.387 OA
ATOM     23  H3  UNL     1      22.258   2.866  13.079  1.00  0.00     0.210 HD
ENDBRANCH   6  22
BRANCH   4  24
HETATM   24  N6  UNL     1      24.552   7.015  15.618  1.00  0.00    -0.374 N 
HETATM   25  C5  UNL     1      24.462   8.221  15.940  1.00  0.00     0.116 C 
ATOM     26  H6  UNL     1      25.478   6.718  15.313  1.00  0.00     0.161 HD
BRANCH  25  27
HETATM   27  C6  UNL     1      23.354   9.011  16.447  1.00  0.00     0.063 A 
HETATM   28  C7  UNL     1      23.265   9.451  17.747  1.00  0.00     0.119 A 
HETATM   29  N7  UNL     1      22.106  10.112  17.869  1.00  0.00    -0.360 N 
HETATM   30  C8  UNL     1      21.477  10.094  16.708  1.00  0.00     0.180 A 
ATOM     31  H7  UNL     1      21.765  10.557  18.721  1.00  0.00     0.166 HD
HETATM   32  N8  UNL     1      22.262   9.411  15.841  1.00  0.00    -0.350 N 
ATOM     33  H8  UNL     1      22.037   9.233  14.862  1.00  0.00     0.166 HD
ENDBRANCH  25  27
ENDBRANCH   4  24
BRANCH   5  34
HETATM   34  O2  UNL     1      24.775   5.057  13.856  1.00  0.00    -0.389 OA
ATOM     35  H2  UNL     1      24.703   4.711  12.974  1.00  0.00     0.210 HD
ENDBRANCH   5  34
TORSDOF 6
ENDMDL
MODEL 3
REMARK VINA RESULT: -5.972633049      1.440      1.678
REMARK  6 active torsions:
REMARK  status: ('A' for Active; 'I' for Inactive)
REMARK    1  A    between atoms: N3_5  and  N4_6 
REMARK       I    between atoms: N4_6  and  C2_8 
REMARK    2  A    between atoms: C2_8  and  C3_10 
REMARK    3  A    between atoms: C4_13  and  N6_14 
REMARK    4  A    between atoms: C5_16  and  C6_17 
REMARK    5  A    between atoms: C9_24  and  O2_25 
REMARK    6  A    between atoms: C10_27  and  O3_28 
ROOT
HETATM    1  C3  UNL     1      22.814   5.023  16.019  1.00  0.00     0.108 C 
HETATM    2  N5  UNL     1      23.106   5.208  14.610  1.00  0.00    -0.363 N 
ATOM      3  H5  UNL     1      22.742   4.690  13.811  1.00  0.00     0.161 HD
HETATM    4  C4  UNL     1      24.071   6.340  14.621  1.00  0.00     0.213 C 
HETATM    5  C9  UNL     1      23.724   7.134  15.894  1.00  0.00     0.195 C 
HETATM    6  C10 UNL     1      23.505   6.001  16.858  1.00  0.00     0.205 C 
ENDROOT
BRANCH   1   7
HETATM    7  C2  UNL     1      22.457   3.733  16.508  1.00  0.00     0.286 C 
HETATM    8  N4  UNL     1      22.947   3.159  17.705  1.00  0.00    -0.240 N 
ATOM      9  H4  UNL     1      23.549   3.728  18.300  1.00  0.00     0.192 HD
HETATM   10  O1  UNL     1      21.653   3.022  15.783  1.00  0.00    -0.264 OA
BRANCH   8  11
HETATM   11  N3  UNL     1      22.656   1.868  18.114  1.00  0.00    -0.158 N 
HETATM   12  N2  UNL     1      21.420   1.532  18.669  1.00  0.00    -0.248 N 
HETATM   13  C1  UNL     1      21.143   0.333  19.071  1.00  0.00     0.223 A 
ATOM     14  H2  UNL     1      20.710   2.257  18.762  1.00  0.00     0.192 HD
HETATM   15  N1  UNL     1      19.871   0.070  19.615  1.00  0.00    -0.061 NA
HETATM   16  N11 UNL     1      22.183  -0.655  18.912  1.00  0.00    -0.270 N 
HETATM   17  N10 UNL     1      23.407  -0.366  18.367  1.00  0.00    -0.268 N 
ATOM     18  H11 UNL     1      21.999  -1.610  19.219  1.00  0.00     0.189 HD
HETATM   19  C11 UNL     1      23.671   0.881  17.961  1.00  0.00     0.245 A 
ATOM     20  H10 UNL     1      24.112  -1.097  18.272  1.00  0.00     0.190 HD
HETATM   21  N9  UNL     1      24.944   1.075  17.370  1.00  0.00    -0.059 NA
ENDBRANCH   8  11
ENDBRANCH   1   7
BRANCH   6  22
HETATM   22  O3  UNL     1      22.660   6.483  17.915  1.00  0.00    -0.387 OA
ATOM     23  H3  UNL     1      23.082   7.174  18.413  1.00  0.00     0.210 HD
ENDBRANCH   6  22
BRANCH   4  24
HETATM   24  N6  UNL     1      23.899   7.130  13.468  1.00  0.00    -0.374 N 
HETATM   25  C5  UNL     1      24.459   7.057  12.351  1.00  0.00     0.116 C 
ATOM     26  H6  UNL     1      23.212   7.878  13.558  1.00  0.00     0.161 HD
BRANCH  25  27
HETATM   27  C6  UNL     1      25.448   6.136  11.819  1.00  0.00     0.063 A 
HETATM   28  C7  UNL     1      26.744   6.496  11.527  1.00  0.00     0.119 A 
HETATM   29  N7  UNL     1      27.358   5.416  11.028  1.00  0.00    -0.360 N 
HETATM   30  C8  UNL     1      26.501   4.411  10.995  1.00  0.00     0.180 A 
ATOM     31  H7  UNL     1      28.330   5.375  10.722  1.00  0.00     0.166 HD
HETATM   32  N8  UNL     1      25.328   4.874  11.489  1.00  0.00    -0.350 N 
ATOM     33  H8  UNL     1      24.476   4.322  11.588  1.00  0.00     0.166 HD
ENDBRANCH  25  27
ENDBRANCH   4  24
BRANCH   5  34
HETATM   34  O2  UNL     1      22.463   7.705  15.612  1.00  0.00    -0.389 OA
ATOM     35  H2  UNL     1      21.897   7.369  16.297  1.00  0.00     0.210 HD
ENDBRANCH   5  34
TORSDOF 6
ENDMDL
MODEL 4
REMARK VINA RESULT: -5.965576820      1.491      1.855
REMARK  6 active torsions:
REMARK  status: ('A' for Active; 'I' for Inactive)
REMARK    1  A    between atoms: N3_5  and  N4_6 
REMARK       I    between atoms: N4_6  and  C2_8 
REMARK    2  A    between atoms: C2_8  and  C3_10 
REMARK    3  A    between atoms: C4_13  and  N6_14 
REMARK    4  A    between atoms: C5_16  and  C6_17 
REMARK    5  A    between atoms: C9_24  and  O2_25 
REMARK    6  A    between atoms: C10_27  and  O3_28 
ROOT
HETATM    1  C3  UNL     1      22.830   4.149  16.235  1.00  0.00     0.108 C 
HETATM    2  N5  UNL     1      23.015   4.187  14.796  1.00  0.00    -0.363 N 
ATOM      3  H5  UNL     1      22.625   3.565  14.088  1.00  0.00     0.161 HD
HETATM    4  C4  UNL     1      23.912   5.359  14.610  1.00  0.00     0.213 C 
HETATM    5  C9  UNL     1      23.609   6.275  15.812  1.00  0.00     0.195 C 
HETATM    6  C10 UNL     1      23.521   5.248  16.908  1.00  0.00     0.205 C 
ENDROOT
BRANCH   1   7
HETATM    7  C2  UNL     1      22.582   2.908  16.888  1.00  0.00     0.286 C 
HETATM    8  N4  UNL     1      21.700   2.732  17.980  1.00  0.00    -0.240 N 
ATOM      9  H4  UNL     1      21.149   3.533  18.288  1.00  0.00     0.192 HD
HETATM   10  O1  UNL     1      23.241   1.873  16.472  1.00  0.00    -0.264 OA
BRANCH   8  11
HETATM   11  N3  UNL     1      21.543   1.533  18.656  1.00  0.00    -0.158 N 
HETATM   12  N2  UNL     1      22.511   1.051  19.538  1.00  0.00    -0.248 N 
HETATM   13  C1  UNL     1      22.384  -0.075  20.162  1.00  0.00     0.223 A 
ATOM     14  H2  UNL     1      23.351   1.608  19.697  1.00  0.00     0.192 HD
HETATM   15  N1  UNL     1      23.402  -0.492  21.041  1.00  0.00    -0.061 NA
HETATM   16  N11 UNL     1      21.174  -0.820  19.902  1.00  0.00    -0.270 N 
HETATM   17  N10 UNL     1      20.198  -0.380  19.048  1.00  0.00    -0.268 N 
ATOM     18  H11 UNL     1      21.041  -1.714  20.376  1.00  0.00     0.189 HD
HETATM   19  C11 UNL     1      20.354   0.787  18.414  1.00  0.00     0.245 A 
ATOM     20  H10 UNL     1      19.358  -0.938  18.897  1.00  0.00     0.190 HD
HETATM   21  N9  UNL     1      19.273   1.183  17.586  1.00  0.00    -0.059 NA
ENDBRANCH   8  11
ENDBRANCH   1   7
BRANCH   6  22
HETATM   22  O3  UNL     1      22.725   5.806  17.966  1.00  0.00    -0.387 OA
ATOM     23  H3  UNL     1      22.774   6.755  17.978  1.00  0.00     0.210 HD
ENDBRANCH   6  22
BRANCH   4  24
HETATM   24  N6  UNL     1      23.617   6.004  13.394  1.00  0.00    -0.374 N 
HETATM   25  C5  UNL     1      24.272   6.053  12.329  1.00  0.00     0.116 C 
ATOM     26  H6  UNL     1      22.732   6.510  13.379  1.00  0.00     0.161 HD
BRANCH  25  27
HETATM   27  C6  UNL     1      25.536   5.454  11.939  1.00  0.00     0.063 A 
HETATM   28  C7  UNL     1      26.762   6.025  12.198  1.00  0.00     0.119 A 
HETATM   29  N7  UNL     1      27.697   5.225  11.671  1.00  0.00    -0.360 N 
HETATM   30  C8  UNL     1      27.106   4.193  11.097  1.00  0.00     0.180 A 
ATOM     31  H7  UNL     1      28.704   5.386  11.708  1.00  0.00     0.166 HD
HETATM   32  N8  UNL     1      25.772   4.351  11.273  1.00  0.00    -0.350 N 
ATOM     33  H8  UNL     1      25.057   3.706  10.936  1.00  0.00     0.166 HD
ENDBRANCH  25  27
ENDBRANCH   4  24
BRANCH   5  34
HETATM   34  O2  UNL     1      22.302   6.748  15.563  1.00  0.00    -0.389 OA
ATOM     35  H2  UNL     1      22.417   7.679  15.408  1.00  0.00     0.210 HD
ENDBRANCH   5  34
TORSDOF 6
ENDMDL
MODEL 5
REMARK VINA RESULT: -5.957154899      1.421      1.810
REMARK  6 active torsions:
REMARK  status: ('A' for Active; 'I' for Inactive)
REMARK    1  A    between atoms: N3_5  and  N4_6 
REMARK       I    between atoms: N4_6  and  C2_8 
REMARK    2  A    between atoms: C2_8  and  C3_10 
REMARK    3  A    between atoms: C4_13  and  N6_14 
REMARK    4  A    between atoms: C5_16  and  C6_17 
REMARK    5  A    between atoms: C9_24  and  O2_25 
REMARK    6  A    between atoms: C10_27  and  O3_28 
ROOT
HETATM    1  C3  UNL     1      22.867   3.403  16.658  1.00  0.00     0.108 C 
HETATM    2  N5  UNL     1      22.648   3.394  15.224  1.00  0.00    -0.363 N 
ATOM      3  H5  UNL     1      22.029   2.794  14.678  1.00  0.00     0.161 HD
HETATM    4  C4  UNL     1      23.549   4.477  14.747  1.00  0.00     0.213 C 
HETATM    5  C9  UNL     1      23.665   5.441  15.943  1.00  0.00     0.195 C 
HETATM    6  C10 UNL     1      23.803   4.450  17.066  1.00  0.00     0.205 C 
ENDROOT
BRANCH   1   7
HETATM    7  C2  UNL     1      22.711   2.202  17.408  1.00  0.00     0.286 C 
HETATM    8  N4  UNL     1      22.021   2.103  18.639  1.00  0.00    -0.240 N 
ATOM      9  H4  UNL     1      21.542   2.932  18.991  1.00  0.00     0.192 HD
HETATM   10  O1  UNL     1      23.274   1.132  16.945  1.00  0.00    -0.264 OA
BRANCH   8  11
HETATM   11  N3  UNL     1      21.959   0.943  19.395  1.00  0.00    -0.158 N 
HETATM   12  N2  UNL     1      23.078   0.432  20.053  1.00  0.00    -0.248 N 
HETATM   13  C1  UNL     1      23.037  -0.660  20.747  1.00  0.00     0.223 A 
ATOM     14  H2  UNL     1      23.962   0.936  19.983  1.00  0.00     0.192 HD
HETATM   15  N1  UNL     1      24.207  -1.110  21.387  1.00  0.00    -0.061 NA
HETATM   16  N11 UNL     1      21.760  -1.331  20.815  1.00  0.00    -0.270 N 
HETATM   17  N10 UNL     1      20.638  -0.858  20.188  1.00  0.00    -0.268 N 
ATOM     18  H11 UNL     1      21.692  -2.195  21.353  1.00  0.00     0.189 HD
HETATM   19  C11 UNL     1      20.706   0.271  19.474  1.00  0.00     0.245 A 
ATOM     20  H10 UNL     1      19.755  -1.364  20.265  1.00  0.00     0.190 HD
HETATM   21  N9  UNL     1      19.485   0.707  18.900  1.00  0.00    -0.059 NA
ENDBRANCH   8  11
ENDBRANCH   1   7
BRANCH   6  22
HETATM   22  O3  UNL     1      23.378   5.097  18.276  1.00  0.00    -0.387 OA
ATOM     23  H3  UNL     1      22.507   5.468  18.187  1.00  0.00     0.210 HD
ENDBRANCH   6  22
BRANCH   4  24
HETATM   24  N6  UNL     1      22.981   5.121  13.631  1.00  0.00    -0.374 N 
HETATM   25  C5  UNL     1      23.518   5.523  12.574  1.00  0.00     0.116 C 
ATOM     26  H6  UNL     1      21.977   5.286  13.694  1.00  0.00     0.161 HD
BRANCH  25  27
HETATM   27  C6  UNL     1      24.886   5.452  12.093  1.00  0.00     0.063 A 
HETATM   28  C7  UNL     1      25.786   6.488  12.201  1.00  0.00     0.119 A 
HETATM   29  N7  UNL     1      26.928   6.090  11.626  1.00  0.00    -0.360 N 
HETATM   30  C8  UNL     1      26.772   4.862  11.167  1.00  0.00     0.180 A 
ATOM     31  H7  UNL     1      27.781   6.646  11.555  1.00  0.00     0.166 HD
HETATM   32  N8  UNL     1      25.506   4.484  11.464  1.00  0.00    -0.350 N 
ATOM     33  H8  UNL     1      25.096   3.579  11.233  1.00  0.00     0.166 HD
ENDBRANCH  25  27
ENDBRANCH   4  24
BRANCH   5  34
HETATM   34  O2  UNL     1      22.382   6.024  16.042  1.00  0.00    -0.389 OA
ATOM     35  H2  UNL     1      22.249   6.438  15.197  1.00  0.00     0.210 HD
ENDBRANCH   5  34
TORSDOF 6
ENDMDL
