MODEL 1
REMARK VINA RESULT: -6.377319675      0.000      0.000
REMARK  8 active torsions:
REMARK  status: ('A' for Active; 'I' for Inactive)
REMARK    1  A    between atoms: N1_4  and  C4_5 
REMARK    2  A    between atoms: C4_5  and  C5_6 
REMARK       I    between atoms: C5_6  and  N2_8 
REMARK    3  A    between atoms: N2_8  and  C6_10 
REMARK    4  A    between atoms: C8_12  and  N3_13 
REMARK    5  A    between atoms: N3_13  and  N4_15 
REMARK    6  A    between atoms: C10_24  and  N10_25 
REMARK    7  A    between atoms: N10_25  and  O2_27 
REMARK    8  A    between atoms: C11_31  and  N12_32 
ROOT
HETATM    1  C6  UNL     1      23.306   4.868  15.245  1.00  0.00     0.127 A 
HETATM    2  C7  UNL     1      23.639   6.220  14.967  1.00  0.00     0.099 A 
HETATM    3  C8  UNL     1      23.806   6.693  13.699  1.00  0.00     0.140 A 
HETATM    4  N9  UNL     1      23.644   5.827  12.685  1.00  0.00    -0.173 N 
ATOM      5  H9  UNL     1      23.763   6.159  11.728  1.00  0.00     0.186 HD
HETATM    6  C10 UNL     1      23.329   4.537  12.892  1.00  0.00     0.705 A 
HETATM    7  N11 UNL     1      23.167   4.086  14.165  1.00  0.00    -0.175 N 
ATOM      8  H11 UNL     1      22.928   3.103  14.304  1.00  0.00     0.186 HD
ENDROOT
BRANCH   1   9
HETATM    9  N2  UNL     1      23.155   4.465  16.579  1.00  0.00    -0.311 N 
HETATM   10  C5  UNL     1      23.492   3.225  17.122  1.00  0.00     0.242 C 
HETATM   11  O1  UNL     1      23.984   2.275  16.475  1.00  0.00    -0.271 OA
ATOM     12  H2  UNL     1      22.757   5.151  17.221  1.00  0.00     0.170 HD
BRANCH  10  13
HETATM   13  C4  UNL     1      23.260   2.962  18.607  1.00  0.00     0.250 C 
BRANCH  13  14
HETATM   14  N1  UNL     1      22.260   1.927  18.682  1.00  0.00    -0.183 N 
HETATM   15  C3  UNL     1      21.023   1.963  18.120  1.00  0.00     0.134 A 
HETATM   16  C2  UNL     1      20.352   0.805  18.404  1.00  0.00     0.038 A 
HETATM   17  C1  UNL     1      18.984   0.435  17.987  1.00  0.00     0.070 C 
HETATM   18  N13 UNL     1      21.168   0.057  19.137  1.00  0.00    -0.195 N 
HETATM   19  C11 UNL     1      22.327   0.743  19.304  1.00  0.00     0.678 A 
ATOM     20  H13 UNL     1      20.960  -0.870  19.509  1.00  0.00     0.184 HD
BRANCH  19  21
HETATM   21  N12 UNL     1      23.311   0.267  19.976  1.00  0.00    -0.234 N 
ATOM     22 2H12 UNL     1      24.265   0.267  19.614  1.00  0.00     0.174 HD
ATOM     23 1H12 UNL     1      23.284  -0.152  20.905  1.00  0.00     0.174 HD
ENDBRANCH  19  21
ENDBRANCH  13  14
ENDBRANCH  10  13
ENDBRANCH   1   9
BRANCH   3  24
HETATM   24  N3  UNL     1      24.093   7.893  13.463  1.00  0.00    -0.263 N 
ATOM     25  H3  UNL     1      23.424   8.557  13.852  1.00  0.00     0.190 HD
BRANCH  24  26
HETATM   26  N4  UNL     1      25.117   8.482  12.794  1.00  0.00    -0.148 N 
HETATM   27  N5  UNL     1      26.244   9.228  13.184  1.00  0.00     0.017 NA
HETATM   28  N6  UNL     1      26.386  10.131  12.119  1.00  0.00    -0.004 NA
HETATM   29  N7  UNL     1      25.986   9.437  11.000  1.00  0.00    -0.257 N 
HETATM   30  C9  UNL     1      25.221   8.437  11.354  1.00  0.00     0.240 C 
ATOM     31  H7  UNL     1      26.245   9.668  10.040  1.00  0.00     0.186 HD
HETATM   32  N8  UNL     1      24.646   7.534  10.447  1.00  0.00    -0.059 NA
ENDBRANCH  24  26
ENDBRANCH   3  24
BRANCH   6  33
HETATM   33  N10 UNL     1      23.174   3.700  11.908  1.00  0.00    -0.098 N 
ATOM     34  H10 UNL     1      23.137   4.028  10.943  1.00  0.00     0.213 HD
BRANCH  33  35
HETATM   35  O2  UNL     1      23.063   2.359  12.203  1.00  0.00    -0.276 OA
ATOM     36  H2  UNL     1      23.802   1.793  12.013  1.00  0.00     0.245 HD
ENDBRANCH  33  35
ENDBRANCH   6  33
TORSDOF 8
ENDMDL
MODEL 2
REMARK VINA RESULT: -6.283327200      3.909      8.051
REMARK  8 active torsions:
REMARK  status: ('A' for Active; 'I' for Inactive)
REMARK    1  A    between atoms: N1_4  and  C4_5 
REMARK    2  A    between atoms: C4_5  and  C5_6 
REMARK       I    between atoms: C5_6  and  N2_8 
REMARK    3  A    between atoms: N2_8  and  C6_10 
REMARK    4  A    between atoms: C8_12  and  N3_13 
REMARK    5  A    between atoms: N3_13  and  N4_15 
REMARK    6  A    between atoms: C10_24  and  N10_25 
REMARK    7  A    between atoms: N10_25  and  O2_27 
REMARK    8  A    between atoms: C11_31  and  N12_32 
ROOT
HETATM    1  C6  UNL     1      23.147   5.844  16.640  1.00  0.00     0.127 A 
HETATM    2  C7  UNL     1      22.759   4.869  17.597  1.00  0.00     0.099 A 
HETATM    3  C8  UNL     1      22.396   3.601  17.253  1.00  0.00     0.140 A 
HETATM    4  N9  UNL     1      22.413   3.280  15.948  1.00  0.00    -0.173 N 
ATOM      5  H9  UNL     1      22.146   2.337  15.668  1.00  0.00     0.186 HD
HETATM    6  C10 UNL     1      22.772   4.164  15.001  1.00  0.00     0.705 A 
HETATM    7  N11 UNL     1      23.132   5.424  15.367  1.00  0.00    -0.175 N 
ATOM      8  H11 UNL     1      23.402   6.082  14.635  1.00  0.00     0.186 HD
ENDROOT
BRANCH   1   9
HETATM    9  N2  UNL     1      23.504   7.126  17.081  1.00  0.00    -0.311 N 
HETATM   10  C5  UNL     1      23.060   8.342  16.562  1.00  0.00     0.242 C 
HETATM   11  O1  UNL     1      22.265   8.460  15.605  1.00  0.00    -0.271 OA
ATOM     12  H2  UNL     1      24.158   7.175  17.863  1.00  0.00     0.170 HD
BRANCH  10  13
HETATM   13  C4  UNL     1      23.554   9.649  17.174  1.00  0.00     0.250 C 
BRANCH  13  14
HETATM   14  N1  UNL     1      22.968   9.727  18.489  1.00  0.00    -0.183 N 
HETATM   15  C3  UNL     1      21.654   9.925  18.772  1.00  0.00     0.134 A 
HETATM   16  C2  UNL     1      21.469   9.943  20.127  1.00  0.00     0.038 A 
HETATM   17  C1  UNL     1      20.200  10.131  20.859  1.00  0.00     0.070 C 
HETATM   18  N13 UNL     1      22.662   9.755  20.681  1.00  0.00    -0.195 N 
HETATM   19  C11 UNL     1      23.570   9.625  19.681  1.00  0.00     0.678 A 
ATOM     20  H13 UNL     1      22.860   9.717  21.680  1.00  0.00     0.184 HD
BRANCH  19  21
HETATM   21  N12 UNL     1      24.818   9.432  19.913  1.00  0.00    -0.234 N 
ATOM     22 2H12 UNL     1      25.451  10.198  20.143  1.00  0.00     0.174 HD
ATOM     23 1H12 UNL     1      25.322   8.546  19.901  1.00  0.00     0.174 HD
ENDBRANCH  19  21
ENDBRANCH  13  14
ENDBRANCH  10  13
ENDBRANCH   1   9
BRANCH   3  24
HETATM   24  N3  UNL     1      22.060   2.745  18.108  1.00  0.00    -0.263 N 
ATOM     25  H3  UNL     1      22.463   2.909  19.031  1.00  0.00     0.190 HD
BRANCH  24  26
HETATM   26  N4  UNL     1      21.269   1.643  18.050  1.00  0.00    -0.148 N 
HETATM   27  N5  UNL     1      20.344   1.147  17.114  1.00  0.00     0.017 NA
HETATM   28  N6  UNL     1      19.391   0.526  17.936  1.00  0.00    -0.004 NA
HETATM   29  N7  UNL     1      20.105   0.021  18.999  1.00  0.00    -0.257 N 
HETATM   30  C9  UNL     1      21.241   0.660  19.108  1.00  0.00     0.240 C 
ATOM     31  H7  UNL     1      19.795  -0.737  19.609  1.00  0.00     0.186 HD
HETATM   32  N8  UNL     1      22.200   0.385  20.095  1.00  0.00    -0.059 NA
ENDBRANCH  24  26
ENDBRANCH   3  24
BRANCH   6  33
HETATM   33  N10 UNL     1      22.787   3.851  13.739  1.00  0.00    -0.098 N 
ATOM     34  H10 UNL     1      22.802   2.876  13.442  1.00  0.00     0.213 HD
BRANCH  33  35
HETATM   35  O2  UNL     1      22.783   4.871  12.814  1.00  0.00    -0.276 OA
ATOM     36  H2  UNL     1      23.437   4.858  12.125  1.00  0.00     0.245 HD
ENDBRANCH  33  35
ENDBRANCH   6  33
TORSDOF 8
ENDMDL
MODEL 3
REMARK VINA RESULT: -6.191725954      3.718      7.396
REMARK  8 active torsions:
REMARK  status: ('A' for Active; 'I' for Inactive)
REMARK    1  A    between atoms: N1_4  and  C4_5 
REMARK    2  A    between atoms: C4_5  and  C5_6 
REMARK       I    between atoms: C5_6  and  N2_8 
REMARK    3  A    between atoms: N2_8  and  C6_10 
REMARK    4  A    between atoms: C8_12  and  N3_13 
REMARK    5  A    between atoms: N3_13  and  N4_15 
REMARK    6  A    between atoms: C10_24  and  N10_25 
REMARK    7  A    between atoms: N10_25  and  O2_27 
REMARK    8  A    between atoms: C11_31  and  N12_32 
ROOT
HETATM    1  C6  UNL     1      23.378   6.076  15.675  1.00  0.00     0.127 A 
HETATM    2  C7  UNL     1      22.847   4.983  16.409  1.00  0.00     0.099 A 
HETATM    3  C8  UNL     1      22.501   3.800  15.827  1.00  0.00     0.140 A 
HETATM    4  N9  UNL     1      22.678   3.684  14.500  1.00  0.00    -0.173 N 
ATOM      5  H9  UNL     1      22.426   2.808  14.043  1.00  0.00     0.186 HD
HETATM    6  C10 UNL     1      23.176   4.687  13.757  1.00  0.00     0.705 A 
HETATM    7  N11 UNL     1      23.515   5.859  14.358  1.00  0.00    -0.175 N 
ATOM      8  H11 UNL     1      23.892   6.610  13.779  1.00  0.00     0.186 HD
ENDROOT
BRANCH   1   9
HETATM    9  N2  UNL     1      23.705   7.258  16.353  1.00  0.00    -0.311 N 
HETATM   10  C5  UNL     1      23.038   8.480  16.275  1.00  0.00     0.242 C 
HETATM   11  O1  UNL     1      22.031   8.697  15.567  1.00  0.00    -0.271 OA
ATOM     12  H2  UNL     1      24.518   7.220  16.969  1.00  0.00     0.170 HD
BRANCH  10  13
HETATM   13  C4  UNL     1      23.537   9.667  17.094  1.00  0.00     0.250 C 
BRANCH  13  14
HETATM   14  N1  UNL     1      22.912   9.555  18.388  1.00  0.00    -0.183 N 
HETATM   15  C3  UNL     1      21.704  10.066  18.743  1.00  0.00     0.134 A 
HETATM   16  C2  UNL     1      21.440   9.764  20.052  1.00  0.00     0.038 A 
HETATM   17  C1  UNL     1      20.240  10.127  20.833  1.00  0.00     0.070 C 
HETATM   18  N13 UNL     1      22.478   9.070  20.504  1.00  0.00    -0.195 N 
HETATM   19  C11 UNL     1      23.370   8.945  19.489  1.00  0.00     0.678 A 
ATOM     20  H13 UNL     1      22.585   8.696  21.447  1.00  0.00     0.184 HD
BRANCH  19  21
HETATM   21  N12 UNL     1      24.481   8.319  19.630  1.00  0.00    -0.234 N 
ATOM     22 2H12 UNL     1      25.375   8.731  19.360  1.00  0.00     0.174 HD
ATOM     23 1H12 UNL     1      24.622   7.382  20.008  1.00  0.00     0.174 HD
ENDBRANCH  19  21
ENDBRANCH  13  14
ENDBRANCH  10  13
ENDBRANCH   1   9
BRANCH   3  24
HETATM   24  N3  UNL     1      22.038   2.837  16.488  1.00  0.00    -0.263 N 
ATOM     25  H3  UNL     1      21.454   2.208  15.937  1.00  0.00     0.190 HD
BRANCH  24  26
HETATM   26  N4  UNL     1      22.161   2.466  17.788  1.00  0.00    -0.148 N 
HETATM   27  N5  UNL     1      23.130   2.683  18.784  1.00  0.00     0.017 NA
HETATM   28  N6  UNL     1      23.079   1.487  19.516  1.00  0.00    -0.004 NA
HETATM   29  N7  UNL     1      21.760   1.093  19.474  1.00  0.00    -0.257 N 
HETATM   30  C9  UNL     1      21.167   1.655  18.452  1.00  0.00     0.240 C 
ATOM     31  H7  UNL     1      21.314   0.460  20.138  1.00  0.00     0.186 HD
HETATM   32  N8  UNL     1      19.816   1.457  18.127  1.00  0.00    -0.059 NA
ENDBRANCH  24  26
ENDBRANCH   3  24
BRANCH   6  33
HETATM   33  N10 UNL     1      23.345   4.573  12.472  1.00  0.00    -0.098 N 
ATOM     34  H10 UNL     1      23.651   5.369  11.912  1.00  0.00     0.213 HD
BRANCH  33  35
HETATM   35  O2  UNL     1      23.100   3.351  11.887  1.00  0.00    -0.276 OA
ATOM     36  H2  UNL     1      23.183   3.278  10.943  1.00  0.00     0.245 HD
ENDBRANCH  33  35
ENDBRANCH   6  33
TORSDOF 8
ENDMDL
MODEL 4
REMARK VINA RESULT: -6.158738009      1.464      2.224
REMARK  8 active torsions:
REMARK  status: ('A' for Active; 'I' for Inactive)
REMARK    1  A    between atoms: N1_4  and  C4_5 
REMARK    2  A    between atoms: C4_5  and  C5_6 
REMARK       I    between atoms: C5_6  and  N2_8 
REMARK    3  A    between atoms: N2_8  and  C6_10 
REMARK    4  A    between atoms: C8_12  and  N3_13 
REMARK    5  A    between atoms: N3_13  and  N4_15 
REMARK    6  A    between atoms: C10_24  and  N10_25 
REMARK    7  A    between atoms: N10_25  and  O2_27 
REMARK    8  A    between atoms: C11_31  and  N12_32 
ROOT
HETATM    1  C6  UNL     1      23.322   4.478  15.351  1.00  0.00     0.127 A 
HETATM    2  C7  UNL     1      23.762   5.827  15.294  1.00  0.00     0.099 A 
HETATM    3  C8  UNL     1      23.965   6.488  14.119  1.00  0.00     0.140 A 
HETATM    4  N9  UNL     1      23.732   5.816  12.978  1.00  0.00    -0.173 N 
ATOM      5  H9  UNL     1      23.877   6.291  12.088  1.00  0.00     0.186 HD
HETATM    6  C10 UNL     1      23.315   4.539  12.975  1.00  0.00     0.705 A 
HETATM    7  N11 UNL     1      23.119   3.899  14.159  1.00  0.00    -0.175 N 
ATOM      8  H11 UNL     1      22.801   2.929  14.139  1.00  0.00     0.186 HD
ENDROOT
BRANCH   1   9
HETATM    9  N2  UNL     1      23.141   3.874  16.603  1.00  0.00    -0.311 N 
HETATM   10  C5  UNL     1      22.195   2.904  16.934  1.00  0.00     0.242 C 
HETATM   11  O1  UNL     1      21.353   2.431  16.142  1.00  0.00    -0.271 OA
ATOM     12  H2  UNL     1      23.767   4.175  17.350  1.00  0.00     0.170 HD
BRANCH  10  13
HETATM   13  C4  UNL     1      22.146   2.352  18.356  1.00  0.00     0.250 C 
BRANCH  13  14
HETATM   14  N1  UNL     1      22.519   0.963  18.263  1.00  0.00    -0.183 N 
HETATM   15  C3  UNL     1      23.701   0.479  17.797  1.00  0.00     0.134 A 
HETATM   16  C2  UNL     1      23.696  -0.888  17.856  1.00  0.00     0.038 A 
HETATM   17  C1  UNL     1      24.778  -1.808  17.449  1.00  0.00     0.070 C 
HETATM   18  N13 UNL     1      22.519  -1.248  18.356  1.00  0.00    -0.195 N 
HETATM   19  C11 UNL     1      21.807  -0.119  18.601  1.00  0.00     0.678 A 
ATOM     20  H13 UNL     1      22.206  -2.204  18.525  1.00  0.00     0.184 HD
BRANCH  19  21
HETATM   21  N12 UNL     1      20.621  -0.153  19.091  1.00  0.00    -0.234 N 
ATOM     22 2H12 UNL     1      20.372  -0.768  19.866  1.00  0.00     0.174 HD
ATOM     23 1H12 UNL     1      19.812   0.392  18.796  1.00  0.00     0.174 HD
ENDBRANCH  19  21
ENDBRANCH  13  14
ENDBRANCH  10  13
ENDBRANCH   1   9
BRANCH   3  24
HETATM   24  N3  UNL     1      24.348   7.683  14.079  1.00  0.00    -0.263 N 
ATOM     25  H3  UNL     1      24.226   8.181  14.961  1.00  0.00     0.190 HD
BRANCH  24  26
HETATM   26  N4  UNL     1      24.892   8.446  13.097  1.00  0.00    -0.148 N 
HETATM   27  N5  UNL     1      24.459   8.865  11.826  1.00  0.00     0.017 NA
HETATM   28  N6  UNL     1      25.658   8.894  11.097  1.00  0.00    -0.004 NA
HETATM   29  N7  UNL     1      26.622   9.279  12.001  1.00  0.00    -0.257 N 
HETATM   30  C9  UNL     1      26.208   9.030  13.217  1.00  0.00     0.240 C 
ATOM     31  H7  UNL     1      27.522   9.696  11.761  1.00  0.00     0.186 HD
HETATM   32  N8  UNL     1      26.959   9.305  14.370  1.00  0.00    -0.059 NA
ENDBRANCH  24  26
ENDBRANCH   3  24
BRANCH   6  33
HETATM   33  N10 UNL     1      23.091   3.891  11.870  1.00  0.00    -0.098 N 
ATOM     34  H10 UNL     1      22.959   4.388  10.989  1.00  0.00     0.213 HD
BRANCH  33  35
HETATM   35  O2  UNL     1      23.039   2.516  11.919  1.00  0.00    -0.276 OA
ATOM     36  H2  UNL     1      22.260   2.107  12.278  1.00  0.00     0.245 HD
ENDBRANCH  33  35
ENDBRANCH   6  33
TORSDOF 8
ENDMDL
MODEL 5
REMARK VINA RESULT: -6.132064244      3.323      8.839
REMARK  8 active torsions:
REMARK  status: ('A' for Active; 'I' for Inactive)
REMARK    1  A    between atoms: N1_4  and  C4_5 
REMARK    2  A    between atoms: C4_5  and  C5_6 
REMARK       I    between atoms: C5_6  and  N2_8 
REMARK    3  A    between atoms: N2_8  and  C6_10 
REMARK    4  A    between atoms: C8_12  and  N3_13 
REMARK    5  A    between atoms: N3_13  and  N4_15 
REMARK    6  A    between atoms: C10_24  and  N10_25 
REMARK    7  A    between atoms: N10_25  and  O2_27 
REMARK    8  A    between atoms: C11_31  and  N12_32 
ROOT
HETATM    1  C6  UNL     1      22.720   2.510  17.663  1.00  0.00     0.127 A 
HETATM    2  C7  UNL     1      23.547   1.358  17.585  1.00  0.00     0.099 A 
HETATM    3  C8  UNL     1      23.112   0.113  17.927  1.00  0.00     0.140 A 
HETATM    4  N9  UNL     1      21.843  -0.009  18.354  1.00  0.00    -0.173 N 
ATOM      5  H9  UNL     1      21.496  -0.931  18.615  1.00  0.00     0.186 HD
HETATM    6  C10 UNL     1      21.018   1.048  18.446  1.00  0.00     0.705 A 
HETATM    7  N11 UNL     1      21.473   2.282  18.099  1.00  0.00    -0.175 N 
ATOM      8  H11 UNL     1      20.833   3.074  18.175  1.00  0.00     0.186 HD
ENDROOT
BRANCH   1   9
HETATM    9  N2  UNL     1      23.249   3.754  17.293  1.00  0.00    -0.311 N 
HETATM   10  C5  UNL     1      22.844   4.550  16.222  1.00  0.00     0.242 C 
HETATM   11  O1  UNL     1      21.932   4.255  15.421  1.00  0.00    -0.271 OA
ATOM     12  H2  UNL     1      24.011   4.115  17.868  1.00  0.00     0.170 HD
BRANCH  10  13
HETATM   13  C4  UNL     1      23.535   5.887  15.971  1.00  0.00     0.250 C 
BRANCH  13  14
HETATM   14  N1  UNL     1      22.745   6.884  16.649  1.00  0.00    -0.183 N 
HETATM   15  C3  UNL     1      22.211   6.775  17.894  1.00  0.00     0.134 A 
HETATM   16  C2  UNL     1      21.523   7.916  18.205  1.00  0.00     0.038 A 
HETATM   17  C1  UNL     1      20.794   8.213  19.454  1.00  0.00     0.070 C 
HETATM   18  N13 UNL     1      21.631   8.727  17.159  1.00  0.00    -0.195 N 
HETATM   19  C11 UNL     1      22.375   8.095  16.216  1.00  0.00     0.678 A 
ATOM     20  H13 UNL     1      21.226   9.660  17.078  1.00  0.00     0.184 HD
BRANCH  19  21
HETATM   21  N12 UNL     1      22.648   8.639  15.085  1.00  0.00    -0.234 N 
ATOM     22 2H12 UNL     1      23.534   9.114  14.913  1.00  0.00     0.174 HD
ATOM     23 1H12 UNL     1      22.060   8.671  14.253  1.00  0.00     0.174 HD
ENDBRANCH  19  21
ENDBRANCH  13  14
ENDBRANCH  10  13
ENDBRANCH   1   9
BRANCH   3  24
HETATM   24  N3  UNL     1      23.849  -0.901  17.849  1.00  0.00    -0.263 N 
ATOM     25  H3  UNL     1      24.747  -0.790  18.320  1.00  0.00     0.190 HD
BRANCH  24  26
HETATM   26  N4  UNL     1      23.691  -2.115  17.261  1.00  0.00    -0.148 N 
HETATM   27  N5  UNL     1      23.771  -2.583  15.938  1.00  0.00     0.017 NA
HETATM   28  N6  UNL     1      22.795  -3.592  15.919  1.00  0.00    -0.004 NA
HETATM   29  N7  UNL     1      22.824  -4.147  17.178  1.00  0.00    -0.257 N 
HETATM   30  C9  UNL     1      23.353  -3.297  18.020  1.00  0.00     0.240 C 
ATOM     31  H7  UNL     1      22.485  -5.078  17.418  1.00  0.00     0.186 HD
HETATM   32  N8  UNL     1      23.527  -3.558  19.388  1.00  0.00    -0.059 NA
ENDBRANCH  24  26
ENDBRANCH   3  24
BRANCH   6  33
HETATM   33  N10 UNL     1      19.790   0.928  18.860  1.00  0.00    -0.098 N 
ATOM     34  H10 UNL     1      19.397   1.592  19.527  1.00  0.00     0.213 HD
BRANCH  33  35
HETATM   35  O2  UNL     1      19.036  -0.117  18.376  1.00  0.00    -0.276 OA
ATOM     36  H2  UNL     1      19.404  -0.992  18.412  1.00  0.00     0.245 HD
ENDBRANCH  33  35
ENDBRANCH   6  33
TORSDOF 8
ENDMDL
