MODEL 1
REMARK VINA RESULT: -5.863492413      0.000      0.000
REMARK  7 active torsions:
REMARK  status: ('A' for Active; 'I' for Inactive)
REMARK    1  A    between atoms: N1_1  and  C1_5 
REMARK    2  A    between atoms: C1_5  and  C2_6 
REMARK       I    between atoms: C2_6  and  N2_8 
REMARK    3  A    between atoms: N2_8  and  C3_10 
REMARK    4  A    between atoms: C6_18  and  C7_19 
REMARK    5  A    between atoms: N7_25  and  C9_26 
REMARK    6  A    between atoms: C10_29  and  O4_30 
REMARK    7  A    between atoms: C11_32  and  O5_33 
ROOT
HETATM    1  C3  UNL     1      22.717   4.554  16.176  1.00  0.00     0.691 A 
HETATM    2  N3  UNL     1      22.814   3.796  15.061  1.00  0.00    -0.182 N 
ATOM      3  H3  UNL     1      22.662   2.788  15.026  1.00  0.00     0.184 HD
HETATM    4  C4  UNL     1      23.134   4.542  14.029  1.00  0.00     0.162 A 
HETATM    5  C5  UNL     1      23.378   4.346  12.685  1.00  0.00     0.278 A 
HETATM    6  O2  UNL     1      23.267   3.147  12.277  1.00  0.00    -0.265 OA
HETATM    7  N4  UNL     1      23.709   5.349  11.861  1.00  0.00    -0.303 N 
ATOM      8  H4  UNL     1      23.880   5.163  10.872  1.00  0.00     0.171 HD
HETATM    9  C6  UNL     1      23.816   6.598  12.340  1.00  0.00     0.176 A 
HETATM   10  N6  UNL     1      23.581   6.816  13.654  1.00  0.00    -0.322 N 
ATOM     11  H6  UNL     1      23.665   7.770  14.007  1.00  0.00     0.169 HD
HETATM   12  C8  UNL     1      23.243   5.848  14.521  1.00  0.00     0.160 A 
HETATM   13  N7  UNL     1      22.974   5.826  15.865  1.00  0.00    -0.142 N 
ENDROOT
BRANCH   1  14
HETATM   14  N2  UNL     1      22.405   3.905  17.405  1.00  0.00    -0.158 N 
HETATM   15  C2  UNL     1      23.203   2.935  18.019  1.00  0.00     0.261 C 
HETATM   16  O1  UNL     1      22.773   2.483  19.153  1.00  0.00    -0.271 OA
ATOM     17  H2  UNL     1      21.537   4.168  17.871  1.00  0.00     0.187 HD
BRANCH  15  18
HETATM   18  C1  UNL     1      24.472   2.406  17.468  1.00  0.00     0.332 C 
BRANCH  18  19
HETATM   19  N1  UNL     1      24.267   1.001  17.089  1.00  0.00    -0.071 N 
ATOM     20  H13 UNL     1      23.632   0.898  16.298  1.00  0.00     0.274 HD
ATOM     21  H12 UNL     1      25.094   0.587  16.659  1.00  0.00     0.274 HD
ATOM     22  H11 UNL     1      23.955   0.484  17.912  1.00  0.00     0.274 HD
ENDBRANCH  18  19
ENDBRANCH  15  18
ENDBRANCH   1  14
BRANCH  13  23
HETATM   23  C9  UNL     1      22.946   6.945  16.748  1.00  0.00     0.252 C 
HETATM   24  N8  UNL     1      23.936   7.963  16.474  1.00  0.00    -0.116 NA
HETATM   25  N9  UNL     1      23.401   9.106  17.125  1.00  0.00    -0.112 NA
HETATM   26  C10 UNL     1      22.153   9.187  16.323  1.00  0.00     0.259 C 
HETATM   27  C11 UNL     1      21.665   7.739  16.631  1.00  0.00     0.205 C 
BRANCH  26  28
HETATM   28  O4  UNL     1      21.298  10.130  16.831  1.00  0.00    -0.376 OA
ATOM     29  H4  UNL     1      20.568  10.283  16.243  1.00  0.00     0.211 HD
ENDBRANCH  26  28
BRANCH  27  30
HETATM   30  O5  UNL     1      21.042   7.926  17.889  1.00  0.00    -0.388 OA
ATOM     31  H5  UNL     1      20.513   7.177  18.137  1.00  0.00     0.210 HD
ENDBRANCH  27  30
ENDBRANCH  13  23
BRANCH   9  32
HETATM   32  C7  UNL     1      24.170   7.726  11.509  1.00  0.00     0.298 C 
HETATM   33  N5  UNL     1      24.805   7.526  10.269  1.00  0.00    -0.054 NA
HETATM   34  O3  UNL     1      23.917   8.892  11.881  1.00  0.00    -0.268 OA
ENDBRANCH   9  32
TORSDOF 7
ENDMDL
MODEL 2
REMARK VINA RESULT: -5.841508505      2.226      6.554
REMARK  7 active torsions:
REMARK  status: ('A' for Active; 'I' for Inactive)
REMARK    1  A    between atoms: N1_1  and  C1_5 
REMARK    2  A    between atoms: C1_5  and  C2_6 
REMARK       I    between atoms: C2_6  and  N2_8 
REMARK    3  A    between atoms: N2_8  and  C3_10 
REMARK    4  A    between atoms: C6_18  and  C7_19 
REMARK    5  A    between atoms: N7_25  and  C9_26 
REMARK    6  A    between atoms: C10_29  and  O4_30 
REMARK    7  A    between atoms: C11_32  and  O5_33 
ROOT
HETATM    1  C3  UNL     1      22.755   5.034  15.350  1.00  0.00     0.691 A 
HETATM    2  N3  UNL     1      22.865   6.369  15.535  1.00  0.00    -0.182 N 
ATOM      3  H3  UNL     1      22.764   7.070  14.800  1.00  0.00     0.184 HD
HETATM    4  C4  UNL     1      23.122   6.636  16.794  1.00  0.00     0.162 A 
HETATM    5  C5  UNL     1      23.344   7.764  17.557  1.00  0.00     0.278 A 
HETATM    6  O2  UNL     1      23.285   8.870  16.931  1.00  0.00    -0.265 OA
HETATM    7  N4  UNL     1      23.604   7.704  18.870  1.00  0.00    -0.303 N 
ATOM      8  H4  UNL     1      23.761   8.562  19.400  1.00  0.00     0.171 HD
HETATM    9  C6  UNL     1      23.656   6.512  19.486  1.00  0.00     0.176 A 
HETATM   10  N6  UNL     1      23.441   5.392  18.760  1.00  0.00    -0.322 N 
ATOM     11  H6  UNL     1      23.485   4.492  19.239  1.00  0.00     0.169 HD
HETATM   12  C8  UNL     1      23.174   5.397  17.443  1.00  0.00     0.160 A 
HETATM   13  N7  UNL     1      22.938   4.414  16.517  1.00  0.00    -0.142 N 
ENDROOT
BRANCH   1  14
HETATM   14  N2  UNL     1      22.506   4.556  14.032  1.00  0.00    -0.158 N 
HETATM   15  C2  UNL     1      23.426   4.602  12.981  1.00  0.00     0.261 C 
HETATM   16  O1  UNL     1      23.033   4.086  11.860  1.00  0.00    -0.271 OA
ATOM     17  H2  UNL     1      21.590   4.152  13.841  1.00  0.00     0.187 HD
BRANCH  15  18
HETATM   18  C1  UNL     1      24.784   5.187  13.065  1.00  0.00     0.332 C 
BRANCH  18  19
HETATM   19  N1  UNL     1      25.318   5.329  11.703  1.00  0.00    -0.071 N 
ATOM     20  H13 UNL     1      26.323   5.167  11.659  1.00  0.00     0.274 HD
ATOM     21  H12 UNL     1      25.027   4.569  11.088  1.00  0.00     0.274 HD
ATOM     22  H11 UNL     1      25.053   6.246  11.344  1.00  0.00     0.274 HD
ENDBRANCH  18  19
ENDBRANCH  15  18
ENDBRANCH   1  14
BRANCH  13  23
HETATM   23  C9  UNL     1      22.873   3.010  16.760  1.00  0.00     0.252 C 
HETATM   24  N8  UNL     1      24.006   2.462  17.471  1.00  0.00    -0.116 NA
HETATM   25  N9  UNL     1      23.493   1.243  17.989  1.00  0.00    -0.112 NA
HETATM   26  C10 UNL     1      22.435   1.854  18.834  1.00  0.00     0.259 C 
HETATM   27  C11 UNL     1      21.736   2.638  17.683  1.00  0.00     0.205 C 
BRANCH  26  28
HETATM   28  O4  UNL     1      21.613   0.895  19.368  1.00  0.00    -0.376 OA
ATOM     29  H4  UNL     1      22.014   0.035  19.321  1.00  0.00     0.211 HD
ENDBRANCH  26  28
BRANCH  27  30
HETATM   30  O5  UNL     1      20.914   1.628  17.128  1.00  0.00    -0.388 OA
ATOM     31  H5  UNL     1      20.719   0.943  17.757  1.00  0.00     0.210 HD
ENDBRANCH  27  30
ENDBRANCH  13  23
BRANCH   9  32
HETATM   32  C7  UNL     1      23.932   6.374  20.897  1.00  0.00     0.298 C 
HETATM   33  N5  UNL     1      24.320   5.131  21.430  1.00  0.00    -0.054 NA
HETATM   34  O3  UNL     1      23.831   7.357  21.662  1.00  0.00    -0.268 OA
ENDBRANCH   9  32
TORSDOF 7
ENDMDL
MODEL 3
REMARK VINA RESULT: -5.704923250      2.829      5.060
REMARK  7 active torsions:
REMARK  status: ('A' for Active; 'I' for Inactive)
REMARK    1  A    between atoms: N1_1  and  C1_5 
REMARK    2  A    between atoms: C1_5  and  C2_6 
REMARK       I    between atoms: C2_6  and  N2_8 
REMARK    3  A    between atoms: N2_8  and  C3_10 
REMARK    4  A    between atoms: C6_18  and  C7_19 
REMARK    5  A    between atoms: N7_25  and  C9_26 
REMARK    6  A    between atoms: C10_29  and  O4_30 
REMARK    7  A    between atoms: C11_32  and  O5_33 
ROOT
HETATM    1  C3  UNL     1      23.899   3.505  18.238  1.00  0.00     0.691 A 
HETATM    2  N3  UNL     1      24.516   4.656  17.890  1.00  0.00    -0.182 N 
ATOM      3  H3  UNL     1      25.032   5.258  18.531  1.00  0.00     0.184 HD
HETATM    4  C4  UNL     1      24.356   4.890  16.608  1.00  0.00     0.162 A 
HETATM    5  C5  UNL     1      24.726   5.871  15.712  1.00  0.00     0.278 A 
HETATM    6  O2  UNL     1      25.418   6.823  16.196  1.00  0.00    -0.265 OA
HETATM    7  N4  UNL     1      24.383   5.830  14.418  1.00  0.00    -0.303 N 
ATOM      8  H4  UNL     1      24.678   6.575  13.786  1.00  0.00     0.171 HD
HETATM    9  C6  UNL     1      23.650   4.805  13.955  1.00  0.00     0.176 A 
HETATM   10  N6  UNL     1      23.275   3.830  14.813  1.00  0.00    -0.322 N 
ATOM     11  H6  UNL     1      22.718   3.056  14.450  1.00  0.00     0.169 HD
HETATM   12  C8  UNL     1      23.595   3.822  16.118  1.00  0.00     0.160 A 
HETATM   13  N7  UNL     1      23.327   2.970  17.158  1.00  0.00    -0.142 N 
ENDROOT
BRANCH   1  14
HETATM   14  N2  UNL     1      23.942   3.106  19.604  1.00  0.00    -0.158 N 
HETATM   15  C2  UNL     1      25.003   2.418  20.201  1.00  0.00     0.261 C 
HETATM   16  O1  UNL     1      24.879   2.171  21.465  1.00  0.00    -0.271 OA
ATOM     17  H2  UNL     1      23.141   3.338  20.190  1.00  0.00     0.187 HD
BRANCH  15  18
HETATM   18  C1  UNL     1      26.225   1.966  19.496  1.00  0.00     0.332 C 
BRANCH  18  19
HETATM   19  N1  UNL     1      26.006   0.596  19.011  1.00  0.00    -0.071 N 
ATOM     20  H13 UNL     1      26.356  -0.109  19.659  1.00  0.00     0.274 HD
ATOM     21  H12 UNL     1      25.022   0.327  19.030  1.00  0.00     0.274 HD
ATOM     22  H11 UNL     1      26.416   0.511  18.081  1.00  0.00     0.274 HD
ENDBRANCH  18  19
ENDBRANCH  15  18
ENDBRANCH   1  14
BRANCH  13  23
HETATM   23  C9  UNL     1      22.604   1.743  17.091  1.00  0.00     0.252 C 
HETATM   24  N8  UNL     1      23.244   0.622  17.742  1.00  0.00    -0.116 NA
HETATM   25  N9  UNL     1      22.166  -0.278  17.953  1.00  0.00    -0.112 NA
HETATM   26  C10 UNL     1      21.374   0.616  18.838  1.00  0.00     0.259 C 
HETATM   27  C11 UNL     1      21.290   1.807  17.836  1.00  0.00     0.205 C 
BRANCH  26  28
HETATM   28  O4  UNL     1      20.138   0.085  19.099  1.00  0.00    -0.376 OA
ATOM     29  H4  UNL     1      19.698   0.564  19.791  1.00  0.00     0.211 HD
ENDBRANCH  26  28
BRANCH  27  30
HETATM   30  O5  UNL     1      20.202   1.403  17.026  1.00  0.00    -0.388 OA
ATOM     31  H5  UNL     1      19.410   1.886  17.230  1.00  0.00     0.210 HD
ENDBRANCH  27  30
ENDBRANCH  13  23
BRANCH   9  32
HETATM   32  C7  UNL     1      23.244   4.697  12.572  1.00  0.00     0.298 C 
HETATM   33  N5  UNL     1      23.281   3.455  11.913  1.00  0.00    -0.054 NA
HETATM   34  O3  UNL     1      22.853   5.705  11.946  1.00  0.00    -0.268 OA
ENDBRANCH   9  32
TORSDOF 7
ENDMDL
MODEL 4
REMARK VINA RESULT: -5.685051383      7.116     10.308
REMARK  7 active torsions:
REMARK  status: ('A' for Active; 'I' for Inactive)
REMARK    1  A    between atoms: N1_1  and  C1_5 
REMARK    2  A    between atoms: C1_5  and  C2_6 
REMARK       I    between atoms: C2_6  and  N2_8 
REMARK    3  A    between atoms: N2_8  and  C3_10 
REMARK    4  A    between atoms: C6_18  and  C7_19 
REMARK    5  A    between atoms: N7_25  and  C9_26 
REMARK    6  A    between atoms: C10_29  and  O4_30 
REMARK    7  A    between atoms: C11_32  and  O5_33 
ROOT
HETATM    1  C3  UNL     1      24.722  -3.033  18.642  1.00  0.00     0.691 A 
HETATM    2  N3  UNL     1      24.858  -2.113  19.623  1.00  0.00    -0.182 N 
ATOM      3  H3  UNL     1      25.573  -2.138  20.351  1.00  0.00     0.184 HD
HETATM    4  C4  UNL     1      23.941  -1.181  19.506  1.00  0.00     0.162 A 
HETATM    5  C5  UNL     1      23.578  -0.038  20.187  1.00  0.00     0.278 A 
HETATM    6  O2  UNL     1      24.294   0.248  21.199  1.00  0.00    -0.265 OA
HETATM    7  N4  UNL     1      22.542   0.724  19.812  1.00  0.00    -0.303 N 
ATOM      8  H4  UNL     1      22.307   1.564  20.341  1.00  0.00     0.171 HD
HETATM    9  C6  UNL     1      21.815   0.380  18.737  1.00  0.00     0.176 A 
HETATM   10  N6  UNL     1      22.152  -0.737  18.052  1.00  0.00    -0.322 N 
ATOM     11  H6  UNL     1      21.591  -0.989  17.238  1.00  0.00     0.169 HD
HETATM   12  C8  UNL     1      23.181  -1.533  18.384  1.00  0.00     0.160 A 
HETATM   13  N7  UNL     1      23.694  -2.693  17.862  1.00  0.00    -0.142 N 
ENDROOT
BRANCH   1  14
HETATM   14  N2  UNL     1      25.618  -4.139  18.628  1.00  0.00    -0.158 N 
HETATM   15  C2  UNL     1      26.784  -4.211  17.860  1.00  0.00     0.261 C 
HETATM   16  O1  UNL     1      27.493  -5.284  18.006  1.00  0.00    -0.271 OA
ATOM     17  H2  UNL     1      25.393  -4.937  19.222  1.00  0.00     0.187 HD
BRANCH  15  18
HETATM   18  C1  UNL     1      27.244  -3.168  16.915  1.00  0.00     0.332 C 
BRANCH  18  19
HETATM   19  N1  UNL     1      27.071  -3.668  15.544  1.00  0.00    -0.071 N 
ATOM     20  H13 UNL     1      27.379  -4.634  15.439  1.00  0.00     0.274 HD
ATOM     21  H12 UNL     1      26.091  -3.807  15.299  1.00  0.00     0.274 HD
ATOM     22  H11 UNL     1      27.548  -3.033  14.904  1.00  0.00     0.274 HD
ENDBRANCH  18  19
ENDBRANCH  15  18
ENDBRANCH   1  14
BRANCH  13  23
HETATM   23  C9  UNL     1      23.236  -3.381  16.700  1.00  0.00     0.252 C 
HETATM   24  N8  UNL     1      24.179  -3.422  15.605  1.00  0.00    -0.116 NA
HETATM   25  N9  UNL     1      23.711  -4.515  14.827  1.00  0.00    -0.112 NA
HETATM   26  C10 UNL     1      23.891  -5.554  15.874  1.00  0.00     0.259 C 
HETATM   27  C11 UNL     1      23.013  -4.854  16.954  1.00  0.00     0.205 C 
BRANCH  26  28
HETATM   28  O4  UNL     1      23.354  -6.752  15.480  1.00  0.00    -0.376 OA
ATOM     29  H4  UNL     1      22.590  -6.972  16.000  1.00  0.00     0.211 HD
ENDBRANCH  26  28
BRANCH  27  30
HETATM   30  O5  UNL     1      21.718  -5.268  16.560  1.00  0.00    -0.388 OA
ATOM     31  H5  UNL     1      21.080  -4.569  16.647  1.00  0.00     0.210 HD
ENDBRANCH  27  30
ENDBRANCH  13  23
BRANCH   9  32
HETATM   32  C7  UNL     1      20.686   1.154  18.277  1.00  0.00     0.298 C 
HETATM   33  N5  UNL     1      19.453   1.086  18.952  1.00  0.00    -0.054 NA
HETATM   34  O3  UNL     1      20.790   1.894  17.275  1.00  0.00    -0.268 OA
ENDBRANCH   9  32
TORSDOF 7
ENDMDL
MODEL 5
REMARK VINA RESULT: -5.668330908      2.178      4.507
REMARK  7 active torsions:
REMARK  status: ('A' for Active; 'I' for Inactive)
REMARK    1  A    between atoms: N1_1  and  C1_5 
REMARK    2  A    between atoms: C1_5  and  C2_6 
REMARK       I    between atoms: C2_6  and  N2_8 
REMARK    3  A    between atoms: N2_8  and  C3_10 
REMARK    4  A    between atoms: C6_18  and  C7_19 
REMARK    5  A    between atoms: N7_25  and  C9_26 
REMARK    6  A    between atoms: C10_29  and  O4_30 
REMARK    7  A    between atoms: C11_32  and  O5_33 
ROOT
HETATM    1  C3  UNL     1      23.929   5.455  17.932  1.00  0.00     0.691 A 
HETATM    2  N3  UNL     1      24.151   6.789  17.907  1.00  0.00    -0.182 N 
ATOM      3  H3  UNL     1      24.314   7.368  18.730  1.00  0.00     0.184 HD
HETATM    4  C4  UNL     1      24.126   7.232  16.672  1.00  0.00     0.162 A 
HETATM    5  C5  UNL     1      24.267   8.449  16.038  1.00  0.00     0.278 A 
HETATM    6  O2  UNL     1      24.495   9.441  16.801  1.00  0.00    -0.265 OA
HETATM    7  N4  UNL     1      24.171   8.583  14.709  1.00  0.00    -0.303 N 
ATOM      8  H4  UNL     1      24.284   9.502  14.278  1.00  0.00     0.171 HD
HETATM    9  C6  UNL     1      23.928   7.506  13.946  1.00  0.00     0.176 A 
HETATM   10  N6  UNL     1      23.786   6.301  14.543  1.00  0.00    -0.322 N 
ATOM     11  H6  UNL     1      23.601   5.490  13.953  1.00  0.00     0.169 HD
HETATM   12  C8  UNL     1      23.876   6.112  15.870  1.00  0.00     0.160 A 
HETATM   13  N7  UNL     1      23.761   5.015  16.684  1.00  0.00    -0.142 N 
ENDROOT
BRANCH   1  14
HETATM   14  N2  UNL     1      23.891   4.804  19.198  1.00  0.00    -0.158 N 
HETATM   15  C2  UNL     1      25.014   4.349  19.895  1.00  0.00     0.261 C 
HETATM   16  O1  UNL     1      24.785   3.812  21.051  1.00  0.00    -0.271 OA
ATOM     17  H2  UNL     1      22.977   4.658  19.627  1.00  0.00     0.187 HD
BRANCH  15  18
HETATM   18  C1  UNL     1      26.410   4.440  19.408  1.00  0.00     0.332 C 
BRANCH  18  19
HETATM   19  N1  UNL     1      26.744   3.191  18.710  1.00  0.00    -0.071 N 
ATOM     20  H13 UNL     1      26.320   3.135  17.784  1.00  0.00     0.274 HD
ATOM     21  H12 UNL     1      27.720   3.154  18.418  1.00  0.00     0.274 HD
ATOM     22  H11 UNL     1      26.485   2.405  19.307  1.00  0.00     0.274 HD
ENDBRANCH  18  19
ENDBRANCH  15  18
ENDBRANCH   1  14
BRANCH  13  23
HETATM   23  C9  UNL     1      23.534   3.668  16.274  1.00  0.00     0.252 C 
HETATM   24  N8  UNL     1      24.488   2.708  16.782  1.00  0.00    -0.116 NA
HETATM   25  N9  UNL     1      23.793   1.476  16.654  1.00  0.00    -0.112 NA
HETATM   26  C10 UNL     1      22.673   1.819  17.568  1.00  0.00     0.259 C 
HETATM   27  C11 UNL     1      22.237   3.112  16.816  1.00  0.00     0.205 C 
BRANCH  26  28
HETATM   28  O4  UNL     1      21.696   0.859  17.537  1.00  0.00    -0.376 OA
ATOM     29  H4  UNL     1      21.214   0.833  18.355  1.00  0.00     0.211 HD
ENDBRANCH  26  28
BRANCH  27  30
HETATM   30  O5  UNL     1      21.426   2.568  15.792  1.00  0.00    -0.388 OA
ATOM     31  H5  UNL     1      21.456   1.619  15.782  1.00  0.00     0.210 HD
ENDBRANCH  27  30
ENDBRANCH  13  23
BRANCH   9  32
HETATM   32  C7  UNL     1      23.811   7.578  12.507  1.00  0.00     0.298 C 
HETATM   33  N5  UNL     1      24.237   6.505  11.703  1.00  0.00    -0.054 NA
HETATM   34  O3  UNL     1      23.330   8.594  11.960  1.00  0.00    -0.268 OA
ENDBRANCH   9  32
TORSDOF 7
ENDMDL
