MODEL 1
REMARK VINA RESULT: -8.148309901      0.000      0.000
REMARK  9 active torsions:
REMARK  status: ('A' for Active; 'I' for Inactive)
REMARK    1  A    between atoms: C2_2  and  N1_3 
REMARK    2  A    between atoms: N1_3  and  C3_5 
REMARK    3  A    between atoms: C3_5  and  N2_7 
REMARK    4  A    between atoms: N2_7  and  C4_9 
REMARK    5  A    between atoms: C4_9  and  C5_10 
REMARK    6  A    between atoms: C8_13  and  O1_14 
REMARK    7  A    between atoms: O1_14  and  C9_15 
REMARK    8  A    between atoms: C9_15  and  C10_16 
REMARK       I    between atoms: C10_16  and  N3_18 
REMARK    9  A    between atoms: N3_18  and  N4_20 
REMARK       I    between atoms: N4_20  and  C11_22 
ROOT
HETATM    1  C5  UNL     1      62.130  34.565  73.894  1.00  0.00     0.142 C 
HETATM    2  C6  UNL     1      62.931  35.690  73.298  1.00  0.00     0.038 C 
HETATM    3  C7  UNL     1      61.887  36.525  72.581  1.00  0.00     0.063 C 
HETATM    4  C8  UNL     1      60.608  35.924  73.010  1.00  0.00     0.260 C 
HETATM    5  O3  UNL     1      60.884  34.571  73.257  1.00  0.00    -0.354 OA
ENDROOT
BRANCH   4   6
HETATM    6  O1  UNL     1      59.637  36.035  72.010  1.00  0.00    -0.352 OA
BRANCH   6   7
HETATM    7  C9  UNL     1      58.653  36.841  72.528  1.00  0.00     0.275 C 
BRANCH   7   8
HETATM    8  C10 UNL     1      57.989  36.366  73.763  1.00  0.00     0.259 C 
HETATM    9  O2  UNL     1      57.670  37.135  74.682  1.00  0.00    -0.269 OA
HETATM   10  N3  UNL     1      57.736  34.972  73.826  1.00  0.00    -0.266 N 
ATOM     11  H3  UNL     1      58.052  34.417  73.031  1.00  0.00     0.190 HD
BRANCH  10  12
HETATM   12  N4  UNL     1      57.124  34.303  74.820  1.00  0.00    -0.271 N 
HETATM   13  C11 UNL     1      57.556  33.772  76.045  1.00  0.00     0.200 C 
HETATM   14  N5  UNL     1      58.555  32.998  76.133  1.00  0.00    -0.372 N 
HETATM   15  N6  UNL     1      56.817  34.134  77.235  1.00  0.00    -0.062 NA
ATOM     16  H52 UNL     1      59.076  32.743  75.294  1.00  0.00     0.158 HD
ATOM     17  H51 UNL     1      58.869  32.613  77.023  1.00  0.00     0.158 HD
ATOM     18  H4  UNL     1      56.131  34.148  74.646  1.00  0.00     0.189 HD
ENDBRANCH  10  12
ENDBRANCH   7   8
ENDBRANCH   6   7
ENDBRANCH   4   6
BRANCH   1  19
HETATM   19  C4  UNL     1      61.975  34.853  75.374  1.00  0.00     0.154 C 
BRANCH  19  20
HETATM   20  N2  UNL     1      63.182  35.271  76.027  1.00  0.00    -0.365 N 
ATOM     21  H2  UNL     1      63.972  35.480  75.416  1.00  0.00     0.161 HD
BRANCH  20  22
HETATM   22  C3  UNL     1      63.410  35.428  77.400  1.00  0.00     0.167 C 
HETATM   23  S1  UNL     1      62.563  34.480  78.439  1.00  0.00    -0.041 SA
BRANCH  22  24
HETATM   24  N1  UNL     1      64.312  36.338  77.935  1.00  0.00    -0.368 N 
ATOM     25  H1  UNL     1      65.197  36.467  77.444  1.00  0.00     0.161 HD
BRANCH  24  26
HETATM   26  C2  UNL     1      64.096  37.119  79.133  1.00  0.00     0.117 C 
HETATM   27  C1  UNL     1      65.347  37.810  79.612  1.00  0.00     0.026 C 
ENDBRANCH  24  26
ENDBRANCH  22  24
ENDBRANCH  20  22
ENDBRANCH  19  20
ENDBRANCH   1  19
TORSDOF 9
ENDMDL
MODEL 2
REMARK VINA RESULT: -8.129174278      2.646      4.831
REMARK  9 active torsions:
REMARK  status: ('A' for Active; 'I' for Inactive)
REMARK    1  A    between atoms: C2_2  and  N1_3 
REMARK    2  A    between atoms: N1_3  and  C3_5 
REMARK    3  A    between atoms: C3_5  and  N2_7 
REMARK    4  A    between atoms: N2_7  and  C4_9 
REMARK    5  A    between atoms: C4_9  and  C5_10 
REMARK    6  A    between atoms: C8_13  and  O1_14 
REMARK    7  A    between atoms: O1_14  and  C9_15 
REMARK    8  A    between atoms: C9_15  and  C10_16 
REMARK       I    between atoms: C10_16  and  N3_18 
REMARK    9  A    between atoms: N3_18  and  N4_20 
REMARK       I    between atoms: N4_20  and  C11_22 
ROOT
HETATM    1  C5  UNL     1      59.966  35.616  72.591  1.00  0.00     0.142 C 
HETATM    2  C6  UNL     1      58.857  36.193  71.755  1.00  0.00     0.038 C 
HETATM    3  C7  UNL     1      57.703  36.312  72.731  1.00  0.00     0.063 C 
HETATM    4  C8  UNL     1      58.320  35.999  74.036  1.00  0.00     0.260 C 
HETATM    5  O3  UNL     1      59.378  35.120  73.759  1.00  0.00    -0.354 OA
ENDROOT
BRANCH   4   6
HETATM    6  O1  UNL     1      57.404  35.383  74.894  1.00  0.00    -0.352 OA
BRANCH   6   7
HETATM    7  C9  UNL     1      58.154  34.680  75.805  1.00  0.00     0.275 C 
BRANCH   7   8
HETATM    8  C10 UNL     1      58.761  35.462  76.906  1.00  0.00     0.259 C 
HETATM    9  O2  UNL     1      58.229  35.560  78.022  1.00  0.00    -0.269 OA
HETATM   10  N3  UNL     1      59.997  36.089  76.605  1.00  0.00    -0.266 N 
ATOM     11  H3  UNL     1      60.348  35.968  75.655  1.00  0.00     0.190 HD
BRANCH  10  12
HETATM   12  N4  UNL     1      60.757  36.826  77.436  1.00  0.00    -0.271 N 
HETATM   13  C11 UNL     1      61.595  36.516  78.518  1.00  0.00     0.200 C 
HETATM   14  N5  UNL     1      61.208  35.807  79.493  1.00  0.00    -0.372 N 
HETATM   15  N6  UNL     1      62.943  37.041  78.498  1.00  0.00    -0.062 NA
ATOM     16  H52 UNL     1      60.258  35.436  79.508  1.00  0.00     0.158 HD
ATOM     17  H51 UNL     1      61.818  35.582  80.279  1.00  0.00     0.158 HD
ATOM     18  H4  UNL     1      60.713  37.825  77.237  1.00  0.00     0.189 HD
ENDBRANCH  10  12
ENDBRANCH   7   8
ENDBRANCH   6   7
ENDBRANCH   4   6
BRANCH   1  19
HETATM   19  C4  UNL     1      60.925  36.745  72.914  1.00  0.00     0.154 C 
BRANCH  19  20
HETATM   20  N2  UNL     1      62.237  36.588  72.352  1.00  0.00    -0.365 N 
ATOM     21  H2  UNL     1      62.360  36.932  71.400  1.00  0.00     0.161 HD
BRANCH  20  22
HETATM   22  C3  UNL     1      63.368  36.020  72.951  1.00  0.00     0.167 C 
HETATM   23  S1  UNL     1      63.475  36.047  74.589  1.00  0.00    -0.041 SA
BRANCH  22  24
HETATM   24  N1  UNL     1      64.407  35.434  72.239  1.00  0.00    -0.368 N 
ATOM     25  H1  UNL     1      64.349  34.431  72.063  1.00  0.00     0.161 HD
BRANCH  24  26
HETATM   26  C2  UNL     1      65.566  36.134  71.728  1.00  0.00     0.117 C 
HETATM   27  C1  UNL     1      65.224  37.093  70.617  1.00  0.00     0.026 C 
ENDBRANCH  24  26
ENDBRANCH  22  24
ENDBRANCH  20  22
ENDBRANCH  19  20
ENDBRANCH   1  19
TORSDOF 9
ENDMDL
MODEL 3
REMARK VINA RESULT: -8.052946031      2.828      4.021
REMARK  9 active torsions:
REMARK  status: ('A' for Active; 'I' for Inactive)
REMARK    1  A    between atoms: C2_2  and  N1_3 
REMARK    2  A    between atoms: N1_3  and  C3_5 
REMARK    3  A    between atoms: C3_5  and  N2_7 
REMARK    4  A    between atoms: N2_7  and  C4_9 
REMARK    5  A    between atoms: C4_9  and  C5_10 
REMARK    6  A    between atoms: C8_13  and  O1_14 
REMARK    7  A    between atoms: O1_14  and  C9_15 
REMARK    8  A    between atoms: C9_15  and  C10_16 
REMARK       I    between atoms: C10_16  and  N3_18 
REMARK    9  A    between atoms: N3_18  and  N4_20 
REMARK       I    between atoms: N4_20  and  C11_22 
ROOT
HETATM    1  C5  UNL     1      61.339  35.458  73.382  1.00  0.00     0.142 C 
HETATM    2  C6  UNL     1      60.392  34.648  72.540  1.00  0.00     0.038 C 
HETATM    3  C7  UNL     1      59.026  35.170  72.942  1.00  0.00     0.063 C 
HETATM    4  C8  UNL     1      59.338  36.338  73.790  1.00  0.00     0.260 C 
HETATM    5  O3  UNL     1      60.576  36.058  74.389  1.00  0.00    -0.354 OA
ENDROOT
BRANCH   4   6
HETATM    6  O1  UNL     1      58.365  36.520  74.777  1.00  0.00    -0.352 OA
BRANCH   6   7
HETATM    7  C9  UNL     1      58.330  35.348  75.493  1.00  0.00     0.275 C 
BRANCH   7   8
HETATM    8  C10 UNL     1      58.613  35.449  76.943  1.00  0.00     0.259 C 
HETATM    9  O2  UNL     1      57.853  34.976  77.802  1.00  0.00    -0.269 OA
HETATM   10  N3  UNL     1      59.815  36.118  77.288  1.00  0.00    -0.266 N 
ATOM     11  H3  UNL     1      60.366  36.491  76.515  1.00  0.00     0.190 HD
BRANCH  10  12
HETATM   12  N4  UNL     1      60.307  36.314  78.525  1.00  0.00    -0.271 N 
HETATM   13  C11 UNL     1      61.474  35.899  79.185  1.00  0.00     0.200 C 
HETATM   14  N5  UNL     1      61.829  34.684  79.231  1.00  0.00    -0.372 N 
HETATM   15  N6  UNL     1      62.281  36.912  79.830  1.00  0.00    -0.062 NA
ATOM     16  H52 UNL     1      61.261  33.970  78.776  1.00  0.00     0.158 HD
ATOM     17  H51 UNL     1      62.677  34.383  79.710  1.00  0.00     0.158 HD
ATOM     18  H4  UNL     1      59.701  36.889  79.110  1.00  0.00     0.189 HD
ENDBRANCH  10  12
ENDBRANCH   7   8
ENDBRANCH   6   7
ENDBRANCH   4   6
BRANCH   1  19
HETATM   19  C4  UNL     1      61.958  36.510  72.482  1.00  0.00     0.154 C 
BRANCH  19  20
HETATM   20  N2  UNL     1      63.132  37.135  73.022  1.00  0.00    -0.365 N 
ATOM     21  H2  UNL     1      63.070  38.140  73.184  1.00  0.00     0.161 HD
BRANCH  20  22
HETATM   22  C3  UNL     1      64.353  36.535  73.354  1.00  0.00     0.167 C 
HETATM   23  S1  UNL     1      65.314  36.006  72.132  1.00  0.00    -0.041 SA
BRANCH  22  24
HETATM   24  N1  UNL     1      64.800  36.360  74.657  1.00  0.00    -0.368 N 
ATOM     25  H1  UNL     1      65.793  36.508  74.837  1.00  0.00     0.161 HD
BRANCH  24  26
HETATM   26  C2  UNL     1      63.969  35.986  75.781  1.00  0.00     0.117 C 
HETATM   27  C1  UNL     1      64.634  36.243  77.109  1.00  0.00     0.026 C 
ENDBRANCH  24  26
ENDBRANCH  22  24
ENDBRANCH  20  22
ENDBRANCH  19  20
ENDBRANCH   1  19
TORSDOF 9
ENDMDL
MODEL 4
REMARK VINA RESULT: -8.035851966      1.671      2.036
REMARK  9 active torsions:
REMARK  status: ('A' for Active; 'I' for Inactive)
REMARK    1  A    between atoms: C2_2  and  N1_3 
REMARK    2  A    between atoms: N1_3  and  C3_5 
REMARK    3  A    between atoms: C3_5  and  N2_7 
REMARK    4  A    between atoms: N2_7  and  C4_9 
REMARK    5  A    between atoms: C4_9  and  C5_10 
REMARK    6  A    between atoms: C8_13  and  O1_14 
REMARK    7  A    between atoms: O1_14  and  C9_15 
REMARK    8  A    between atoms: C9_15  and  C10_16 
REMARK       I    between atoms: C10_16  and  N3_18 
REMARK    9  A    between atoms: N3_18  and  N4_20 
REMARK       I    between atoms: N4_20  and  C11_22 
ROOT
HETATM    1  C5  UNL     1      62.438  35.239  73.966  1.00  0.00     0.142 C 
HETATM    2  C6  UNL     1      62.255  36.246  72.864  1.00  0.00     0.038 C 
HETATM    3  C7  UNL     1      60.861  36.791  73.110  1.00  0.00     0.063 C 
HETATM    4  C8  UNL     1      60.488  36.208  74.415  1.00  0.00     0.260 C 
HETATM    5  O3  UNL     1      61.170  34.985  74.498  1.00  0.00    -0.354 OA
ENDROOT
BRANCH   4   6
HETATM    6  O1  UNL     1      59.109  35.988  74.494  1.00  0.00    -0.352 OA
BRANCH   6   7
HETATM    7  C9  UNL     1      58.814  35.924  75.835  1.00  0.00     0.275 C 
BRANCH   7   8
HETATM    8  C10 UNL     1      58.173  34.678  76.313  1.00  0.00     0.259 C 
HETATM    9  O2  UNL     1      57.582  34.612  77.401  1.00  0.00    -0.269 OA
HETATM   10  N3  UNL     1      58.274  33.564  75.442  1.00  0.00    -0.266 N 
ATOM     11  H3  UNL     1      58.795  33.708  74.578  1.00  0.00     0.190 HD
BRANCH  10  12
HETATM   12  N4  UNL     1      57.755  32.336  75.633  1.00  0.00    -0.271 N 
HETATM   13  C11 UNL     1      57.939  31.343  76.607  1.00  0.00     0.200 C 
HETATM   14  N5  UNL     1      59.087  30.913  76.926  1.00  0.00    -0.372 N 
HETATM   15  N6  UNL     1      56.761  30.805  77.252  1.00  0.00    -0.062 NA
ATOM     16  H52 UNL     1      59.917  31.292  76.471  1.00  0.00     0.158 HD
ATOM     17  H51 UNL     1      59.220  30.191  77.634  1.00  0.00     0.158 HD
ATOM     18  H4  UNL     1      57.083  32.070  74.913  1.00  0.00     0.189 HD
ENDBRANCH  10  12
ENDBRANCH   7   8
ENDBRANCH   6   7
ENDBRANCH   4   6
BRANCH   1  19
HETATM   19  C4  UNL     1      63.340  35.867  75.010  1.00  0.00     0.154 C 
BRANCH  19  20
HETATM   20  N2  UNL     1      63.293  35.229  76.295  1.00  0.00    -0.365 N 
ATOM     21  H2  UNL     1      63.314  34.209  76.289  1.00  0.00     0.161 HD
BRANCH  20  22
HETATM   22  C3  UNL     1      63.222  35.833  77.556  1.00  0.00     0.167 C 
HETATM   23  S1  UNL     1      61.759  35.914  78.295  1.00  0.00    -0.041 SA
BRANCH  22  24
HETATM   24  N1  UNL     1      64.318  36.370  78.219  1.00  0.00    -0.368 N 
ATOM     25  H1  UNL     1      65.234  35.971  78.012  1.00  0.00     0.161 HD
BRANCH  24  26
HETATM   26  C2  UNL     1      64.265  37.450  79.180  1.00  0.00     0.117 C 
HETATM   27  C1  UNL     1      65.632  37.903  79.624  1.00  0.00     0.026 C 
ENDBRANCH  24  26
ENDBRANCH  22  24
ENDBRANCH  20  22
ENDBRANCH  19  20
ENDBRANCH   1  19
TORSDOF 9
ENDMDL
MODEL 5
REMARK VINA RESULT: -8.028773277      2.986      4.138
REMARK  9 active torsions:
REMARK  status: ('A' for Active; 'I' for Inactive)
REMARK    1  A    between atoms: C2_2  and  N1_3 
REMARK    2  A    between atoms: N1_3  and  C3_5 
REMARK    3  A    between atoms: C3_5  and  N2_7 
REMARK    4  A    between atoms: N2_7  and  C4_9 
REMARK    5  A    between atoms: C4_9  and  C5_10 
REMARK    6  A    between atoms: C8_13  and  O1_14 
REMARK    7  A    between atoms: O1_14  and  C9_15 
REMARK    8  A    between atoms: C9_15  and  C10_16 
REMARK       I    between atoms: C10_16  and  N3_18 
REMARK    9  A    between atoms: N3_18  and  N4_20 
REMARK       I    between atoms: N4_20  and  C11_22 
ROOT
HETATM    1  C5  UNL     1      60.361  34.932  75.462  1.00  0.00     0.142 C 
HETATM    2  C6  UNL     1      59.345  35.206  74.387  1.00  0.00     0.038 C 
HETATM    3  C7  UNL     1      58.027  35.209  75.138  1.00  0.00     0.063 C 
HETATM    4  C8  UNL     1      58.437  35.150  76.556  1.00  0.00     0.260 C 
HETATM    5  O3  UNL     1      59.657  34.458  76.574  1.00  0.00    -0.354 OA
ENDROOT
BRANCH   4   6
HETATM    6  O1  UNL     1      57.492  34.466  77.327  1.00  0.00    -0.352 OA
BRANCH   6   7
HETATM    7  C9  UNL     1      57.047  33.428  76.543  1.00  0.00     0.275 C 
BRANCH   7   8
HETATM    8  C10 UNL     1      57.231  32.063  77.086  1.00  0.00     0.259 C 
HETATM    9  O2  UNL     1      56.280  31.374  77.484  1.00  0.00    -0.269 OA
HETATM   10  N3  UNL     1      58.567  31.590  77.117  1.00  0.00    -0.266 N 
ATOM     11  H3  UNL     1      59.285  32.235  76.788  1.00  0.00     0.190 HD
BRANCH  10  12
HETATM   12  N4  UNL     1      58.991  30.382  77.534  1.00  0.00    -0.271 N 
HETATM   13  C11 UNL     1      59.475  29.890  78.756  1.00  0.00     0.200 C 
HETATM   14  N5  UNL     1      60.429  30.444  79.378  1.00  0.00    -0.372 N 
HETATM   15  N6  UNL     1      58.850  28.704  79.300  1.00  0.00    -0.062 NA
ATOM     16  H52 UNL     1      60.870  31.280  78.994  1.00  0.00     0.158 HD
ATOM     17  H51 UNL     1      60.780  30.086  80.266  1.00  0.00     0.158 HD
ATOM     18  H4  UNL     1      58.951  29.671  76.804  1.00  0.00     0.189 HD
ENDBRANCH  10  12
ENDBRANCH   7   8
ENDBRANCH   6   7
ENDBRANCH   4   6
BRANCH   1  19
HETATM   19  C4  UNL     1      61.047  36.245  75.784  1.00  0.00     0.154 C 
BRANCH  19  20
HETATM   20  N2  UNL     1      62.355  36.106  76.358  1.00  0.00    -0.365 N 
ATOM     21  H2  UNL     1      63.104  35.866  75.709  1.00  0.00     0.161 HD
BRANCH  20  22
HETATM   22  C3  UNL     1      62.728  36.257  77.699  1.00  0.00     0.167 C 
HETATM   23  S1  UNL     1      61.565  36.655  78.787  1.00  0.00    -0.041 SA
BRANCH  22  24
HETATM   24  N1  UNL     1      64.026  36.091  78.164  1.00  0.00    -0.368 N 
ATOM     25  H1  UNL     1      64.290  35.164  78.499  1.00  0.00     0.161 HD
BRANCH  24  26
HETATM   26  C2  UNL     1      65.035  37.127  78.209  1.00  0.00     0.117 C 
HETATM   27  C1  UNL     1      65.149  37.770  79.568  1.00  0.00     0.026 C 
ENDBRANCH  24  26
ENDBRANCH  22  24
ENDBRANCH  20  22
ENDBRANCH  19  20
ENDBRANCH   1  19
TORSDOF 9
ENDMDL
