MODEL 1
REMARK VINA RESULT: -8.844695185      0.000      0.000
REMARK  7 active torsions:
REMARK  status: ('A' for Active; 'I' for Inactive)
REMARK       I    between atoms: C1_4  and  N3_6 
REMARK    1  A    between atoms: N3_6  and  C2_8 
REMARK    2  A    between atoms: C4_10  and  C5_11 
REMARK    3  A    between atoms: C6_15  and  C7_16 
REMARK    4  A    between atoms: C7_16  and  N4_17 
REMARK    5  A    between atoms: N4_17  and  C8_20 
REMARK    6  A    between atoms: C8_20  and  C9_21 
REMARK       I    between atoms: C9_21  and  N5_23 
REMARK    7  A    between atoms: N5_23  and  C10_25 
ROOT
HETATM    1  C2  UNL     1      63.218  36.053  72.947  1.00  0.00     0.117 C 
HETATM    2  C3  UNL     1      63.962  36.458  74.227  1.00  0.00     0.071 C 
HETATM    3  C4  UNL     1      62.811  36.506  75.208  1.00  0.00     0.224 C 
HETATM    4  O3  UNL     1      61.645  36.530  74.499  1.00  0.00    -0.366 OA
HETATM    5  C6  UNL     1      61.909  36.743  73.174  1.00  0.00     0.171 C 
ENDROOT
BRANCH   5   6
HETATM    6  C7  UNL     1      60.783  36.176  72.335  1.00  0.00     0.266 C 
BRANCH   6   7
HETATM    7  N4  UNL     1      59.613  36.997  72.571  1.00  0.00    -0.064 N 
ATOM      8  H42 UNL     1      59.765  37.650  73.340  1.00  0.00     0.277 HD
ATOM      9  H41 UNL     1      59.472  37.670  71.817  1.00  0.00     0.277 HD
BRANCH   7  10
HETATM   10  C8  UNL     1      58.427  36.189  72.788  1.00  0.00     0.334 C 
BRANCH  10  11
HETATM   11  C9  UNL     1      58.361  35.695  74.186  1.00  0.00     0.243 C 
HETATM   12  O4  UNL     1      58.006  36.483  75.092  1.00  0.00    -0.272 OA
HETATM   13  N5  UNL     1      58.687  34.367  74.520  1.00  0.00    -0.355 N 
ATOM     14  H5  UNL     1      58.974  33.741  73.767  1.00  0.00     0.162 HD
BRANCH  13  15
HETATM   15  C10 UNL     1      58.641  33.841  75.856  1.00  0.00     0.084 C 
HETATM   16  C11 UNL     1      57.313  33.248  76.231  1.00  0.00     0.025 C 
HETATM   17  C12 UNL     1      57.843  31.889  75.825  1.00  0.00     0.004 C 
HETATM   18  C13 UNL     1      59.242  32.444  75.997  1.00  0.00     0.025 C 
ENDBRANCH  13  15
ENDBRANCH  10  11
ENDBRANCH   7  10
ENDBRANCH   6   7
ENDBRANCH   5   6
BRANCH   1  19
HETATM   19  N3  UNL     1      63.914  36.507  71.775  1.00  0.00    -0.358 N 
HETATM   20  C1  UNL     1      65.151  35.886  71.454  1.00  0.00     0.182 C 
HETATM   21  N1  UNL     1      65.226  34.610  71.330  1.00  0.00    -0.374 N 
HETATM   22  N2  UNL     1      66.346  36.634  71.257  1.00  0.00    -0.064 NA
ATOM     23  H12 UNL     1      66.114  34.164  71.099  1.00  0.00     0.158 HD
ATOM     24  H11 UNL     1      64.369  34.075  71.471  1.00  0.00     0.158 HD
ATOM     25  H3  UNL     1      63.532  37.252  71.191  1.00  0.00     0.162 HD
ENDBRANCH   1  19
BRANCH   3  26
HETATM   26  C5  UNL     1      62.913  35.289  76.056  1.00  0.00     0.203 C 
HETATM   27  O1  UNL     1      62.201  34.283  75.815  1.00  0.00    -0.646 OA
HETATM   28  O2  UNL     1      63.790  35.225  77.128  1.00  0.00    -0.646 OA
ENDBRANCH   3  26
TORSDOF 7
ENDMDL
MODEL 2
REMARK VINA RESULT: -8.726844969      1.424      1.769
REMARK  7 active torsions:
REMARK  status: ('A' for Active; 'I' for Inactive)
REMARK       I    between atoms: C1_4  and  N3_6 
REMARK    1  A    between atoms: N3_6  and  C2_8 
REMARK    2  A    between atoms: C4_10  and  C5_11 
REMARK    3  A    between atoms: C6_15  and  C7_16 
REMARK    4  A    between atoms: C7_16  and  N4_17 
REMARK    5  A    between atoms: N4_17  and  C8_20 
REMARK    6  A    between atoms: C8_20  and  C9_21 
REMARK       I    between atoms: C9_21  and  N5_23 
REMARK    7  A    between atoms: N5_23  and  C10_25 
ROOT
HETATM    1  C2  UNL     1      63.322  35.999  73.054  1.00  0.00     0.117 C 
HETATM    2  C3  UNL     1      63.998  36.633  74.277  1.00  0.00     0.071 C 
HETATM    3  C4  UNL     1      62.867  36.569  75.279  1.00  0.00     0.224 C 
HETATM    4  O3  UNL     1      61.707  36.333  74.600  1.00  0.00    -0.366 OA
HETATM    5  C6  UNL     1      61.916  36.473  73.255  1.00  0.00     0.171 C 
ENDROOT
BRANCH   5   6
HETATM    6  C7  UNL     1      60.896  35.653  72.494  1.00  0.00     0.266 C 
BRANCH   6   7
HETATM    7  N4  UNL     1      61.355  34.279  72.502  1.00  0.00    -0.064 N 
ATOM      8  H42 UNL     1      61.922  34.071  71.680  1.00  0.00     0.277 HD
ATOM      9  H41 UNL     1      62.059  34.126  73.223  1.00  0.00     0.277 HD
BRANCH   7  10
HETATM   10  C8  UNL     1      60.250  33.347  72.634  1.00  0.00     0.334 C 
BRANCH  10  11
HETATM   11  C9  UNL     1      59.996  33.012  74.057  1.00  0.00     0.243 C 
HETATM   12  O4  UNL     1      60.727  32.167  74.623  1.00  0.00    -0.272 OA
HETATM   13  N5  UNL     1      58.956  33.618  74.787  1.00  0.00    -0.355 N 
ATOM     14  H5  UNL     1      58.371  34.304  74.309  1.00  0.00     0.162 HD
BRANCH  13  15
HETATM   15  C10 UNL     1      58.669  33.329  76.165  1.00  0.00     0.084 C 
HETATM   16  C11 UNL     1      57.714  34.296  76.803  1.00  0.00     0.025 C 
HETATM   17  C12 UNL     1      56.583  33.344  76.476  1.00  0.00     0.004 C 
HETATM   18  C13 UNL     1      57.615  32.241  76.368  1.00  0.00     0.025 C 
ENDBRANCH  13  15
ENDBRANCH  10  11
ENDBRANCH   7  10
ENDBRANCH   6   7
ENDBRANCH   5   6
BRANCH   1  19
HETATM   19  N3  UNL     1      63.917  36.463  71.831  1.00  0.00    -0.358 N 
HETATM   20  C1  UNL     1      65.150  35.881  71.429  1.00  0.00     0.182 C 
HETATM   21  N1  UNL     1      65.260  34.607  71.312  1.00  0.00    -0.374 N 
HETATM   22  N2  UNL     1      66.301  36.667  71.141  1.00  0.00    -0.064 NA
ATOM     23  H12 UNL     1      66.145  34.189  71.023  1.00  0.00     0.158 HD
ATOM     24  H11 UNL     1      64.435  34.044  71.518  1.00  0.00     0.158 HD
ATOM     25  H3  UNL     1      63.470  37.187  71.269  1.00  0.00     0.162 HD
ENDBRANCH   1  19
BRANCH   3  26
HETATM   26  C5  UNL     1      63.185  35.464  76.221  1.00  0.00     0.203 C 
HETATM   27  O1  UNL     1      62.489  34.418  76.238  1.00  0.00    -0.646 OA
HETATM   28  O2  UNL     1      64.251  35.550  77.104  1.00  0.00    -0.646 OA
ENDBRANCH   3  26
TORSDOF 7
ENDMDL
MODEL 3
REMARK VINA RESULT: -8.669872273      3.062      6.268
REMARK  7 active torsions:
REMARK  status: ('A' for Active; 'I' for Inactive)
REMARK       I    between atoms: C1_4  and  N3_6 
REMARK    1  A    between atoms: N3_6  and  C2_8 
REMARK    2  A    between atoms: C4_10  and  C5_11 
REMARK    3  A    between atoms: C6_15  and  C7_16 
REMARK    4  A    between atoms: C7_16  and  N4_17 
REMARK    5  A    between atoms: N4_17  and  C8_20 
REMARK    6  A    between atoms: C8_20  and  C9_21 
REMARK       I    between atoms: C9_21  and  N5_23 
REMARK    7  A    between atoms: N5_23  and  C10_25 
ROOT
HETATM    1  C2  UNL     1      60.568  35.715  74.679  1.00  0.00     0.117 C 
HETATM    2  C3  UNL     1      59.436  34.824  74.148  1.00  0.00     0.071 C 
HETATM    3  C4  UNL     1      59.890  34.628  72.719  1.00  0.00     0.224 C 
HETATM    4  O3  UNL     1      60.844  35.563  72.440  1.00  0.00    -0.366 OA
HETATM    5  C6  UNL     1      60.892  36.494  73.442  1.00  0.00     0.171 C 
ENDROOT
BRANCH   5   6
HETATM    6  C7  UNL     1      62.266  37.128  73.480  1.00  0.00     0.266 C 
BRANCH   6   7
HETATM    7  N4  UNL     1      63.232  36.057  73.617  1.00  0.00    -0.064 N 
ATOM      8  H42 UNL     1      62.825  35.245  74.081  1.00  0.00     0.277 HD
ATOM      9  H41 UNL     1      63.447  35.632  72.714  1.00  0.00     0.277 HD
BRANCH   7  10
HETATM   10  C8  UNL     1      64.437  36.505  74.292  1.00  0.00     0.334 C 
BRANCH  10  11
HETATM   11  C9  UNL     1      64.406  36.156  75.734  1.00  0.00     0.243 C 
HETATM   12  O4  UNL     1      63.653  35.232  76.120  1.00  0.00    -0.272 OA
HETATM   13  N5  UNL     1      65.198  36.835  76.679  1.00  0.00    -0.355 N 
ATOM     14  H5  UNL     1      65.805  37.585  76.345  1.00  0.00     0.162 HD
BRANCH  13  15
HETATM   15  C10 UNL     1      65.204  36.537  78.084  1.00  0.00     0.084 C 
HETATM   16  C11 UNL     1      65.957  37.536  78.915  1.00  0.00     0.025 C 
HETATM   17  C12 UNL     1      64.649  38.251  79.179  1.00  0.00     0.004 C 
HETATM   18  C13 UNL     1      63.935  36.965  78.819  1.00  0.00     0.025 C 
ENDBRANCH  13  15
ENDBRANCH  10  11
ENDBRANCH   7  10
ENDBRANCH   6   7
ENDBRANCH   5   6
BRANCH   1  19
HETATM   19  N3  UNL     1      60.120  36.530  75.774  1.00  0.00    -0.358 N 
HETATM   20  C1  UNL     1      60.097  35.949  77.070  1.00  0.00     0.182 C 
HETATM   21  N1  UNL     1      61.154  35.406  77.558  1.00  0.00    -0.374 N 
HETATM   22  N2  UNL     1      58.925  35.940  77.877  1.00  0.00    -0.064 NA
ATOM     23  H12 UNL     1      61.139  34.989  78.490  1.00  0.00     0.158 HD
ATOM     24  H11 UNL     1      61.994  35.413  76.980  1.00  0.00     0.158 HD
ATOM     25  H3  UNL     1      59.827  37.496  75.625  1.00  0.00     0.162 HD
ENDBRANCH   1  19
BRANCH   3  26
HETATM   26  C5  UNL     1      60.431  33.247  72.622  1.00  0.00     0.203 C 
HETATM   27  O1  UNL     1      60.698  32.742  71.503  1.00  0.00    -0.646 OA
HETATM   28  O2  UNL     1      60.658  32.477  73.753  1.00  0.00    -0.646 OA
ENDBRANCH   3  26
TORSDOF 7
ENDMDL
MODEL 4
REMARK VINA RESULT: -8.553692931      3.057      6.151
REMARK  7 active torsions:
REMARK  status: ('A' for Active; 'I' for Inactive)
REMARK       I    between atoms: C1_4  and  N3_6 
REMARK    1  A    between atoms: N3_6  and  C2_8 
REMARK    2  A    between atoms: C4_10  and  C5_11 
REMARK    3  A    between atoms: C6_15  and  C7_16 
REMARK    4  A    between atoms: C7_16  and  N4_17 
REMARK    5  A    between atoms: N4_17  and  C8_20 
REMARK    6  A    between atoms: C8_20  and  C9_21 
REMARK       I    between atoms: C9_21  and  N5_23 
REMARK    7  A    between atoms: N5_23  and  C10_25 
ROOT
HETATM    1  C2  UNL     1      59.256  33.316  74.903  1.00  0.00     0.117 C 
HETATM    2  C3  UNL     1      59.109  32.042  75.747  1.00  0.00     0.071 C 
HETATM    3  C4  UNL     1      58.352  32.588  76.937  1.00  0.00     0.224 C 
HETATM    4  O3  UNL     1      58.448  33.950  76.917  1.00  0.00    -0.366 OA
HETATM    5  C6  UNL     1      59.376  34.339  75.990  1.00  0.00     0.171 C 
ENDROOT
BRANCH   5   6
HETATM    6  C7  UNL     1      59.066  35.745  75.521  1.00  0.00     0.266 C 
BRANCH   6   7
HETATM    7  N4  UNL     1      60.117  36.608  76.022  1.00  0.00    -0.064 N 
ATOM      8  H42 UNL     1      59.846  37.590  75.974  1.00  0.00     0.277 HD
ATOM      9  H41 UNL     1      60.220  36.521  77.033  1.00  0.00     0.277 HD
BRANCH   7  10
HETATM   10  C8  UNL     1      61.375  36.371  75.338  1.00  0.00     0.334 C 
BRANCH  10  11
HETATM   11  C9  UNL     1      62.437  35.965  76.292  1.00  0.00     0.243 C 
HETATM   12  O4  UNL     1      63.164  34.984  76.012  1.00  0.00    -0.272 OA
HETATM   13  N5  UNL     1      62.649  36.653  77.502  1.00  0.00    -0.355 N 
ATOM     14  H5  UNL     1      62.048  37.450  77.712  1.00  0.00     0.162 HD
BRANCH  13  15
HETATM   15  C10 UNL     1      63.662  36.301  78.458  1.00  0.00     0.084 C 
HETATM   16  C11 UNL     1      64.970  37.005  78.247  1.00  0.00     0.025 C 
HETATM   17  C12 UNL     1      64.532  38.050  79.251  1.00  0.00     0.004 C 
HETATM   18  C13 UNL     1      63.544  37.038  79.791  1.00  0.00     0.025 C 
ENDBRANCH  13  15
ENDBRANCH  10  11
ENDBRANCH   7  10
ENDBRANCH   6   7
ENDBRANCH   5   6
BRANCH   1  19
HETATM   19  N3  UNL     1      60.409  33.244  74.049  1.00  0.00    -0.358 N 
HETATM   20  C1  UNL     1      60.264  33.663  72.699  1.00  0.00     0.182 C 
HETATM   21  N1  UNL     1      59.803  34.830  72.426  1.00  0.00    -0.374 N 
HETATM   22  N2  UNL     1      60.616  32.826  71.603  1.00  0.00    -0.064 NA
ATOM     23  H12 UNL     1      59.699  35.131  71.456  1.00  0.00     0.158 HD
ATOM     24  H11 UNL     1      59.551  35.430  73.211  1.00  0.00     0.158 HD
ATOM     25  H3  UNL     1      61.304  32.904  74.400  1.00  0.00     0.162 HD
ENDBRANCH   1  19
BRANCH   3  26
HETATM   26  C5  UNL     1      56.943  32.135  76.799  1.00  0.00     0.203 C 
HETATM   27  O1  UNL     1      56.055  32.926  76.392  1.00  0.00    -0.646 OA
HETATM   28  O2  UNL     1      56.565  30.838  77.111  1.00  0.00    -0.646 OA
ENDBRANCH   3  26
TORSDOF 7
ENDMDL
MODEL 5
REMARK VINA RESULT: -8.434164590      3.272      6.002
REMARK  7 active torsions:
REMARK  status: ('A' for Active; 'I' for Inactive)
REMARK       I    between atoms: C1_4  and  N3_6 
REMARK    1  A    between atoms: N3_6  and  C2_8 
REMARK    2  A    between atoms: C4_10  and  C5_11 
REMARK    3  A    between atoms: C6_15  and  C7_16 
REMARK    4  A    between atoms: C7_16  and  N4_17 
REMARK    5  A    between atoms: N4_17  and  C8_20 
REMARK    6  A    between atoms: C8_20  and  C9_21 
REMARK       I    between atoms: C9_21  and  N5_23 
REMARK    7  A    between atoms: N5_23  and  C10_25 
ROOT
HETATM    1  C2  UNL     1      59.874  34.909  74.233  1.00  0.00     0.117 C 
HETATM    2  C3  UNL     1      60.126  33.465  73.777  1.00  0.00     0.071 C 
HETATM    3  C4  UNL     1      60.898  32.935  74.964  1.00  0.00     0.224 C 
HETATM    4  O3  UNL     1      61.325  33.998  75.707  1.00  0.00    -0.366 OA
HETATM    5  C6  UNL     1      61.125  35.161  75.015  1.00  0.00     0.171 C 
ENDROOT
BRANCH   5   6
HETATM    6  C7  UNL     1      60.999  36.314  75.986  1.00  0.00     0.266 C 
BRANCH   6   7
HETATM    7  N4  UNL     1      59.888  36.017  76.868  1.00  0.00    -0.064 N 
ATOM      8  H42 UNL     1      59.010  36.378  76.495  1.00  0.00     0.277 HD
ATOM      9  H41 UNL     1      59.666  35.022  76.863  1.00  0.00     0.277 HD
BRANCH   7  10
HETATM   10  C8  UNL     1      60.130  36.500  78.215  1.00  0.00     0.334 C 
BRANCH  10  11
HETATM   11  C9  UNL     1      61.473  36.093  78.699  1.00  0.00     0.243 C 
HETATM   12  O4  UNL     1      61.662  34.902  79.038  1.00  0.00    -0.272 OA
HETATM   13  N5  UNL     1      62.538  37.008  78.786  1.00  0.00    -0.355 N 
ATOM     14  H5  UNL     1      62.365  37.974  78.505  1.00  0.00     0.162 HD
BRANCH  13  15
HETATM   15  C10 UNL     1      63.855  36.666  79.248  1.00  0.00     0.084 C 
HETATM   16  C11 UNL     1      64.805  36.284  78.149  1.00  0.00     0.025 C 
HETATM   17  C12 UNL     1      65.299  37.715  78.125  1.00  0.00     0.004 C 
HETATM   18  C13 UNL     1      64.751  37.871  79.528  1.00  0.00     0.025 C 
ENDBRANCH  13  15
ENDBRANCH  10  11
ENDBRANCH   7  10
ENDBRANCH   6   7
ENDBRANCH   5   6
BRANCH   1  19
HETATM   19  N3  UNL     1      59.709  35.789  73.108  1.00  0.00    -0.358 N 
HETATM   20  C1  UNL     1      58.468  36.467  72.970  1.00  0.00     0.182 C 
HETATM   21  N1  UNL     1      58.004  37.178  73.934  1.00  0.00    -0.374 N 
HETATM   22  N2  UNL     1      57.692  36.393  71.779  1.00  0.00    -0.064 NA
ATOM     23  H12 UNL     1      57.113  37.665  73.835  1.00  0.00     0.158 HD
ATOM     24  H11 UNL     1      58.560  37.231  74.787  1.00  0.00     0.158 HD
ATOM     25  H3  UNL     1      60.459  35.923  72.430  1.00  0.00     0.162 HD
ENDBRANCH   1  19
BRANCH   3  26
HETATM   26  C5  UNL     1      59.967  32.067  75.733  1.00  0.00     0.203 C 
HETATM   27  O1  UNL     1      59.991  30.819  75.588  1.00  0.00    -0.646 OA
HETATM   28  O2  UNL     1      59.052  32.601  76.628  1.00  0.00    -0.646 OA
ENDBRANCH   3  26
TORSDOF 7
ENDMDL
