MODEL 1
REMARK VINA RESULT: -9.925840067      0.000      0.000
REMARK  8 active torsions:
REMARK  status: ('A' for Active; 'I' for Inactive)
REMARK       I    between atoms: C1_4  and  N3_6 
REMARK    1  A    between atoms: N3_6  and  C2_8 
REMARK    2  A    between atoms: C2_8  and  C3_9 
REMARK    3  A    between atoms: C2_8  and  C5_13 
REMARK    4  A    between atoms: C3_9  and  C4_10 
REMARK    5  A    between atoms: C5_13  and  C6_15 
REMARK    6  A    between atoms: C6_15  and  N5_16 
REMARK       I    between atoms: N5_16  and  C7_18 
REMARK    7  A    between atoms: C7_18  and  C8_20 
REMARK    8  A    between atoms: C13_25  and  N6_26 
ROOT
HETATM    1  C6  UNL     1      61.134  34.437  74.619  1.00  0.00     0.203 C 
ENDROOT
BRANCH   1   2
HETATM    2  C5  UNL     1      59.918  33.588  74.686  1.00  0.00     0.167 C 
HETATM    3  O2  UNL     1      59.927  32.521  74.112  1.00  0.00    -0.294 OA
BRANCH   2   4
HETATM    4  C2  UNL     1      58.703  33.997  75.426  1.00  0.00     0.164 C 
BRANCH   4   5
HETATM    5  N3  UNL     1      57.677  34.398  74.485  1.00  0.00    -0.353 N 
HETATM    6  C1  UNL     1      57.637  35.703  73.924  1.00  0.00     0.182 C 
HETATM    7  N1  UNL     1      57.290  35.875  72.673  1.00  0.00    -0.374 N 
HETATM    8  N2  UNL     1      57.963  36.866  74.660  1.00  0.00    -0.064 NA
ATOM      9  H12 UNL     1      57.261  36.811  72.270  1.00  0.00     0.158 HD
ATOM     10  H11 UNL     1      57.055  35.036  72.143  1.00  0.00     0.158 HD
ATOM     11  H3  UNL     1      56.961  33.723  74.217  1.00  0.00     0.163 HD
ENDBRANCH   4   5
BRANCH   4  12
HETATM   12  C3  UNL     1      58.229  32.763  76.200  1.00  0.00     0.132 C 
BRANCH  12  13
HETATM   13  C4  UNL     1      56.945  33.055  76.883  1.00  0.00     0.233 C 
HETATM   14  N4  UNL     1      56.006  32.076  77.264  1.00  0.00    -0.062 NA
HETATM   15  O1  UNL     1      56.691  34.273  77.133  1.00  0.00    -0.277 OA
ENDBRANCH  12  13
ENDBRANCH   4  12
ENDBRANCH   2   4
ENDBRANCH   1   2
BRANCH   1  16
HETATM   16  N5  UNL     1      61.741  34.555  75.932  1.00  0.00    -0.354 N 
HETATM   17  C7  UNL     1      62.961  35.236  76.103  1.00  0.00     0.224 C 
HETATM   18  O3  UNL     1      63.529  35.755  75.084  1.00  0.00    -0.273 OA
ATOM     19  H5  UNL     1      61.279  34.139  76.741  1.00  0.00     0.162 HD
BRANCH  17  20
HETATM   20  C8  UNL     1      63.649  35.397  77.404  1.00  0.00     0.108 C 
HETATM   21  C9  UNL     1      62.687  35.216  78.554  1.00  0.00     0.016 C 
HETATM   22  C10 UNL     1      62.274  36.486  79.222  1.00  0.00     0.001 C 
HETATM   23  C11 UNL     1      63.435  37.363  79.613  1.00  0.00     0.002 C 
HETATM   24  C12 UNL     1      64.721  36.908  78.956  1.00  0.00     0.033 C 
HETATM   25  C13 UNL     1      64.371  36.724  77.472  1.00  0.00     0.196 C 
BRANCH  25  26
HETATM   26  N6  UNL     1      65.557  36.676  76.672  1.00  0.00    -0.074 N 
ATOM     27  H63 UNL     1      66.332  37.176  77.107  1.00  0.00     0.274 HD
ATOM     28  H62 UNL     1      65.971  35.744  76.658  1.00  0.00     0.274 HD
ATOM     29  H61 UNL     1      65.357  37.020  75.733  1.00  0.00     0.274 HD
ENDBRANCH  25  26
ENDBRANCH  17  20
ENDBRANCH   1  16
TORSDOF 8
ENDMDL
MODEL 2
REMARK VINA RESULT: -9.572191918      1.415      1.584
REMARK  8 active torsions:
REMARK  status: ('A' for Active; 'I' for Inactive)
REMARK       I    between atoms: C1_4  and  N3_6 
REMARK    1  A    between atoms: N3_6  and  C2_8 
REMARK    2  A    between atoms: C2_8  and  C3_9 
REMARK    3  A    between atoms: C2_8  and  C5_13 
REMARK    4  A    between atoms: C3_9  and  C4_10 
REMARK    5  A    between atoms: C5_13  and  C6_15 
REMARK    6  A    between atoms: C6_15  and  N5_16 
REMARK       I    between atoms: N5_16  and  C7_18 
REMARK    7  A    between atoms: C7_18  and  C8_20 
REMARK    8  A    between atoms: C13_25  and  N6_26 
ROOT
HETATM    1  C6  UNL     1      61.534  34.155  75.039  1.00  0.00     0.203 C 
ENDROOT
BRANCH   1   2
HETATM    2  C5  UNL     1      60.726  32.910  75.064  1.00  0.00     0.167 C 
HETATM    3  O2  UNL     1      61.099  31.967  74.400  1.00  0.00    -0.294 OA
BRANCH   2   4
HETATM    4  C2  UNL     1      59.489  32.782  75.867  1.00  0.00     0.164 C 
BRANCH   4   5
HETATM    5  N3  UNL     1      58.362  33.275  75.100  1.00  0.00    -0.353 N 
HETATM    6  C1  UNL     1      57.663  34.457  75.463  1.00  0.00     0.182 C 
HETATM    7  N1  UNL     1      57.228  35.277  74.540  1.00  0.00    -0.374 N 
HETATM    8  N2  UNL     1      57.401  34.813  76.807  1.00  0.00    -0.064 NA
ATOM      9  H12 UNL     1      56.726  36.126  74.800  1.00  0.00     0.158 HD
ATOM     10  H11 UNL     1      57.416  35.020  73.572  1.00  0.00     0.158 HD
ATOM     11  H3  UNL     1      58.063  32.757  74.275  1.00  0.00     0.163 HD
ENDBRANCH   4   5
BRANCH   4  12
HETATM   12  C3  UNL     1      59.303  31.287  76.143  1.00  0.00     0.132 C 
BRANCH  12  13
HETATM   13  C4  UNL     1      58.297  31.091  77.215  1.00  0.00     0.233 C 
HETATM   14  N4  UNL     1      56.913  30.950  76.993  1.00  0.00    -0.062 NA
HETATM   15  O1  UNL     1      58.730  31.047  78.408  1.00  0.00    -0.277 OA
ENDBRANCH  12  13
ENDBRANCH   4  12
ENDBRANCH   2   4
ENDBRANCH   1   2
BRANCH   1  16
HETATM   16  N5  UNL     1      62.151  34.383  76.334  1.00  0.00    -0.354 N 
HETATM   17  C7  UNL     1      63.220  35.289  76.473  1.00  0.00     0.224 C 
HETATM   18  O3  UNL     1      63.640  35.914  75.442  1.00  0.00    -0.273 OA
ATOM     19  H5  UNL     1      61.807  33.882  77.152  1.00  0.00     0.162 HD
BRANCH  17  20
HETATM   20  C8  UNL     1      63.906  35.575  77.753  1.00  0.00     0.108 C 
HETATM   21  C9  UNL     1      62.918  35.682  78.889  1.00  0.00     0.016 C 
HETATM   22  C10 UNL     1      62.642  37.078  79.342  1.00  0.00     0.001 C 
HETATM   23  C11 UNL     1      63.889  37.873  79.626  1.00  0.00     0.002 C 
HETATM   24  C12 UNL     1      65.124  37.183  79.084  1.00  0.00     0.033 C 
HETATM   25  C13 UNL     1      64.772  36.810  77.636  1.00  0.00     0.196 C 
BRANCH  25  26
HETATM   26  N6  UNL     1      65.954  36.508  76.888  1.00  0.00    -0.074 N 
ATOM     27  H63 UNL     1      65.770  35.846  76.134  1.00  0.00     0.274 HD
ATOM     28  H62 UNL     1      66.259  37.298  76.321  1.00  0.00     0.274 HD
ATOM     29  H61 UNL     1      66.689  36.181  77.515  1.00  0.00     0.274 HD
ENDBRANCH  25  26
ENDBRANCH  17  20
ENDBRANCH   1  16
TORSDOF 8
ENDMDL
MODEL 3
REMARK VINA RESULT: -9.558376103      1.692      2.908
REMARK  8 active torsions:
REMARK  status: ('A' for Active; 'I' for Inactive)
REMARK       I    between atoms: C1_4  and  N3_6 
REMARK    1  A    between atoms: N3_6  and  C2_8 
REMARK    2  A    between atoms: C2_8  and  C3_9 
REMARK    3  A    between atoms: C2_8  and  C5_13 
REMARK    4  A    between atoms: C3_9  and  C4_10 
REMARK    5  A    between atoms: C5_13  and  C6_15 
REMARK    6  A    between atoms: C6_15  and  N5_16 
REMARK       I    between atoms: N5_16  and  C7_18 
REMARK    7  A    between atoms: C7_18  and  C8_20 
REMARK    8  A    between atoms: C13_25  and  N6_26 
ROOT
HETATM    1  C6  UNL     1      60.806  34.054  75.080  1.00  0.00     0.203 C 
ENDROOT
BRANCH   1   2
HETATM    2  C5  UNL     1      60.115  32.742  75.163  1.00  0.00     0.167 C 
HETATM    3  O2  UNL     1      60.714  31.751  74.805  1.00  0.00    -0.294 OA
BRANCH   2   4
HETATM    4  C2  UNL     1      58.729  32.604  75.665  1.00  0.00     0.164 C 
BRANCH   4   5
HETATM    5  N3  UNL     1      58.756  32.301  77.082  1.00  0.00    -0.353 N 
HETATM    6  C1  UNL     1      58.056  31.193  77.628  1.00  0.00     0.182 C 
HETATM    7  N1  UNL     1      58.584  30.490  78.598  1.00  0.00    -0.374 N 
HETATM    8  N2  UNL     1      56.779  30.789  77.171  1.00  0.00    -0.064 NA
ATOM      9  H12 UNL     1      58.081  29.694  78.991  1.00  0.00     0.158 HD
ATOM     10  H11 UNL     1      59.503  30.781  78.928  1.00  0.00     0.158 HD
ATOM     11  H3  UNL     1      59.296  32.901  77.705  1.00  0.00     0.163 HD
ENDBRANCH   4   5
BRANCH   4  12
HETATM   12  C3  UNL     1      58.052  33.961  75.448  1.00  0.00     0.132 C 
BRANCH  12  13
HETATM   13  C4  UNL     1      57.732  34.583  76.756  1.00  0.00     0.233 C 
HETATM   14  N4  UNL     1      58.626  35.380  77.499  1.00  0.00    -0.062 NA
HETATM   15  O1  UNL     1      56.571  34.374  77.224  1.00  0.00    -0.277 OA
ENDBRANCH  12  13
ENDBRANCH   4  12
ENDBRANCH   2   4
ENDBRANCH   1   2
BRANCH   1  16
HETATM   16  N5  UNL     1      61.570  34.300  76.290  1.00  0.00    -0.354 N 
HETATM   17  C7  UNL     1      62.783  35.012  76.243  1.00  0.00     0.224 C 
HETATM   18  O3  UNL     1      63.205  35.444  75.118  1.00  0.00    -0.273 OA
ATOM     19  H5  UNL     1      61.223  33.954  77.185  1.00  0.00     0.162 HD
BRANCH  17  20
HETATM   20  C8  UNL     1      63.624  35.302  77.427  1.00  0.00     0.108 C 
HETATM   21  C9  UNL     1      62.811  35.244  78.699  1.00  0.00     0.016 C 
HETATM   22  C10 UNL     1      62.474  36.578  79.279  1.00  0.00     0.001 C 
HETATM   23  C11 UNL     1      63.668  37.484  79.433  1.00  0.00     0.002 C 
HETATM   24  C12 UNL     1      64.867  36.957  78.673  1.00  0.00     0.033 C 
HETATM   25  C13 UNL     1      64.339  36.624  77.270  1.00  0.00     0.196 C 
BRANCH  25  26
HETATM   26  N6  UNL     1      65.418  36.488  76.340  1.00  0.00    -0.074 N 
ATOM     27  H63 UNL     1      65.173  35.884  75.556  1.00  0.00     0.274 HD
ATOM     28  H62 UNL     1      65.585  37.348  75.818  1.00  0.00     0.274 HD
ATOM     29  H61 UNL     1      66.256  36.166  76.825  1.00  0.00     0.274 HD
ENDBRANCH  25  26
ENDBRANCH  17  20
ENDBRANCH   1  16
TORSDOF 8
ENDMDL
MODEL 4
REMARK VINA RESULT: -9.557074995      2.190      3.461
REMARK  8 active torsions:
REMARK  status: ('A' for Active; 'I' for Inactive)
REMARK       I    between atoms: C1_4  and  N3_6 
REMARK    1  A    between atoms: N3_6  and  C2_8 
REMARK    2  A    between atoms: C2_8  and  C3_9 
REMARK    3  A    between atoms: C2_8  and  C5_13 
REMARK    4  A    between atoms: C3_9  and  C4_10 
REMARK    5  A    between atoms: C5_13  and  C6_15 
REMARK    6  A    between atoms: C6_15  and  N5_16 
REMARK       I    between atoms: N5_16  and  C7_18 
REMARK    7  A    between atoms: C7_18  and  C8_20 
REMARK    8  A    between atoms: C13_25  and  N6_26 
ROOT
HETATM    1  C6  UNL     1      61.051  32.635  76.014  1.00  0.00     0.203 C 
ENDROOT
BRANCH   1   2
HETATM    2  C5  UNL     1      59.851  32.544  75.145  1.00  0.00     0.167 C 
HETATM    3  O2  UNL     1      60.005  32.576  73.944  1.00  0.00    -0.294 OA
BRANCH   2   4
HETATM    4  C2  UNL     1      58.482  32.418  75.693  1.00  0.00     0.164 C 
BRANCH   4   5
HETATM    5  N3  UNL     1      58.552  32.202  77.124  1.00  0.00    -0.353 N 
HETATM    6  C1  UNL     1      57.751  31.229  77.779  1.00  0.00     0.182 C 
HETATM    7  N1  UNL     1      58.241  30.525  78.768  1.00  0.00    -0.374 N 
HETATM    8  N2  UNL     1      56.409  30.966  77.414  1.00  0.00    -0.064 NA
ATOM      9  H12 UNL     1      57.666  29.827  79.239  1.00  0.00     0.158 HD
ATOM     10  H11 UNL     1      59.208  30.715  79.031  1.00  0.00     0.158 HD
ATOM     11  H3  UNL     1      59.198  32.765  77.678  1.00  0.00     0.163 HD
ENDBRANCH   4   5
BRANCH   4  12
HETATM   12  C3  UNL     1      57.778  33.749  75.413  1.00  0.00     0.132 C 
BRANCH  12  13
HETATM   13  C4  UNL     1      57.712  34.558  76.654  1.00  0.00     0.233 C 
HETATM   14  N4  UNL     1      58.762  35.366  77.135  1.00  0.00    -0.062 NA
HETATM   15  O1  UNL     1      56.630  34.509  77.317  1.00  0.00    -0.277 OA
ENDBRANCH  12  13
ENDBRANCH   4  12
ENDBRANCH   2   4
ENDBRANCH   1   2
BRANCH   1  16
HETATM   16  N5  UNL     1      61.505  34.011  76.107  1.00  0.00    -0.354 N 
HETATM   17  C7  UNL     1      62.120  34.489  77.280  1.00  0.00     0.224 C 
HETATM   18  O3  UNL     1      62.277  33.693  78.266  1.00  0.00    -0.273 OA
ATOM     19  H5  UNL     1      61.378  34.639  75.314  1.00  0.00     0.162 HD
BRANCH  17  20
HETATM   20  C8  UNL     1      62.606  35.876  77.458  1.00  0.00     0.108 C 
HETATM   21  C9  UNL     1      63.755  36.175  76.525  1.00  0.00     0.016 C 
HETATM   22  C10 UNL     1      65.097  36.190  77.181  1.00  0.00     0.001 C 
HETATM   23  C11 UNL     1      65.153  37.056  78.412  1.00  0.00     0.002 C 
HETATM   24  C12 UNL     1      63.767  37.450  78.878  1.00  0.00     0.033 C 
HETATM   25  C13 UNL     1      62.964  36.140  78.904  1.00  0.00     0.196 C 
BRANCH  25  26
HETATM   26  N6  UNL     1      61.773  36.289  79.682  1.00  0.00    -0.074 N 
ATOM     27  H63 UNL     1      61.068  35.594  79.439  1.00  0.00     0.274 HD
ATOM     28  H62 UNL     1      61.916  36.021  80.656  1.00  0.00     0.274 HD
ATOM     29  H61 UNL     1      61.418  37.242  79.597  1.00  0.00     0.274 HD
ENDBRANCH  25  26
ENDBRANCH  17  20
ENDBRANCH   1  16
TORSDOF 8
ENDMDL
MODEL 5
REMARK VINA RESULT: -9.500210719      1.546      1.929
REMARK  8 active torsions:
REMARK  status: ('A' for Active; 'I' for Inactive)
REMARK       I    between atoms: C1_4  and  N3_6 
REMARK    1  A    between atoms: N3_6  and  C2_8 
REMARK    2  A    between atoms: C2_8  and  C3_9 
REMARK    3  A    between atoms: C2_8  and  C5_13 
REMARK    4  A    between atoms: C3_9  and  C4_10 
REMARK    5  A    between atoms: C5_13  and  C6_15 
REMARK    6  A    between atoms: C6_15  and  N5_16 
REMARK       I    between atoms: N5_16  and  C7_18 
REMARK    7  A    between atoms: C7_18  and  C8_20 
REMARK    8  A    between atoms: C13_25  and  N6_26 
ROOT
HETATM    1  C6  UNL     1      61.387  33.184  75.071  1.00  0.00     0.203 C 
ENDROOT
BRANCH   1   2
HETATM    2  C5  UNL     1      60.028  33.315  74.488  1.00  0.00     0.167 C 
HETATM    3  O2  UNL     1      59.849  32.936  73.351  1.00  0.00    -0.294 OA
BRANCH   2   4
HETATM    4  C2  UNL     1      58.892  33.888  75.245  1.00  0.00     0.164 C 
BRANCH   4   5
HETATM    5  N3  UNL     1      57.855  34.300  74.320  1.00  0.00    -0.353 N 
HETATM    6  C1  UNL     1      57.725  35.646  73.885  1.00  0.00     0.182 C 
HETATM    7  N1  UNL     1      57.389  35.912  72.648  1.00  0.00    -0.374 N 
HETATM    8  N2  UNL     1      57.946  36.754  74.736  1.00  0.00    -0.064 NA
ATOM      9  H12 UNL     1      57.295  36.878  72.335  1.00  0.00     0.158 HD
ATOM     10  H11 UNL     1      57.229  35.113  72.034  1.00  0.00     0.158 HD
ATOM     11  H3  UNL     1      57.198  33.602  73.971  1.00  0.00     0.163 HD
ENDBRANCH   4   5
BRANCH   4  12
HETATM   12  C3  UNL     1      58.357  32.767  76.141  1.00  0.00     0.132 C 
BRANCH  12  13
HETATM   13  C4  UNL     1      57.099  33.198  76.797  1.00  0.00     0.233 C 
HETATM   14  N4  UNL     1      56.826  34.519  77.206  1.00  0.00    -0.062 NA
HETATM   15  O1  UNL     1      56.219  32.305  76.995  1.00  0.00    -0.277 OA
ENDBRANCH  12  13
ENDBRANCH   4  12
ENDBRANCH   2   4
ENDBRANCH   1   2
BRANCH   1  16
HETATM   16  N5  UNL     1      61.903  34.488  75.448  1.00  0.00    -0.354 N 
HETATM   17  C7  UNL     1      62.172  34.793  76.796  1.00  0.00     0.224 C 
HETATM   18  O3  UNL     1      61.961  33.904  77.687  1.00  0.00    -0.273 OA
ATOM     19  H5  UNL     1      62.071  35.191  74.729  1.00  0.00     0.162 HD
BRANCH  17  20
HETATM   20  C8  UNL     1      62.693  36.097  77.265  1.00  0.00     0.108 C 
HETATM   21  C9  UNL     1      63.905  36.518  76.469  1.00  0.00     0.016 C 
HETATM   22  C10 UNL     1      65.206  36.347  77.183  1.00  0.00     0.001 C 
HETATM   23  C11 UNL     1      65.218  36.957  78.560  1.00  0.00     0.002 C 
HETATM   24  C12 UNL     1      63.821  37.315  79.022  1.00  0.00     0.033 C 
HETATM   25  C13 UNL     1      62.974  36.062  78.751  1.00  0.00     0.196 C 
BRANCH  25  26
HETATM   26  N6  UNL     1      61.745  36.112  79.481  1.00  0.00    -0.074 N 
ATOM     27  H63 UNL     1      61.387  35.180  79.692  1.00  0.00     0.274 HD
ATOM     28  H62 UNL     1      61.881  36.437  80.438  1.00  0.00     0.274 HD
ATOM     29  H61 UNL     1      61.063  36.679  78.977  1.00  0.00     0.274 HD
ENDBRANCH  25  26
ENDBRANCH  17  20
ENDBRANCH   1  16
TORSDOF 8
ENDMDL
