MODEL 1
REMARK VINA RESULT: -9.047894774      0.000      0.000
REMARK  3 active torsions:
REMARK  status: ('A' for Active; 'I' for Inactive)
REMARK    1  A    between atoms: C5_6  and  C6_7 
REMARK    2  A    between atoms: C7_8  and  C8_9 
REMARK    3  A    between atoms: C8_9  and  N2_10 
ROOT
HETATM    1  C1  UNL     1      18.656  12.615  16.766  1.00  0.00     0.310 C 
HETATM    2  N1  UNL     1      17.401  13.341  16.818  1.00  0.00     0.088 N 
HETATM    3  C2  UNL     1      16.398  12.710  16.002  1.00  0.00     0.277 C 
HETATM    4  C3  UNL     1      15.048  13.317  16.121  1.00  0.00     0.072 C 
HETATM    5  C4  UNL     1      14.834  14.096  17.340  1.00  0.00    -0.012 A 
HETATM    6  C5  UNL     1      13.614  14.779  17.428  1.00  0.00     0.094 A 
HETATM    7  N5  UNL     1      13.399  15.491  18.536  1.00  0.00    -0.348 N 
ATOM      8  H5  UNL     1      12.512  15.990  18.603  1.00  0.00     0.167 HD
HETATM    9  C11 UNL     1      14.249  15.609  19.573  1.00  0.00     0.043 A 
HETATM   10  C12 UNL     1      13.940  16.366  20.678  1.00  0.00     0.030 A 
HETATM   11  C13 UNL     1      14.832  16.459  21.715  1.00  0.00     0.002 A 
HETATM   12  C14 UNL     1      16.026  15.791  21.631  1.00  0.00     0.001 A 
HETATM   13  C15 UNL     1      16.336  15.031  20.519  1.00  0.00     0.014 A 
HETATM   14  C16 UNL     1      15.454  14.923  19.464  1.00  0.00    -0.001 A 
HETATM   15  C17 UNL     1      15.760  14.161  18.350  1.00  0.00    -0.008 A 
HETATM   16  C18 UNL     1      17.026  13.433  18.214  1.00  0.00     0.312 C 
ENDROOT
BRANCH   6  17
HETATM   17  C6  UNL     1      12.641  14.707  16.360  1.00  0.00    -0.046 C 
HETATM   18  C7  UNL     1      11.818  14.663  15.477  1.00  0.00    -0.078 C 
BRANCH  18  19
HETATM   19  C8  UNL     1      10.797  14.616  14.416  1.00  0.00     0.244 C 
BRANCH  19  20
HETATM   20  N2  UNL     1       9.539  14.146  14.905  1.00  0.00    -0.276 N 
HETATM   21  C9  UNL     1       8.320  14.634  14.626  1.00  0.00     0.202 A 
HETATM   22  N3  UNL     1       7.374  13.928  15.275  1.00  0.00    -0.346 N 
HETATM   23  C10 UNL     1       8.052  12.986  15.964  1.00  0.00     0.198 A 
ATOM     24  H3  UNL     1       6.365  14.074  15.250  1.00  0.00     0.167 HD
HETATM   25  N4  UNL     1       9.361  13.132  15.729  1.00  0.00    -0.292 N 
ATOM     26  H4  UNL     1      10.102  12.552  16.124  1.00  0.00     0.188 HD
ENDBRANCH  19  20
ENDBRANCH  18  19
ENDBRANCH   6  17
TORSDOF 3
ENDMDL
MODEL 2
REMARK VINA RESULT: -8.116119435      2.399      7.238
REMARK  3 active torsions:
REMARK  status: ('A' for Active; 'I' for Inactive)
REMARK    1  A    between atoms: C5_6  and  C6_7 
REMARK    2  A    between atoms: C7_8  and  C8_9 
REMARK    3  A    between atoms: C8_9  and  N2_10 
ROOT
HETATM    1  C1  UNL     1      13.481  16.165  12.597  1.00  0.00     0.310 C 
HETATM    2  N1  UNL     1      13.240  15.494  13.860  1.00  0.00     0.088 N 
HETATM    3  C2  UNL     1      13.983  16.108  14.929  1.00  0.00     0.277 C 
HETATM    4  C3  UNL     1      13.673  15.563  16.275  1.00  0.00     0.072 C 
HETATM    5  C4  UNL     1      12.386  14.876  16.375  1.00  0.00    -0.012 A 
HETATM    6  C5  UNL     1      12.116  14.248  17.597  1.00  0.00     0.094 A 
HETATM    7  N5  UNL     1      10.944  13.621  17.708  1.00  0.00    -0.348 N 
ATOM      8  H5  UNL     1      10.744  13.163  18.597  1.00  0.00     0.167 HD
HETATM    9  C11 UNL     1      10.002  13.538  16.751  1.00  0.00     0.043 A 
HETATM   10  C12 UNL     1       8.819  12.869  16.958  1.00  0.00     0.030 A 
HETATM   11  C13 UNL     1       7.883  12.811  15.957  1.00  0.00     0.002 A 
HETATM   12  C14 UNL     1       8.144  13.424  14.759  1.00  0.00     0.001 A 
HETATM   13  C15 UNL     1       9.335  14.096  14.554  1.00  0.00     0.014 A 
HETATM   14  C16 UNL     1      10.291  14.168  15.545  1.00  0.00    -0.001 A 
HETATM   15  C17 UNL     1      11.483  14.842  15.343  1.00  0.00    -0.008 A 
HETATM   16  C18 UNL     1      11.809  15.509  14.078  1.00  0.00     0.312 C 
ENDROOT
BRANCH   6  17
HETATM   17  C6  UNL     1      13.073  14.287  18.682  1.00  0.00    -0.046 C 
HETATM   18  C7  UNL     1      13.869  14.300  19.590  1.00  0.00    -0.078 C 
BRANCH  18  19
HETATM   19  C8  UNL     1      14.828  14.295  20.708  1.00  0.00     0.244 C 
BRANCH  19  20
HETATM   20  N2  UNL     1      16.002  13.538  20.404  1.00  0.00    -0.276 N 
HETATM   21  C9  UNL     1      17.280  13.912  20.561  1.00  0.00     0.202 A 
HETATM   22  N3  UNL     1      18.109  12.928  20.164  1.00  0.00    -0.346 N 
HETATM   23  C10 UNL     1      17.296  11.931  19.756  1.00  0.00     0.198 A 
ATOM     24  H3  UNL     1      19.129  12.935  20.170  1.00  0.00     0.167 HD
HETATM   25  N4  UNL     1      16.024  12.315  19.908  1.00  0.00    -0.292 N 
ATOM     26  H4  UNL     1      15.203  11.755  19.678  1.00  0.00     0.188 HD
ENDBRANCH  19  20
ENDBRANCH  18  19
ENDBRANCH   6  17
TORSDOF 3
ENDMDL
MODEL 3
REMARK VINA RESULT: -7.736147341      2.218      7.113
REMARK  3 active torsions:
REMARK  status: ('A' for Active; 'I' for Inactive)
REMARK    1  A    between atoms: C5_6  and  C6_7 
REMARK    2  A    between atoms: C7_8  and  C8_9 
REMARK    3  A    between atoms: C8_9  and  N2_10 
ROOT
HETATM    1  C1  UNL     1      14.008  14.096  12.531  1.00  0.00     0.310 C 
HETATM    2  N1  UNL     1      13.577  13.911  13.904  1.00  0.00     0.088 N 
HETATM    3  C2  UNL     1      14.422  14.631  14.819  1.00  0.00     0.277 C 
HETATM    4  C3  UNL     1      13.954  14.602  16.228  1.00  0.00     0.072 C 
HETATM    5  C4  UNL     1      12.535  14.290  16.394  1.00  0.00    -0.012 A 
HETATM    6  C5  UNL     1      12.088  14.139  17.713  1.00  0.00     0.094 A 
HETATM    7  N5  UNL     1      10.795  13.859  17.884  1.00  0.00    -0.348 N 
ATOM      8  H5  UNL     1      10.466  13.748  18.843  1.00  0.00     0.167 HD
HETATM    9  C11 UNL     1       9.885  13.710  16.904  1.00  0.00     0.043 A 
HETATM   10  C12 UNL     1       8.569  13.423  17.177  1.00  0.00     0.030 A 
HETATM   11  C13 UNL     1       7.672  13.282  16.149  1.00  0.00     0.002 A 
HETATM   12  C14 UNL     1       8.107  13.429  14.857  1.00  0.00     0.001 A 
HETATM   13  C15 UNL     1       9.432  13.717  14.585  1.00  0.00     0.014 A 
HETATM   14  C16 UNL     1      10.351  13.864  15.602  1.00  0.00    -0.001 A 
HETATM   15  C17 UNL     1      11.677  14.155  15.333  1.00  0.00    -0.008 A 
HETATM   16  C18 UNL     1      12.189  14.317  13.968  1.00  0.00     0.312 C 
ENDROOT
BRANCH   6  17
HETATM   17  C6  UNL     1      12.997  14.283  18.829  1.00  0.00    -0.046 C 
HETATM   18  C7  UNL     1      13.772  14.397  19.749  1.00  0.00    -0.078 C 
BRANCH  18  19
HETATM   19  C8  UNL     1      14.731  14.517  20.860  1.00  0.00     0.244 C 
BRANCH  19  20
HETATM   20  N2  UNL     1      16.083  14.367  20.421  1.00  0.00    -0.276 N 
HETATM   21  C9  UNL     1      16.758  15.154  19.569  1.00  0.00     0.202 A 
HETATM   22  N3  UNL     1      18.011  14.692  19.398  1.00  0.00    -0.346 N 
HETATM   23  C10 UNL     1      18.087  13.591  20.174  1.00  0.00     0.198 A 
ATOM     24  H3  UNL     1      18.743  15.089  18.809  1.00  0.00     0.167 HD
HETATM   25  N4  UNL     1      16.911  13.408  20.787  1.00  0.00    -0.292 N 
ATOM     26  H4  UNL     1      16.691  12.650  21.433  1.00  0.00     0.188 HD
ENDBRANCH  19  20
ENDBRANCH  18  19
ENDBRANCH   6  17
TORSDOF 3
ENDMDL
MODEL 4
REMARK VINA RESULT: -7.687451054      2.511      7.201
REMARK  3 active torsions:
REMARK  status: ('A' for Active; 'I' for Inactive)
REMARK    1  A    between atoms: C5_6  and  C6_7 
REMARK    2  A    between atoms: C7_8  and  C8_9 
REMARK    3  A    between atoms: C8_9  and  N2_10 
ROOT
HETATM    1  C1  UNL     1      13.732  14.570  12.923  1.00  0.00     0.310 C 
HETATM    2  N1  UNL     1      13.189  14.243  14.228  1.00  0.00     0.088 N 
HETATM    3  C2  UNL     1      13.884  14.943  15.275  1.00  0.00     0.277 C 
HETATM    4  C3  UNL     1      13.288  14.766  16.623  1.00  0.00     0.072 C 
HETATM    5  C4  UNL     1      11.888  14.343  16.622  1.00  0.00    -0.012 A 
HETATM    6  C5  UNL     1      11.331  14.053  17.874  1.00  0.00     0.094 A 
HETATM    7  N5  UNL     1      10.053  13.670  17.892  1.00  0.00    -0.348 N 
ATOM      8  H5  UNL     1       9.644  13.458  18.803  1.00  0.00     0.167 HD
HETATM    9  C11 UNL     1       9.255  13.539  16.817  1.00  0.00     0.043 A 
HETATM   10  C12 UNL     1       7.946  13.139  16.933  1.00  0.00     0.030 A 
HETATM   11  C13 UNL     1       7.164  13.020  15.812  1.00  0.00     0.002 A 
HETATM   12  C14 UNL     1       7.707  13.303  14.586  1.00  0.00     0.001 A 
HETATM   13  C15 UNL     1       9.025  13.705  14.471  1.00  0.00     0.014 A 
HETATM   14  C16 UNL     1       9.830  13.831  15.584  1.00  0.00    -0.001 A 
HETATM   15  C17 UNL     1      11.148  14.235  15.472  1.00  0.00    -0.008 A 
HETATM   16  C18 UNL     1      11.774  14.545  14.182  1.00  0.00     0.312 C 
ENDROOT
BRANCH   6  17
HETATM   17  C6  UNL     1      12.116  14.167  19.083  1.00  0.00    -0.046 C 
HETATM   18  C7  UNL     1      12.778  14.282  20.088  1.00  0.00    -0.078 C 
BRANCH  18  19
HETATM   19  C8  UNL     1      13.601  14.437  21.300  1.00  0.00     0.244 C 
BRANCH  19  20
HETATM   20  N2  UNL     1      14.689  15.341  21.096  1.00  0.00    -0.276 N 
HETATM   21  C9  UNL     1      14.876  16.538  21.672  1.00  0.00     0.202 A 
HETATM   22  N3  UNL     1      16.018  17.097  21.230  1.00  0.00    -0.346 N 
HETATM   23  C10 UNL     1      16.532  16.202  20.360  1.00  0.00     0.198 A 
ATOM     24  H3  UNL     1      16.410  18.001  21.495  1.00  0.00     0.167 HD
HETATM   25  N4  UNL     1      15.716  15.144  20.291  1.00  0.00    -0.292 N 
ATOM     26  H4  UNL     1      15.863  14.319  19.709  1.00  0.00     0.188 HD
ENDBRANCH  19  20
ENDBRANCH  18  19
ENDBRANCH   6  17
TORSDOF 3
ENDMDL
MODEL 5
REMARK VINA RESULT: -7.582065308      1.413      3.626
REMARK  3 active torsions:
REMARK  status: ('A' for Active; 'I' for Inactive)
REMARK    1  A    between atoms: C5_6  and  C6_7 
REMARK    2  A    between atoms: C7_8  and  C8_9 
REMARK    3  A    between atoms: C8_9  and  N2_10 
ROOT
HETATM    1  C1  UNL     1      14.976  17.078  21.745  1.00  0.00     0.310 C 
HETATM    2  N1  UNL     1      14.632  16.192  20.650  1.00  0.00     0.088 N 
HETATM    3  C2  UNL     1      14.058  16.919  19.549  1.00  0.00     0.277 C 
HETATM    4  C3  UNL     1      13.814  16.095  18.338  1.00  0.00     0.072 C 
HETATM    5  C4  UNL     1      14.599  14.862  18.269  1.00  0.00    -0.012 A 
HETATM    6  C5  UNL     1      14.307  14.005  17.201  1.00  0.00     0.094 A 
HETATM    7  N5  UNL     1      15.017  12.878  17.119  1.00  0.00    -0.348 N 
ATOM      8  H5  UNL     1      14.807  12.252  16.342  1.00  0.00     0.167 HD
HETATM    9  C11 UNL     1      15.985  12.495  17.972  1.00  0.00     0.043 A 
HETATM   10  C12 UNL     1      16.666  11.313  17.806  1.00  0.00     0.030 A 
HETATM   11  C13 UNL     1      17.649  10.959  18.696  1.00  0.00     0.002 A 
HETATM   12  C14 UNL     1      17.936  11.796  19.742  1.00  0.00     0.001 A 
HETATM   13  C15 UNL     1      17.249  12.985  19.907  1.00  0.00     0.014 A 
HETATM   14  C16 UNL     1      16.257  13.361  19.026  1.00  0.00    -0.001 A 
HETATM   15  C17 UNL     1      15.569  14.551  19.187  1.00  0.00    -0.008 A 
HETATM   16  C18 UNL     1      15.839  15.476  20.293  1.00  0.00     0.312 C 
ENDROOT
BRANCH   6  17
HETATM   17  C6  UNL     1      13.282  14.339  16.237  1.00  0.00    -0.046 C 
HETATM   18  C7  UNL     1      12.411  14.612  15.445  1.00  0.00    -0.078 C 
BRANCH  18  19
HETATM   19  C8  UNL     1      11.335  14.926  14.489  1.00  0.00     0.244 C 
BRANCH  19  20
HETATM   20  N2  UNL     1      10.098  14.310  14.854  1.00  0.00    -0.276 N 
HETATM   21  C9  UNL     1       8.866  14.642  14.440  1.00  0.00     0.202 A 
HETATM   22  N3  UNL     1       7.949  13.831  15.001  1.00  0.00    -0.346 N 
HETATM   23  C10 UNL     1       8.658  12.986  15.777  1.00  0.00     0.198 A 
ATOM     24  H3  UNL     1       6.938  13.852  14.868  1.00  0.00     0.167 HD
HETATM   25  N4  UNL     1       9.958  13.288  15.677  1.00  0.00    -0.292 N 
ATOM     26  H4  UNL     1      10.718  12.807  16.158  1.00  0.00     0.188 HD
ENDBRANCH  19  20
ENDBRANCH  18  19
ENDBRANCH   6  17
TORSDOF 3
ENDMDL
