MODEL 1
REMARK VINA RESULT: -7.828794120      0.000      0.000
REMARK  9 active torsions:
REMARK  status: ('A' for Active; 'I' for Inactive)
REMARK    1  A    between atoms: C2_2  and  C3_3 
REMARK    2  A    between atoms: C3_3  and  N1_4 
REMARK    3  A    between atoms: N1_4  and  C4_6 
REMARK    4  A    between atoms: C8_14  and  C9_15 
REMARK    5  A    between atoms: C10_16  and  C11_17 
REMARK    6  A    between atoms: C11_17  and  C12_18 
REMARK    7  A    between atoms: C12_18  and  O1_19 
REMARK    8  A    between atoms: N4_22  and  C14_23 
REMARK    9  A    between atoms: C17_31  and  N8_32 
ROOT
HETATM    1  C14 UNL     1      34.564 -59.477  42.174  1.00  0.00     0.707 A 
HETATM    2  N5  UNL     1      34.476 -58.740  41.058  1.00  0.00    -0.165 N 
ATOM      3  H5  UNL     1      34.865 -59.099  40.186  1.00  0.00     0.186 HD
HETATM    4  C15 UNL     1      33.882 -57.533  41.073  1.00  0.00     0.217 A 
HETATM    5  C16 UNL     1      33.758 -56.700  39.910  1.00  0.00     0.138 C 
HETATM    6  N6  UNL     1      33.675 -56.021  38.974  1.00  0.00    -0.188 NA
HETATM    7  N7  UNL     1      33.373 -57.070  42.228  1.00  0.00    -0.166 N 
ATOM      8  H7  UNL     1      32.920 -56.157  42.251  1.00  0.00     0.186 HD
HETATM    9  C17 UNL     1      33.456 -57.798  43.352  1.00  0.00     0.692 A 
HETATM   10  N9  UNL     1      34.049 -58.987  43.304  1.00  0.00    -0.022 N 
ATOM     11  H9  UNL     1      34.113 -59.542  44.157  1.00  0.00     0.203 HD
ENDROOT
BRANCH   1  12
HETATM   12  N4  UNL     1      35.205 -60.778  42.153  1.00  0.00    -0.140 N 
HETATM   13  C6  UNL     1      34.617 -61.948  42.438  1.00  0.00     0.144 A 
HETATM   14  N3  UNL     1      33.355 -62.266  42.804  1.00  0.00    -0.337 N 
HETATM   15  C7  UNL     1      35.499 -63.001  42.327  1.00  0.00     0.073 A 
HETATM   16  C5  UNL     1      32.983 -63.529  43.043  1.00  0.00     0.183 A 
ATOM     17  H3  UNL     1      32.666 -61.520  42.901  1.00  0.00     0.168 HD
HETATM   18  N2  UNL     1      33.856 -64.547  42.930  1.00  0.00    -0.338 N 
HETATM   19  C4  UNL     1      35.116 -64.297  42.573  1.00  0.00     0.117 A 
ATOM     20  H2  UNL     1      33.555 -65.503  43.116  1.00  0.00     0.168 HD
HETATM   21  C8  UNL     1      36.714 -62.418  41.944  1.00  0.00     0.052 A 
HETATM   22  C13 UNL     1      36.483 -61.062  41.852  1.00  0.00     0.138 A 
BRANCH  19  23
HETATM   23  N1  UNL     1      35.944 -65.265  42.465  1.00  0.00    -0.372 N 
ATOM     24  H1  UNL     1      36.817 -65.173  42.985  1.00  0.00     0.161 HD
BRANCH  23  25
HETATM   25  C3  UNL     1      35.789 -66.457  41.703  1.00  0.00     0.147 C 
BRANCH  25  26
HETATM   26  C2  UNL     1      35.612 -66.219  40.243  1.00  0.00    -0.018 C 
HETATM   27  C1  UNL     1      36.671 -65.914  39.516  1.00  0.00     0.008 C 
ENDBRANCH  25  26
ENDBRANCH  23  25
ENDBRANCH  19  23
BRANCH  21  28
HETATM   28  C9  UNL     1      37.922 -63.162  41.713  1.00  0.00    -0.064 C 
HETATM   29  C10 UNL     1      38.941 -63.778  41.522  1.00  0.00    -0.099 C 
BRANCH  29  30
HETATM   30  C11 UNL     1      40.193 -64.512  41.295  1.00  0.00     0.120 C 
BRANCH  30  31
HETATM   31  C12 UNL     1      41.302 -63.501  41.257  1.00  0.00     0.176 C 
BRANCH  31  32
HETATM   32  O1  UNL     1      41.395 -62.850  42.479  1.00  0.00    -0.400 OA
ATOM     33  H1  UNL     1      41.916 -63.365  43.084  1.00  0.00     0.209 HD
ENDBRANCH  31  32
ENDBRANCH  30  31
ENDBRANCH  29  30
ENDBRANCH  21  28
ENDBRANCH   1  12
BRANCH   9  34
HETATM   34  N8  UNL     1      32.949 -57.318  44.467  1.00  0.00    -0.234 N 
ATOM     35  H82 UNL     1      33.528 -57.134  45.286  1.00  0.00     0.174 HD
ATOM     36  H81 UNL     1      31.949 -57.125  44.517  1.00  0.00     0.174 HD
ENDBRANCH   9  34
TORSDOF 9
ENDMDL
MODEL 2
REMARK VINA RESULT: -7.828268963      2.166      2.563
REMARK  9 active torsions:
REMARK  status: ('A' for Active; 'I' for Inactive)
REMARK    1  A    between atoms: C2_2  and  C3_3 
REMARK    2  A    between atoms: C3_3  and  N1_4 
REMARK    3  A    between atoms: N1_4  and  C4_6 
REMARK    4  A    between atoms: C8_14  and  C9_15 
REMARK    5  A    between atoms: C10_16  and  C11_17 
REMARK    6  A    between atoms: C11_17  and  C12_18 
REMARK    7  A    between atoms: C12_18  and  O1_19 
REMARK    8  A    between atoms: N4_22  and  C14_23 
REMARK    9  A    between atoms: C17_31  and  N8_32 
ROOT
HETATM    1  C14 UNL     1      35.248 -59.467  41.399  1.00  0.00     0.707 A 
HETATM    2  N5  UNL     1      36.277 -58.850  40.803  1.00  0.00    -0.165 N 
ATOM      3  H5  UNL     1      37.144 -59.363  40.637  1.00  0.00     0.186 HD
HETATM    4  C15 UNL     1      36.184 -57.564  40.418  1.00  0.00     0.217 A 
HETATM    5  C16 UNL     1      37.251 -56.853  39.775  1.00  0.00     0.138 C 
HETATM    6  N6  UNL     1      38.121 -56.274  39.272  1.00  0.00    -0.188 NA
HETATM    7  N7  UNL     1      35.036 -56.899  40.641  1.00  0.00    -0.166 N 
ATOM      8  H7  UNL     1      34.953 -55.924  40.353  1.00  0.00     0.186 HD
HETATM    9  C17 UNL     1      34.000 -57.505  41.239  1.00  0.00     0.692 A 
HETATM   10  N9  UNL     1      34.125 -58.776  41.606  1.00  0.00    -0.022 N 
ATOM     11  H9  UNL     1      33.337 -59.239  42.061  1.00  0.00     0.203 HD
ENDROOT
BRANCH   1  12
HETATM   12  N4  UNL     1      35.354 -60.854  41.812  1.00  0.00    -0.140 N 
HETATM   13  C6  UNL     1      34.348 -61.620  42.254  1.00  0.00     0.144 A 
HETATM   14  N3  UNL     1      33.032 -61.374  42.443  1.00  0.00    -0.337 N 
HETATM   15  C7  UNL     1      34.777 -62.892  42.566  1.00  0.00     0.073 A 
HETATM   16  C5  UNL     1      32.194 -62.310  42.905  1.00  0.00     0.183 A 
ATOM     17  H3  UNL     1      32.667 -60.446  42.227  1.00  0.00     0.168 HD
HETATM   18  N2  UNL     1      32.628 -63.548  43.204  1.00  0.00    -0.338 N 
HETATM   19  C4  UNL     1      33.916 -63.852  43.040  1.00  0.00     0.117 A 
ATOM     20  H2  UNL     1      31.976 -64.248  43.555  1.00  0.00     0.168 HD
HETATM   21  C8  UNL     1      36.150 -62.890  42.288  1.00  0.00     0.052 A 
HETATM   22  C13 UNL     1      36.453 -61.625  41.832  1.00  0.00     0.138 A 
BRANCH  19  23
HETATM   23  N1  UNL     1      34.327 -65.028  43.324  1.00  0.00    -0.372 N 
ATOM     24  H1  UNL     1      35.100 -65.089  43.987  1.00  0.00     0.161 HD
BRANCH  23  25
HETATM   25  C3  UNL     1      33.830 -66.264  42.823  1.00  0.00     0.147 C 
BRANCH  25  26
HETATM   26  C2  UNL     1      33.859 -66.367  41.337  1.00  0.00    -0.018 C 
HETATM   27  C1  UNL     1      34.996 -66.678  40.743  1.00  0.00     0.008 C 
ENDBRANCH  25  26
ENDBRANCH  23  25
ENDBRANCH  19  23
BRANCH  21  28
HETATM   28  C9  UNL     1      37.006 -64.030  42.473  1.00  0.00    -0.064 C 
HETATM   29  C10 UNL     1      37.717 -64.991  42.634  1.00  0.00    -0.099 C 
BRANCH  29  30
HETATM   30  C11 UNL     1      38.569 -66.169  42.843  1.00  0.00     0.120 C 
BRANCH  30  31
HETATM   31  C12 UNL     1      37.690 -67.268  43.364  1.00  0.00     0.176 C 
BRANCH  31  32
HETATM   32  O1  UNL     1      36.887 -66.790  44.389  1.00  0.00    -0.400 OA
ATOM     33  H1  UNL     1      36.038 -67.217  44.365  1.00  0.00     0.209 HD
ENDBRANCH  31  32
ENDBRANCH  30  31
ENDBRANCH  29  30
ENDBRANCH  21  28
ENDBRANCH   1  12
BRANCH   9  34
HETATM   34  N8  UNL     1      32.891 -56.828  41.443  1.00  0.00    -0.234 N 
ATOM     35  H82 UNL     1      32.725 -55.920  41.009  1.00  0.00     0.174 HD
ATOM     36  H81 UNL     1      32.174 -57.219  42.055  1.00  0.00     0.174 HD
ENDBRANCH   9  34
TORSDOF 9
ENDMDL
MODEL 3
REMARK VINA RESULT: -7.786362790      1.828      2.125
REMARK  9 active torsions:
REMARK  status: ('A' for Active; 'I' for Inactive)
REMARK    1  A    between atoms: C2_2  and  C3_3 
REMARK    2  A    between atoms: C3_3  and  N1_4 
REMARK    3  A    between atoms: N1_4  and  C4_6 
REMARK    4  A    between atoms: C8_14  and  C9_15 
REMARK    5  A    between atoms: C10_16  and  C11_17 
REMARK    6  A    between atoms: C11_17  and  C12_18 
REMARK    7  A    between atoms: C12_18  and  O1_19 
REMARK    8  A    between atoms: N4_22  and  C14_23 
REMARK    9  A    between atoms: C17_31  and  N8_32 
ROOT
HETATM    1  C14 UNL     1      35.253 -59.467  41.395  1.00  0.00     0.707 A 
HETATM    2  N5  UNL     1      36.285 -58.855  40.799  1.00  0.00    -0.165 N 
ATOM      3  H5  UNL     1      37.151 -59.370  40.637  1.00  0.00     0.186 HD
HETATM    4  C15 UNL     1      36.196 -57.569  40.411  1.00  0.00     0.217 A 
HETATM    5  C16 UNL     1      37.266 -56.862  39.768  1.00  0.00     0.138 C 
HETATM    6  N6  UNL     1      38.139 -56.287  39.266  1.00  0.00    -0.188 NA
HETATM    7  N7  UNL     1      35.049 -56.900  40.630  1.00  0.00    -0.166 N 
ATOM      8  H7  UNL     1      34.970 -55.926  40.340  1.00  0.00     0.186 HD
HETATM    9  C17 UNL     1      34.010 -57.502  41.227  1.00  0.00     0.692 A 
HETATM   10  N9  UNL     1      34.131 -58.773  41.598  1.00  0.00    -0.022 N 
ATOM     11  H9  UNL     1      33.341 -59.232  42.052  1.00  0.00     0.203 HD
ENDROOT
BRANCH   1  12
HETATM   12  N4  UNL     1      35.354 -60.853  41.811  1.00  0.00    -0.140 N 
HETATM   13  C6  UNL     1      34.345 -61.616  42.254  1.00  0.00     0.144 A 
HETATM   14  N3  UNL     1      33.030 -61.366  42.439  1.00  0.00    -0.337 N 
HETATM   15  C7  UNL     1      34.770 -62.888  42.570  1.00  0.00     0.073 A 
HETATM   16  C5  UNL     1      32.189 -62.299  42.902  1.00  0.00     0.183 A 
ATOM     17  H3  UNL     1      32.668 -60.437  42.221  1.00  0.00     0.168 HD
HETATM   18  N2  UNL     1      32.619 -63.537  43.205  1.00  0.00    -0.338 N 
HETATM   19  C4  UNL     1      33.906 -63.844  43.044  1.00  0.00     0.117 A 
ATOM     20  H2  UNL     1      31.964 -64.235  43.556  1.00  0.00     0.168 HD
HETATM   21  C8  UNL     1      36.144 -62.891  42.294  1.00  0.00     0.052 A 
HETATM   22  C13 UNL     1      36.451 -61.627  41.835  1.00  0.00     0.138 A 
BRANCH  19  23
HETATM   23  N1  UNL     1      34.313 -65.022  43.332  1.00  0.00    -0.372 N 
ATOM     24  H1  UNL     1      35.078 -65.083  44.004  1.00  0.00     0.161 HD
BRANCH  23  25
HETATM   25  C3  UNL     1      33.821 -66.257  42.823  1.00  0.00     0.147 C 
BRANCH  25  26
HETATM   26  C2  UNL     1      33.851 -66.351  41.337  1.00  0.00    -0.018 C 
HETATM   27  C1  UNL     1      34.986 -66.665  40.742  1.00  0.00     0.008 C 
ENDBRANCH  25  26
ENDBRANCH  23  25
ENDBRANCH  19  23
BRANCH  21  28
HETATM   28  C9  UNL     1      36.996 -64.032  42.483  1.00  0.00    -0.064 C 
HETATM   29  C10 UNL     1      37.720 -64.985  42.641  1.00  0.00    -0.099 C 
BRANCH  29  30
HETATM   30  C11 UNL     1      38.617 -66.132  42.828  1.00  0.00     0.120 C 
BRANCH  30  31
HETATM   31  C12 UNL     1      39.895 -65.607  43.416  1.00  0.00     0.176 C 
BRANCH  31  32
HETATM   32  O1  UNL     1      40.420 -64.613  42.603  1.00  0.00    -0.400 OA
ATOM     33  H1  UNL     1      39.941 -63.802  42.727  1.00  0.00     0.209 HD
ENDBRANCH  31  32
ENDBRANCH  30  31
ENDBRANCH  29  30
ENDBRANCH  21  28
ENDBRANCH   1  12
BRANCH   9  34
HETATM   34  N8  UNL     1      32.902 -56.822  41.428  1.00  0.00    -0.234 N 
ATOM     35  H82 UNL     1      32.624 -56.053  40.818  1.00  0.00     0.174 HD
ATOM     36  H81 UNL     1      32.303 -57.066  42.217  1.00  0.00     0.174 HD
ENDBRANCH   9  34
TORSDOF 9
ENDMDL
MODEL 4
REMARK VINA RESULT: -7.754691884      0.967      1.301
REMARK  9 active torsions:
REMARK  status: ('A' for Active; 'I' for Inactive)
REMARK    1  A    between atoms: C2_2  and  C3_3 
REMARK    2  A    between atoms: C3_3  and  N1_4 
REMARK    3  A    between atoms: N1_4  and  C4_6 
REMARK    4  A    between atoms: C8_14  and  C9_15 
REMARK    5  A    between atoms: C10_16  and  C11_17 
REMARK    6  A    between atoms: C11_17  and  C12_18 
REMARK    7  A    between atoms: C12_18  and  O1_19 
REMARK    8  A    between atoms: N4_22  and  C14_23 
REMARK    9  A    between atoms: C17_31  and  N8_32 
ROOT
HETATM    1  C14 UNL     1      34.551 -59.485  42.186  1.00  0.00     0.707 A 
HETATM    2  N5  UNL     1      34.465 -58.745  41.073  1.00  0.00    -0.165 N 
ATOM      3  H5  UNL     1      34.849 -59.104  40.198  1.00  0.00     0.186 HD
HETATM    4  C15 UNL     1      33.881 -57.533  41.092  1.00  0.00     0.217 A 
HETATM    5  C16 UNL     1      33.760 -56.696  39.933  1.00  0.00     0.138 C 
HETATM    6  N6  UNL     1      33.679 -56.013  38.999  1.00  0.00    -0.188 NA
HETATM    7  N7  UNL     1      33.378 -57.070  42.251  1.00  0.00    -0.166 N 
ATOM      8  H7  UNL     1      32.932 -56.153  42.277  1.00  0.00     0.186 HD
HETATM    9  C17 UNL     1      33.459 -57.801  43.371  1.00  0.00     0.692 A 
HETATM   10  N9  UNL     1      34.043 -58.994  43.319  1.00  0.00    -0.022 N 
ATOM     11  H9  UNL     1      34.105 -59.552  44.170  1.00  0.00     0.203 HD
ENDROOT
BRANCH   1  12
HETATM   12  N4  UNL     1      35.182 -60.791  42.160  1.00  0.00    -0.140 N 
HETATM   13  C6  UNL     1      34.582 -61.959  42.428  1.00  0.00     0.144 A 
HETATM   14  N3  UNL     1      33.314 -62.270  42.778  1.00  0.00    -0.337 N 
HETATM   15  C7  UNL     1      35.457 -63.018  42.316  1.00  0.00     0.073 A 
HETATM   16  C5  UNL     1      32.930 -63.533  43.001  1.00  0.00     0.183 A 
ATOM     17  H3  UNL     1      32.629 -61.520  42.875  1.00  0.00     0.168 HD
HETATM   18  N2  UNL     1      33.795 -64.556  42.887  1.00  0.00    -0.338 N 
HETATM   19  C4  UNL     1      35.061 -64.313  42.546  1.00  0.00     0.117 A 
ATOM     20  H2  UNL     1      33.485 -65.512  43.062  1.00  0.00     0.168 HD
HETATM   21  C8  UNL     1      36.681 -62.441  41.951  1.00  0.00     0.052 A 
HETATM   22  C13 UNL     1      36.460 -61.082  41.869  1.00  0.00     0.138 A 
BRANCH  19  23
HETATM   23  N1  UNL     1      35.883 -65.286  42.437  1.00  0.00    -0.372 N 
ATOM     24  H1  UNL     1      36.557 -65.225  41.674  1.00  0.00     0.161 HD
BRANCH  23  25
HETATM   25  C3  UNL     1      35.966 -66.445  43.259  1.00  0.00     0.147 C 
BRANCH  25  26
HETATM   26  C2  UNL     1      36.914 -66.309  44.399  1.00  0.00    -0.018 C 
HETATM   27  C1  UNL     1      38.210 -66.381  44.161  1.00  0.00     0.008 C 
ENDBRANCH  25  26
ENDBRANCH  23  25
ENDBRANCH  19  23
BRANCH  21  28
HETATM   28  C9  UNL     1      37.884 -63.192  41.725  1.00  0.00    -0.064 C 
HETATM   29  C10 UNL     1      38.901 -63.814  41.537  1.00  0.00    -0.099 C 
BRANCH  29  30
HETATM   30  C11 UNL     1      40.149 -64.554  41.307  1.00  0.00     0.120 C 
BRANCH  30  31
HETATM   31  C12 UNL     1      41.272 -63.560  41.360  1.00  0.00     0.176 C 
BRANCH  31  32
HETATM   32  O1  UNL     1      41.261 -62.892  42.576  1.00  0.00    -0.400 OA
ATOM     33  H1  UNL     1      40.426 -63.018  43.010  1.00  0.00     0.209 HD
ENDBRANCH  31  32
ENDBRANCH  30  31
ENDBRANCH  29  30
ENDBRANCH  21  28
ENDBRANCH   1  12
BRANCH   9  34
HETATM   34  N8  UNL     1      32.959 -57.321  44.490  1.00  0.00    -0.234 N 
ATOM     35  H82 UNL     1      33.422 -57.456  45.389  1.00  0.00     0.174 HD
ATOM     36  H81 UNL     1      32.083 -56.799  44.460  1.00  0.00     0.174 HD
ENDBRANCH   9  34
TORSDOF 9
ENDMDL
MODEL 5
REMARK VINA RESULT: -7.699251218      2.897      4.657
REMARK  9 active torsions:
REMARK  status: ('A' for Active; 'I' for Inactive)
REMARK    1  A    between atoms: C2_2  and  C3_3 
REMARK    2  A    between atoms: C3_3  and  N1_4 
REMARK    3  A    between atoms: N1_4  and  C4_6 
REMARK    4  A    between atoms: C8_14  and  C9_15 
REMARK    5  A    between atoms: C10_16  and  C11_17 
REMARK    6  A    between atoms: C11_17  and  C12_18 
REMARK    7  A    between atoms: C12_18  and  O1_19 
REMARK    8  A    between atoms: N4_22  and  C14_23 
REMARK    9  A    between atoms: C17_31  and  N8_32 
ROOT
HETATM    1  C14 UNL     1      34.651 -59.593  41.582  1.00  0.00     0.707 A 
HETATM    2  N5  UNL     1      35.692 -59.215  40.827  1.00  0.00    -0.165 N 
ATOM      3  H5  UNL     1      36.409 -59.898  40.580  1.00  0.00     0.186 HD
HETATM    4  C15 UNL     1      35.804 -57.948  40.389  1.00  0.00     0.217 A 
HETATM    5  C16 UNL     1      36.894 -57.486  39.577  1.00  0.00     0.138 C 
HETATM    6  N6  UNL     1      37.786 -57.111  38.937  1.00  0.00    -0.188 NA
HETATM    7  N7  UNL     1      34.853 -57.057  40.720  1.00  0.00    -0.166 N 
ATOM      8  H7  UNL     1      34.927 -56.094  40.393  1.00  0.00     0.186 HD
HETATM    9  C17 UNL     1      33.808 -57.422  41.476  1.00  0.00     0.692 A 
HETATM   10  N9  UNL     1      33.726 -58.682  41.893  1.00  0.00    -0.022 N 
ATOM     11  H9  UNL     1      32.932 -58.962  42.468  1.00  0.00     0.203 HD
ENDROOT
BRANCH   1  12
HETATM   12  N4  UNL     1      34.535 -60.960  42.052  1.00  0.00    -0.140 N 
HETATM   13  C6  UNL     1      35.521 -61.868  42.079  1.00  0.00     0.144 A 
HETATM   14  N3  UNL     1      36.820 -61.809  41.712  1.00  0.00    -0.337 N 
HETATM   15  C7  UNL     1      35.087 -63.075  42.582  1.00  0.00     0.073 A 
HETATM   16  C5  UNL     1      37.639 -62.862  41.831  1.00  0.00     0.183 A 
ATOM     17  H3  UNL     1      37.188 -60.937  41.333  1.00  0.00     0.168 HD
HETATM   18  N2  UNL     1      37.200 -64.034  42.325  1.00  0.00    -0.338 N 
HETATM   19  C4  UNL     1      35.927 -64.154  42.703  1.00  0.00     0.117 A 
ATOM     20  H2  UNL     1      37.837 -64.826  42.408  1.00  0.00     0.168 HD
HETATM   21  C8  UNL     1      33.732 -62.878  42.882  1.00  0.00     0.052 A 
HETATM   22  C13 UNL     1      33.445 -61.573  42.540  1.00  0.00     0.138 A 
BRANCH  19  23
HETATM   23  N1  UNL     1      35.512 -65.268  43.173  1.00  0.00    -0.372 N 
ATOM     24  H1  UNL     1      35.219 -65.266  44.150  1.00  0.00     0.161 HD
BRANCH  23  25
HETATM   25  C3  UNL     1      35.411 -66.513  42.489  1.00  0.00     0.147 C 
BRANCH  25  26
HETATM   26  C2  UNL     1      34.605 -66.450  41.239  1.00  0.00    -0.018 C 
HETATM   27  C1  UNL     1      33.402 -66.992  41.230  1.00  0.00     0.008 C 
ENDBRANCH  25  26
ENDBRANCH  23  25
ENDBRANCH  19  23
BRANCH  21  28
HETATM   28  C9  UNL     1      32.879 -63.892  43.435  1.00  0.00    -0.064 C 
HETATM   29  C10 UNL     1      32.156 -64.737  43.905  1.00  0.00    -0.099 C 
BRANCH  29  30
HETATM   30  C11 UNL     1      31.268 -65.751  44.488  1.00  0.00     0.120 C 
BRANCH  30  31
HETATM   31  C12 UNL     1      30.322 -66.188  43.408  1.00  0.00     0.176 C 
BRANCH  31  32
HETATM   32  O1  UNL     1      29.887 -65.089  42.682  1.00  0.00    -0.400 OA
ATOM     33  H1  UNL     1      30.550 -64.830  42.053  1.00  0.00     0.209 HD
ENDBRANCH  31  32
ENDBRANCH  30  31
ENDBRANCH  29  30
ENDBRANCH  21  28
ENDBRANCH   1  12
BRANCH   9  34
HETATM   34  N8  UNL     1      32.893 -56.528  41.784  1.00  0.00    -0.234 N 
ATOM     35  H82 UNL     1      31.958 -56.552  41.379  1.00  0.00     0.174 HD
ATOM     36  H81 UNL     1      33.124 -55.787  42.447  1.00  0.00     0.174 HD
ENDBRANCH   9  34
TORSDOF 9
ENDMDL
