MODEL 1
REMARK VINA RESULT: -8.479059962      0.000      0.000
REMARK  6 active torsions:
REMARK  status: ('A' for Active; 'I' for Inactive)
REMARK    1  A    between atoms: C2_2  and  N1_3 
REMARK    2  A    between atoms: N2_6  and  C5_7 
REMARK    3  A    between atoms: C6_10  and  O1_11 
REMARK    4  A    between atoms: C7_13  and  C8_14 
REMARK    5  A    between atoms: C9_23  and  N8_24 
REMARK    6  A    between atoms: N8_24  and  C10_26 
ROOT
HETATM    1  C5  UNL     1      33.837 -59.122  42.582  1.00  0.00     0.133 A 
HETATM    2  N3  UNL     1      33.826 -60.360  42.061  1.00  0.00    -0.321 N 
ATOM      3  H3  UNL     1      34.421 -60.587  41.264  1.00  0.00     0.169 HD
HETATM    4  C6  UNL     1      33.039 -61.281  42.590  1.00  0.00     0.158 A 
HETATM    5  C7  UNL     1      32.232 -60.959  43.680  1.00  0.00     0.090 A 
HETATM    6  C9  UNL     1      32.210 -59.705  44.248  1.00  0.00     0.075 A 
HETATM    7  C13 UNL     1      33.077 -58.738  43.643  1.00  0.00     0.117 A 
HETATM    8  N10 UNL     1      33.100 -57.416  44.175  1.00  0.00    -0.096 NA
ENDROOT
BRANCH   5   9
HETATM    9  C8  UNL     1      31.375 -62.036  44.201  1.00  0.00     0.154 A 
HETATM   10  N4  UNL     1      31.405 -62.653  45.381  1.00  0.00    -0.268 N 
HETATM   11  N5  UNL     1      30.478 -63.562  45.393  1.00  0.00    -0.227 N 
ATOM     12  H4  UNL     1      32.048 -62.446  46.145  1.00  0.00     0.190 HD
HETATM   13  N6  UNL     1      29.832 -63.558  44.245  1.00  0.00    -0.227 N 
ATOM     14  H5  UNL     1      30.279 -64.186  46.174  1.00  0.00     0.210 HD
HETATM   15  N7  UNL     1      30.370 -62.628  43.502  1.00  0.00    -0.268 N 
ATOM     16  H6  UNL     1      29.056 -64.167  43.985  1.00  0.00     0.210 HD
ATOM     17  H7  UNL     1      30.083 -62.385  42.554  1.00  0.00     0.190 HD
ENDBRANCH   5   9
BRANCH   4  18
HETATM   18  O1  UNL     1      32.977 -62.576  42.106  1.00  0.00    -0.345 OA
ATOM     19  H1  UNL     1      33.730 -63.020  41.733  1.00  0.00     0.219 HD
ENDBRANCH   4  18
BRANCH   6  20
HETATM   20  N8  UNL     1      31.557 -59.292  45.227  1.00  0.00    -0.380 N 
ATOM     21  H8  UNL     1      30.883 -58.596  44.904  1.00  0.00     0.160 HD
BRANCH  20  22
HETATM   22  C10 UNL     1      31.422 -59.444  46.594  1.00  0.00     0.133 C 
HETATM   23  C11 UNL     1      30.807 -58.244  47.327  1.00  0.00     0.259 C 
HETATM   24  N9  UNL     1      31.987 -58.114  48.144  1.00  0.00    -0.071 N 
HETATM   25  C12 UNL     1      32.676 -59.112  47.388  1.00  0.00     0.259 C 
ATOM     26  H92 UNL     1      32.414 -57.195  48.261  1.00  0.00     0.277 HD
ATOM     27  H91 UNL     1      31.908 -58.222  49.155  1.00  0.00     0.277 HD
ENDBRANCH  20  22
ENDBRANCH   6  20
BRANCH   1  28
HETATM   28  N2  UNL     1      34.725 -58.181  41.947  1.00  0.00    -0.356 N 
HETATM   29  C4  UNL     1      34.273 -57.317  40.892  1.00  0.00     0.169 C 
HETATM   30  C3  UNL     1      35.112 -57.595  39.688  1.00  0.00     0.083 C 
HETATM   31  N1  UNL     1      36.430 -58.012  39.878  1.00  0.00    -0.371 N 
HETATM   32  C15 UNL     1      37.029 -57.978  41.147  1.00  0.00     0.083 C 
HETATM   33  C14 UNL     1      36.111 -58.041  42.324  1.00  0.00     0.169 C 
BRANCH  31  34
HETATM   34  C2  UNL     1      37.322 -57.490  38.856  1.00  0.00     0.122 C 
HETATM   35  C1  UNL     1      37.941 -56.188  39.248  1.00  0.00     0.027 C 
ENDBRANCH  31  34
ENDBRANCH   1  28
TORSDOF 6
ENDMDL
MODEL 2
REMARK VINA RESULT: -8.442699815      2.037      3.857
REMARK  6 active torsions:
REMARK  status: ('A' for Active; 'I' for Inactive)
REMARK    1  A    between atoms: C2_2  and  N1_3 
REMARK    2  A    between atoms: N2_6  and  C5_7 
REMARK    3  A    between atoms: C6_10  and  O1_11 
REMARK    4  A    between atoms: C7_13  and  C8_14 
REMARK    5  A    between atoms: C9_23  and  N8_24 
REMARK    6  A    between atoms: N8_24  and  C10_26 
ROOT
HETATM    1  C5  UNL     1      33.773 -59.503  42.439  1.00  0.00     0.133 A 
HETATM    2  N3  UNL     1      32.728 -59.119  43.189  1.00  0.00    -0.321 N 
ATOM      3  H3  UNL     1      32.527 -58.127  43.321  1.00  0.00     0.169 HD
HETATM    4  C6  UNL     1      31.960 -60.035  43.754  1.00  0.00     0.158 A 
HETATM    5  C7  UNL     1      32.244 -61.387  43.565  1.00  0.00     0.090 A 
HETATM    6  C9  UNL     1      33.303 -61.829  42.805  1.00  0.00     0.075 A 
HETATM    7  C13 UNL     1      34.108 -60.802  42.213  1.00  0.00     0.117 A 
HETATM    8  N10 UNL     1      35.228 -61.188  41.419  1.00  0.00    -0.096 NA
ENDROOT
BRANCH   5   9
HETATM    9  C8  UNL     1      31.351 -62.343  44.240  1.00  0.00     0.154 A 
HETATM   10  N4  UNL     1      31.381 -62.796  45.492  1.00  0.00    -0.268 N 
HETATM   11  N5  UNL     1      30.414 -63.651  45.642  1.00  0.00    -0.227 N 
ATOM     12  H4  UNL     1      32.049 -62.519  46.211  1.00  0.00     0.190 HD
HETATM   13  N6  UNL     1      29.744 -63.771  44.514  1.00  0.00    -0.227 N 
ATOM     14  H5  UNL     1      30.205 -64.155  46.504  1.00  0.00     0.210 HD
HETATM   15  N7  UNL     1      30.306 -62.975  43.644  1.00  0.00    -0.268 N 
ATOM     16  H6  UNL     1      28.936 -64.373  44.352  1.00  0.00     0.210 HD
ATOM     17  H7  UNL     1      30.009 -62.850  42.676  1.00  0.00     0.190 HD
ENDBRANCH   5   9
BRANCH   4  18
HETATM   18  O1  UNL     1      30.867 -59.712  44.538  1.00  0.00    -0.345 OA
ATOM     19  H1  UNL     1      30.193 -59.106  44.252  1.00  0.00     0.219 HD
ENDBRANCH   4  18
BRANCH   6  20
HETATM   20  N8  UNL     1      33.655 -62.997  42.542  1.00  0.00    -0.380 N 
ATOM     21  H8  UNL     1      33.613 -63.134  41.531  1.00  0.00     0.160 HD
BRANCH  20  22
HETATM   22  C10 UNL     1      34.081 -64.169  43.135  1.00  0.00     0.133 C 
HETATM   23  C11 UNL     1      35.057 -65.007  42.298  1.00  0.00     0.259 C 
HETATM   24  N9  UNL     1      34.148 -66.126  42.324  1.00  0.00    -0.071 N 
HETATM   25  C12 UNL     1      33.133 -65.344  42.957  1.00  0.00     0.259 C 
ATOM     26  H92 UNL     1      33.931 -66.613  41.455  1.00  0.00     0.277 HD
ATOM     27  H91 UNL     1      34.445 -67.000  42.758  1.00  0.00     0.277 HD
ENDBRANCH  20  22
ENDBRANCH   6  20
BRANCH   1  28
HETATM   28  N2  UNL     1      34.556 -58.441  41.859  1.00  0.00    -0.356 N 
HETATM   29  C4  UNL     1      34.065 -57.666  40.753  1.00  0.00     0.169 C 
HETATM   30  C3  UNL     1      35.034 -57.821  39.627  1.00  0.00     0.083 C 
HETATM   31  N1  UNL     1      36.381 -58.027  39.931  1.00  0.00    -0.371 N 
HETATM   32  C15 UNL     1      36.860 -57.890  41.243  1.00  0.00     0.083 C 
HETATM   33  C14 UNL     1      35.867 -58.085  42.344  1.00  0.00     0.169 C 
BRANCH  31  34
HETATM   34  C2  UNL     1      37.264 -57.382  38.974  1.00  0.00     0.122 C 
HETATM   35  C1  UNL     1      37.944 -56.179  39.544  1.00  0.00     0.027 C 
ENDBRANCH  31  34
ENDBRANCH   1  28
TORSDOF 6
ENDMDL
MODEL 3
REMARK VINA RESULT: -7.749902935      3.149      8.080
REMARK  6 active torsions:
REMARK  status: ('A' for Active; 'I' for Inactive)
REMARK    1  A    between atoms: C2_2  and  N1_3 
REMARK    2  A    between atoms: N2_6  and  C5_7 
REMARK    3  A    between atoms: C6_10  and  O1_11 
REMARK    4  A    between atoms: C7_13  and  C8_14 
REMARK    5  A    between atoms: C9_23  and  N8_24 
REMARK    6  A    between atoms: N8_24  and  C10_26 
ROOT
HETATM    1  C5  UNL     1      32.371 -62.262  43.437  1.00  0.00     0.133 A 
HETATM    2  N3  UNL     1      32.132 -60.942  43.371  1.00  0.00    -0.321 N 
ATOM      3  H3  UNL     1      31.269 -60.557  43.755  1.00  0.00     0.169 HD
HETATM    4  C6  UNL     1      33.022 -60.147  42.803  1.00  0.00     0.158 A 
HETATM    5  C7  UNL     1      34.198 -60.685  42.281  1.00  0.00     0.090 A 
HETATM    6  C9  UNL     1      34.487 -62.030  42.328  1.00  0.00     0.075 A 
HETATM    7  C13 UNL     1      33.495 -62.855  42.950  1.00  0.00     0.117 A 
HETATM    8  N10 UNL     1      33.726 -64.259  43.026  1.00  0.00    -0.096 NA
ENDROOT
BRANCH   5   9
HETATM    9  C8  UNL     1      35.130 -59.735  41.653  1.00  0.00     0.154 A 
HETATM   10  N4  UNL     1      36.133 -59.045  42.193  1.00  0.00    -0.268 N 
HETATM   11  N5  UNL     1      36.666 -58.306  41.267  1.00  0.00    -0.227 N 
ATOM     12  H4  UNL     1      36.430 -59.088  43.167  1.00  0.00     0.190 HD
HETATM   13  N6  UNL     1      36.038 -58.496  40.125  1.00  0.00    -0.227 N 
ATOM     14  H5  UNL     1      37.454 -57.673  41.404  1.00  0.00     0.210 HD
HETATM   15  N7  UNL     1      35.093 -59.370  40.344  1.00  0.00    -0.268 N 
ATOM     16  H6  UNL     1      36.251 -58.045  39.235  1.00  0.00     0.210 HD
ATOM     17  H7  UNL     1      34.435 -59.720  39.648  1.00  0.00     0.190 HD
ENDBRANCH   5   9
BRANCH   4  18
HETATM   18  O1  UNL     1      32.841 -58.779  42.699  1.00  0.00    -0.345 OA
ATOM     19  H1  UNL     1      32.091 -58.393  42.262  1.00  0.00     0.219 HD
ENDBRANCH   4  18
BRANCH   6  20
HETATM   20  N8  UNL     1      35.500 -62.635  41.920  1.00  0.00    -0.380 N 
ATOM     21  H8  UNL     1      35.263 -63.133  41.061  1.00  0.00     0.160 HD
BRANCH  20  22
HETATM   22  C10 UNL     1      36.828 -62.869  42.222  1.00  0.00     0.133 C 
HETATM   23  C11 UNL     1      37.730 -63.158  41.014  1.00  0.00     0.259 C 
HETATM   24  N9  UNL     1      38.087 -64.442  41.565  1.00  0.00    -0.071 N 
HETATM   25  C12 UNL     1      37.137 -64.302  42.624  1.00  0.00     0.259 C 
ATOM     26  H92 UNL     1      38.048 -65.268  40.967  1.00  0.00     0.277 HD
ATOM     27  H91 UNL     1      39.062 -64.633  41.793  1.00  0.00     0.277 HD
ENDBRANCH  20  22
ENDBRANCH   6  20
BRANCH   1  28
HETATM   28  N2  UNL     1      31.350 -63.055  44.074  1.00  0.00    -0.356 N 
HETATM   29  C4  UNL     1      31.240 -63.129  45.505  1.00  0.00     0.169 C 
HETATM   30  C3  UNL     1      31.378 -64.563  45.896  1.00  0.00     0.083 C 
HETATM   31  N1  UNL     1      30.937 -65.542  45.003  1.00  0.00    -0.371 N 
HETATM   32  C15 UNL     1      30.198 -65.204  43.859  1.00  0.00     0.083 C 
HETATM   33  C14 UNL     1      30.379 -63.818  43.328  1.00  0.00     0.169 C 
BRANCH  31  34
HETATM   34  C2  UNL     1      30.363 -66.689  45.687  1.00  0.00     0.122 C 
HETATM   35  C1  UNL     1      30.190 -66.453  47.152  1.00  0.00     0.027 C 
ENDBRANCH  31  34
ENDBRANCH   1  28
TORSDOF 6
ENDMDL
MODEL 4
REMARK VINA RESULT: -7.519747642      2.702      7.783
REMARK  6 active torsions:
REMARK  status: ('A' for Active; 'I' for Inactive)
REMARK    1  A    between atoms: C2_2  and  N1_3 
REMARK    2  A    between atoms: N2_6  and  C5_7 
REMARK    3  A    between atoms: C6_10  and  O1_11 
REMARK    4  A    between atoms: C7_13  and  C8_14 
REMARK    5  A    between atoms: C9_23  and  N8_24 
REMARK    6  A    between atoms: N8_24  and  C10_26 
ROOT
HETATM    1  C5  UNL     1      32.615 -60.905  43.245  1.00  0.00     0.133 A 
HETATM    2  N3  UNL     1      32.564 -59.565  43.186  1.00  0.00    -0.321 N 
ATOM      3  H3  UNL     1      31.793 -59.060  43.624  1.00  0.00     0.169 HD
HETATM    4  C6  UNL     1      33.521 -58.905  42.556  1.00  0.00     0.158 A 
HETATM    5  C7  UNL     1      34.570 -59.606  41.963  1.00  0.00     0.090 A 
HETATM    6  C9  UNL     1      34.665 -60.979  41.999  1.00  0.00     0.075 A 
HETATM    7  C13 UNL     1      33.606 -61.653  42.690  1.00  0.00     0.117 A 
HETATM    8  N10 UNL     1      33.636 -63.077  42.760  1.00  0.00    -0.096 NA
ENDROOT
BRANCH   5   9
HETATM    9  C8  UNL     1      35.587 -58.799  41.269  1.00  0.00     0.154 A 
HETATM   10  N4  UNL     1      36.649 -58.163  41.761  1.00  0.00    -0.268 N 
HETATM   11  N5  UNL     1      37.249 -57.552  40.784  1.00  0.00    -0.227 N 
ATOM     12  H4  UNL     1      36.941 -58.157  42.738  1.00  0.00     0.190 HD
HETATM   13  N6  UNL     1      36.607 -57.773  39.656  1.00  0.00    -0.227 N 
ATOM     14  H5  UNL     1      38.092 -56.986  40.877  1.00  0.00     0.210 HD
HETATM   15  N7  UNL     1      35.584 -58.536  39.935  1.00  0.00    -0.268 N 
ATOM     16  H6  UNL     1      36.861 -57.416  38.735  1.00  0.00     0.210 HD
ATOM     17  H7  UNL     1      34.897 -58.878  39.264  1.00  0.00     0.190 HD
ENDBRANCH   5   9
BRANCH   4  18
HETATM   18  O1  UNL     1      33.534 -57.525  42.456  1.00  0.00    -0.345 OA
ATOM     19  H1  UNL     1      34.175 -57.055  41.934  1.00  0.00     0.219 HD
ENDBRANCH   4  18
BRANCH   6  20
HETATM   20  N8  UNL     1      35.550 -61.723  41.531  1.00  0.00    -0.380 N 
ATOM     21  H8  UNL     1      35.232 -62.091  40.633  1.00  0.00     0.160 HD
BRANCH  20  22
HETATM   22  C10 UNL     1      36.810 -62.224  41.798  1.00  0.00     0.133 C 
HETATM   23  C11 UNL     1      37.442 -63.039  40.661  1.00  0.00     0.259 C 
HETATM   24  N9  UNL     1      37.547 -64.192  41.522  1.00  0.00    -0.071 N 
HETATM   25  C12 UNL     1      36.813 -63.539  42.560  1.00  0.00     0.259 C 
ATOM     26  H92 UNL     1      37.229 -65.098  41.180  1.00  0.00     0.277 HD
ATOM     27  H91 UNL     1      38.469 -64.576  41.730  1.00  0.00     0.277 HD
ENDBRANCH  20  22
ENDBRANCH   6  20
BRANCH   1  28
HETATM   28  N2  UNL     1      31.533 -61.545  43.953  1.00  0.00    -0.356 N 
HETATM   29  C4  UNL     1      31.306 -61.306  45.351  1.00  0.00     0.169 C 
HETATM   30  C3  UNL     1      31.390 -62.621  46.054  1.00  0.00     0.083 C 
HETATM   31  N1  UNL     1      31.010 -63.772  45.362  1.00  0.00    -0.371 N 
HETATM   32  C15 UNL     1      30.371 -63.692  44.114  1.00  0.00     0.083 C 
HETATM   33  C14 UNL     1      30.615 -62.455  43.312  1.00  0.00     0.169 C 
BRANCH  31  34
HETATM   34  C2  UNL     1      30.364 -64.744  46.228  1.00  0.00     0.122 C 
HETATM   35  C1  UNL     1      29.744 -64.114  47.432  1.00  0.00     0.027 C 
ENDBRANCH  31  34
ENDBRANCH   1  28
TORSDOF 6
ENDMDL
MODEL 5
REMARK VINA RESULT: -7.320326477      2.832      4.563
REMARK  6 active torsions:
REMARK  status: ('A' for Active; 'I' for Inactive)
REMARK    1  A    between atoms: C2_2  and  N1_3 
REMARK    2  A    between atoms: N2_6  and  C5_7 
REMARK    3  A    between atoms: C6_10  and  O1_11 
REMARK    4  A    between atoms: C7_13  and  C8_14 
REMARK    5  A    between atoms: C9_23  and  N8_24 
REMARK    6  A    between atoms: N8_24  and  C10_26 
ROOT
HETATM    1  C5  UNL     1      33.704 -60.560  42.416  1.00  0.00     0.133 A 
HETATM    2  N3  UNL     1      32.436 -60.649  42.846  1.00  0.00    -0.321 N 
ATOM      3  H3  UNL     1      31.851 -59.815  42.898  1.00  0.00     0.169 HD
HETATM    4  C6  UNL     1      31.951 -61.826  43.204  1.00  0.00     0.158 A 
HETATM    5  C7  UNL     1      32.760 -62.959  43.130  1.00  0.00     0.090 A 
HETATM    6  C9  UNL     1      34.065 -62.917  42.693  1.00  0.00     0.075 A 
HETATM    7  C13 UNL     1      34.549 -61.622  42.318  1.00  0.00     0.117 A 
HETATM    8  N10 UNL     1      35.895 -61.503  41.863  1.00  0.00    -0.096 NA
ENDROOT
BRANCH   5   9
HETATM    9  C8  UNL     1      32.151 -64.227  43.560  1.00  0.00     0.154 A 
HETATM   10  N4  UNL     1      31.760 -65.273  42.833  1.00  0.00    -0.268 N 
HETATM   11  N5  UNL     1      31.248 -66.160  43.632  1.00  0.00    -0.227 N 
ATOM     12  H4  UNL     1      31.848 -65.362  41.821  1.00  0.00     0.190 HD
HETATM   13  N6  UNL     1      31.295 -65.723  44.874  1.00  0.00    -0.227 N 
ATOM     14  H5  UNL     1      30.868 -67.060  43.342  1.00  0.00     0.210 HD
HETATM   15  N7  UNL     1      31.845 -64.539  44.847  1.00  0.00    -0.268 N 
ATOM     16  H6  UNL     1      30.963 -66.218  45.702  1.00  0.00     0.210 HD
ATOM     17  H7  UNL     1      32.017 -63.945  45.659  1.00  0.00     0.190 HD
ENDBRANCH   5   9
BRANCH   4  18
HETATM   18  O1  UNL     1      30.654 -61.992  43.657  1.00  0.00    -0.345 OA
ATOM     19  H1  UNL     1      30.209 -61.339  44.185  1.00  0.00     0.219 HD
ENDBRANCH   4  18
BRANCH   6  20
HETATM   20  N8  UNL     1      34.885 -63.848  42.561  1.00  0.00    -0.380 N 
ATOM     21  H8  UNL     1      35.093 -63.966  41.569  1.00  0.00     0.160 HD
BRANCH  20  22
HETATM   22  C10 UNL     1      35.610 -64.776  43.284  1.00  0.00     0.133 C 
HETATM   23  C11 UNL     1      37.021 -65.059  42.751  1.00  0.00     0.259 C 
HETATM   24  N9  UNL     1      36.698 -66.455  42.584  1.00  0.00    -0.071 N 
HETATM   25  C12 UNL     1      35.327 -66.222  42.910  1.00  0.00     0.259 C 
ATOM     26  H92 UNL     1      36.930 -66.918  41.705  1.00  0.00     0.277 HD
ATOM     27  H91 UNL     1      37.223 -67.154  43.108  1.00  0.00     0.277 HD
ENDBRANCH  20  22
ENDBRANCH   6  20
BRANCH   1  28
HETATM   28  N2  UNL     1      34.151 -59.241  42.044  1.00  0.00    -0.356 N 
HETATM   29  C4  UNL     1      34.071 -58.776  40.687  1.00  0.00     0.169 C 
HETATM   30  C3  UNL     1      35.454 -58.423  40.247  1.00  0.00     0.083 C 
HETATM   31  N1  UNL     1      36.360 -57.962  41.204  1.00  0.00    -0.371 N 
HETATM   32  C15 UNL     1      35.942 -57.637  42.504  1.00  0.00     0.083 C 
HETATM   33  C14 UNL     1      34.701 -58.307  42.998  1.00  0.00     0.169 C 
BRANCH  31  34
HETATM   34  C2  UNL     1      37.257 -56.952  40.667  1.00  0.00     0.122 C 
HETATM   35  C1  UNL     1      37.496 -57.121  39.202  1.00  0.00     0.027 C 
ENDBRANCH  31  34
ENDBRANCH   1  28
TORSDOF 6
ENDMDL
