MODEL 1
REMARK VINA RESULT: -8.607099207      0.000      0.000
REMARK  9 active torsions:
REMARK  status: ('A' for Active; 'I' for Inactive)
REMARK    1  A    between atoms: C2_2  and  N1_3 
REMARK    2  A    between atoms: N1_3  and  C3_5 
REMARK    3  A    between atoms: C5_11  and  N4_12 
REMARK    4  A    between atoms: N4_12  and  N5_14 
REMARK    5  A    between atoms: C6_16  and  C8_18 
REMARK    6  A    between atoms: C12_25  and  N8_26 
REMARK    7  A    between atoms: N8_26  and  C13_27 
REMARK    8  A    between atoms: C13_27  and  C14_28 
REMARK    9  A    between atoms: C14_28  and  O1_29 
ROOT
HETATM    1  C3  UNL     1     -21.658  27.043  11.068  1.00  0.00     0.682 A 
HETATM    2  N2  UNL     1     -20.815  27.232  12.124  1.00  0.00    -0.175 N 
ATOM      3  H2  UNL     1     -20.764  26.627  12.943  1.00  0.00     0.186 HD
HETATM    4  C4  UNL     1     -20.052  28.345  11.929  1.00  0.00     0.155 A 
HETATM    5  N3  UNL     1     -19.139  28.700  12.859  1.00  0.00    -0.173 N 
ATOM      6  H3  UNL     1     -19.033  28.144  13.707  1.00  0.00     0.186 HD
HETATM    7  C5  UNL     1     -18.361  29.800  12.665  1.00  0.00     0.699 A 
HETATM    8  N6  UNL     1     -18.526  30.510  11.543  1.00  0.00    -0.176 N 
ATOM      9  H6  UNL     1     -17.936  31.332  11.412  1.00  0.00     0.185 HD
HETATM   10  C10 UNL     1     -19.374  30.232  10.618  1.00  0.00     0.150 A 
HETATM   11  N7  UNL     1     -19.583  30.954   9.422  1.00  0.00    -0.081 NA
HETATM   12  C11 UNL     1     -20.272  29.038  10.745  1.00  0.00     0.109 A 
HETATM   13  C12 UNL     1     -20.968  29.079   9.633  1.00  0.00     0.209 A 
HETATM   14  N9  UNL     1     -21.812  27.696  10.034  1.00  0.00    -0.163 N 
ATOM     15  H9  UNL     1     -22.513  27.365   9.371  1.00  0.00     0.187 HD
ENDROOT
BRANCH   7  16
HETATM   16  N4  UNL     1     -17.512  30.101  13.551  1.00  0.00    -0.132 N 
ATOM     17  H4  UNL     1     -17.770  30.920  14.101  1.00  0.00     0.205 HD
BRANCH  16  18
HETATM   18  N5  UNL     1     -16.335  29.558  13.914  1.00  0.00    -0.295 N 
HETATM   19  C6  UNL     1     -15.207  29.877  13.425  1.00  0.00    -0.000 C 
HETATM   20  C7  UNL     1     -14.000  29.171  13.945  1.00  0.00     0.065 C 
ATOM     21  H5  UNL     1     -16.351  28.838  14.636  1.00  0.00     0.186 HD
BRANCH  19  22
HETATM   22  C8  UNL     1     -15.126  30.911  12.378  1.00  0.00     0.049 C 
HETATM   23  C9  UNL     1     -13.696  31.285  12.061  1.00  0.00     0.011 C 
ENDBRANCH  19  22
ENDBRANCH  16  18
ENDBRANCH   7  16
BRANCH   1  24
HETATM   24  N1  UNL     1     -22.414  25.939  11.262  1.00  0.00    -0.226 N 
ATOM     25  H1  UNL     1     -23.187  25.719  10.634  1.00  0.00     0.177 HD
BRANCH  24  26
HETATM   26  C2  UNL     1     -22.104  25.088  12.367  1.00  0.00     0.133 C 
HETATM   27  C1  UNL     1     -23.143  24.028  12.619  1.00  0.00     0.027 C 
ENDBRANCH  24  26
ENDBRANCH   1  24
BRANCH  13  28
HETATM   28  N8  UNL     1     -21.557  29.113   8.693  1.00  0.00    -0.400 NA
BRANCH  28  29
HETATM   29  C13 UNL     1     -22.257  29.167   7.562  1.00  0.00     0.183 C 
BRANCH  29  30
HETATM   30  C14 UNL     1     -23.131  27.971   7.172  1.00  0.00     0.223 C 
BRANCH  30  31
HETATM   31  O1  UNL     1     -22.405  26.792   7.461  1.00  0.00    -0.395 OA
ATOM     32  H1  UNL     1     -22.450  26.228   6.698  1.00  0.00     0.209 HD
ENDBRANCH  30  31
ENDBRANCH  29  30
ENDBRANCH  28  29
ENDBRANCH  13  28
TORSDOF 9
ENDMDL
MODEL 2
REMARK VINA RESULT: -7.713976232      1.221      1.631
REMARK  9 active torsions:
REMARK  status: ('A' for Active; 'I' for Inactive)
REMARK    1  A    between atoms: C2_2  and  N1_3 
REMARK    2  A    between atoms: N1_3  and  C3_5 
REMARK    3  A    between atoms: C5_11  and  N4_12 
REMARK    4  A    between atoms: N4_12  and  N5_14 
REMARK    5  A    between atoms: C6_16  and  C8_18 
REMARK    6  A    between atoms: C12_25  and  N8_26 
REMARK    7  A    between atoms: N8_26  and  C13_27 
REMARK    8  A    between atoms: C13_27  and  C14_28 
REMARK    9  A    between atoms: C14_28  and  O1_29 
ROOT
HETATM    1  C3  UNL     1     -21.360  26.409  11.558  1.00  0.00     0.682 A 
HETATM    2  N2  UNL     1     -20.450  27.108  12.295  1.00  0.00    -0.175 N 
ATOM      3  H2  UNL     1     -20.086  26.815  13.201  1.00  0.00     0.186 HD
HETATM    4  C4  UNL     1     -20.094  28.253  11.646  1.00  0.00     0.155 A 
HETATM    5  N3  UNL     1     -19.187  29.083  12.206  1.00  0.00    -0.173 N 
ATOM      6  H3  UNL     1     -18.782  28.857  13.115  1.00  0.00     0.186 HD
HETATM    7  C5  UNL     1     -18.813  30.221  11.560  1.00  0.00     0.699 A 
HETATM    8  N6  UNL     1     -19.364  30.490  10.370  1.00  0.00    -0.176 N 
ATOM      9  H6  UNL     1     -19.074  31.347   9.897  1.00  0.00     0.185 HD
HETATM   10  C10 UNL     1     -20.232  29.748   9.780  1.00  0.00     0.150 A 
HETATM   11  N7  UNL     1     -20.839  29.996   8.529  1.00  0.00    -0.081 NA
HETATM   12  C11 UNL     1     -20.701  28.475  10.417  1.00  0.00     0.109 A 
HETATM   13  C12 UNL     1     -21.552  28.006   9.535  1.00  0.00     0.209 A 
HETATM   14  N9  UNL     1     -21.870  26.656  10.463  1.00  0.00    -0.163 N 
ATOM     15  H9  UNL     1     -22.540  25.980  10.095  1.00  0.00     0.187 HD
ENDROOT
BRANCH   7  16
HETATM   16  N4  UNL     1     -17.957  30.972  12.107  1.00  0.00    -0.132 N 
ATOM     17  H4  UNL     1     -18.299  31.434  12.949  1.00  0.00     0.205 HD
BRANCH  16  18
HETATM   18  N5  UNL     1     -16.685  31.286  11.802  1.00  0.00    -0.295 N 
HETATM   19  C6  UNL     1     -15.660  30.801  12.375  1.00  0.00    -0.000 C 
HETATM   20  C7  UNL     1     -14.320  31.261  11.908  1.00  0.00     0.065 C 
ATOM     21  H5  UNL     1     -16.532  31.962  11.054  1.00  0.00     0.186 HD
BRANCH  19  22
HETATM   22  C8  UNL     1     -15.822  29.821  13.464  1.00  0.00     0.049 C 
HETATM   23  C9  UNL     1     -14.528  29.106  13.778  1.00  0.00     0.011 C 
ENDBRANCH  19  22
ENDBRANCH  16  18
ENDBRANCH   7  16
BRANCH   1  24
HETATM   24  N1  UNL     1     -21.712  25.273  12.201  1.00  0.00    -0.226 N 
ATOM     25  H1  UNL     1     -21.033  24.758  12.761  1.00  0.00     0.177 HD
BRANCH  24  26
HETATM   26  C2  UNL     1     -23.059  24.811  12.076  1.00  0.00     0.133 C 
HETATM   27  C1  UNL     1     -23.330  23.540  12.835  1.00  0.00     0.027 C 
ENDBRANCH  24  26
ENDBRANCH   1  24
BRANCH  13  28
HETATM   28  N8  UNL     1     -22.271  27.608   8.789  1.00  0.00    -0.400 NA
BRANCH  28  29
HETATM   29  C13 UNL     1     -23.144  27.131   7.904  1.00  0.00     0.183 C 
BRANCH  29  30
HETATM   30  C14 UNL     1     -23.479  27.969   6.666  1.00  0.00     0.223 C 
BRANCH  30  31
HETATM   31  O1  UNL     1     -24.200  27.147   5.770  1.00  0.00    -0.395 OA
ATOM     32  H1  UNL     1     -24.515  26.393   6.255  1.00  0.00     0.209 HD
ENDBRANCH  30  31
ENDBRANCH  29  30
ENDBRANCH  28  29
ENDBRANCH  13  28
TORSDOF 9
ENDMDL
MODEL 3
REMARK VINA RESULT: -7.468398234      1.908      6.365
REMARK  9 active torsions:
REMARK  status: ('A' for Active; 'I' for Inactive)
REMARK    1  A    between atoms: C2_2  and  N1_3 
REMARK    2  A    between atoms: N1_3  and  C3_5 
REMARK    3  A    between atoms: C5_11  and  N4_12 
REMARK    4  A    between atoms: N4_12  and  N5_14 
REMARK    5  A    between atoms: C6_16  and  C8_18 
REMARK    6  A    between atoms: C12_25  and  N8_26 
REMARK    7  A    between atoms: N8_26  and  C13_27 
REMARK    8  A    between atoms: C13_27  and  C14_28 
REMARK    9  A    between atoms: C14_28  and  O1_29 
ROOT
HETATM    1  C3  UNL     1     -19.473  30.296  10.757  1.00  0.00     0.682 A 
HETATM    2  N2  UNL     1     -19.789  29.287  11.618  1.00  0.00    -0.175 N 
ATOM      3  H2  UNL     1     -19.441  29.206  12.573  1.00  0.00     0.186 HD
HETATM    4  C4  UNL     1     -20.635  28.400  11.020  1.00  0.00     0.155 A 
HETATM    5  N3  UNL     1     -21.079  27.329  11.713  1.00  0.00    -0.173 N 
ATOM      6  H3  UNL     1     -20.771  27.181  12.674  1.00  0.00     0.186 HD
HETATM    7  C5  UNL     1     -21.937  26.448  11.131  1.00  0.00     0.699 A 
HETATM    8  N6  UNL     1     -22.320  26.669   9.867  1.00  0.00    -0.176 N 
ATOM      9  H6  UNL     1     -22.962  26.000   9.444  1.00  0.00     0.185 HD
HETATM   10  C10 UNL     1     -21.937  27.664   9.149  1.00  0.00     0.150 A 
HETATM   11  N7  UNL     1     -22.313  27.933   7.814  1.00  0.00    -0.081 NA
HETATM   12  C11 UNL     1     -20.994  28.686   9.709  1.00  0.00     0.109 A 
HETATM   13  C12 UNL     1     -20.849  29.525   8.710  1.00  0.00     0.209 A 
HETATM   14  N9  UNL     1     -19.824  30.501   9.593  1.00  0.00    -0.163 N 
ATOM     15  H9  UNL     1     -19.458  31.335   9.133  1.00  0.00     0.187 HD
ENDROOT
BRANCH   7  16
HETATM   16  N4  UNL     1     -22.339  25.460  11.809  1.00  0.00    -0.132 N 
ATOM     17  H4  UNL     1     -23.354  25.385  11.856  1.00  0.00     0.205 HD
BRANCH  16  18
HETATM   18  N5  UNL     1     -21.695  24.488  12.480  1.00  0.00    -0.295 N 
HETATM   19  C6  UNL     1     -22.256  23.482  13.017  1.00  0.00    -0.000 C 
HETATM   20  C7  UNL     1     -21.388  22.498  13.725  1.00  0.00     0.065 C 
ATOM     21  H5  UNL     1     -20.682  24.564  12.564  1.00  0.00     0.186 HD
BRANCH  19  22
HETATM   22  C8  UNL     1     -23.719  23.323  12.927  1.00  0.00     0.049 C 
HETATM   23  C9  UNL     1     -24.401  23.618  14.244  1.00  0.00     0.011 C 
ENDBRANCH  19  22
ENDBRANCH  16  18
ENDBRANCH   7  16
BRANCH   1  24
HETATM   24  N1  UNL     1     -18.635  31.176  11.351  1.00  0.00    -0.226 N 
ATOM     25  H1  UNL     1     -18.715  32.176  11.170  1.00  0.00     0.177 HD
BRANCH  24  26
HETATM   26  C2  UNL     1     -17.635  30.669  12.237  1.00  0.00     0.133 C 
HETATM   27  C1  UNL     1     -16.243  31.135  11.900  1.00  0.00     0.027 C 
ENDBRANCH  24  26
ENDBRANCH   1  24
BRANCH  13  28
HETATM   28  N8  UNL     1     -20.728  30.235   7.866  1.00  0.00    -0.400 NA
BRANCH  28  29
HETATM   29  C13 UNL     1     -20.574  31.076   6.846  1.00  0.00     0.183 C 
BRANCH  29  30
HETATM   30  C14 UNL     1     -21.797  31.453   6.003  1.00  0.00     0.223 C 
BRANCH  30  31
HETATM   31  O1  UNL     1     -22.539  30.273   5.766  1.00  0.00    -0.395 OA
ATOM     32  H1  UNL     1     -22.150  29.829   5.021  1.00  0.00     0.209 HD
ENDBRANCH  30  31
ENDBRANCH  29  30
ENDBRANCH  28  29
ENDBRANCH  13  28
TORSDOF 9
ENDMDL
MODEL 4
REMARK VINA RESULT: -7.401773465      1.572      3.911
REMARK  9 active torsions:
REMARK  status: ('A' for Active; 'I' for Inactive)
REMARK    1  A    between atoms: C2_2  and  N1_3 
REMARK    2  A    between atoms: N1_3  and  C3_5 
REMARK    3  A    between atoms: C5_11  and  N4_12 
REMARK    4  A    between atoms: N4_12  and  N5_14 
REMARK    5  A    between atoms: C6_16  and  C8_18 
REMARK    6  A    between atoms: C12_25  and  N8_26 
REMARK    7  A    between atoms: N8_26  and  C13_27 
REMARK    8  A    between atoms: C13_27  and  C14_28 
REMARK    9  A    between atoms: C14_28  and  O1_29 
ROOT
HETATM    1  C3  UNL     1     -20.709  30.530   8.462  1.00  0.00     0.682 A 
HETATM    2  N2  UNL     1     -19.807  31.066   9.332  1.00  0.00    -0.175 N 
ATOM      3  H2  UNL     1     -19.324  31.954   9.197  1.00  0.00     0.186 HD
HETATM    4  C4  UNL     1     -19.639  30.246  10.408  1.00  0.00     0.155 A 
HETATM    5  N3  UNL     1     -18.792  30.605  11.397  1.00  0.00    -0.173 N 
ATOM      6  H3  UNL     1     -18.272  31.480  11.329  1.00  0.00     0.186 HD
HETATM    7  C5  UNL     1     -18.631  29.801  12.483  1.00  0.00     0.699 A 
HETATM    8  N6  UNL     1     -19.326  28.658  12.541  1.00  0.00    -0.176 N 
ATOM      9  H6  UNL     1     -19.194  28.066  13.360  1.00  0.00     0.185 HD
HETATM   10  C10 UNL     1     -20.147  28.254  11.638  1.00  0.00     0.150 A 
HETATM   11  N7  UNL     1     -20.897  27.057  11.658  1.00  0.00    -0.081 NA
HETATM   12  C11 UNL     1     -20.388  29.076  10.408  1.00  0.00     0.109 A 
HETATM   13  C12 UNL     1     -21.269  28.360   9.750  1.00  0.00     0.209 A 
HETATM   14  N9  UNL     1     -21.350  29.478   8.513  1.00  0.00    -0.163 N 
ATOM     15  H9  UNL     1     -21.979  29.274   7.736  1.00  0.00     0.187 HD
ENDROOT
BRANCH   7  16
HETATM   16  N4  UNL     1     -17.835  30.169  13.393  1.00  0.00    -0.132 N 
ATOM     17  H4  UNL     1     -18.145  31.003  13.892  1.00  0.00     0.205 HD
BRANCH  16  18
HETATM   18  N5  UNL     1     -16.662  29.682  13.836  1.00  0.00    -0.295 N 
HETATM   19  C6  UNL     1     -15.524  29.985  13.361  1.00  0.00    -0.000 C 
HETATM   20  C7  UNL     1     -14.322  29.348  13.974  1.00  0.00     0.065 C 
ATOM     21  H5  UNL     1     -16.689  29.019  14.611  1.00  0.00     0.186 HD
BRANCH  19  22
HETATM   22  C8  UNL     1     -15.427  30.935  12.238  1.00  0.00     0.049 C 
HETATM   23  C9  UNL     1     -13.991  31.268  11.902  1.00  0.00     0.011 C 
ENDBRANCH  19  22
ENDBRANCH  16  18
ENDBRANCH   7  16
BRANCH   1  24
HETATM   24  N1  UNL     1     -20.875  31.344   7.395  1.00  0.00    -0.226 N 
ATOM     25  H1  UNL     1     -21.648  32.009   7.361  1.00  0.00     0.177 HD
BRANCH  24  26
HETATM   26  C2  UNL     1     -19.942  31.249   6.317  1.00  0.00     0.133 C 
HETATM   27  C1  UNL     1     -19.676  32.565   5.637  1.00  0.00     0.027 C 
ENDBRANCH  24  26
ENDBRANCH   1  24
BRANCH  13  28
HETATM   28  N8  UNL     1     -22.015  27.755   9.192  1.00  0.00    -0.400 NA
BRANCH  28  29
HETATM   29  C13 UNL     1     -22.898  27.021   8.520  1.00  0.00     0.183 C 
BRANCH  29  30
HETATM   30  C14 UNL     1     -23.386  27.512   7.154  1.00  0.00     0.223 C 
BRANCH  30  31
HETATM   31  O1  UNL     1     -24.168  26.484   6.578  1.00  0.00    -0.395 OA
ATOM     32  H1  UNL     1     -25.079  26.665   6.778  1.00  0.00     0.209 HD
ENDBRANCH  30  31
ENDBRANCH  29  30
ENDBRANCH  28  29
ENDBRANCH  13  28
TORSDOF 9
ENDMDL
MODEL 5
REMARK VINA RESULT: -7.253647915      2.570      7.359
REMARK  9 active torsions:
REMARK  status: ('A' for Active; 'I' for Inactive)
REMARK    1  A    between atoms: C2_2  and  N1_3 
REMARK    2  A    between atoms: N1_3  and  C3_5 
REMARK    3  A    between atoms: C5_11  and  N4_12 
REMARK    4  A    between atoms: N4_12  and  N5_14 
REMARK    5  A    between atoms: C6_16  and  C8_18 
REMARK    6  A    between atoms: C12_25  and  N8_26 
REMARK    7  A    between atoms: N8_26  and  C13_27 
REMARK    8  A    between atoms: C13_27  and  C14_28 
REMARK    9  A    between atoms: C14_28  and  O1_29 
ROOT
HETATM    1  C3  UNL     1     -21.503  26.524  11.323  1.00  0.00     0.682 A 
HETATM    2  N2  UNL     1     -22.243  26.419  10.182  1.00  0.00    -0.175 N 
ATOM      3  H2  UNL     1     -22.864  25.642   9.960  1.00  0.00     0.186 HD
HETATM    4  C4  UNL     1     -22.034  27.502   9.380  1.00  0.00     0.155 A 
HETATM    5  N3  UNL     1     -22.688  27.597   8.202  1.00  0.00    -0.173 N 
ATOM      6  H3  UNL     1     -23.325  26.854   7.912  1.00  0.00     0.186 HD
HETATM    7  C5  UNL     1     -22.500  28.681   7.402  1.00  0.00     0.699 A 
HETATM    8  N6  UNL     1     -21.656  29.638   7.810  1.00  0.00    -0.176 N 
ATOM      9  H6  UNL     1     -21.525  30.444   7.200  1.00  0.00     0.185 HD
HETATM   10  C10 UNL     1     -21.001  29.613   8.916  1.00  0.00     0.150 A 
HETATM   11  N7  UNL     1     -20.101  30.597   9.383  1.00  0.00    -0.081 NA
HETATM   12  C11 UNL     1     -21.148  28.458   9.860  1.00  0.00     0.109 A 
HETATM   13  C12 UNL     1     -20.352  28.790  10.850  1.00  0.00     0.209 A 
HETATM   14  N9  UNL     1     -20.725  27.403  11.700  1.00  0.00    -0.163 N 
ATOM     15  H9  UNL     1     -20.272  27.271  12.605  1.00  0.00     0.187 HD
ENDROOT
BRANCH   7  16
HETATM   16  N4  UNL     1     -23.132  28.743   6.310  1.00  0.00    -0.132 N 
ATOM     17  H4  UNL     1     -22.822  29.500   5.701  1.00  0.00     0.205 HD
BRANCH  16  18
HETATM   18  N5  UNL     1     -24.132  28.009   5.789  1.00  0.00    -0.295 N 
HETATM   19  C6  UNL     1     -25.274  28.462   5.466  1.00  0.00    -0.000 C 
HETATM   20  C7  UNL     1     -26.268  27.505   4.900  1.00  0.00     0.065 C 
ATOM     21  H5  UNL     1     -23.961  27.014   5.641  1.00  0.00     0.186 HD
BRANCH  19  22
HETATM   22  C8  UNL     1     -25.577  29.892   5.660  1.00  0.00     0.049 C 
HETATM   23  C9  UNL     1     -26.440  30.442   4.546  1.00  0.00     0.011 C 
ENDBRANCH  19  22
ENDBRANCH  16  18
ENDBRANCH   7  16
BRANCH   1  24
HETATM   24  N1  UNL     1     -21.710  25.450  12.118  1.00  0.00    -0.226 N 
ATOM     25  H1  UNL     1     -20.961  25.082  12.704  1.00  0.00     0.177 HD
BRANCH  24  26
HETATM   26  C2  UNL     1     -23.004  24.844  12.118  1.00  0.00     0.133 C 
HETATM   27  C1  UNL     1     -23.059  23.546  12.878  1.00  0.00     0.027 C 
ENDBRANCH  24  26
ENDBRANCH   1  24
BRANCH  13  28
HETATM   28  N8  UNL     1     -19.681  29.070  11.687  1.00  0.00    -0.400 NA
BRANCH  28  29
HETATM   29  C13 UNL     1     -18.877  29.421  12.689  1.00  0.00     0.183 C 
BRANCH  29  30
HETATM   30  C14 UNL     1     -18.105  30.741  12.594  1.00  0.00     0.223 C 
BRANCH  30  31
HETATM   31  O1  UNL     1     -17.564  30.833  11.290  1.00  0.00    -0.395 OA
ATOM     32  H1  UNL     1     -18.189  31.301  10.749  1.00  0.00     0.209 HD
ENDBRANCH  30  31
ENDBRANCH  29  30
ENDBRANCH  28  29
ENDBRANCH  13  28
TORSDOF 9
ENDMDL
