MODEL 1
REMARK VINA RESULT: -6.888585184      0.000      0.000
REMARK  8 active torsions:
REMARK  status: ('A' for Active; 'I' for Inactive)
REMARK    1  A    between atoms: C2_2  and  C3_3 
REMARK    2  A    between atoms: C3_3  and  S1_4 
REMARK    3  A    between atoms: S1_4  and  C4_5 
REMARK    4  A    between atoms: C5_8  and  C6_9 
REMARK    5  A    between atoms: N2_11  and  N3_13 
REMARK    6  A    between atoms: N3_13  and  C8_15 
REMARK    7  A    between atoms: N7_22  and  N8_24 
REMARK    8  A    between atoms: N8_24  and  N9_25 
ROOT
HETATM    1  N8  UNL     1     -23.836  29.203   6.268  1.00  0.00    -0.133 N 
HETATM    2  C10 UNL     1     -23.217  28.181   6.981  1.00  0.00     0.221 C 
HETATM    3  N10 UNL     1     -22.688  27.321   7.585  1.00  0.00    -0.169 NA
ENDROOT
BRANCH   1   4
HETATM    4  N7  UNL     1     -23.095  29.967   5.396  1.00  0.00    -0.278 N 
HETATM    5  C2  UNL     1     -22.259  30.886   5.724  1.00  0.00     0.012 C 
HETATM    6  C1  UNL     1     -21.553  31.603   4.637  1.00  0.00     0.066 C 
ATOM      7  H7  UNL     1     -23.221  29.787   4.400  1.00  0.00     0.189 HD
BRANCH   5   8
HETATM    8  C3  UNL     1     -22.003  31.223   7.116  1.00  0.00     0.136 C 
BRANCH   8   9
HETATM    9  S1  UNL     1     -20.309  30.807   7.631  1.00  0.00    -0.088 SA
BRANCH   9  10
HETATM   10  C4  UNL     1     -20.385  30.176   9.325  1.00  0.00     0.146 A 
HETATM   11  N1  UNL     1     -20.003  30.805  10.432  1.00  0.00    -0.332 N 
HETATM   12  C5  UNL     1     -20.202  30.031  11.549  1.00  0.00     0.099 A 
ATOM     13  H1  UNL     1     -19.610  31.747  10.450  1.00  0.00     0.168 HD
HETATM   14  C9  UNL     1     -20.735  28.876  11.044  1.00  0.00     0.147 A 
HETATM   15  N5  UNL     1     -21.137  27.716  11.756  1.00  0.00    -0.080 NA
HETATM   16  N6  UNL     1     -20.838  28.984   9.694  1.00  0.00    -0.323 N 
ATOM     17  H6  UNL     1     -21.202  28.267   9.066  1.00  0.00     0.169 HD
BRANCH  12  18
HETATM   18  C6  UNL     1     -19.888  30.430  12.912  1.00  0.00     0.052 C 
HETATM   19  C7  UNL     1     -21.040  31.206  13.594  1.00  0.00     0.072 C 
HETATM   20  N2  UNL     1     -18.921  30.276  13.604  1.00  0.00    -0.301 N 
ATOM     21  H2  UNL     1     -19.097  30.710  14.511  1.00  0.00     0.186 HD
BRANCH  20  22
HETATM   22  N3  UNL     1     -17.712  29.748  13.617  1.00  0.00    -0.278 N 
ATOM     23  H3  UNL     1     -17.526  28.950  14.223  1.00  0.00     0.189 HD
BRANCH  22  24
HETATM   24  C8  UNL     1     -16.648  30.269  12.799  1.00  0.00     0.199 C 
HETATM   25  N4  UNL     1     -16.874  31.053  11.636  1.00  0.00    -0.068 NA
HETATM   26  S2  UNL     1     -15.100  29.954  13.209  1.00  0.00    -0.043 SA
ENDBRANCH  22  24
ENDBRANCH  20  22
ENDBRANCH  12  18
ENDBRANCH   9  10
ENDBRANCH   8   9
ENDBRANCH   5   8
ENDBRANCH   1   4
BRANCH   1  27
HETATM   27  N9  UNL     1     -25.191  29.435   6.448  1.00  0.00    -0.315 N 
ATOM     28  H92 UNL     1     -25.565  30.370   6.287  1.00  0.00     0.179 HD
ATOM     29  H91 UNL     1     -25.819  28.685   6.739  1.00  0.00     0.179 HD
ENDBRANCH   1  27
TORSDOF 8
ENDMDL
MODEL 2
REMARK VINA RESULT: -6.797289398      1.867      2.610
REMARK  8 active torsions:
REMARK  status: ('A' for Active; 'I' for Inactive)
REMARK    1  A    between atoms: C2_2  and  C3_3 
REMARK    2  A    between atoms: C3_3  and  S1_4 
REMARK    3  A    between atoms: S1_4  and  C4_5 
REMARK    4  A    between atoms: C5_8  and  C6_9 
REMARK    5  A    between atoms: N2_11  and  N3_13 
REMARK    6  A    between atoms: N3_13  and  C8_15 
REMARK    7  A    between atoms: N7_22  and  N8_24 
REMARK    8  A    between atoms: N8_24  and  N9_25 
ROOT
HETATM    1  N8  UNL     1     -23.876  29.028   6.329  1.00  0.00    -0.133 N 
HETATM    2  C10 UNL     1     -23.228  28.051   7.078  1.00  0.00     0.221 C 
HETATM    3  N10 UNL     1     -22.674  27.230   7.713  1.00  0.00    -0.169 NA
ENDROOT
BRANCH   1   4
HETATM    4  N7  UNL     1     -23.149  29.822   5.472  1.00  0.00    -0.278 N 
HETATM    5  C2  UNL     1     -22.329  30.748   5.819  1.00  0.00     0.012 C 
HETATM    6  C1  UNL     1     -21.634  31.498   4.748  1.00  0.00     0.066 C 
ATOM      7  H7  UNL     1     -23.271  29.660   4.473  1.00  0.00     0.189 HD
BRANCH   5   8
HETATM    8  C3  UNL     1     -22.079  31.061   7.219  1.00  0.00     0.136 C 
BRANCH   8   9
HETATM    9  S1  UNL     1     -20.328  30.868   7.672  1.00  0.00    -0.088 SA
BRANCH   9  10
HETATM   10  C4  UNL     1     -20.263  30.148   9.330  1.00  0.00     0.146 A 
HETATM   11  N1  UNL     1     -19.615  30.629  10.388  1.00  0.00    -0.332 N 
HETATM   12  C5  UNL     1     -19.781  29.827  11.490  1.00  0.00     0.099 A 
ATOM     13  H1  UNL     1     -19.064  31.487  10.381  1.00  0.00     0.168 HD
HETATM   14  C9  UNL     1     -20.579  28.814  11.030  1.00  0.00     0.147 A 
HETATM   15  N5  UNL     1     -21.070  27.694  11.750  1.00  0.00    -0.080 NA
HETATM   16  N6  UNL     1     -20.860  29.027   9.718  1.00  0.00    -0.323 N 
ATOM     17  H6  UNL     1     -21.434  28.426   9.128  1.00  0.00     0.169 HD
BRANCH  12  18
HETATM   18  C6  UNL     1     -19.203  30.075  12.801  1.00  0.00     0.052 C 
HETATM   19  C7  UNL     1     -17.671  29.855  12.837  1.00  0.00     0.072 C 
HETATM   20  N2  UNL     1     -19.675  30.415  13.850  1.00  0.00    -0.301 N 
ATOM     21  H2  UNL     1     -18.926  30.480  14.539  1.00  0.00     0.186 HD
BRANCH  20  22
HETATM   22  N3  UNL     1     -20.814  30.735  14.433  1.00  0.00    -0.278 N 
ATOM     23  H3  UNL     1     -21.216  30.097  15.119  1.00  0.00     0.189 HD
BRANCH  22  24
HETATM   24  C8  UNL     1     -21.507  31.959  14.127  1.00  0.00     0.199 C 
HETATM   25  N4  UNL     1     -21.293  33.171  14.836  1.00  0.00    -0.068 NA
HETATM   26  S2  UNL     1     -22.594  31.978  12.910  1.00  0.00    -0.043 SA
ENDBRANCH  22  24
ENDBRANCH  20  22
ENDBRANCH  12  18
ENDBRANCH   9  10
ENDBRANCH   8   9
ENDBRANCH   5   8
ENDBRANCH   1   4
BRANCH   1  27
HETATM   27  N9  UNL     1     -25.249  29.185   6.456  1.00  0.00    -0.315 N 
ATOM     28  H92 UNL     1     -25.859  28.907   5.688  1.00  0.00     0.179 HD
ATOM     29  H91 UNL     1     -25.656  29.576   7.306  1.00  0.00     0.179 HD
ENDBRANCH   1  27
TORSDOF 8
ENDMDL
MODEL 3
REMARK VINA RESULT: -6.702955046      2.448      6.992
REMARK  8 active torsions:
REMARK  status: ('A' for Active; 'I' for Inactive)
REMARK    1  A    between atoms: C2_2  and  C3_3 
REMARK    2  A    between atoms: C3_3  and  S1_4 
REMARK    3  A    between atoms: S1_4  and  C4_5 
REMARK    4  A    between atoms: C5_8  and  C6_9 
REMARK    5  A    between atoms: N2_11  and  N3_13 
REMARK    6  A    between atoms: N3_13  and  C8_15 
REMARK    7  A    between atoms: N7_22  and  N8_24 
REMARK    8  A    between atoms: N8_24  and  N9_25 
ROOT
HETATM    1  N8  UNL     1     -21.746  27.258  10.959  1.00  0.00    -0.133 N 
HETATM    2  C10 UNL     1     -21.962  27.385   9.590  1.00  0.00     0.221 C 
HETATM    3  N10 UNL     1     -22.141  27.499   8.433  1.00  0.00    -0.169 NA
ENDROOT
BRANCH   1   4
HETATM    4  N7  UNL     1     -21.947  28.342  11.781  1.00  0.00    -0.278 N 
HETATM    5  C2  UNL     1     -21.042  29.161  12.180  1.00  0.00     0.012 C 
HETATM    6  C1  UNL     1     -21.453  30.274  13.067  1.00  0.00     0.066 C 
ATOM      7  H7  UNL     1     -22.900  28.511  12.103  1.00  0.00     0.189 HD
BRANCH   5   8
HETATM    8  C3  UNL     1     -19.650  29.014  11.782  1.00  0.00     0.136 C 
BRANCH   8   9
HETATM    9  S1  UNL     1     -19.004  30.499  10.952  1.00  0.00    -0.088 SA
BRANCH   9  10
HETATM   10  C4  UNL     1     -20.219  31.012   9.714  1.00  0.00     0.146 A 
HETATM   11  N1  UNL     1     -20.453  30.442   8.536  1.00  0.00    -0.332 N 
HETATM   12  C5  UNL     1     -21.447  31.093   7.847  1.00  0.00     0.099 A 
ATOM     13  H1  UNL     1     -19.956  29.622   8.187  1.00  0.00     0.168 HD
HETATM   14  C9  UNL     1     -21.806  32.109   8.691  1.00  0.00     0.147 A 
HETATM   15  N5  UNL     1     -22.797  33.104   8.487  1.00  0.00    -0.080 NA
HETATM   16  N6  UNL     1     -21.050  32.043   9.817  1.00  0.00    -0.323 N 
ATOM     17  H6  UNL     1     -21.109  32.681  10.612  1.00  0.00     0.169 HD
BRANCH  12  18
HETATM   18  C6  UNL     1     -21.938  30.717   6.531  1.00  0.00     0.052 C 
HETATM   19  C7  UNL     1     -21.195  31.440   5.381  1.00  0.00     0.072 C 
HETATM   20  N2  UNL     1     -22.796  29.964   6.165  1.00  0.00    -0.301 N 
ATOM     21  H2  UNL     1     -22.832  29.981   5.145  1.00  0.00     0.186 HD
BRANCH  20  22
HETATM   22  N3  UNL     1     -23.710  29.121   6.605  1.00  0.00    -0.278 N 
ATOM     23  H3  UNL     1     -23.687  28.831   7.582  1.00  0.00     0.189 HD
BRANCH  22  24
HETATM   24  C8  UNL     1     -24.740  28.599   5.745  1.00  0.00     0.199 C 
HETATM   25  N4  UNL     1     -24.873  27.218   5.443  1.00  0.00    -0.068 NA
HETATM   26  S2  UNL     1     -25.814  29.627   5.072  1.00  0.00    -0.043 SA
ENDBRANCH  22  24
ENDBRANCH  20  22
ENDBRANCH  12  18
ENDBRANCH   9  10
ENDBRANCH   8   9
ENDBRANCH   5   8
ENDBRANCH   1   4
BRANCH   1  27
HETATM   27  N9  UNL     1     -21.332  26.038  11.473  1.00  0.00    -0.315 N 
ATOM     28  H92 UNL     1     -20.369  25.928  11.789  1.00  0.00     0.179 HD
ATOM     29  H91 UNL     1     -21.976  25.249  11.538  1.00  0.00     0.179 HD
ENDBRANCH   1  27
TORSDOF 8
ENDMDL
MODEL 4
REMARK VINA RESULT: -6.421460807      2.640      8.088
REMARK  8 active torsions:
REMARK  status: ('A' for Active; 'I' for Inactive)
REMARK    1  A    between atoms: C2_2  and  C3_3 
REMARK    2  A    between atoms: C3_3  and  S1_4 
REMARK    3  A    between atoms: S1_4  and  C4_5 
REMARK    4  A    between atoms: C5_8  and  C6_9 
REMARK    5  A    between atoms: N2_11  and  N3_13 
REMARK    6  A    between atoms: N3_13  and  C8_15 
REMARK    7  A    between atoms: N7_22  and  N8_24 
REMARK    8  A    between atoms: N8_24  and  N9_25 
ROOT
HETATM    1  N8  UNL     1     -20.775  32.497  14.479  1.00  0.00    -0.133 N 
HETATM    2  C10 UNL     1     -21.989  33.177  14.511  1.00  0.00     0.221 C 
HETATM    3  N10 UNL     1     -23.018  33.746  14.542  1.00  0.00    -0.169 NA
ENDROOT
BRANCH   1   4
HETATM    4  N7  UNL     1     -20.762  31.140  14.254  1.00  0.00    -0.278 N 
HETATM    5  C2  UNL     1     -20.511  30.567  13.132  1.00  0.00     0.012 C 
HETATM    6  C1  UNL     1     -20.544  29.087  13.085  1.00  0.00     0.066 C 
ATOM      7  H7  UNL     1     -20.969  30.536  15.048  1.00  0.00     0.189 HD
BRANCH   5   8
HETATM    8  C3  UNL     1     -20.203  31.334  11.934  1.00  0.00     0.136 C 
BRANCH   8   9
HETATM    9  S1  UNL     1     -19.277  30.363  10.706  1.00  0.00    -0.088 SA
BRANCH   9  10
HETATM   10  C4  UNL     1     -20.451  29.791   9.454  1.00  0.00     0.146 A 
HETATM   11  N1  UNL     1     -20.939  30.490   8.434  1.00  0.00    -0.332 N 
HETATM   12  C5  UNL     1     -21.810  29.744   7.679  1.00  0.00     0.099 A 
ATOM     13  H1  UNL     1     -20.696  31.462   8.237  1.00  0.00     0.168 HD
HETATM   14  C9  UNL     1     -21.822  28.531   8.314  1.00  0.00     0.147 A 
HETATM   15  N5  UNL     1     -22.558  27.369   7.962  1.00  0.00    -0.080 NA
HETATM   16  N6  UNL     1     -20.992  28.580   9.388  1.00  0.00    -0.323 N 
ATOM     17  H6  UNL     1     -20.814  27.814  10.037  1.00  0.00     0.169 HD
BRANCH  12  18
HETATM   18  C6  UNL     1     -22.511  30.217   6.496  1.00  0.00     0.052 C 
HETATM   19  C7  UNL     1     -21.647  31.154   5.617  1.00  0.00     0.072 C 
HETATM   20  N2  UNL     1     -23.615  30.025   6.071  1.00  0.00    -0.301 N 
ATOM     21  H2  UNL     1     -23.724  30.544   5.199  1.00  0.00     0.186 HD
BRANCH  20  22
HETATM   22  N3  UNL     1     -24.740  29.384   6.323  1.00  0.00    -0.278 N 
ATOM     23  H3  UNL     1     -25.204  29.532   7.219  1.00  0.00     0.189 HD
BRANCH  22  24
HETATM   24  C8  UNL     1     -25.331  28.481   5.370  1.00  0.00     0.199 C 
HETATM   25  N4  UNL     1     -25.003  27.101   5.301  1.00  0.00    -0.068 NA
HETATM   26  S2  UNL     1     -26.431  29.051   4.309  1.00  0.00    -0.043 SA
ENDBRANCH  22  24
ENDBRANCH  20  22
ENDBRANCH  12  18
ENDBRANCH   9  10
ENDBRANCH   8   9
ENDBRANCH   5   8
ENDBRANCH   1   4
BRANCH   1  27
HETATM   27  N9  UNL     1     -19.595  33.201  14.674  1.00  0.00    -0.315 N 
ATOM     28  H92 UNL     1     -18.920  32.867  15.361  1.00  0.00     0.179 HD
ATOM     29  H91 UNL     1     -19.394  34.047  14.141  1.00  0.00     0.179 HD
ENDBRANCH   1  27
TORSDOF 8
ENDMDL
MODEL 5
REMARK VINA RESULT: -6.417190140      2.226      7.861
REMARK  8 active torsions:
REMARK  status: ('A' for Active; 'I' for Inactive)
REMARK    1  A    between atoms: C2_2  and  C3_3 
REMARK    2  A    between atoms: C3_3  and  S1_4 
REMARK    3  A    between atoms: S1_4  and  C4_5 
REMARK    4  A    between atoms: C5_8  and  C6_9 
REMARK    5  A    between atoms: N2_11  and  N3_13 
REMARK    6  A    between atoms: N3_13  and  C8_15 
REMARK    7  A    between atoms: N7_22  and  N8_24 
REMARK    8  A    between atoms: N8_24  and  N9_25 
ROOT
HETATM    1  N8  UNL     1     -17.224  30.587  12.878  1.00  0.00    -0.133 N 
HETATM    2  C10 UNL     1     -16.240  29.883  13.565  1.00  0.00     0.221 C 
HETATM    3  N10 UNL     1     -15.413  29.284  14.148  1.00  0.00    -0.169 NA
ENDROOT
BRANCH   1   4
HETATM    4  N7  UNL     1     -18.502  30.637  13.383  1.00  0.00    -0.278 N 
HETATM    5  C2  UNL     1     -19.428  29.772  13.172  1.00  0.00     0.012 C 
HETATM    6  C1  UNL     1     -20.748  29.997  13.807  1.00  0.00     0.066 C 
ATOM      7  H7  UNL     1     -18.735  31.430  13.979  1.00  0.00     0.189 HD
BRANCH   5   8
HETATM    8  C3  UNL     1     -19.203  28.601  12.337  1.00  0.00     0.136 C 
BRANCH   8   9
HETATM    9  S1  UNL     1     -20.720  27.629  12.081  1.00  0.00    -0.088 SA
BRANCH   9  10
HETATM   10  C4  UNL     1     -21.301  27.946  10.397  1.00  0.00     0.146 A 
HETATM   11  N1  UNL     1     -21.090  29.038   9.669  1.00  0.00    -0.332 N 
HETATM   12  C5  UNL     1     -21.676  28.942   8.431  1.00  0.00     0.099 A 
ATOM     13  H1  UNL     1     -20.558  29.847   9.990  1.00  0.00     0.168 HD
HETATM   14  C9  UNL     1     -22.266  27.707   8.453  1.00  0.00     0.147 A 
HETATM   15  N5  UNL     1     -23.019  27.080   7.426  1.00  0.00    -0.080 NA
HETATM   16  N6  UNL     1     -22.027  27.119   9.654  1.00  0.00    -0.323 N 
ATOM     17  H6  UNL     1     -22.352  26.195   9.939  1.00  0.00     0.169 HD
BRANCH  12  18
HETATM   18  C6  UNL     1     -21.629  29.966   7.400  1.00  0.00     0.052 C 
HETATM   19  C7  UNL     1     -20.307  30.771   7.409  1.00  0.00     0.072 C 
HETATM   20  N2  UNL     1     -22.406  30.306   6.551  1.00  0.00    -0.301 N 
ATOM     21  H2  UNL     1     -21.992  31.073   6.019  1.00  0.00     0.186 HD
BRANCH  20  22
HETATM   22  N3  UNL     1     -23.601  30.046   6.058  1.00  0.00    -0.278 N 
ATOM     23  H3  UNL     1     -23.863  29.077   5.879  1.00  0.00     0.189 HD
BRANCH  22  24
HETATM   24  C8  UNL     1     -24.546  31.092   5.766  1.00  0.00     0.199 C 
HETATM   25  N4  UNL     1     -25.949  30.940   5.931  1.00  0.00    -0.068 NA
HETATM   26  S2  UNL     1     -24.001  32.528   5.216  1.00  0.00    -0.043 SA
ENDBRANCH  22  24
ENDBRANCH  20  22
ENDBRANCH  12  18
ENDBRANCH   9  10
ENDBRANCH   8   9
ENDBRANCH   5   8
ENDBRANCH   1   4
BRANCH   1  27
HETATM   27  N9  UNL     1     -16.899  31.229  11.692  1.00  0.00    -0.315 N 
ATOM     28  H92 UNL     1     -17.310  30.904  10.817  1.00  0.00     0.179 HD
ATOM     29  H91 UNL     1     -16.255  32.021  11.682  1.00  0.00     0.179 HD
ENDBRANCH   1  27
TORSDOF 8
ENDMDL
