MODEL 1
REMARK VINA RESULT: -8.524547221      0.000      0.000
REMARK  7 active torsions:
REMARK  status: ('A' for Active; 'I' for Inactive)
REMARK    1  A    between atoms: N5_15  and  C6_16 
REMARK    2  A    between atoms: C6_16  and  C7_17 
REMARK    3  A    between atoms: C7_17  and  O1_18 
REMARK    4  A    between atoms: O1_18  and  C8_19 
REMARK    5  A    between atoms: C8_19  and  C9_20 
REMARK    6  A    between atoms: C13_30  and  N9_31 
REMARK    7  A    between atoms: N9_31  and  N10_33 
ROOT
HETATM    1  O1  UNL     1     -20.216  30.438  11.849  1.00  0.00    -0.385 OA
ENDROOT
BRANCH   1   2
HETATM    2  C7  UNL     1     -19.181  31.012  12.523  1.00  0.00     0.188 C 
BRANCH   2   3
HETATM    3  C6  UNL     1     -17.921  30.981  11.712  1.00  0.00     0.157 C 
BRANCH   3   4
HETATM    4  N5  UNL     1     -16.895  30.364  12.579  1.00  0.00    -0.325 N 
HETATM    5  C3  UNL     1     -15.572  30.559  12.556  1.00  0.00     0.140 A 
HETATM    6  N3  UNL     1     -14.790  31.323  11.794  1.00  0.00    -0.336 N 
HETATM    7  C4  UNL     1     -14.965  29.785  13.540  1.00  0.00     0.122 A 
HETATM    8  C2  UNL     1     -13.460  31.367  11.946  1.00  0.00     0.183 A 
ATOM      9  H3  UNL     1     -15.220  31.896  11.068  1.00  0.00     0.168 HD
HETATM   10  N2  UNL     1     -12.898  30.610  12.904  1.00  0.00    -0.337 N 
HETATM   11  C1  UNL     1     -13.598  29.806  13.726  1.00  0.00     0.131 A 
ATOM     12  H2  UNL     1     -11.885  30.648  13.014  1.00  0.00     0.168 HD
HETATM   13  N1  UNL     1     -13.019  29.095  14.635  1.00  0.00    -0.383 N 
ATOM     14  H12 UNL     1     -12.009  29.110  14.773  1.00  0.00     0.157 HD
ATOM     15  H11 UNL     1     -13.549  28.485  15.258  1.00  0.00     0.157 HD
HETATM   16  N4  UNL     1     -15.968  29.131  14.143  1.00  0.00    -0.346 N 
HETATM   17  C5  UNL     1     -17.126  29.480  13.564  1.00  0.00     0.185 A 
ATOM     18  H4  UNL     1     -15.866  28.474  14.917  1.00  0.00     0.167 HD
ENDBRANCH   3   4
ENDBRANCH   2   3
ENDBRANCH   1   2
BRANCH   1  19
HETATM   19  C8  UNL     1     -19.917  29.376  11.019  1.00  0.00     0.208 C 
BRANCH  19  20
HETATM   20  C9  UNL     1     -20.570  29.531   9.733  1.00  0.00    -0.001 A 
HETATM   21  C10 UNL     1     -20.415  30.595   8.880  1.00  0.00     0.100 A 
HETATM   22  N6  UNL     1     -21.174  30.405   7.775  1.00  0.00    -0.351 N 
HETATM   23  C11 UNL     1     -21.826  29.213   7.910  1.00  0.00     0.120 A 
ATOM     24  H6  UNL     1     -21.247  31.041   6.981  1.00  0.00     0.166 HD
HETATM   25  N7  UNL     1     -22.692  28.516   7.158  1.00  0.00    -0.338 N 
HETATM   26  C14 UNL     1     -21.444  28.679   9.130  1.00  0.00     0.063 A 
HETATM   27  C12 UNL     1     -23.162  27.328   7.604  1.00  0.00     0.183 A 
ATOM     28  H7  UNL     1     -22.994  28.880   6.254  1.00  0.00     0.168 HD
HETATM   29  N8  UNL     1     -22.793  26.808   8.786  1.00  0.00    -0.337 N 
HETATM   30  C13 UNL     1     -21.930  27.466   9.574  1.00  0.00     0.135 A 
ATOM     31  H8  UNL     1     -23.170  25.909   9.085  1.00  0.00     0.168 HD
BRANCH  30  32
HETATM   32  N9  UNL     1     -21.542  27.008  10.723  1.00  0.00    -0.291 N 
ATOM     33  H9  UNL     1     -20.693  27.347  11.174  1.00  0.00     0.188 HD
BRANCH  32  34
HETATM   34  N10 UNL     1     -22.343  26.027  11.315  1.00  0.00    -0.344 N 
ATOM     35 2H10 UNL     1     -23.338  25.969  11.099  1.00  0.00     0.176 HD
ATOM     36 1H10 UNL     1     -21.884  25.386  11.962  1.00  0.00     0.176 HD
ENDBRANCH  32  34
ENDBRANCH  30  32
ENDBRANCH  19  20
ENDBRANCH   1  19
TORSDOF 7
ENDMDL
MODEL 2
REMARK VINA RESULT: -7.883045832      0.886      2.448
REMARK  7 active torsions:
REMARK  status: ('A' for Active; 'I' for Inactive)
REMARK    1  A    between atoms: N5_15  and  C6_16 
REMARK    2  A    between atoms: C6_16  and  C7_17 
REMARK    3  A    between atoms: C7_17  and  O1_18 
REMARK    4  A    between atoms: O1_18  and  C8_19 
REMARK    5  A    between atoms: C8_19  and  C9_20 
REMARK    6  A    between atoms: C13_30  and  N9_31 
REMARK    7  A    between atoms: N9_31  and  N10_33 
ROOT
HETATM    1  O1  UNL     1     -19.632  29.387  10.751  1.00  0.00    -0.385 OA
ENDROOT
BRANCH   1   2
HETATM    2  C7  UNL     1     -19.301  30.217  11.778  1.00  0.00     0.188 C 
BRANCH   2   3
HETATM    3  C6  UNL     1     -18.013  30.933  11.505  1.00  0.00     0.157 C 
BRANCH   3   4
HETATM    4  N5  UNL     1     -17.022  30.358  12.439  1.00  0.00    -0.325 N 
HETATM    5  C3  UNL     1     -15.696  30.532  12.443  1.00  0.00     0.140 A 
HETATM    6  N3  UNL     1     -14.880  31.236  11.657  1.00  0.00    -0.336 N 
HETATM    7  C4  UNL     1     -15.130  29.813  13.491  1.00  0.00     0.122 A 
HETATM    8  C2  UNL     1     -13.555  31.270  11.846  1.00  0.00     0.183 A 
ATOM      9  H3  UNL     1     -15.280  31.767  10.885  1.00  0.00     0.168 HD
HETATM   10  N2  UNL     1     -13.033  30.567  12.865  1.00  0.00    -0.337 N 
HETATM   11  C1  UNL     1     -13.768  29.825  13.715  1.00  0.00     0.131 A 
ATOM     12  H2  UNL     1     -12.023  30.597  13.002  1.00  0.00     0.168 HD
HETATM   13  N1  UNL     1     -13.227  29.164  14.683  1.00  0.00    -0.383 N 
ATOM     14  H12 UNL     1     -12.220  29.174  14.849  1.00  0.00     0.157 HD
ATOM     15  H11 UNL     1     -13.783  28.602  15.326  1.00  0.00     0.157 HD
HETATM   16  N4  UNL     1     -16.159  29.212  14.103  1.00  0.00    -0.346 N 
HETATM   17  C5  UNL     1     -17.295  29.540  13.469  1.00  0.00     0.185 A 
ATOM     18  H4  UNL     1     -16.090  28.603  14.919  1.00  0.00     0.167 HD
ENDBRANCH   3   4
ENDBRANCH   2   3
ENDBRANCH   1   2
BRANCH   1  19
HETATM   19  C8  UNL     1     -20.561  29.849   9.841  1.00  0.00     0.208 C 
BRANCH  19  20
HETATM   20  C9  UNL     1     -21.369  28.756   9.334  1.00  0.00    -0.001 A 
HETATM   21  C10 UNL     1     -21.560  27.547   9.955  1.00  0.00     0.100 A 
HETATM   22  N6  UNL     1     -22.370  26.771   9.196  1.00  0.00    -0.351 N 
HETATM   23  C11 UNL     1     -22.707  27.477   8.078  1.00  0.00     0.120 A 
ATOM     24  H6  UNL     1     -22.675  25.824   9.421  1.00  0.00     0.166 HD
HETATM   25  N7  UNL     1     -23.462  27.235   6.995  1.00  0.00    -0.338 N 
HETATM   26  C14 UNL     1     -22.079  28.708   8.173  1.00  0.00     0.063 A 
HETATM   27  C12 UNL     1     -23.589  28.184   6.040  1.00  0.00     0.183 A 
ATOM     28  H7  UNL     1     -23.938  26.338   6.894  1.00  0.00     0.168 HD
HETATM   29  N8  UNL     1     -22.982  29.379   6.130  1.00  0.00    -0.337 N 
HETATM   30  C13 UNL     1     -22.217  29.670   7.192  1.00  0.00     0.135 A 
ATOM     31  H8  UNL     1     -23.104  30.068   5.388  1.00  0.00     0.168 HD
BRANCH  30  32
HETATM   32  N9  UNL     1     -21.610  30.807   7.327  1.00  0.00    -0.291 N 
ATOM     33  H9  UNL     1     -21.865  31.465   8.064  1.00  0.00     0.188 HD
BRANCH  32  34
HETATM   34  N10 UNL     1     -20.589  31.090   6.415  1.00  0.00    -0.344 N 
ATOM     35 2H10 UNL     1     -19.820  30.435   6.276  1.00  0.00     0.176 HD
ATOM     36 1H10 UNL     1     -20.657  31.972   5.907  1.00  0.00     0.176 HD
ENDBRANCH  32  34
ENDBRANCH  30  32
ENDBRANCH  19  20
ENDBRANCH   1  19
TORSDOF 7
ENDMDL
MODEL 3
REMARK VINA RESULT: -7.591948437      3.441      4.919
REMARK  7 active torsions:
REMARK  status: ('A' for Active; 'I' for Inactive)
REMARK    1  A    between atoms: N5_15  and  C6_16 
REMARK    2  A    between atoms: C6_16  and  C7_17 
REMARK    3  A    between atoms: C7_17  and  O1_18 
REMARK    4  A    between atoms: O1_18  and  C8_19 
REMARK    5  A    between atoms: C8_19  and  C9_20 
REMARK    6  A    between atoms: C13_30  and  N9_31 
REMARK    7  A    between atoms: N9_31  and  N10_33 
ROOT
HETATM    1  O1  UNL     1     -21.190  29.325   9.898  1.00  0.00    -0.385 OA
ENDROOT
BRANCH   1   2
HETATM    2  C7  UNL     1     -20.329  29.097  10.927  1.00  0.00     0.188 C 
BRANCH   2   3
HETATM    3  C6  UNL     1     -19.260  30.146  10.985  1.00  0.00     0.157 C 
BRANCH   3   4
HETATM    4  N5  UNL     1     -19.665  31.079  12.056  1.00  0.00    -0.325 N 
HETATM    5  C3  UNL     1     -20.669  31.964  12.043  1.00  0.00     0.140 A 
HETATM    6  N3  UNL     1     -21.578  32.276  11.120  1.00  0.00    -0.336 N 
HETATM    7  C4  UNL     1     -20.709  32.648  13.254  1.00  0.00     0.122 A 
HETATM    8  C2  UNL     1     -22.513  33.214  11.321  1.00  0.00     0.183 A 
ATOM      9  H3  UNL     1     -21.561  31.784  10.227  1.00  0.00     0.168 HD
HETATM   10  N2  UNL     1     -22.530  33.861  12.499  1.00  0.00    -0.337 N 
HETATM   11  C1  UNL     1     -21.658  33.620  13.496  1.00  0.00     0.131 A 
ATOM     12  H2  UNL     1     -23.244  34.574  12.645  1.00  0.00     0.168 HD
HETATM   13  N1  UNL     1     -21.710  34.264  14.614  1.00  0.00    -0.383 N 
ATOM     14  H12 UNL     1     -22.412  34.982  14.793  1.00  0.00     0.157 HD
ATOM     15  H11 UNL     1     -21.049  34.082  15.369  1.00  0.00     0.157 HD
HETATM   16  N4  UNL     1     -19.702  32.142  13.979  1.00  0.00    -0.346 N 
HETATM   17  C5  UNL     1     -19.076  31.200  13.258  1.00  0.00     0.185 A 
ATOM     18  H4  UNL     1     -19.452  32.427  14.926  1.00  0.00     0.167 HD
ENDBRANCH   3   4
ENDBRANCH   2   3
ENDBRANCH   1   2
BRANCH   1  19
HETATM   19  C8  UNL     1     -20.640  29.596   8.662  1.00  0.00     0.208 C 
BRANCH  19  20
HETATM   20  C9  UNL     1     -21.680  29.841   7.680  1.00  0.00    -0.001 A 
HETATM   21  C10 UNL     1     -21.902  31.029   7.030  1.00  0.00     0.100 A 
HETATM   22  N6  UNL     1     -22.953  30.895   6.187  1.00  0.00    -0.351 N 
HETATM   23  C11 UNL     1     -23.417  29.615   6.289  1.00  0.00     0.120 A 
ATOM     24  H6  UNL     1     -23.333  31.623   5.581  1.00  0.00     0.166 HD
HETATM   25  N7  UNL     1     -24.409  28.917   5.715  1.00  0.00    -0.338 N 
HETATM   26  C14 UNL     1     -22.619  28.970   7.220  1.00  0.00     0.063 A 
HETATM   27  C12 UNL     1     -24.602  27.622   6.055  1.00  0.00     0.183 A 
ATOM     28  H7  UNL     1     -25.015  29.362   5.025  1.00  0.00     0.168 HD
HETATM   29  N8  UNL     1     -23.830  26.994   6.956  1.00  0.00    -0.337 N 
HETATM   30  C13 UNL     1     -22.825  27.647   7.558  1.00  0.00     0.135 A 
ATOM     31  H8  UNL     1     -24.008  26.016   7.185  1.00  0.00     0.168 HD
BRANCH  30  32
HETATM   32  N9  UNL     1     -22.051  27.087   8.435  1.00  0.00    -0.291 N 
ATOM     33  H9  UNL     1     -21.035  27.128   8.354  1.00  0.00     0.188 HD
BRANCH  32  34
HETATM   34  N10 UNL     1     -22.674  26.425   9.496  1.00  0.00    -0.344 N 
ATOM     35 2H10 UNL     1     -23.470  26.846   9.976  1.00  0.00     0.176 HD
ATOM     36 1H10 UNL     1     -22.296  25.515   9.757  1.00  0.00     0.176 HD
ENDBRANCH  32  34
ENDBRANCH  30  32
ENDBRANCH  19  20
ENDBRANCH   1  19
TORSDOF 7
ENDMDL
MODEL 4
REMARK VINA RESULT: -7.566265057      4.069      5.358
REMARK  7 active torsions:
REMARK  status: ('A' for Active; 'I' for Inactive)
REMARK    1  A    between atoms: N5_15  and  C6_16 
REMARK    2  A    between atoms: C6_16  and  C7_17 
REMARK    3  A    between atoms: C7_17  and  O1_18 
REMARK    4  A    between atoms: O1_18  and  C8_19 
REMARK    5  A    between atoms: C8_19  and  C9_20 
REMARK    6  A    between atoms: C13_30  and  N9_31 
REMARK    7  A    between atoms: N9_31  and  N10_33 
ROOT
HETATM    1  O1  UNL     1     -21.666  31.362   6.748  1.00  0.00    -0.385 OA
ENDROOT
BRANCH   1   2
HETATM    2  C7  UNL     1     -20.818  31.732   7.746  1.00  0.00     0.188 C 
BRANCH   2   3
HETATM    3  C6  UNL     1     -20.319  30.539   8.505  1.00  0.00     0.157 C 
BRANCH   3   4
HETATM    4  N5  UNL     1     -20.547  30.842   9.933  1.00  0.00    -0.325 N 
HETATM    5  C3  UNL     1     -20.336  30.046  10.988  1.00  0.00     0.140 A 
HETATM    6  N3  UNL     1     -19.879  28.798  11.094  1.00  0.00    -0.336 N 
HETATM    7  C4  UNL     1     -20.680  30.715  12.158  1.00  0.00     0.122 A 
HETATM    8  C2  UNL     1     -19.744  28.181  12.275  1.00  0.00     0.183 A 
ATOM      9  H3  UNL     1     -19.624  28.295  10.245  1.00  0.00     0.168 HD
HETATM   10  N2  UNL     1     -20.084  28.849  13.390  1.00  0.00    -0.337 N 
HETATM   11  C1  UNL     1     -20.554  30.111  13.392  1.00  0.00     0.131 A 
ATOM     12  H2  UNL     1     -19.980  28.372  14.286  1.00  0.00     0.168 HD
HETATM   13  N1  UNL     1     -20.868  30.717  14.488  1.00  0.00    -0.383 N 
ATOM     14  H12 UNL     1     -20.774  30.270  15.400  1.00  0.00     0.157 HD
ATOM     15  H11 UNL     1     -21.224  31.672  14.489  1.00  0.00     0.157 HD
HETATM   16  N4  UNL     1     -21.099  31.926  11.763  1.00  0.00    -0.346 N 
HETATM   17  C5  UNL     1     -21.018  31.999  10.426  1.00  0.00     0.185 A 
ATOM     18  H4  UNL     1     -21.426  32.670  12.379  1.00  0.00     0.167 HD
ENDBRANCH   3   4
ENDBRANCH   2   3
ENDBRANCH   1   2
BRANCH   1  19
HETATM   19  C8  UNL     1     -22.410  30.216   6.943  1.00  0.00     0.208 C 
BRANCH  19  20
HETATM   20  C9  UNL     1     -23.641  30.267   6.178  1.00  0.00    -0.001 A 
HETATM   21  C10 UNL     1     -24.226  31.404   5.679  1.00  0.00     0.100 A 
HETATM   22  N6  UNL     1     -25.363  31.077   5.019  1.00  0.00    -0.351 N 
HETATM   23  C11 UNL     1     -25.518  29.722   5.089  1.00  0.00     0.120 A 
ATOM     24  H6  UNL     1     -25.993  31.728   4.551  1.00  0.00     0.166 HD
HETATM   25  N7  UNL     1     -26.429  28.848   4.635  1.00  0.00    -0.338 N 
HETATM   26  C14 UNL     1     -24.443  29.230   5.812  1.00  0.00     0.063 A 
HETATM   27  C12 UNL     1     -26.277  27.528   4.891  1.00  0.00     0.183 A 
ATOM     28  H7  UNL     1     -27.233  29.177   4.100  1.00  0.00     0.168 HD
HETATM   29  N8  UNL     1     -25.236  27.047   5.590  1.00  0.00    -0.337 N 
HETATM   30  C13 UNL     1     -24.299  27.881   6.065  1.00  0.00     0.135 A 
ATOM     31  H8  UNL     1     -25.158  26.045   5.761  1.00  0.00     0.168 HD
BRANCH  30  32
HETATM   32  N9  UNL     1     -23.275  27.468   6.746  1.00  0.00    -0.291 N 
ATOM     33  H9  UNL     1     -22.322  27.595   6.407  1.00  0.00     0.188 HD
BRANCH  32  34
HETATM   34  N10 UNL     1     -23.540  26.841   7.967  1.00  0.00    -0.344 N 
ATOM     35 2H10 UNL     1     -24.370  26.259   8.083  1.00  0.00     0.176 HD
ATOM     36 1H10 UNL     1     -22.869  26.995   8.719  1.00  0.00     0.176 HD
ENDBRANCH  32  34
ENDBRANCH  30  32
ENDBRANCH  19  20
ENDBRANCH   1  19
TORSDOF 7
ENDMDL
MODEL 5
REMARK VINA RESULT: -7.534448800      3.293      4.787
REMARK  7 active torsions:
REMARK  status: ('A' for Active; 'I' for Inactive)
REMARK    1  A    between atoms: N5_15  and  C6_16 
REMARK    2  A    between atoms: C6_16  and  C7_17 
REMARK    3  A    between atoms: C7_17  and  O1_18 
REMARK    4  A    between atoms: O1_18  and  C8_19 
REMARK    5  A    between atoms: C8_19  and  C9_20 
REMARK    6  A    between atoms: C13_30  and  N9_31 
REMARK    7  A    between atoms: N9_31  and  N10_33 
ROOT
HETATM    1  O1  UNL     1     -21.067  29.634  10.305  1.00  0.00    -0.385 OA
ENDROOT
BRANCH   1   2
HETATM    2  C7  UNL     1     -20.500  28.943  11.332  1.00  0.00     0.188 C 
BRANCH   2   3
HETATM    3  C6  UNL     1     -21.158  29.272  12.638  1.00  0.00     0.157 C 
BRANCH   3   4
HETATM    4  N5  UNL     1     -20.537  30.530  13.100  1.00  0.00    -0.325 N 
HETATM    5  C3  UNL     1     -21.147  31.642  13.528  1.00  0.00     0.140 A 
HETATM    6  N3  UNL     1     -22.434  31.962  13.670  1.00  0.00    -0.336 N 
HETATM    7  C4  UNL     1     -20.197  32.599  13.871  1.00  0.00     0.122 A 
HETATM    8  C2  UNL     1     -22.830  33.157  14.126  1.00  0.00     0.183 A 
ATOM      9  H3  UNL     1     -23.142  31.272  13.422  1.00  0.00     0.168 HD
HETATM   10  N2  UNL     1     -21.892  34.064  14.450  1.00  0.00    -0.337 N 
HETATM   11  C1  UNL     1     -20.569  33.840  14.344  1.00  0.00     0.131 A 
ATOM     12  H2  UNL     1     -22.201  34.972  14.796  1.00  0.00     0.168 HD
HETATM   13  N1  UNL     1     -19.700  34.739  14.667  1.00  0.00    -0.383 N 
ATOM     14  H12 UNL     1     -19.975  35.656  15.017  1.00  0.00     0.157 HD
ATOM     15  H11 UNL     1     -18.698  34.570  14.586  1.00  0.00     0.157 HD
HETATM   16  N4  UNL     1     -19.011  32.019  13.633  1.00  0.00    -0.346 N 
HETATM   17  C5  UNL     1     -19.219  30.777  13.170  1.00  0.00     0.185 A 
ATOM     18  H4  UNL     1     -18.100  32.453  13.781  1.00  0.00     0.167 HD
ENDBRANCH   3   4
ENDBRANCH   2   3
ENDBRANCH   1   2
BRANCH   1  19
HETATM   19  C8  UNL     1     -20.467  29.530   9.067  1.00  0.00     0.208 C 
BRANCH  19  20
HETATM   20  C9  UNL     1     -21.411  29.847   8.012  1.00  0.00    -0.001 A 
HETATM   21  C10 UNL     1     -21.523  31.058   7.375  1.00  0.00     0.100 A 
HETATM   22  N6  UNL     1     -22.508  30.993   6.447  1.00  0.00    -0.351 N 
HETATM   23  C11 UNL     1     -23.039  29.735   6.481  1.00  0.00     0.120 A 
ATOM     24  H6  UNL     1     -22.802  31.750   5.831  1.00  0.00     0.166 HD
HETATM   25  N7  UNL     1     -24.014  29.100   5.814  1.00  0.00    -0.338 N 
HETATM   26  C14 UNL     1     -22.351  29.033   7.457  1.00  0.00     0.063 A 
HETATM   27  C12 UNL     1     -24.296  27.809   6.105  1.00  0.00     0.183 A 
ATOM     28  H7  UNL     1     -24.541  29.588   5.089  1.00  0.00     0.168 HD
HETATM   29  N8  UNL     1     -23.630  27.125   7.050  1.00  0.00    -0.337 N 
HETATM   30  C13 UNL     1     -22.647  27.715   7.745  1.00  0.00     0.135 A 
ATOM     31  H8  UNL     1     -23.872  26.153   7.240  1.00  0.00     0.168 HD
BRANCH  30  32
HETATM   32  N9  UNL     1     -21.974  27.100   8.667  1.00  0.00    -0.291 N 
ATOM     33  H9  UNL     1     -20.960  27.184   8.735  1.00  0.00     0.188 HD
BRANCH  32  34
HETATM   34  N10 UNL     1     -22.704  26.315   9.564  1.00  0.00    -0.344 N 
ATOM     35 2H10 UNL     1     -22.960  25.357   9.327  1.00  0.00     0.176 HD
ATOM     36 1H10 UNL     1     -22.961  26.747  10.451  1.00  0.00     0.176 HD
ENDBRANCH  32  34
ENDBRANCH  30  32
ENDBRANCH  19  20
ENDBRANCH   1  19
TORSDOF 7
ENDMDL
