MODEL 1
REMARK VINA RESULT: -7.182466075      0.000      0.000
REMARK  8 active torsions:
REMARK  status: ('A' for Active; 'I' for Inactive)
REMARK    1  A    between atoms: C2_2  and  N1_4 
REMARK    2  A    between atoms: N1_4  and  C4_6 
REMARK    3  A    between atoms: C5_9  and  N3_10 
REMARK    4  A    between atoms: N5_20  and  C10_21 
REMARK    5  A    between atoms: N6_23  and  C12_24 
REMARK    6  A    between atoms: C12_24  and  C13_25 
REMARK    7  A    between atoms: C13_25  and  C14_26 
REMARK    8  A    between atoms: C14_26  and  N7_27 
ROOT
HETATM    1  C4  UNL     1     -20.773  28.999   9.558  1.00  0.00     0.681 A 
HETATM    2  N2  UNL     1     -21.405  27.830   9.720  1.00  0.00    -0.176 N 
ATOM      3  H2  UNL     1     -21.173  27.258  10.533  1.00  0.00     0.186 HD
HETATM    4  C5  UNL     1     -22.347  27.371   8.845  1.00  0.00     0.131 A 
HETATM    5  C6  UNL     1     -22.639  28.170   7.755  1.00  0.00     0.079 A 
HETATM    6  C7  UNL     1     -23.573  27.803   6.809  1.00  0.00     0.044 A 
HETATM    7  N4  UNL     1     -24.206  26.756   6.863  1.00  0.00    -0.398 N 
ATOM      8  H41 UNL     1     -24.897  26.484   6.164  1.00  0.00     0.156 HD
ATOM      9  H42 UNL     1     -24.056  26.104   7.633  1.00  0.00     0.156 HD
HETATM   10  C8  UNL     1     -23.781  28.710   5.737  1.00  0.00     0.048 A 
HETATM   11  C9  UNL     1     -23.087  29.881   5.659  1.00  0.00     0.103 A 
HETATM   12  N5  UNL     1     -22.179  30.238   6.579  1.00  0.00    -0.290 N 
HETATM   13  C15 UNL     1     -21.978  29.381   7.597  1.00  0.00     0.145 A 
HETATM   14  N10 UNL     1     -21.046  29.796   8.498  1.00  0.00    -0.175 N 
ATOM     15  H10 UNL     1     -20.564  30.687   8.377  1.00  0.00     0.186 HD
ENDROOT
BRANCH  12  16
HETATM   16  C10 UNL     1     -21.473  31.465   6.466  1.00  0.00     0.146 A 
HETATM   17  C11 UNL     1     -20.305  31.781   5.808  1.00  0.00     0.162 A 
HETATM   18  N6  UNL     1     -20.068  33.109   6.022  1.00  0.00    -0.285 N 
HETATM   19  N8  UNL     1     -21.035  33.572   6.765  1.00  0.00    -0.239 N 
HETATM   20  N9  UNL     1     -21.886  32.606   7.042  1.00  0.00    -0.269 N 
ATOM     21  H8  UNL     1     -21.119  34.537   7.083  1.00  0.00     0.208 HD
ATOM     22  H9  UNL     1     -22.729  32.709   7.608  1.00  0.00     0.190 HD
BRANCH  18  23
HETATM   23  C12 UNL     1     -18.915  33.795   5.475  1.00  0.00     0.151 C 
BRANCH  23  24
HETATM   24  C13 UNL     1     -18.677  33.454   4.044  1.00  0.00     0.049 C 
BRANCH  24  25
HETATM   25  C14 UNL     1     -17.616  34.252   3.363  1.00  0.00     0.231 C 
BRANCH  25  26
HETATM   26  N7  UNL     1     -17.404  35.502   4.040  1.00  0.00    -0.079 N 
ATOM     27  H73 UNL     1     -18.268  35.863   4.445  1.00  0.00     0.274 HD
ATOM     28  H72 UNL     1     -16.870  35.380   4.901  1.00  0.00     0.274 HD
ATOM     29  H71 UNL     1     -16.966  36.181   3.418  1.00  0.00     0.274 HD
ENDBRANCH  25  26
ENDBRANCH  24  25
ENDBRANCH  23  24
ENDBRANCH  18  23
ENDBRANCH  12  16
BRANCH   4  30
HETATM   30  N3  UNL     1     -22.923  26.258   9.033  1.00  0.00    -0.384 N 
ATOM     31  H32 UNL     1     -22.547  25.556   9.670  1.00  0.00     0.157 HD
ATOM     32  H31 UNL     1     -23.790  26.028   8.547  1.00  0.00     0.157 HD
ENDBRANCH   4  30
BRANCH   1  33
HETATM   33  N1  UNL     1     -19.897  29.420  10.379  1.00  0.00    -0.222 N 
ATOM     34  H1  UNL     1     -19.183  30.025   9.974  1.00  0.00     0.178 HD
BRANCH  33  35
HETATM   35  C2  UNL     1     -19.758  29.177  11.772  1.00  0.00     0.091 C 
HETATM   36  C1  UNL     1     -18.440  29.597  12.365  1.00  0.00     0.032 C 
HETATM   37  C3  UNL     1     -20.886  29.734  12.620  1.00  0.00     0.032 C 
ENDBRANCH  33  35
ENDBRANCH   1  33
TORSDOF 8
ENDMDL
MODEL 2
REMARK VINA RESULT: -7.119174492      0.826      1.200
REMARK  8 active torsions:
REMARK  status: ('A' for Active; 'I' for Inactive)
REMARK    1  A    between atoms: C2_2  and  N1_4 
REMARK    2  A    between atoms: N1_4  and  C4_6 
REMARK    3  A    between atoms: C5_9  and  N3_10 
REMARK    4  A    between atoms: N5_20  and  C10_21 
REMARK    5  A    between atoms: N6_23  and  C12_24 
REMARK    6  A    between atoms: C12_24  and  C13_25 
REMARK    7  A    between atoms: C13_25  and  C14_26 
REMARK    8  A    between atoms: C14_26  and  N7_27 
ROOT
HETATM    1  C4  UNL     1     -20.728  29.034   9.536  1.00  0.00     0.681 A 
HETATM    2  N2  UNL     1     -21.371  27.873   9.709  1.00  0.00    -0.176 N 
ATOM      3  H2  UNL     1     -21.139  27.304  10.522  1.00  0.00     0.186 HD
HETATM    4  C5  UNL     1     -22.323  27.418   8.842  1.00  0.00     0.131 A 
HETATM    5  C6  UNL     1     -22.614  28.214   7.750  1.00  0.00     0.079 A 
HETATM    6  C7  UNL     1     -23.558  27.851   6.812  1.00  0.00     0.044 A 
HETATM    7  N4  UNL     1     -24.201  26.811   6.876  1.00  0.00    -0.398 N 
ATOM      8  H41 UNL     1     -24.899  26.542   6.183  1.00  0.00     0.156 HD
ATOM      9  H42 UNL     1     -24.053  26.162   7.649  1.00  0.00     0.156 HD
HETATM   10  C8  UNL     1     -23.764  28.754   5.736  1.00  0.00     0.048 A 
HETATM   11  C9  UNL     1     -23.058  29.918   5.646  1.00  0.00     0.103 A 
HETATM   12  N5  UNL     1     -22.142  30.270   6.558  1.00  0.00    -0.290 N 
HETATM   13  C15 UNL     1     -21.942  29.417   7.580  1.00  0.00     0.145 A 
HETATM   14  N10 UNL     1     -21.000  29.828   8.472  1.00  0.00    -0.175 N 
ATOM     15  H10 UNL     1     -20.510  30.713   8.343  1.00  0.00     0.186 HD
ENDROOT
BRANCH  12  16
HETATM   16  C10 UNL     1     -21.424  31.489   6.433  1.00  0.00     0.146 A 
HETATM   17  C11 UNL     1     -20.250  31.787   5.776  1.00  0.00     0.162 A 
HETATM   18  N6  UNL     1     -20.002  33.116   5.975  1.00  0.00    -0.285 N 
HETATM   19  N8  UNL     1     -20.967  33.596   6.709  1.00  0.00    -0.239 N 
HETATM   20  N9  UNL     1     -21.828  32.641   6.995  1.00  0.00    -0.269 N 
ATOM     21  H8  UNL     1     -21.044  34.565   7.016  1.00  0.00     0.208 HD
ATOM     22  H9  UNL     1     -22.672  32.759   7.556  1.00  0.00     0.190 HD
BRANCH  18  23
HETATM   23  C12 UNL     1     -18.841  33.785   5.425  1.00  0.00     0.151 C 
BRANCH  23  24
HETATM   24  C13 UNL     1     -18.920  35.267   5.563  1.00  0.00     0.049 C 
BRANCH  24  25
HETATM   25  C14 UNL     1     -17.780  35.905   6.284  1.00  0.00     0.231 C 
BRANCH  25  26
HETATM   26  N7  UNL     1     -16.526  35.373   5.827  1.00  0.00    -0.079 N 
ATOM     27  H73 UNL     1     -15.851  36.113   5.631  1.00  0.00     0.274 HD
ATOM     28  H72 UNL     1     -16.021  34.899   6.576  1.00  0.00     0.274 HD
ATOM     29  H71 UNL     1     -16.662  34.765   5.020  1.00  0.00     0.274 HD
ENDBRANCH  25  26
ENDBRANCH  24  25
ENDBRANCH  23  24
ENDBRANCH  18  23
ENDBRANCH  12  16
BRANCH   4  30
HETATM   30  N3  UNL     1     -22.910  26.313   9.040  1.00  0.00    -0.384 N 
ATOM     31  H32 UNL     1     -23.046  25.633   8.292  1.00  0.00     0.157 HD
ATOM     32  H31 UNL     1     -23.266  26.067   9.963  1.00  0.00     0.157 HD
ENDBRANCH   4  30
BRANCH   1  33
HETATM   33  N1  UNL     1     -19.842  29.451  10.348  1.00  0.00    -0.222 N 
ATOM     34  H1  UNL     1     -18.935  28.990  10.270  1.00  0.00     0.178 HD
BRANCH  33  35
HETATM   35  C2  UNL     1     -19.920  30.458  11.348  1.00  0.00     0.091 C 
HETATM   36  C1  UNL     1     -20.701  30.078  12.577  1.00  0.00     0.032 C 
HETATM   37  C3  UNL     1     -18.579  31.030  11.765  1.00  0.00     0.032 C 
ENDBRANCH  33  35
ENDBRANCH   1  33
TORSDOF 8
ENDMDL
MODEL 3
REMARK VINA RESULT: -7.099934308      1.974      4.530
REMARK  8 active torsions:
REMARK  status: ('A' for Active; 'I' for Inactive)
REMARK    1  A    between atoms: C2_2  and  N1_4 
REMARK    2  A    between atoms: N1_4  and  C4_6 
REMARK    3  A    between atoms: C5_9  and  N3_10 
REMARK    4  A    between atoms: N5_20  and  C10_21 
REMARK    5  A    between atoms: N6_23  and  C12_24 
REMARK    6  A    between atoms: C12_24  and  C13_25 
REMARK    7  A    between atoms: C13_25  and  C14_26 
REMARK    8  A    between atoms: C14_26  and  N7_27 
ROOT
HETATM    1  C4  UNL     1     -22.770  27.577   7.941  1.00  0.00     0.681 A 
HETATM    2  N2  UNL     1     -22.779  26.735   8.982  1.00  0.00    -0.176 N 
ATOM      3  H2  UNL     1     -23.360  25.899   8.928  1.00  0.00     0.186 HD
HETATM    4  C5  UNL     1     -22.043  26.949  10.112  1.00  0.00     0.131 A 
HETATM    5  C6  UNL     1     -21.266  28.091  10.152  1.00  0.00     0.079 A 
HETATM    6  C7  UNL     1     -20.484  28.405  11.245  1.00  0.00     0.044 A 
HETATM    7  N4  UNL     1     -20.421  27.704  12.247  1.00  0.00    -0.398 N 
ATOM      8  H41 UNL     1     -19.843  27.936  13.055  1.00  0.00     0.156 HD
ATOM      9  H42 UNL     1     -20.960  26.841  12.305  1.00  0.00     0.156 HD
HETATM   10  C8  UNL     1     -19.733  29.607  11.164  1.00  0.00     0.048 A 
HETATM   11  C9  UNL     1     -19.790  30.401  10.056  1.00  0.00     0.103 A 
HETATM   12  N5  UNL     1     -20.549  30.096   8.995  1.00  0.00    -0.290 N 
HETATM   13  C15 UNL     1     -21.264  28.958   9.067  1.00  0.00     0.145 A 
HETATM   14  N10 UNL     1     -22.015  28.701   7.962  1.00  0.00    -0.175 N 
ATOM     15  H10 UNL     1     -22.009  29.340   7.167  1.00  0.00     0.186 HD
ENDROOT
BRANCH  12  16
HETATM   16  C10 UNL     1     -20.585  30.946   7.858  1.00  0.00     0.146 A 
HETATM   17  C11 UNL     1     -21.415  31.999   7.540  1.00  0.00     0.162 A 
HETATM   18  N6  UNL     1     -21.016  32.474   6.323  1.00  0.00    -0.285 N 
HETATM   19  N8  UNL     1     -20.004  31.753   5.927  1.00  0.00    -0.239 N 
HETATM   20  N9  UNL     1     -19.729  30.834   6.829  1.00  0.00    -0.269 N 
ATOM     21  H8  UNL     1     -19.500  31.883   5.049  1.00  0.00     0.208 HD
ATOM     22  H9  UNL     1     -18.982  30.144   6.756  1.00  0.00     0.190 HD
BRANCH  18  23
HETATM   23  C12 UNL     1     -21.666  33.590   5.668  1.00  0.00     0.151 C 
BRANCH  23  24
HETATM   24  C13 UNL     1     -22.478  33.165   4.492  1.00  0.00     0.049 C 
BRANCH  24  25
HETATM   25  C14 UNL     1     -21.967  33.616   3.165  1.00  0.00     0.231 C 
BRANCH  25  26
HETATM   26  N7  UNL     1     -20.929  32.741   2.694  1.00  0.00    -0.079 N 
ATOM     27  H73 UNL     1     -20.264  32.512   3.432  1.00  0.00     0.274 HD
ATOM     28  H72 UNL     1     -21.282  31.802   2.507  1.00  0.00     0.274 HD
ATOM     29  H71 UNL     1     -20.464  33.138   1.877  1.00  0.00     0.274 HD
ENDBRANCH  25  26
ENDBRANCH  24  25
ENDBRANCH  23  24
ENDBRANCH  18  23
ENDBRANCH  12  16
BRANCH   4  30
HETATM   30  N3  UNL     1     -22.078  26.128  11.077  1.00  0.00    -0.384 N 
ATOM     31  H32 UNL     1     -21.228  25.783  11.523  1.00  0.00     0.157 HD
ATOM     32  H31 UNL     1     -22.966  25.785  11.440  1.00  0.00     0.157 HD
ENDBRANCH   4  30
BRANCH   1  33
HETATM   33  N1  UNL     1     -23.459  27.370   6.891  1.00  0.00    -0.222 N 
ATOM     34  H1  UNL     1     -23.263  26.490   6.414  1.00  0.00     0.178 HD
BRANCH  33  35
HETATM   35  C2  UNL     1     -24.457  28.175   6.280  1.00  0.00     0.091 C 
HETATM   36  C1  UNL     1     -23.961  29.462   5.679  1.00  0.00     0.032 C 
HETATM   37  C3  UNL     1     -25.311  27.445   5.261  1.00  0.00     0.032 C 
ENDBRANCH  33  35
ENDBRANCH   1  33
TORSDOF 8
ENDMDL
MODEL 4
REMARK VINA RESULT: -7.061219504      1.522      4.348
REMARK  8 active torsions:
REMARK  status: ('A' for Active; 'I' for Inactive)
REMARK    1  A    between atoms: C2_2  and  N1_4 
REMARK    2  A    between atoms: N1_4  and  C4_6 
REMARK    3  A    between atoms: C5_9  and  N3_10 
REMARK    4  A    between atoms: N5_20  and  C10_21 
REMARK    5  A    between atoms: N6_23  and  C12_24 
REMARK    6  A    between atoms: C12_24  and  C13_25 
REMARK    7  A    between atoms: C13_25  and  C14_26 
REMARK    8  A    between atoms: C14_26  and  N7_27 
ROOT
HETATM    1  C4  UNL     1     -22.719  27.644   7.938  1.00  0.00     0.681 A 
HETATM    2  N2  UNL     1     -22.758  26.780   8.960  1.00  0.00    -0.176 N 
ATOM      3  H2  UNL     1     -23.350  25.953   8.877  1.00  0.00     0.186 HD
HETATM    4  C5  UNL     1     -22.041  26.960  10.108  1.00  0.00     0.131 A 
HETATM    5  C6  UNL     1     -21.250  28.090  10.187  1.00  0.00     0.079 A 
HETATM    6  C7  UNL     1     -20.485  28.369  11.301  1.00  0.00     0.044 A 
HETATM    7  N4  UNL     1     -20.449  27.646  12.288  1.00  0.00    -0.398 N 
ATOM      8  H41 UNL     1     -19.884  27.853  13.112  1.00  0.00     0.156 HD
ATOM      9  H42 UNL     1     -21.002  26.790  12.318  1.00  0.00     0.156 HD
HETATM   10  C8  UNL     1     -19.716  29.562  11.260  1.00  0.00     0.048 A 
HETATM   11  C9  UNL     1     -19.741  30.381  10.169  1.00  0.00     0.103 A 
HETATM   12  N5  UNL     1     -20.484  30.109   9.088  1.00  0.00    -0.290 N 
HETATM   13  C15 UNL     1     -21.216  28.979   9.122  1.00  0.00     0.145 A 
HETATM   14  N10 UNL     1     -21.949  28.757   7.997  1.00  0.00    -0.175 N 
ATOM     15  H10 UNL     1     -21.920  29.413   7.217  1.00  0.00     0.186 HD
ENDROOT
BRANCH  12  16
HETATM   16  C10 UNL     1     -20.487  30.984   7.969  1.00  0.00     0.146 A 
HETATM   17  C11 UNL     1     -21.100  32.202   7.773  1.00  0.00     0.162 A 
HETATM   18  N6  UNL     1     -20.777  32.619   6.513  1.00  0.00    -0.285 N 
HETATM   19  N8  UNL     1     -20.013  31.708   5.976  1.00  0.00    -0.239 N 
HETATM   20  N9  UNL     1     -19.827  30.722   6.828  1.00  0.00    -0.269 N 
ATOM     21  H8  UNL     1     -19.619  31.753   5.036  1.00  0.00     0.208 HD
ATOM     22  H9  UNL     1     -19.268  29.887   6.650  1.00  0.00     0.190 HD
BRANCH  18  23
HETATM   23  C12 UNL     1     -21.248  33.871   5.959  1.00  0.00     0.151 C 
BRANCH  23  24
HETATM   24  C13 UNL     1     -20.250  34.502   5.049  1.00  0.00     0.049 C 
BRANCH  24  25
HETATM   25  C14 UNL     1     -19.085  35.145   5.722  1.00  0.00     0.231 C 
BRANCH  25  26
HETATM   26  N7  UNL     1     -17.862  34.475   5.376  1.00  0.00    -0.079 N 
ATOM     27  H73 UNL     1     -17.106  34.712   6.019  1.00  0.00     0.274 HD
ATOM     28  H72 UNL     1     -17.914  33.474   5.562  1.00  0.00     0.274 HD
ATOM     29  H71 UNL     1     -17.606  34.665   4.407  1.00  0.00     0.274 HD
ENDBRANCH  25  26
ENDBRANCH  24  25
ENDBRANCH  23  24
ENDBRANCH  18  23
ENDBRANCH  12  16
BRANCH   4  30
HETATM   30  N3  UNL     1     -22.105  26.119  11.054  1.00  0.00    -0.384 N 
ATOM     31  H32 UNL     1     -22.807  26.189  11.791  1.00  0.00     0.157 HD
ATOM     32  H31 UNL     1     -21.451  25.339  11.107  1.00  0.00     0.157 HD
ENDBRANCH   4  30
BRANCH   1  33
HETATM   33  N1  UNL     1     -23.390  27.469   6.871  1.00  0.00    -0.222 N 
ATOM     34  H1  UNL     1     -23.126  26.649   6.325  1.00  0.00     0.178 HD
BRANCH  33  35
HETATM   35  C2  UNL     1     -24.450  28.239   6.322  1.00  0.00     0.091 C 
HETATM   36  C1  UNL     1     -24.039  29.560   5.728  1.00  0.00     0.032 C 
HETATM   37  C3  UNL     1     -25.315  27.492   5.325  1.00  0.00     0.032 C 
ENDBRANCH  33  35
ENDBRANCH   1  33
TORSDOF 8
ENDMDL
MODEL 5
REMARK VINA RESULT: -7.045983768      1.257      4.189
REMARK  8 active torsions:
REMARK  status: ('A' for Active; 'I' for Inactive)
REMARK    1  A    between atoms: C2_2  and  N1_4 
REMARK    2  A    between atoms: N1_4  and  C4_6 
REMARK    3  A    between atoms: C5_9  and  N3_10 
REMARK    4  A    between atoms: N5_20  and  C10_21 
REMARK    5  A    between atoms: N6_23  and  C12_24 
REMARK    6  A    between atoms: C12_24  and  C13_25 
REMARK    7  A    between atoms: C13_25  and  C14_26 
REMARK    8  A    between atoms: C14_26  and  N7_27 
ROOT
HETATM    1  C4  UNL     1     -22.894  27.839   7.505  1.00  0.00     0.681 A 
HETATM    2  N2  UNL     1     -22.891  26.963   8.517  1.00  0.00    -0.176 N 
ATOM      3  H2  UNL     1     -23.465  26.124   8.438  1.00  0.00     0.186 HD
HETATM    4  C5  UNL     1     -22.151  27.144   9.651  1.00  0.00     0.131 A 
HETATM    5  C6  UNL     1     -21.384  28.291   9.726  1.00  0.00     0.079 A 
HETATM    6  C7  UNL     1     -20.600  28.574  10.825  1.00  0.00     0.044 A 
HETATM    7  N4  UNL     1     -20.525  27.841  11.803  1.00  0.00    -0.398 N 
ATOM      8  H41 UNL     1     -19.946  28.050  12.615  1.00  0.00     0.156 HD
ATOM      9  H42 UNL     1     -21.058  26.971  11.834  1.00  0.00     0.156 HD
HETATM   10  C8  UNL     1     -19.858  29.785  10.781  1.00  0.00     0.048 A 
HETATM   11  C9  UNL     1     -19.927  30.616   9.702  1.00  0.00     0.103 A 
HETATM   12  N5  UNL     1     -20.689  30.340   8.634  1.00  0.00    -0.290 N 
HETATM   13  C15 UNL     1     -21.394  29.194   8.671  1.00  0.00     0.145 A 
HETATM   14  N10 UNL     1     -22.148  28.968   7.561  1.00  0.00    -0.175 N 
ATOM     15  H10 UNL     1     -22.151  29.634   6.788  1.00  0.00     0.186 HD
ENDROOT
BRANCH  12  16
HETATM   16  C10 UNL     1     -20.738  31.228   7.527  1.00  0.00     0.146 A 
HETATM   17  C11 UNL     1     -19.914  31.355   6.430  1.00  0.00     0.162 A 
HETATM   18  N6  UNL     1     -20.414  32.371   5.665  1.00  0.00    -0.285 N 
HETATM   19  N8  UNL     1     -21.477  32.832   6.262  1.00  0.00    -0.239 N 
HETATM   20  N9  UNL     1     -21.690  32.164   7.377  1.00  0.00    -0.269 N 
ATOM     21  H8  UNL     1     -22.058  33.596   5.917  1.00  0.00     0.208 HD
ATOM     22  H9  UNL     1     -22.458  32.332   8.026  1.00  0.00     0.190 HD
BRANCH  18  23
HETATM   23  C12 UNL     1     -19.799  32.789   4.423  1.00  0.00     0.151 C 
BRANCH  23  24
HETATM   24  C13 UNL     1     -18.554  33.580   4.641  1.00  0.00     0.049 C 
BRANCH  24  25
HETATM   25  C14 UNL     1     -17.769  33.892   3.413  1.00  0.00     0.231 C 
BRANCH  25  26
HETATM   26  N7  UNL     1     -17.360  35.270   3.404  1.00  0.00    -0.079 N 
ATOM     27  H73 UNL     1     -17.721  35.765   2.589  1.00  0.00     0.274 HD
ATOM     28  H72 UNL     1     -17.830  35.808   4.132  1.00  0.00     0.274 HD
ATOM     29  H71 UNL     1     -16.346  35.347   3.473  1.00  0.00     0.274 HD
ENDBRANCH  25  26
ENDBRANCH  24  25
ENDBRANCH  23  24
ENDBRANCH  18  23
ENDBRANCH  12  16
BRANCH   4  30
HETATM   30  N3  UNL     1     -22.175  26.292  10.587  1.00  0.00    -0.384 N 
ATOM     31  H32 UNL     1     -22.901  26.298  11.305  1.00  0.00     0.157 HD
ATOM     32  H31 UNL     1     -21.462  25.565  10.653  1.00  0.00     0.157 HD
ENDBRANCH   4  30
BRANCH   1  33
HETATM   33  N1  UNL     1     -23.586  27.662   6.452  1.00  0.00    -0.222 N 
ATOM     34  H1  UNL     1     -23.154  27.062   5.749  1.00  0.00     0.178 HD
BRANCH  33  35
HETATM   35  C2  UNL     1     -24.866  28.171   6.103  1.00  0.00     0.091 C 
HETATM   36  C1  UNL     1     -24.895  29.630   5.736  1.00  0.00     0.032 C 
HETATM   37  C3  UNL     1     -25.586  27.372   5.033  1.00  0.00     0.032 C 
ENDBRANCH  33  35
ENDBRANCH   1  33
TORSDOF 8
ENDMDL
