MODEL 1
REMARK VINA RESULT: -7.669997155      0.000      0.000
REMARK  8 active torsions:
REMARK  status: ('A' for Active; 'I' for Inactive)
REMARK    1  A    between atoms: C2_2  and  C3_3 
REMARK    2  A    between atoms: C2_2  and  C10_21 
REMARK    3  A    between atoms: C3_3  and  N1_4 
REMARK    4  A    between atoms: C6_9  and  N3_10 
REMARK    5  A    between atoms: C10_21  and  N6_22 
REMARK    6  A    between atoms: C10_21  and  C11_26 
REMARK    7  A    between atoms: C11_26  and  C12_27 
REMARK    8  A    between atoms: C14_30  and  N7_31 
ROOT
HETATM    1  C3  UNL     1     -19.827  29.434  10.677  1.00  0.00     0.139 C 
ENDROOT
BRANCH   1   2
HETATM    2  C2  UNL     1     -20.224  30.441  11.702  1.00  0.00     0.031 C 
HETATM    3  C1  UNL     1     -21.354  29.994  12.560  1.00  0.00     0.014 C 
BRANCH   2   4
HETATM    4  C10 UNL     1     -18.973  30.859  12.417  1.00  0.00     0.194 C 
BRANCH   4   5
HETATM    5  N6  UNL     1     -19.443  31.509  13.711  1.00  0.00    -0.074 N 
ATOM      6  H63 UNL     1     -20.444  31.415  13.877  1.00  0.00     0.274 HD
ATOM      7  H62 UNL     1     -19.136  31.018  14.551  1.00  0.00     0.274 HD
ATOM      8  H61 UNL     1     -19.123  32.476  13.661  1.00  0.00     0.274 HD
ENDBRANCH   4   5
BRANCH   4   9
HETATM    9  C11 UNL     1     -18.060  29.811  12.911  1.00  0.00     0.090 C 
BRANCH   9  10
HETATM   10  C12 UNL     1     -16.596  30.071  12.904  1.00  0.00     0.019 A 
HETATM   11  C13 UNL     1     -16.067  30.974  12.005  1.00  0.00     0.078 A 
HETATM   12  S1  UNL     1     -14.404  30.925  12.373  1.00  0.00    -0.064 SA
HETATM   13  C14 UNL     1     -14.459  29.780  13.630  1.00  0.00     0.142 A 
HETATM   14  N8  UNL     1     -15.750  29.483  13.716  1.00  0.00    -0.340 N 
ATOM     15  H8  UNL     1     -16.079  28.807  14.405  1.00  0.00     0.167 HD
BRANCH  13  16
HETATM   16  N7  UNL     1     -13.462  29.307  14.344  1.00  0.00    -0.380 N 
ATOM     17  H72 UNL     1     -12.492  29.620  14.365  1.00  0.00     0.158 HD
ATOM     18  H71 UNL     1     -13.473  28.535  15.011  1.00  0.00     0.158 HD
ENDBRANCH  13  16
ENDBRANCH   9  10
ENDBRANCH   4   9
ENDBRANCH   2   4
ENDBRANCH   1   2
BRANCH   1  19
HETATM   19  N1  UNL     1     -20.778  29.063   9.698  1.00  0.00    -0.308 N 
HETATM   20  C4  UNL     1     -21.448  27.912   9.692  1.00  0.00     0.186 A 
HETATM   21  N2  UNL     1     -22.338  27.552   8.727  1.00  0.00    -0.347 N 
HETATM   22  C5  UNL     1     -22.599  28.368   7.685  1.00  0.00     0.110 A 
ATOM     23  H2  UNL     1     -22.814  26.652   8.793  1.00  0.00     0.167 HD
HETATM   24  C6  UNL     1     -23.505  28.002   6.704  1.00  0.00     0.129 A 
HETATM   25  C8  UNL     1     -21.924  29.570   7.654  1.00  0.00     0.133 A 
HETATM   26  N4  UNL     1     -23.714  28.867   5.699  1.00  0.00    -0.337 N 
HETATM   27  C7  UNL     1     -23.045  30.042   5.682  1.00  0.00     0.182 A 
ATOM     28  H4  UNL     1     -24.372  28.640   4.954  1.00  0.00     0.168 HD
HETATM   29  N5  UNL     1     -22.165  30.422   6.613  1.00  0.00    -0.346 N 
ATOM     30  H5  UNL     1     -21.689  31.321   6.548  1.00  0.00     0.167 HD
HETATM   31  C9  UNL     1     -21.031  29.903   8.647  1.00  0.00     0.277 A 
HETATM   32  O1  UNL     1     -20.445  31.019   8.561  1.00  0.00    -0.265 OA
BRANCH  24  33
HETATM   33  N3  UNL     1     -24.105  26.881   6.776  1.00  0.00    -0.384 N 
ATOM     34  H32 UNL     1     -25.113  26.808   6.914  1.00  0.00     0.157 HD
ATOM     35  H31 UNL     1     -23.576  26.013   6.696  1.00  0.00     0.157 HD
ENDBRANCH  24  33
ENDBRANCH   1  19
TORSDOF 8
ENDMDL
MODEL 2
REMARK VINA RESULT: -7.542914587      1.034      1.903
REMARK  8 active torsions:
REMARK  status: ('A' for Active; 'I' for Inactive)
REMARK    1  A    between atoms: C2_2  and  C3_3 
REMARK    2  A    between atoms: C2_2  and  C10_21 
REMARK    3  A    between atoms: C3_3  and  N1_4 
REMARK    4  A    between atoms: C6_9  and  N3_10 
REMARK    5  A    between atoms: C10_21  and  N6_22 
REMARK    6  A    between atoms: C10_21  and  C11_26 
REMARK    7  A    between atoms: C11_26  and  C12_27 
REMARK    8  A    between atoms: C14_30  and  N7_31 
ROOT
HETATM    1  C3  UNL     1     -19.930  29.448  10.769  1.00  0.00     0.139 C 
ENDROOT
BRANCH   1   2
HETATM    2  C2  UNL     1     -20.187  30.411  11.878  1.00  0.00     0.031 C 
HETATM    3  C1  UNL     1     -21.184  29.917  12.865  1.00  0.00     0.014 C 
BRANCH   2   4
HETATM    4  C10 UNL     1     -18.852  30.815  12.428  1.00  0.00     0.194 C 
BRANCH   4   5
HETATM    5  N6  UNL     1     -19.155  31.568  13.716  1.00  0.00    -0.074 N 
ATOM      6  H63 UNL     1     -19.969  32.179  13.653  1.00  0.00     0.274 HD
ATOM      7  H62 UNL     1     -19.510  30.974  14.465  1.00  0.00     0.274 HD
ATOM      8  H61 UNL     1     -18.292  32.057  13.955  1.00  0.00     0.274 HD
ENDBRANCH   4   5
BRANCH   4   9
HETATM    9  C11 UNL     1     -17.933  29.760  12.897  1.00  0.00     0.090 C 
BRANCH   9  10
HETATM   10  C12 UNL     1     -16.472  30.034  12.912  1.00  0.00     0.019 A 
HETATM   11  C13 UNL     1     -15.941  30.954  12.032  1.00  0.00     0.078 A 
HETATM   12  S1  UNL     1     -14.282  30.916  12.420  1.00  0.00    -0.064 SA
HETATM   13  C14 UNL     1     -14.342  29.754  13.661  1.00  0.00     0.142 A 
HETATM   14  N8  UNL     1     -15.630  29.443  13.726  1.00  0.00    -0.340 N 
ATOM     15  H8  UNL     1     -15.962  28.754  14.402  1.00  0.00     0.167 HD
BRANCH  13  16
HETATM   16  N7  UNL     1     -13.349  29.279  14.381  1.00  0.00    -0.380 N 
ATOM     17  H72 UNL     1     -12.399  29.060  14.085  1.00  0.00     0.158 HD
ATOM     18  H71 UNL     1     -13.346  29.041  15.373  1.00  0.00     0.158 HD
ENDBRANCH  13  16
ENDBRANCH   9  10
ENDBRANCH   4   9
ENDBRANCH   2   4
ENDBRANCH   1   2
BRANCH   1  19
HETATM   19  N1  UNL     1     -20.606  29.644   9.541  1.00  0.00    -0.308 N 
HETATM   20  C4  UNL     1     -20.489  30.729   8.778  1.00  0.00     0.186 A 
HETATM   21  N2  UNL     1     -21.168  30.920   7.614  1.00  0.00    -0.347 N 
HETATM   22  C5  UNL     1     -22.029  29.989   7.152  1.00  0.00     0.110 A 
ATOM     23  H2  UNL     1     -21.025  31.779   7.083  1.00  0.00     0.167 HD
HETATM   24  C6  UNL     1     -22.719  30.183   5.968  1.00  0.00     0.129 A 
HETATM   25  C8  UNL     1     -22.179  28.850   7.915  1.00  0.00     0.133 A 
HETATM   26  N4  UNL     1     -23.558  29.212   5.572  1.00  0.00    -0.337 N 
HETATM   27  C7  UNL     1     -23.695  28.101   6.331  1.00  0.00     0.182 A 
ATOM     28  H4  UNL     1     -24.088  29.311   4.707  1.00  0.00     0.168 HD
HETATM   29  N5  UNL     1     -23.043  27.886   7.477  1.00  0.00    -0.346 N 
ATOM     30  H5  UNL     1     -23.186  27.028   8.009  1.00  0.00     0.167 HD
HETATM   31  C9  UNL     1     -21.476  28.689   9.088  1.00  0.00     0.277 A 
HETATM   32  O1  UNL     1     -21.657  27.623   9.741  1.00  0.00    -0.265 OA
BRANCH  24  33
HETATM   33  N3  UNL     1     -22.548  31.252   5.298  1.00  0.00    -0.384 N 
ATOM     34  H32 UNL     1     -22.622  31.277   4.281  1.00  0.00     0.157 HD
ATOM     35  H31 UNL     1     -22.327  32.125   5.776  1.00  0.00     0.157 HD
ENDBRANCH  24  33
ENDBRANCH   1  19
TORSDOF 8
ENDMDL
MODEL 3
REMARK VINA RESULT: -7.279770142      3.660      7.559
REMARK  8 active torsions:
REMARK  status: ('A' for Active; 'I' for Inactive)
REMARK    1  A    between atoms: C2_2  and  C3_3 
REMARK    2  A    between atoms: C2_2  and  C10_21 
REMARK    3  A    between atoms: C3_3  and  N1_4 
REMARK    4  A    between atoms: C6_9  and  N3_10 
REMARK    5  A    between atoms: C10_21  and  N6_22 
REMARK    6  A    between atoms: C10_21  and  C11_26 
REMARK    7  A    between atoms: C11_26  and  C12_27 
REMARK    8  A    between atoms: C14_30  and  N7_31 
ROOT
HETATM    1  C3  UNL     1     -21.184  32.120   8.122  1.00  0.00     0.139 C 
ENDROOT
BRANCH   1   2
HETATM    2  C2  UNL     1     -22.395  32.899   7.736  1.00  0.00     0.031 C 
HETATM    3  C1  UNL     1     -22.079  34.250   7.199  1.00  0.00     0.014 C 
BRANCH   2   4
HETATM    4  C10 UNL     1     -23.226  32.013   6.856  1.00  0.00     0.194 C 
BRANCH   4   5
HETATM    5  N6  UNL     1     -23.632  32.881   5.673  1.00  0.00    -0.074 N 
ATOM      6  H63 UNL     1     -23.335  33.852   5.757  1.00  0.00     0.274 HD
ATOM      7  H62 UNL     1     -23.120  32.672   4.816  1.00  0.00     0.274 HD
ATOM      8  H61 UNL     1     -24.642  32.766   5.586  1.00  0.00     0.274 HD
ENDBRANCH   4   5
BRANCH   4   9
HETATM    9  C11 UNL     1     -22.574  30.869   6.190  1.00  0.00     0.090 C 
BRANCH   9  10
HETATM   10  C12 UNL     1     -23.052  29.494   6.491  1.00  0.00     0.019 A 
HETATM   11  C13 UNL     1     -24.027  28.921   5.700  1.00  0.00     0.078 A 
HETATM   12  S1  UNL     1     -24.235  27.392   6.424  1.00  0.00    -0.064 SA
HETATM   13  C14 UNL     1     -23.093  27.551   7.675  1.00  0.00     0.142 A 
HETATM   14  N8  UNL     1     -22.600  28.769   7.486  1.00  0.00    -0.340 N 
ATOM     15  H8  UNL     1     -21.878  29.136   8.106  1.00  0.00     0.167 HD
BRANCH  13  16
HETATM   16  N7  UNL     1     -22.776  26.676   8.604  1.00  0.00    -0.380 N 
ATOM     17  H72 UNL     1     -22.353  25.756   8.490  1.00  0.00     0.158 HD
ATOM     18  H71 UNL     1     -22.896  26.756   9.614  1.00  0.00     0.158 HD
ENDBRANCH  13  16
ENDBRANCH   9  10
ENDBRANCH   4   9
ENDBRANCH   2   4
ENDBRANCH   1   2
BRANCH   1  19
HETATM   19  N1  UNL     1     -21.060  31.696   9.467  1.00  0.00    -0.308 N 
HETATM   20  C4  UNL     1     -21.344  32.451  10.527  1.00  0.00     0.186 A 
HETATM   21  N2  UNL     1     -21.190  32.043  11.816  1.00  0.00    -0.347 N 
HETATM   22  C5  UNL     1     -20.724  30.810  12.103  1.00  0.00     0.110 A 
ATOM     23  H2  UNL     1     -21.430  32.679  12.577  1.00  0.00     0.167 HD
HETATM   24  C6  UNL     1     -20.569  30.395  13.415  1.00  0.00     0.129 A 
HETATM   25  C8  UNL     1     -20.418  29.997  11.032  1.00  0.00     0.133 A 
HETATM   26  N4  UNL     1     -20.101  29.153  13.622  1.00  0.00    -0.337 N 
HETATM   27  C7  UNL     1     -19.805  28.369  12.561  1.00  0.00     0.182 A 
ATOM     28  H4  UNL     1     -19.971  28.805  14.571  1.00  0.00     0.168 HD
HETATM   29  N5  UNL     1     -19.944  28.741  11.286  1.00  0.00    -0.346 N 
ATOM     30  H5  UNL     1     -19.704  28.106  10.525  1.00  0.00     0.167 HD
HETATM   31  C9  UNL     1     -20.586  30.442   9.740  1.00  0.00     0.277 A 
HETATM   32  O1  UNL     1     -20.287  29.650   8.802  1.00  0.00    -0.265 OA
BRANCH  24  33
HETATM   33  N3  UNL     1     -20.866  31.181  14.371  1.00  0.00    -0.384 N 
ATOM     34  H32 UNL     1     -20.206  31.864  14.742  1.00  0.00     0.157 HD
ATOM     35  H31 UNL     1     -21.792  31.141  14.796  1.00  0.00     0.157 HD
ENDBRANCH  24  33
ENDBRANCH   1  19
TORSDOF 8
ENDMDL
MODEL 4
REMARK VINA RESULT: -7.227561707      1.464      2.254
REMARK  8 active torsions:
REMARK  status: ('A' for Active; 'I' for Inactive)
REMARK    1  A    between atoms: C2_2  and  C3_3 
REMARK    2  A    between atoms: C2_2  and  C10_21 
REMARK    3  A    between atoms: C3_3  and  N1_4 
REMARK    4  A    between atoms: C6_9  and  N3_10 
REMARK    5  A    between atoms: C10_21  and  N6_22 
REMARK    6  A    between atoms: C10_21  and  C11_26 
REMARK    7  A    between atoms: C11_26  and  C12_27 
REMARK    8  A    between atoms: C14_30  and  N7_31 
ROOT
HETATM    1  C3  UNL     1     -20.366  29.348   9.428  1.00  0.00     0.139 C 
ENDROOT
BRANCH   1   2
HETATM    2  C2  UNL     1     -20.706  29.690  10.839  1.00  0.00     0.031 C 
HETATM    3  C1  UNL     1     -20.977  28.496  11.684  1.00  0.00     0.014 C 
BRANCH   2   4
HETATM    4  C10 UNL     1     -19.644  30.626  11.334  1.00  0.00     0.194 C 
BRANCH   4   5
HETATM    5  N6  UNL     1     -20.370  31.920  11.675  1.00  0.00    -0.074 N 
ATOM      6  H63 UNL     1     -20.122  32.701  11.070  1.00  0.00     0.274 HD
ATOM      7  H62 UNL     1     -21.365  31.904  11.449  1.00  0.00     0.274 HD
ATOM      8  H61 UNL     1     -20.178  32.087  12.663  1.00  0.00     0.274 HD
ENDBRANCH   4   5
BRANCH   4   9
HETATM    9  C11 UNL     1     -18.961  30.311  12.603  1.00  0.00     0.090 C 
BRANCH   9  10
HETATM   10  C12 UNL     1     -17.476  30.348  12.649  1.00  0.00     0.019 A 
HETATM   11  C13 UNL     1     -16.788  31.198  11.808  1.00  0.00     0.078 A 
HETATM   12  S1  UNL     1     -15.163  30.884  12.218  1.00  0.00    -0.064 SA
HETATM   13  C14 UNL     1     -15.432  29.708  13.418  1.00  0.00     0.142 A 
HETATM   14  N8  UNL     1     -16.755  29.605  13.454  1.00  0.00    -0.340 N 
ATOM     15  H8  UNL     1     -17.205  28.957  14.101  1.00  0.00     0.167 HD
BRANCH  13  16
HETATM   16  N7  UNL     1     -14.542  29.059  14.136  1.00  0.00    -0.380 N 
ATOM     17  H72 UNL     1     -13.594  29.345  14.380  1.00  0.00     0.158 HD
ATOM     18  H71 UNL     1     -14.634  28.148  14.584  1.00  0.00     0.158 HD
ENDBRANCH  13  16
ENDBRANCH   9  10
ENDBRANCH   4   9
ENDBRANCH   2   4
ENDBRANCH   1   2
BRANCH   1  19
HETATM   19  N1  UNL     1     -21.369  29.495   8.442  1.00  0.00    -0.308 N 
HETATM   20  C4  UNL     1     -21.707  30.651   7.872  1.00  0.00     0.186 A 
HETATM   21  N2  UNL     1     -22.696  30.786   6.947  1.00  0.00    -0.347 N 
HETATM   22  C5  UNL     1     -23.416  29.719   6.541  1.00  0.00     0.110 A 
ATOM     23  H2  UNL     1     -22.896  31.705   6.555  1.00  0.00     0.167 HD
HETATM   24  C6  UNL     1     -24.421  29.856   5.600  1.00  0.00     0.129 A 
HETATM   25  C8  UNL     1     -23.098  28.503   7.108  1.00  0.00     0.133 A 
HETATM   26  N4  UNL     1     -25.094  28.749   5.245  1.00  0.00    -0.337 N 
HETATM   27  C7  UNL     1     -24.770  27.564   5.809  1.00  0.00     0.182 A 
ATOM     28  H4  UNL     1     -25.843  28.802   4.555  1.00  0.00     0.168 HD
HETATM   29  N5  UNL     1     -23.807  27.401   6.720  1.00  0.00    -0.346 N 
ATOM     30  H5  UNL     1     -23.606  26.482   7.113  1.00  0.00     0.167 HD
HETATM   31  C9  UNL     1     -22.090  28.403   8.042  1.00  0.00     0.277 A 
HETATM   32  O1  UNL     1     -21.847  27.260   8.524  1.00  0.00    -0.265 OA
BRANCH  24  33
HETATM   33  N3  UNL     1     -24.679  31.000   5.104  1.00  0.00    -0.384 N 
ATOM     34  H32 UNL     1     -24.987  31.121   4.139  1.00  0.00     0.157 HD
ATOM     35  H31 UNL     1     -24.580  31.838   5.676  1.00  0.00     0.157 HD
ENDBRANCH  24  33
ENDBRANCH   1  19
TORSDOF 8
ENDMDL
MODEL 5
REMARK VINA RESULT: -7.164695449      2.410      3.100
REMARK  8 active torsions:
REMARK  status: ('A' for Active; 'I' for Inactive)
REMARK    1  A    between atoms: C2_2  and  C3_3 
REMARK    2  A    between atoms: C2_2  and  C10_21 
REMARK    3  A    between atoms: C3_3  and  N1_4 
REMARK    4  A    between atoms: C6_9  and  N3_10 
REMARK    5  A    between atoms: C10_21  and  N6_22 
REMARK    6  A    between atoms: C10_21  and  C11_26 
REMARK    7  A    between atoms: C11_26  and  C12_27 
REMARK    8  A    between atoms: C14_30  and  N7_31 
ROOT
HETATM    1  C3  UNL     1     -20.392  31.133  12.342  1.00  0.00     0.139 C 
ENDROOT
BRANCH   1   2
HETATM    2  C2  UNL     1     -19.255  31.813  13.024  1.00  0.00     0.031 C 
HETATM    3  C1  UNL     1     -19.664  32.564  14.242  1.00  0.00     0.014 C 
BRANCH   2   4
HETATM    4  C10 UNL     1     -18.175  30.789  13.208  1.00  0.00     0.194 C 
BRANCH   4   5
HETATM    5  N6  UNL     1     -18.884  29.443  13.186  1.00  0.00    -0.074 N 
ATOM      6  H63 UNL     1     -19.865  29.491  13.458  1.00  0.00     0.274 HD
ATOM      7  H62 UNL     1     -19.039  29.076  12.247  1.00  0.00     0.274 HD
ATOM      8  H61 UNL     1     -18.323  28.830  13.778  1.00  0.00     0.274 HD
ENDBRANCH   4   5
BRANCH   4   9
HETATM    9  C11 UNL     1     -17.169  30.626  12.141  1.00  0.00     0.090 C 
BRANCH   9  10
HETATM   10  C12 UNL     1     -15.731  30.559  12.512  1.00  0.00     0.019 A 
HETATM   11  C13 UNL     1     -14.814  31.335  11.833  1.00  0.00     0.078 A 
HETATM   12  S1  UNL     1     -13.347  30.919  12.595  1.00  0.00    -0.064 SA
HETATM   13  C14 UNL     1     -13.959  29.800  13.721  1.00  0.00     0.142 A 
HETATM   14  N8  UNL     1     -15.261  29.791  13.466  1.00  0.00    -0.340 N 
ATOM     15  H8  UNL     1     -15.889  29.195  14.006  1.00  0.00     0.167 HD
BRANCH  13  16
HETATM   16  N7  UNL     1     -13.298  29.111  14.625  1.00  0.00    -0.380 N 
ATOM     17  H72 UNL     1     -13.403  28.128  14.875  1.00  0.00     0.158 HD
ATOM     18  H71 UNL     1     -12.557  29.433  15.248  1.00  0.00     0.158 HD
ENDBRANCH  13  16
ENDBRANCH   9  10
ENDBRANCH   4   9
ENDBRANCH   2   4
ENDBRANCH   1   2
BRANCH   1  19
HETATM   19  N1  UNL     1     -20.759  31.573  11.048  1.00  0.00    -0.308 N 
HETATM   20  C4  UNL     1     -21.503  32.649  10.798  1.00  0.00     0.186 A 
HETATM   21  N2  UNL     1     -21.876  33.046   9.551  1.00  0.00    -0.347 N 
HETATM   22  C5  UNL     1     -21.501  32.346   8.459  1.00  0.00     0.110 A 
ATOM     23  H2  UNL     1     -22.447  33.883   9.439  1.00  0.00     0.167 HD
HETATM   24  C6  UNL     1     -21.880  32.750   7.191  1.00  0.00     0.129 A 
HETATM   25  C8  UNL     1     -20.730  31.224   8.676  1.00  0.00     0.133 A 
HETATM   26  N4  UNL     1     -21.468  32.004   6.153  1.00  0.00    -0.337 N 
HETATM   27  C7  UNL     1     -20.712  30.907   6.381  1.00  0.00     0.182 A 
ATOM     28  H4  UNL     1     -21.723  32.263   5.200  1.00  0.00     0.168 HD
HETATM   29  N5  UNL     1     -20.332  30.492   7.593  1.00  0.00    -0.346 N 
ATOM     30  H5  UNL     1     -19.761  29.654   7.706  1.00  0.00     0.167 HD
HETATM   31  C9  UNL     1     -20.370  30.852   9.952  1.00  0.00     0.277 A 
HETATM   32  O1  UNL     1     -19.662  29.814  10.084  1.00  0.00    -0.265 OA
BRANCH  24  33
HETATM   33  N3  UNL     1     -22.593  33.794   7.040  1.00  0.00    -0.384 N 
ATOM     34  H32 UNL     1     -22.451  34.638   7.594  1.00  0.00     0.157 HD
ATOM     35  H31 UNL     1     -23.340  33.807   6.345  1.00  0.00     0.157 HD
ENDBRANCH  24  33
ENDBRANCH   1  19
TORSDOF 8
ENDMDL
