MODEL 1
REMARK VINA RESULT: -8.349659178      0.000      0.000
REMARK  9 active torsions:
REMARK  status: ('A' for Active; 'I' for Inactive)
REMARK    1  A    between atoms: C2_5  and  N3_6 
REMARK    2  A    between atoms: C6_16  and  N6_17 
REMARK    3  A    between atoms: N6_17  and  C7_19 
REMARK    4  A    between atoms: C7_19  and  C8_20 
REMARK    5  A    between atoms: C8_20  and  C9_21 
REMARK    6  A    between atoms: C11_23  and  O1_24 
REMARK    7  A    between atoms: C12_26  and  C13_27 
REMARK    8  A    between atoms: C13_27  and  O2_28 
REMARK    9  A    between atoms: C16_35  and  C17_36 
ROOT
HETATM    1  N3  UNL     1     -21.397  32.964  12.792  1.00  0.00    -0.270 N 
HETATM    2  C3  UNL     1     -22.190  33.127  11.724  1.00  0.00     0.272 A 
HETATM    3  F1  UNL     1     -23.172  34.077  11.602  1.00  0.00    -0.165 F 
HETATM    4  N4  UNL     1     -21.876  32.212  10.782  1.00  0.00    -0.312 N 
ATOM      5  H4  UNL     1     -22.328  32.116   9.872  1.00  0.00     0.170 HD
HETATM    6  C4  UNL     1     -20.886  31.460  11.236  1.00  0.00     0.120 A 
HETATM    7  C5  UNL     1     -20.149  30.400  10.771  1.00  0.00     0.149 A 
HETATM    8 CL1  UNL     1     -20.512  29.786   9.174  1.00  0.00    -0.061 Cl
HETATM    9  N5  UNL     1     -19.184  29.874  11.545  1.00  0.00    -0.179 N 
ATOM     10  H5  UNL     1     -18.650  29.087  11.177  1.00  0.00     0.185 HD
HETATM   11  C6  UNL     1     -18.883  30.323  12.769  1.00  0.00     0.680 A 
HETATM   12  N7  UNL     1     -19.602  31.371  13.246  1.00  0.00    -0.174 N 
ATOM     13  H7  UNL     1     -19.401  31.740  14.176  1.00  0.00     0.186 HD
HETATM   14  C14 UNL     1     -20.570  31.924  12.511  1.00  0.00     0.158 A 
ENDROOT
BRANCH  11  15
HETATM   15  N6  UNL     1     -17.946  29.807  13.524  1.00  0.00    -0.226 N 
ATOM     16  H6  UNL     1     -18.151  28.922  13.988  1.00  0.00     0.177 HD
BRANCH  15  17
HETATM   17  C7  UNL     1     -16.658  30.384  13.750  1.00  0.00     0.140 C 
BRANCH  17  18
HETATM   18  C8  UNL     1     -15.990  30.957  12.540  1.00  0.00     0.052 C 
BRANCH  18  19
HETATM   19  C9  UNL     1     -14.572  30.508  12.327  1.00  0.00     0.126 C 
HETATM   20  C10 UNL     1     -13.947  30.052  13.604  1.00  0.00     0.066 C 
HETATM   21  C11 UNL     1     -12.470  30.266  13.290  1.00  0.00     0.151 C 
HETATM   22  C12 UNL     1     -12.485  31.273  12.161  1.00  0.00     0.174 C 
HETATM   23  O3  UNL     1     -13.804  31.577  11.869  1.00  0.00    -0.376 OA
BRANCH  21  24
HETATM   24  O1  UNL     1     -11.772  30.732  14.403  1.00  0.00    -0.393 OA
ATOM     25  H1  UNL     1     -11.035  31.276  14.151  1.00  0.00     0.210 HD
ENDBRANCH  21  24
BRANCH  22  26
HETATM   26  C13 UNL     1     -11.755  32.515  12.638  1.00  0.00     0.198 C 
BRANCH  26  27
HETATM   27  O2  UNL     1     -10.398  32.464  12.253  1.00  0.00    -0.398 OA
ATOM     28  H2  UNL     1      -9.840  32.377  13.017  1.00  0.00     0.209 HD
ENDBRANCH  26  27
ENDBRANCH  22  26
ENDBRANCH  18  19
ENDBRANCH  17  18
ENDBRANCH  15  17
ENDBRANCH  11  15
BRANCH   1  29
HETATM   29  C2  UNL     1     -21.412  33.746  14.022  1.00  0.00     0.202 A 
HETATM   30  N2  UNL     1     -22.698  33.720  14.655  1.00  0.00    -0.342 N 
HETATM   31  C1  UNL     1     -23.363  34.744  15.034  1.00  0.00     0.190 A 
ATOM     32  H2  UNL     1     -23.119  32.805  14.818  1.00  0.00     0.164 HD
HETATM   33  N1  UNL     1     -24.662  34.588  15.667  1.00  0.00    -0.063 NA
HETATM   34  N8  UNL     1     -22.820  36.033  14.829  1.00  0.00    -0.337 N 
HETATM   35  C16 UNL     1     -21.702  36.220  14.285  1.00  0.00     0.006 A 
ATOM     36  H8  UNL     1     -23.358  36.845  15.135  1.00  0.00     0.168 HD
HETATM   37  C15 UNL     1     -20.855  35.121  13.812  1.00  0.00     0.101 A 
BRANCH  35  38
HETATM   38  C17 UNL     1     -21.195  37.629  14.103  1.00  0.00     0.167 C 
HETATM   39 CL2  UNL     1     -19.444  37.639  13.830  1.00  0.00    -0.124 Cl
ENDBRANCH  35  38
ENDBRANCH   1  29
TORSDOF 9
ENDMDL
MODEL 2
REMARK VINA RESULT: -8.032425481      2.595      5.588
REMARK  9 active torsions:
REMARK  status: ('A' for Active; 'I' for Inactive)
REMARK    1  A    between atoms: C2_5  and  N3_6 
REMARK    2  A    between atoms: C6_16  and  N6_17 
REMARK    3  A    between atoms: N6_17  and  C7_19 
REMARK    4  A    between atoms: C7_19  and  C8_20 
REMARK    5  A    between atoms: C8_20  and  C9_21 
REMARK    6  A    between atoms: C11_23  and  O1_24 
REMARK    7  A    between atoms: C12_26  and  C13_27 
REMARK    8  A    between atoms: C13_27  and  O2_28 
REMARK    9  A    between atoms: C16_35  and  C17_36 
ROOT
HETATM    1  N3  UNL     1     -20.837  31.211  10.260  1.00  0.00    -0.270 N 
HETATM    2  C3  UNL     1     -21.733  32.201  10.372  1.00  0.00     0.272 A 
HETATM    3  F1  UNL     1     -22.572  32.629   9.376  1.00  0.00    -0.165 F 
HETATM    4  N4  UNL     1     -21.683  32.718  11.619  1.00  0.00    -0.312 N 
ATOM      5  H4  UNL     1     -22.260  33.483  11.969  1.00  0.00     0.170 HD
HETATM    6  C4  UNL     1     -20.762  32.066  12.311  1.00  0.00     0.120 A 
HETATM    7  C5  UNL     1     -20.257  32.115  13.585  1.00  0.00     0.149 A 
HETATM    8 CL1  UNL     1     -20.915  33.306  14.684  1.00  0.00    -0.061 Cl
HETATM    9  N5  UNL     1     -19.285  31.259  13.946  1.00  0.00    -0.179 N 
ATOM     10  H5  UNL     1     -18.925  31.315  14.898  1.00  0.00     0.185 HD
HETATM   11  C6  UNL     1     -18.762  30.338  13.128  1.00  0.00     0.680 A 
HETATM   12  N7  UNL     1     -19.250  30.274  11.863  1.00  0.00    -0.174 N 
ATOM     13  H7  UNL     1     -18.875  29.584  11.212  1.00  0.00     0.186 HD
HETATM   14  C14 UNL     1     -20.215  31.105  11.462  1.00  0.00     0.158 A 
ENDROOT
BRANCH  11  15
HETATM   15  N6  UNL     1     -17.813  29.508  13.479  1.00  0.00    -0.226 N 
ATOM     16  H6  UNL     1     -18.057  28.520  13.551  1.00  0.00     0.177 HD
BRANCH  15  17
HETATM   17  C7  UNL     1     -16.461  29.872  13.767  1.00  0.00     0.140 C 
BRANCH  17  18
HETATM   18  C8  UNL     1     -15.816  30.785  12.771  1.00  0.00     0.052 C 
BRANCH  18  19
HETATM   19  C9  UNL     1     -14.411  30.413  12.389  1.00  0.00     0.126 C 
HETATM   20  C10 UNL     1     -13.696  29.752  13.520  1.00  0.00     0.066 C 
HETATM   21  C11 UNL     1     -12.246  30.051  13.154  1.00  0.00     0.151 C 
HETATM   22  C12 UNL     1     -12.349  31.242  12.228  1.00  0.00     0.174 C 
HETATM   23  O3  UNL     1     -13.688  31.564  12.082  1.00  0.00    -0.376 OA
BRANCH  21  24
HETATM   24  O1  UNL     1     -11.479  30.327  14.285  1.00  0.00    -0.393 OA
ATOM     25  H1  UNL     1     -11.518  29.617  14.916  1.00  0.00     0.210 HD
ENDBRANCH  21  24
BRANCH  22  26
HETATM   26  C13 UNL     1     -11.601  32.396  12.871  1.00  0.00     0.198 C 
BRANCH  26  27
HETATM   27  O2  UNL     1     -10.353  32.584  12.239  1.00  0.00    -0.398 OA
ATOM     28  H2  UNL     1     -10.273  33.477  11.923  1.00  0.00     0.209 HD
ENDBRANCH  26  27
ENDBRANCH  22  26
ENDBRANCH  18  19
ENDBRANCH  17  18
ENDBRANCH  15  17
ENDBRANCH  11  15
BRANCH   1  29
HETATM   29  C2  UNL     1     -20.574  30.397   9.079  1.00  0.00     0.202 A 
HETATM   30  N2  UNL     1     -20.806  31.126   7.867  1.00  0.00    -0.342 N 
HETATM   31  C1  UNL     1     -21.534  30.737   6.891  1.00  0.00     0.190 A 
ATOM     32  H2  UNL     1     -20.349  32.033   7.774  1.00  0.00     0.164 HD
HETATM   33  N1  UNL     1     -21.692  31.570   5.710  1.00  0.00    -0.063 NA
HETATM   34  N8  UNL     1     -22.188  29.486   6.974  1.00  0.00    -0.337 N 
HETATM   35  C16 UNL     1     -22.084  28.731   7.975  1.00  0.00     0.006 A 
ATOM     36  H8  UNL     1     -22.767  29.184   6.190  1.00  0.00     0.168 HD
HETATM   37  C15 UNL     1     -21.276  29.075   9.149  1.00  0.00     0.101 A 
BRANCH  35  38
HETATM   38  C17 UNL     1     -22.814  27.412   7.983  1.00  0.00     0.167 C 
HETATM   39 CL2  UNL     1     -24.022  27.351   6.689  1.00  0.00    -0.124 Cl
ENDBRANCH  35  38
ENDBRANCH   1  29
TORSDOF 9
ENDMDL
MODEL 3
REMARK VINA RESULT: -7.970738995      4.408      7.104
REMARK  9 active torsions:
REMARK  status: ('A' for Active; 'I' for Inactive)
REMARK    1  A    between atoms: C2_5  and  N3_6 
REMARK    2  A    between atoms: C6_16  and  N6_17 
REMARK    3  A    between atoms: N6_17  and  C7_19 
REMARK    4  A    between atoms: C7_19  and  C8_20 
REMARK    5  A    between atoms: C8_20  and  C9_21 
REMARK    6  A    between atoms: C11_23  and  O1_24 
REMARK    7  A    between atoms: C12_26  and  C13_27 
REMARK    8  A    between atoms: C13_27  and  O2_28 
REMARK    9  A    between atoms: C16_35  and  C17_36 
ROOT
HETATM    1  N3  UNL     1     -15.914  30.600  12.853  1.00  0.00    -0.270 N 
HETATM    2  C3  UNL     1     -15.936  29.569  13.709  1.00  0.00     0.272 A 
HETATM    3  F1  UNL     1     -17.060  29.053  14.300  1.00  0.00    -0.165 F 
HETATM    4  N4  UNL     1     -14.679  29.115  13.903  1.00  0.00    -0.312 N 
ATOM      5  H4  UNL     1     -14.414  28.338  14.509  1.00  0.00     0.170 HD
HETATM    6  C4  UNL     1     -13.847  29.846  13.178  1.00  0.00     0.120 A 
HETATM    7  C5  UNL     1     -12.495  29.883  12.952  1.00  0.00     0.149 A 
HETATM    8 CL1  UNL     1     -11.493  28.711  13.776  1.00  0.00    -0.061 Cl
HETATM    9  N5  UNL     1     -11.988  30.805  12.114  1.00  0.00    -0.179 N 
ATOM     10  H5  UNL     1     -10.980  30.812  11.962  1.00  0.00     0.185 HD
HETATM   11  C6  UNL     1     -12.729  31.714  11.469  1.00  0.00     0.680 A 
HETATM   12  N7  UNL     1     -14.070  31.693  11.681  1.00  0.00    -0.174 N 
ATOM     13  H7  UNL     1     -14.667  32.371  11.206  1.00  0.00     0.186 HD
HETATM   14  C14 UNL     1     -14.616  30.794  12.504  1.00  0.00     0.158 A 
ENDROOT
BRANCH  11  15
HETATM   15  N6  UNL     1     -12.235  32.614  10.658  1.00  0.00    -0.226 N 
ATOM     16  H6  UNL     1     -12.694  32.734   9.755  1.00  0.00     0.177 HD
BRANCH  15  17
HETATM   17  C7  UNL     1     -11.104  33.442  10.935  1.00  0.00     0.140 C 
BRANCH  17  18
HETATM   18  C8  UNL     1     -11.421  34.812  11.447  1.00  0.00     0.052 C 
BRANCH  18  19
HETATM   19  C9  UNL     1     -11.533  35.874  10.390  1.00  0.00     0.126 C 
HETATM   20  C10 UNL     1     -12.537  36.913  10.764  1.00  0.00     0.066 C 
HETATM   21  C11 UNL     1     -12.920  37.447   9.388  1.00  0.00     0.151 C 
HETATM   22  C12 UNL     1     -12.524  36.331   8.447  1.00  0.00     0.174 C 
HETATM   23  O3  UNL     1     -11.977  35.304   9.198  1.00  0.00    -0.376 OA
BRANCH  21  24
HETATM   24  O1  UNL     1     -14.281  37.742   9.314  1.00  0.00    -0.393 OA
ATOM     25  H1  UNL     1     -14.450  38.469   8.726  1.00  0.00     0.210 HD
ENDBRANCH  21  24
BRANCH  22  26
HETATM   26  C13 UNL     1     -13.780  35.851   7.742  1.00  0.00     0.198 C 
BRANCH  26  27
HETATM   27  O2  UNL     1     -13.907  36.481   6.485  1.00  0.00    -0.398 OA
ATOM     28  H2  UNL     1     -13.230  36.176   5.893  1.00  0.00     0.209 HD
ENDBRANCH  26  27
ENDBRANCH  22  26
ENDBRANCH  18  19
ENDBRANCH  17  18
ENDBRANCH  15  17
ENDBRANCH  11  15
BRANCH   1  29
HETATM   29  C2  UNL     1     -17.058  31.371  12.380  1.00  0.00     0.202 A 
HETATM   30  N2  UNL     1     -17.827  31.904  13.466  1.00  0.00    -0.342 N 
HETATM   31  C1  UNL     1     -19.091  31.779  13.617  1.00  0.00     0.190 A 
ATOM     32  H2  UNL     1     -17.323  32.429  14.181  1.00  0.00     0.164 HD
HETATM   33  N1  UNL     1     -19.759  32.367  14.765  1.00  0.00    -0.063 NA
HETATM   34  N8  UNL     1     -19.832  31.058  12.652  1.00  0.00    -0.337 N 
HETATM   35  C16 UNL     1     -19.299  30.529  11.642  1.00  0.00     0.006 A 
ATOM     36  H8  UNL     1     -20.839  30.963  12.780  1.00  0.00     0.168 HD
HETATM   37  C15 UNL     1     -17.861  30.610  11.370  1.00  0.00     0.101 A 
BRANCH  35  38
HETATM   38  C17 UNL     1     -20.161  29.777  10.661  1.00  0.00     0.167 C 
HETATM   39 CL2  UNL     1     -21.128  28.544  11.487  1.00  0.00    -0.124 Cl
ENDBRANCH  35  38
ENDBRANCH   1  29
TORSDOF 9
ENDMDL
MODEL 4
REMARK VINA RESULT: -7.920799804      1.714      1.875
REMARK  9 active torsions:
REMARK  status: ('A' for Active; 'I' for Inactive)
REMARK    1  A    between atoms: C2_5  and  N3_6 
REMARK    2  A    between atoms: C6_16  and  N6_17 
REMARK    3  A    between atoms: N6_17  and  C7_19 
REMARK    4  A    between atoms: C7_19  and  C8_20 
REMARK    5  A    between atoms: C8_20  and  C9_21 
REMARK    6  A    between atoms: C11_23  and  O1_24 
REMARK    7  A    between atoms: C12_26  and  C13_27 
REMARK    8  A    between atoms: C13_27  and  O2_28 
REMARK    9  A    between atoms: C16_35  and  C17_36 
ROOT
HETATM    1  N3  UNL     1     -21.174  32.368  13.135  1.00  0.00    -0.270 N 
HETATM    2  C3  UNL     1     -22.258  31.744  12.652  1.00  0.00     0.272 A 
HETATM    3  F1  UNL     1     -23.484  32.324  12.452  1.00  0.00    -0.165 F 
HETATM    4  N4  UNL     1     -21.959  30.453  12.393  1.00  0.00    -0.312 N 
ATOM      5  H4  UNL     1     -22.605  29.757  12.018  1.00  0.00     0.170 HD
HETATM    6  C4  UNL     1     -20.691  30.240  12.704  1.00  0.00     0.120 A 
HETATM    7  C5  UNL     1     -19.824  29.178  12.671  1.00  0.00     0.149 A 
HETATM    8 CL1  UNL     1     -20.426  27.645  12.083  1.00  0.00    -0.061 Cl
HETATM    9  N5  UNL     1     -18.555  29.345  13.084  1.00  0.00    -0.179 N 
ATOM     10  H5  UNL     1     -17.929  28.541  13.049  1.00  0.00     0.185 HD
HETATM   11  C6  UNL     1     -18.065  30.505  13.538  1.00  0.00     0.680 A 
HETATM   12  N7  UNL     1     -18.910  31.568  13.578  1.00  0.00    -0.174 N 
ATOM     13  H7  UNL     1     -18.571  32.468  13.918  1.00  0.00     0.186 HD
HETATM   14  C14 UNL     1     -20.177  31.447  13.178  1.00  0.00     0.158 A 
ENDROOT
BRANCH  11  15
HETATM   15  N6  UNL     1     -16.832  30.666  13.944  1.00  0.00    -0.226 N 
ATOM     16  H6  UNL     1     -16.688  31.167  14.821  1.00  0.00     0.177 HD
BRANCH  15  17
HETATM   17  C7  UNL     1     -15.669  30.196  13.259  1.00  0.00     0.140 C 
BRANCH  17  18
HETATM   18  C8  UNL     1     -15.186  31.068  12.142  1.00  0.00     0.052 C 
BRANCH  18  19
HETATM   19  C9  UNL     1     -13.725  30.932  11.819  1.00  0.00     0.126 C 
HETATM   20  C10 UNL     1     -12.872  31.279  12.993  1.00  0.00     0.066 C 
HETATM   21  C11 UNL     1     -11.576  31.677  12.297  1.00  0.00     0.151 C 
HETATM   22  C12 UNL     1     -12.015  32.018  10.890  1.00  0.00     0.174 C 
HETATM   23  O3  UNL     1     -13.383  31.824  10.804  1.00  0.00    -0.376 OA
BRANCH  21  24
HETATM   24  O1  UNL     1     -10.962  32.755  12.933  1.00  0.00    -0.393 OA
ATOM     25  H1  UNL     1     -11.601  33.335  13.333  1.00  0.00     0.210 HD
ENDBRANCH  21  24
BRANCH  22  26
HETATM   26  C13 UNL     1     -11.677  33.476  10.639  1.00  0.00     0.198 C 
BRANCH  26  27
HETATM   27  O2  UNL     1     -10.309  33.615  10.321  1.00  0.00    -0.398 OA
ATOM     28  H2  UNL     1     -10.204  34.124   9.525  1.00  0.00     0.209 HD
ENDBRANCH  26  27
ENDBRANCH  22  26
ENDBRANCH  18  19
ENDBRANCH  17  18
ENDBRANCH  15  17
ENDBRANCH  11  15
BRANCH   1  29
HETATM   29  C2  UNL     1     -21.075  33.765  13.540  1.00  0.00     0.202 A 
HETATM   30  N2  UNL     1     -21.937  34.063  14.645  1.00  0.00    -0.342 N 
HETATM   31  C1  UNL     1     -22.781  35.022  14.695  1.00  0.00     0.190 A 
ATOM     32  H2  UNL     1     -21.872  33.457  15.463  1.00  0.00     0.164 HD
HETATM   33  N1  UNL     1     -23.602  35.222  15.878  1.00  0.00    -0.063 NA
HETATM   34  N8  UNL     1     -22.907  35.888  13.584  1.00  0.00    -0.337 N 
HETATM   35  C16 UNL     1     -22.220  35.755  12.539  1.00  0.00     0.006 A 
ATOM     36  H8  UNL     1     -23.583  36.651  13.633  1.00  0.00     0.168 HD
HETATM   37  C15 UNL     1     -21.225  34.692  12.372  1.00  0.00     0.101 A 
BRANCH  35  38
HETATM   38  C17 UNL     1     -22.417  36.722  11.399  1.00  0.00     0.167 C 
HETATM   39 CL2  UNL     1     -20.985  36.768  10.357  1.00  0.00    -0.124 Cl
ENDBRANCH  35  38
ENDBRANCH   1  29
TORSDOF 9
ENDMDL
MODEL 5
REMARK VINA RESULT: -7.902612475      0.949      1.465
REMARK  9 active torsions:
REMARK  status: ('A' for Active; 'I' for Inactive)
REMARK    1  A    between atoms: C2_5  and  N3_6 
REMARK    2  A    between atoms: C6_16  and  N6_17 
REMARK    3  A    between atoms: N6_17  and  C7_19 
REMARK    4  A    between atoms: C7_19  and  C8_20 
REMARK    5  A    between atoms: C8_20  and  C9_21 
REMARK    6  A    between atoms: C11_23  and  O1_24 
REMARK    7  A    between atoms: C12_26  and  C13_27 
REMARK    8  A    between atoms: C13_27  and  O2_28 
REMARK    9  A    between atoms: C16_35  and  C17_36 
ROOT
HETATM    1  N3  UNL     1     -21.347  33.087  12.829  1.00  0.00    -0.270 N 
HETATM    2  C3  UNL     1     -22.167  33.173  11.772  1.00  0.00     0.272 A 
HETATM    3  F1  UNL     1     -23.177  34.088  11.624  1.00  0.00    -0.165 F 
HETATM    4  N4  UNL     1     -21.848  32.219  10.871  1.00  0.00    -0.312 N 
ATOM      5  H4  UNL     1     -22.315  32.065   9.977  1.00  0.00     0.170 HD
HETATM    6  C4  UNL     1     -20.827  31.519  11.339  1.00  0.00     0.120 A 
HETATM    7  C5  UNL     1     -20.071  30.457  10.912  1.00  0.00     0.149 A 
HETATM    8 CL1  UNL     1     -20.450  29.752   9.358  1.00  0.00    -0.061 Cl
HETATM    9  N5  UNL     1     -19.075  29.998  11.690  1.00  0.00    -0.179 N 
ATOM     10  H5  UNL     1     -18.527  29.208  11.351  1.00  0.00     0.185 HD
HETATM   11  C6  UNL     1     -18.761  30.517  12.883  1.00  0.00     0.680 A 
HETATM   12  N7  UNL     1     -19.499  31.568  13.322  1.00  0.00    -0.174 N 
ATOM     13  H7  UNL     1     -19.288  31.990  14.227  1.00  0.00     0.186 HD
HETATM   14  C14 UNL     1     -20.497  32.057  12.583  1.00  0.00     0.158 A 
ENDROOT
BRANCH  11  15
HETATM   15  N6  UNL     1     -17.794  30.066  13.641  1.00  0.00    -0.226 N 
ATOM     16  H6  UNL     1     -18.026  29.828  14.606  1.00  0.00     0.177 HD
BRANCH  15  17
HETATM   17  C7  UNL     1     -16.439  29.881  13.228  1.00  0.00     0.140 C 
BRANCH  17  18
HETATM   18  C8  UNL     1     -15.836  31.024  12.473  1.00  0.00     0.052 C 
BRANCH  18  19
HETATM   19  C9  UNL     1     -14.408  31.332  12.824  1.00  0.00     0.126 C 
HETATM   20  C10 UNL     1     -13.548  31.394  11.605  1.00  0.00     0.066 C 
HETATM   21  C11 UNL     1     -12.181  31.080  12.203  1.00  0.00     0.151 C 
HETATM   22  C12 UNL     1     -12.512  30.375  13.501  1.00  0.00     0.174 C 
HETATM   23  O3  UNL     1     -13.890  30.313  13.622  1.00  0.00    -0.376 OA
BRANCH  21  24
HETATM   24  O1  UNL     1     -11.419  30.283  11.350  1.00  0.00    -0.393 OA
ATOM     25  H1  UNL     1     -10.587  30.047  11.742  1.00  0.00     0.210 HD
ENDBRANCH  21  24
BRANCH  22  26
HETATM   26  C13 UNL     1     -11.930  28.975  13.430  1.00  0.00     0.198 C 
BRANCH  26  27
HETATM   27  O2  UNL     1     -12.893  28.068  12.939  1.00  0.00    -0.398 OA
ATOM     28  H2  UNL     1     -12.594  27.678  12.125  1.00  0.00     0.209 HD
ENDBRANCH  26  27
ENDBRANCH  22  26
ENDBRANCH  18  19
ENDBRANCH  17  18
ENDBRANCH  15  17
ENDBRANCH  11  15
BRANCH   1  29
HETATM   29  C2  UNL     1     -21.358  33.930  14.018  1.00  0.00     0.202 A 
HETATM   30  N2  UNL     1     -22.623  33.888  14.690  1.00  0.00    -0.342 N 
HETATM   31  C1  UNL     1     -23.317  34.903  15.037  1.00  0.00     0.190 A 
ATOM     32  H2  UNL     1     -23.002  32.967  14.912  1.00  0.00     0.164 HD
HETATM   33  N1  UNL     1     -24.591  34.730  15.717  1.00  0.00    -0.063 NA
HETATM   34  N8  UNL     1     -22.833  36.200  14.751  1.00  0.00    -0.337 N 
HETATM   35  C16 UNL     1     -21.739  36.402  14.163  1.00  0.00     0.006 A 
ATOM     36  H8  UNL     1     -23.393  37.005  15.031  1.00  0.00     0.168 HD
HETATM   37  C15 UNL     1     -20.863  35.313  13.721  1.00  0.00     0.101 A 
BRANCH  35  38
HETATM   38  C17 UNL     1     -21.294  37.817  13.895  1.00  0.00     0.167 C 
HETATM   39 CL2  UNL     1     -19.561  37.876  13.532  1.00  0.00    -0.124 Cl
ENDBRANCH  35  38
ENDBRANCH   1  29
TORSDOF 9
ENDMDL
