MODEL 1
REMARK VINA RESULT: -7.463720617      0.000      0.000
REMARK  7 active torsions:
REMARK  status: ('A' for Active; 'I' for Inactive)
REMARK    1  A    between atoms: C5_7  and  S1_8 
REMARK    2  A    between atoms: S1_8  and  O4_11 
REMARK    3  A    between atoms: O4_11  and  C6_12 
REMARK    4  A    between atoms: C7_13  and  C8_14 
REMARK    5  A    between atoms: C8_14  and  N1_15 
REMARK    6  A    between atoms: N1_15  and  C9_17 
REMARK    7  A    between atoms: N5_32  and  O7_33 
ROOT
HETATM    1  C6  UNL     1     -20.220  30.915  12.298  1.00  0.00     0.219 A 
HETATM    2  C7  UNL     1     -20.186  29.872  11.324  1.00  0.00     0.085 A 
HETATM    3  C14 UNL     1     -20.139  28.717  12.056  1.00  0.00     0.274 A 
HETATM    4  O6  UNL     1     -20.110  27.555  11.584  1.00  0.00    -0.266 OA
HETATM    5  N4  UNL     1     -20.138  29.014  13.400  1.00  0.00    -0.237 N 
ATOM      6  H4  UNL     1     -20.106  28.349  14.172  1.00  0.00     0.193 HD
HETATM    7  N5  UNL     1     -20.186  30.330  13.493  1.00  0.00    -0.135 N 
ENDROOT
BRANCH   2   8
HETATM    8  C8  UNL     1     -20.295  30.222   9.910  1.00  0.00     0.169 C 
BRANCH   8   9
HETATM    9  N1  UNL     1     -20.729  29.151   9.037  1.00  0.00    -0.379 N 
ATOM     10  H1  UNL     1     -20.267  28.252   9.173  1.00  0.00     0.160 HD
BRANCH   9  11
HETATM   11  C9  UNL     1     -21.698  29.193   8.034  1.00  0.00     0.125 A 
HETATM   12  C10 UNL     1     -22.536  28.066   7.911  1.00  0.00     0.121 A 
HETATM   13  N2  UNL     1     -22.420  27.067   8.922  1.00  0.00    -0.096 NA
HETATM   14  C11 UNL     1     -23.475  27.966   6.938  1.00  0.00     0.198 A 
HETATM   15  F1  UNL     1     -24.283  26.909   6.786  1.00  0.00    -0.199 F 
HETATM   16  C12 UNL     1     -23.611  29.001   6.044  1.00  0.00     0.232 A 
HETATM   17  F2  UNL     1     -24.569  28.954   5.048  1.00  0.00    -0.183 F 
HETATM   18  N3  UNL     1     -22.822  30.077   6.153  1.00  0.00    -0.295 N 
HETATM   19  C13 UNL     1     -21.893  30.180   7.117  1.00  0.00     0.276 A 
ATOM     20  H3  UNL     1     -22.930  30.840   5.485  1.00  0.00     0.171 HD
HETATM   21  O5  UNL     1     -21.180  31.220   7.195  1.00  0.00    -0.266 OA
ENDBRANCH   9  11
ENDBRANCH   8   9
ENDBRANCH   2   8
BRANCH   1  22
HETATM   22  O4  UNL     1     -20.280  32.272  12.049  1.00  0.00    -0.206 OA
BRANCH  22  23
HETATM   23  S1  UNL     1     -21.835  33.027  11.950  1.00  0.00     0.308 S 
HETATM   24  O2  UNL     1     -22.038  33.401  10.504  1.00  0.00    -0.193 OA
HETATM   25  O3  UNL     1     -22.800  31.998  12.417  1.00  0.00    -0.193 OA
BRANCH  23  26
HETATM   26  C5  UNL     1     -21.889  34.425  12.982  1.00  0.00     0.139 A 
HETATM   27  C2  UNL     1     -21.008  34.814  13.946  1.00  0.00     0.074 A 
HETATM   28  C1  UNL     1     -19.713  34.159  14.287  1.00  0.00     0.078 C 
HETATM   29  O1  UNL     1     -21.493  35.889  14.533  1.00  0.00    -0.324 OA
HETATM   30  C3  UNL     1     -22.627  36.223  14.019  1.00  0.00     0.167 A 
HETATM   31  C4  UNL     1     -22.940  35.303  12.998  1.00  0.00     0.082 A 
HETATM   32 CL1  UNL     1     -24.411  35.416  12.073  1.00  0.00    -0.081 Cl
ENDBRANCH  23  26
ENDBRANCH  22  23
ENDBRANCH   1  22
BRANCH   7  33
HETATM   33  O7  UNL     1     -20.217  31.006  14.712  1.00  0.00    -0.266 OA
ATOM     34  H7  UNL     1     -20.320  30.591  15.561  1.00  0.00     0.247 HD
ENDBRANCH   7  33
TORSDOF 7
ENDMDL
MODEL 2
REMARK VINA RESULT: -7.358227692      1.133      1.550
REMARK  7 active torsions:
REMARK  status: ('A' for Active; 'I' for Inactive)
REMARK    1  A    between atoms: C5_7  and  S1_8 
REMARK    2  A    between atoms: S1_8  and  O4_11 
REMARK    3  A    between atoms: O4_11  and  C6_12 
REMARK    4  A    between atoms: C7_13  and  C8_14 
REMARK    5  A    between atoms: C8_14  and  N1_15 
REMARK    6  A    between atoms: N1_15  and  C9_17 
REMARK    7  A    between atoms: N5_32  and  O7_33 
ROOT
HETATM    1  C6  UNL     1     -20.207  30.911  12.307  1.00  0.00     0.219 A 
HETATM    2  C7  UNL     1     -20.148  29.855  11.348  1.00  0.00     0.085 A 
HETATM    3  C14 UNL     1     -20.118  28.710  12.097  1.00  0.00     0.274 A 
HETATM    4  O6  UNL     1     -20.076  27.542  11.641  1.00  0.00    -0.266 OA
HETATM    5  N4  UNL     1     -20.150  29.026  13.436  1.00  0.00    -0.237 N 
ATOM      6  H4  UNL     1     -20.136  28.371  14.218  1.00  0.00     0.193 HD
HETATM    7  N5  UNL     1     -20.202  30.343  13.510  1.00  0.00    -0.135 N 
ENDROOT
BRANCH   2   8
HETATM    8  C8  UNL     1     -20.222  30.186   9.927  1.00  0.00     0.169 C 
BRANCH   8   9
HETATM    9  N1  UNL     1     -20.706  29.125   9.068  1.00  0.00    -0.379 N 
ATOM     10  H1  UNL     1     -20.286  28.207   9.215  1.00  0.00     0.160 HD
BRANCH   9  11
HETATM   11  C9  UNL     1     -21.672  29.200   8.064  1.00  0.00     0.125 A 
HETATM   12  C10 UNL     1     -22.523  28.085   7.915  1.00  0.00     0.121 A 
HETATM   13  N2  UNL     1     -22.420  27.063   8.904  1.00  0.00    -0.096 NA
HETATM   14  C11 UNL     1     -23.461  28.017   6.938  1.00  0.00     0.198 A 
HETATM   15  F1  UNL     1     -24.280  26.972   6.762  1.00  0.00    -0.199 F 
HETATM   16  C12 UNL     1     -23.583  29.071   6.067  1.00  0.00     0.232 A 
HETATM   17  F2  UNL     1     -24.539  29.057   5.068  1.00  0.00    -0.183 F 
HETATM   18  N3  UNL     1     -22.782  30.136   6.200  1.00  0.00    -0.295 N 
HETATM   19  C13 UNL     1     -21.854  30.208   7.168  1.00  0.00     0.276 A 
ATOM     20  H3  UNL     1     -22.879  30.915   5.548  1.00  0.00     0.171 HD
HETATM   21  O5  UNL     1     -21.129  31.238   7.270  1.00  0.00    -0.266 OA
ENDBRANCH   9  11
ENDBRANCH   8   9
ENDBRANCH   2   8
BRANCH   1  22
HETATM   22  O4  UNL     1     -20.262  32.265  12.037  1.00  0.00    -0.206 OA
BRANCH  22  23
HETATM   23  S1  UNL     1     -21.814  33.004  11.833  1.00  0.00     0.308 S 
HETATM   24  O2  UNL     1     -22.012  33.182  10.349  1.00  0.00    -0.193 OA
HETATM   25  O3  UNL     1     -22.785  32.051  12.430  1.00  0.00    -0.193 OA
BRANCH  23  26
HETATM   26  C5  UNL     1     -21.867  34.528  12.668  1.00  0.00     0.139 A 
HETATM   27  C2  UNL     1     -22.707  35.583  12.475  1.00  0.00     0.074 A 
HETATM   28  C1  UNL     1     -23.863  35.642  11.535  1.00  0.00     0.078 C 
HETATM   29  O1  UNL     1     -22.329  36.559  13.275  1.00  0.00    -0.324 OA
HETATM   30  C3  UNL     1     -21.302  36.212  13.971  1.00  0.00     0.167 A 
HETATM   31  C4  UNL     1     -20.953  34.892  13.620  1.00  0.00     0.082 A 
HETATM   32 CL1  UNL     1     -19.598  34.072  14.344  1.00  0.00    -0.081 Cl
ENDBRANCH  23  26
ENDBRANCH  22  23
ENDBRANCH   1  22
BRANCH   7  33
HETATM   33  O7  UNL     1     -20.264  31.036  14.718  1.00  0.00    -0.266 OA
ATOM     34  H7  UNL     1     -21.056  31.176  15.224  1.00  0.00     0.247 HD
ENDBRANCH   7  33
TORSDOF 7
ENDMDL
MODEL 3
REMARK VINA RESULT: -7.286413018      2.284      3.387
REMARK  7 active torsions:
REMARK  status: ('A' for Active; 'I' for Inactive)
REMARK    1  A    between atoms: C5_7  and  S1_8 
REMARK    2  A    between atoms: S1_8  and  O4_11 
REMARK    3  A    between atoms: O4_11  and  C6_12 
REMARK    4  A    between atoms: C7_13  and  C8_14 
REMARK    5  A    between atoms: C8_14  and  N1_15 
REMARK    6  A    between atoms: N1_15  and  C9_17 
REMARK    7  A    between atoms: N5_32  and  O7_33 
ROOT
HETATM    1  C6  UNL     1     -20.135  31.693  13.761  1.00  0.00     0.219 A 
HETATM    2  C7  UNL     1     -19.792  30.496  13.063  1.00  0.00     0.085 A 
HETATM    3  C14 UNL     1     -18.424  30.495  13.031  1.00  0.00     0.274 A 
HETATM    4  O6  UNL     1     -17.709  29.603  12.516  1.00  0.00    -0.266 OA
HETATM    5  N4  UNL     1     -17.940  31.618  13.662  1.00  0.00    -0.237 N 
ATOM      6  H4  UNL     1     -16.961  31.875  13.784  1.00  0.00     0.193 HD
HETATM    7  N5  UNL     1     -18.993  32.298  14.077  1.00  0.00    -0.135 N 
ENDROOT
BRANCH   2   8
HETATM    8  C8  UNL     1     -20.859  29.583  12.662  1.00  0.00     0.169 C 
BRANCH   8   9
HETATM    9  N1  UNL     1     -20.474  28.557  11.715  1.00  0.00    -0.379 N 
ATOM     10  H1  UNL     1     -19.581  28.097  11.895  1.00  0.00     0.160 HD
BRANCH   9  11
HETATM   11  C9  UNL     1     -21.169  28.117  10.587  1.00  0.00     0.125 A 
HETATM   12  C10 UNL     1     -21.133  28.951   9.452  1.00  0.00     0.121 A 
HETATM   13  N2  UNL     1     -20.262  30.079   9.512  1.00  0.00    -0.096 NA
HETATM   14  C11 UNL     1     -21.817  28.659   8.318  1.00  0.00     0.198 A 
HETATM   15  F1  UNL     1     -21.813  29.431   7.224  1.00  0.00    -0.199 F 
HETATM   16  C12 UNL     1     -22.568  27.510   8.279  1.00  0.00     0.232 A 
HETATM   17  F2  UNL     1     -23.266  27.158   7.138  1.00  0.00    -0.183 F 
HETATM   18  N3  UNL     1     -22.608  26.708   9.351  1.00  0.00    -0.295 N 
HETATM   19  C13 UNL     1     -21.930  26.994  10.474  1.00  0.00     0.276 A 
ATOM     20  H3  UNL     1     -23.169  25.857   9.314  1.00  0.00     0.171 HD
HETATM   21  O5  UNL     1     -21.980  26.203  11.459  1.00  0.00    -0.266 OA
ENDBRANCH   9  11
ENDBRANCH   8   9
ENDBRANCH   2   8
BRANCH   1  22
HETATM   22  O4  UNL     1     -21.410  32.139  14.054  1.00  0.00    -0.206 OA
BRANCH  22  23
HETATM   23  S1  UNL     1     -21.853  33.744  13.580  1.00  0.00     0.308 S 
HETATM   24  O2  UNL     1     -21.480  34.648  14.727  1.00  0.00    -0.193 OA
HETATM   25  O3  UNL     1     -21.066  34.021  12.351  1.00  0.00    -0.193 OA
BRANCH  23  26
HETATM   26  C5  UNL     1     -23.556  33.819  13.240  1.00  0.00     0.139 A 
HETATM   27  C2  UNL     1     -24.608  33.743  14.103  1.00  0.00     0.074 A 
HETATM   28  C1  UNL     1     -24.535  33.662  15.591  1.00  0.00     0.078 C 
HETATM   29  O1  UNL     1     -25.719  33.760  13.397  1.00  0.00    -0.324 OA
HETATM   30  C3  UNL     1     -25.463  33.841  12.137  1.00  0.00     0.167 A 
HETATM   31  C4  UNL     1     -24.064  33.884  11.970  1.00  0.00     0.082 A 
HETATM   32 CL1  UNL     1     -23.325  33.982  10.396  1.00  0.00    -0.081 Cl
ENDBRANCH  23  26
ENDBRANCH  22  23
ENDBRANCH   1  22
BRANCH   7  33
HETATM   33  O7  UNL     1     -18.895  33.498  14.780  1.00  0.00    -0.266 OA
ATOM     34  H7  UNL     1     -19.501  34.226  14.699  1.00  0.00     0.247 HD
ENDBRANCH   7  33
TORSDOF 7
ENDMDL
MODEL 4
REMARK VINA RESULT: -7.254100811      1.481      2.060
REMARK  7 active torsions:
REMARK  status: ('A' for Active; 'I' for Inactive)
REMARK    1  A    between atoms: C5_7  and  S1_8 
REMARK    2  A    between atoms: S1_8  and  O4_11 
REMARK    3  A    between atoms: O4_11  and  C6_12 
REMARK    4  A    between atoms: C7_13  and  C8_14 
REMARK    5  A    between atoms: C8_14  and  N1_15 
REMARK    6  A    between atoms: N1_15  and  C9_17 
REMARK    7  A    between atoms: N5_32  and  O7_33 
ROOT
HETATM    1  C6  UNL     1     -20.297  31.261  12.401  1.00  0.00     0.219 A 
HETATM    2  C7  UNL     1     -20.310  30.172  11.478  1.00  0.00     0.085 A 
HETATM    3  C14 UNL     1     -20.207  29.054  12.260  1.00  0.00     0.274 A 
HETATM    4  O6  UNL     1     -20.195  27.872  11.842  1.00  0.00    -0.266 OA
HETATM    5  N4  UNL     1     -20.128  29.417  13.585  1.00  0.00    -0.237 N 
ATOM      6  H4  UNL     1     -20.042  28.789  14.385  1.00  0.00     0.193 HD
HETATM    7  N5  UNL     1     -20.184  30.735  13.618  1.00  0.00    -0.135 N 
ENDROOT
BRANCH   2   8
HETATM    8  C8  UNL     1     -20.508  30.453  10.058  1.00  0.00     0.169 C 
BRANCH   8   9
HETATM    9  N1  UNL     1     -20.586  29.289   9.200  1.00  0.00    -0.379 N 
ATOM     10  H1  UNL     1     -19.817  28.623   9.282  1.00  0.00     0.160 HD
BRANCH   9  11
HETATM   11  C9  UNL     1     -21.579  28.961   8.275  1.00  0.00     0.125 A 
HETATM   12  C10 UNL     1     -21.807  29.884   7.234  1.00  0.00     0.121 A 
HETATM   13  N2  UNL     1     -20.898  30.978   7.134  1.00  0.00    -0.096 NA
HETATM   14  C11 UNL     1     -22.784  29.704   6.310  1.00  0.00     0.198 A 
HETATM   15  F1  UNL     1     -23.035  30.562   5.313  1.00  0.00    -0.199 F 
HETATM   16  C12 UNL     1     -23.573  28.583   6.395  1.00  0.00     0.232 A 
HETATM   17  F2  UNL     1     -24.567  28.345   5.464  1.00  0.00    -0.183 F 
HETATM   18  N3  UNL     1     -23.363  27.699   7.379  1.00  0.00    -0.295 N 
HETATM   19  C13 UNL     1     -22.396  27.873   8.293  1.00  0.00     0.276 A 
ATOM     20  H3  UNL     1     -23.954  26.870   7.434  1.00  0.00     0.171 HD
HETATM   21  O5  UNL     1     -22.219  27.006   9.196  1.00  0.00    -0.266 OA
ENDBRANCH   9  11
ENDBRANCH   8   9
ENDBRANCH   2   8
BRANCH   1  22
HETATM   22  O4  UNL     1     -20.385  32.604  12.091  1.00  0.00    -0.206 OA
BRANCH  22  23
HETATM   23  S1  UNL     1     -21.955  33.330  12.005  1.00  0.00     0.308 S 
HETATM   24  O2  UNL     1     -22.084  33.908  10.619  1.00  0.00    -0.193 OA
HETATM   25  O3  UNL     1     -22.913  32.223  12.256  1.00  0.00    -0.193 OA
BRANCH  23  26
HETATM   26  C5  UNL     1     -22.114  34.560  13.223  1.00  0.00     0.139 A 
HETATM   27  C2  UNL     1     -22.847  34.540  14.372  1.00  0.00     0.074 A 
HETATM   28  C1  UNL     1     -23.636  33.393  14.905  1.00  0.00     0.078 C 
HETATM   29  O1  UNL     1     -22.737  35.719  14.948  1.00  0.00    -0.324 OA
HETATM   30  C3  UNL     1     -21.986  36.503  14.254  1.00  0.00     0.167 A 
HETATM   31  C4  UNL     1     -21.545  35.801  13.113  1.00  0.00     0.082 A 
HETATM   32 CL1  UNL     1     -20.514  36.536  11.919  1.00  0.00    -0.081 Cl
ENDBRANCH  23  26
ENDBRANCH  22  23
ENDBRANCH   1  22
BRANCH   7  33
HETATM   33  O7  UNL     1     -20.148  31.469  14.802  1.00  0.00    -0.266 OA
ATOM     34  H7  UNL     1     -20.740  31.346  15.536  1.00  0.00     0.247 HD
ENDBRANCH   7  33
TORSDOF 7
ENDMDL
MODEL 5
REMARK VINA RESULT: -7.175919461      1.724      2.553
REMARK  7 active torsions:
REMARK  status: ('A' for Active; 'I' for Inactive)
REMARK    1  A    between atoms: C5_7  and  S1_8 
REMARK    2  A    between atoms: S1_8  and  O4_11 
REMARK    3  A    between atoms: O4_11  and  C6_12 
REMARK    4  A    between atoms: C7_13  and  C8_14 
REMARK    5  A    between atoms: C8_14  and  N1_15 
REMARK    6  A    between atoms: N1_15  and  C9_17 
REMARK    7  A    between atoms: N5_32  and  O7_33 
ROOT
HETATM    1  C6  UNL     1     -20.288  31.134  12.345  1.00  0.00     0.219 A 
HETATM    2  C7  UNL     1     -20.285  30.056  11.409  1.00  0.00     0.085 A 
HETATM    3  C14 UNL     1     -20.134  28.933  12.176  1.00  0.00     0.274 A 
HETATM    4  O6  UNL     1     -20.093  27.756  11.744  1.00  0.00    -0.266 OA
HETATM    5  N4  UNL     1     -20.043  29.282  13.504  1.00  0.00    -0.237 N 
ATOM      6  H4  UNL     1     -19.924  28.648  14.294  1.00  0.00     0.193 HD
HETATM    7  N5  UNL     1     -20.138  30.598  13.554  1.00  0.00    -0.135 N 
ENDROOT
BRANCH   2   8
HETATM    8  C8  UNL     1     -20.516  30.347   9.997  1.00  0.00     0.169 C 
BRANCH   8   9
HETATM    9  N1  UNL     1     -20.652  29.188   9.138  1.00  0.00    -0.379 N 
ATOM     10  H1  UNL     1     -19.931  28.474   9.238  1.00  0.00     0.160 HD
BRANCH   9  11
HETATM   11  C9  UNL     1     -21.644  28.925   8.192  1.00  0.00     0.125 A 
HETATM   12  C10 UNL     1     -21.824  29.885   7.175  1.00  0.00     0.121 A 
HETATM   13  N2  UNL     1     -20.872  30.945   7.118  1.00  0.00    -0.096 NA
HETATM   14  C11 UNL     1     -22.794  29.768   6.235  1.00  0.00     0.198 A 
HETATM   15  F1  UNL     1     -22.999  30.662   5.259  1.00  0.00    -0.199 F 
HETATM   16  C12 UNL     1     -23.627  28.677   6.279  1.00  0.00     0.232 A 
HETATM   17  F2  UNL     1     -24.617  28.503   5.329  1.00  0.00    -0.183 F 
HETATM   18  N3  UNL     1     -23.464  27.758   7.239  1.00  0.00    -0.295 N 
HETATM   19  C13 UNL     1     -22.502  27.869   8.170  1.00  0.00     0.276 A 
ATOM     20  H3  UNL     1     -24.087  26.951   7.264  1.00  0.00     0.171 HD
HETATM   21  O5  UNL     1     -22.371  26.972   9.050  1.00  0.00    -0.266 OA
ENDBRANCH   9  11
ENDBRANCH   8   9
ENDBRANCH   2   8
BRANCH   1  22
HETATM   22  O4  UNL     1     -20.422  32.477  12.053  1.00  0.00    -0.206 OA
BRANCH  22  23
HETATM   23  S1  UNL     1     -21.855  33.297  12.576  1.00  0.00     0.308 S 
HETATM   24  O2  UNL     1     -22.968  32.281  12.535  1.00  0.00    -0.193 OA
HETATM   25  O3  UNL     1     -21.558  33.766  13.953  1.00  0.00    -0.193 OA
BRANCH  23  26
HETATM   26  C5  UNL     1     -22.188  34.647  11.532  1.00  0.00     0.139 A 
HETATM   27  C2  UNL     1     -22.375  34.662  10.183  1.00  0.00     0.074 A 
HETATM   28  C1  UNL     1     -22.424  33.479   9.276  1.00  0.00     0.078 C 
HETATM   29  O1  UNL     1     -22.515  35.916   9.803  1.00  0.00    -0.324 OA
HETATM   30  C3  UNL     1     -22.431  36.714  10.811  1.00  0.00     0.167 A 
HETATM   31  C4  UNL     1     -22.218  35.943  11.972  1.00  0.00     0.082 A 
HETATM   32 CL1  UNL     1     -22.039  36.672  13.543  1.00  0.00    -0.081 Cl
ENDBRANCH  23  26
ENDBRANCH  22  23
ENDBRANCH   1  22
BRANCH   7  33
HETATM   33  O7  UNL     1     -20.104  31.319  14.746  1.00  0.00    -0.266 OA
ATOM     34  H7  UNL     1     -19.545  32.070  14.911  1.00  0.00     0.247 HD
ENDBRANCH   7  33
TORSDOF 7
ENDMDL
