MODEL 1
REMARK VINA RESULT: -5.673249526      0.000      0.000
REMARK  10 active torsions:
REMARK  status: ('A' for Active; 'I' for Inactive)
REMARK    1  A    between atoms: C2_2  and  N1_3 
REMARK    2  A    between atoms: C2_2  and  C7_19 
REMARK    3  A    between atoms: C5_8  and  N2_9 
REMARK    4  A    between atoms: N2_9  and  O1_11 
REMARK    5  A    between atoms: C7_19  and  O2_20 
REMARK    6  A    between atoms: C7_19  and  C8_22 
REMARK    7  A    between atoms: C7_19  and  C11_30 
REMARK    8  A    between atoms: C8_22  and  N5_23 
REMARK    9  A    between atoms: C11_30  and  O3_31 
REMARK   10  A    between atoms: C11_30  and  C12_33 
ROOT
HETATM    1  C7  UNL     1     -21.344  33.562   5.696  1.00  0.00     0.163 C 
ENDROOT
BRANCH   1   2
HETATM    2  C2  UNL     1     -22.307  32.977   6.668  1.00  0.00     0.052 C 
HETATM    3  C1  UNL     1     -23.512  33.803   7.040  1.00  0.00     0.068 C 
BRANCH   2   4
HETATM    4  N1  UNL     1     -22.632  31.571   6.618  1.00  0.00    -0.140 N 
HETATM    5  C3  UNL     1     -23.669  31.104   5.896  1.00  0.00     0.152 A 
HETATM    6 CL1  UNL     1     -24.645  32.132   4.863  1.00  0.00    -0.061 Cl
HETATM    7  C4  UNL     1     -24.023  29.777   5.901  1.00  0.00     0.119 A 
HETATM    8 CL2  UNL     1     -25.398  29.174   4.973  1.00  0.00    -0.077 Cl
HETATM    9  C5  UNL     1     -23.330  28.865   6.642  1.00  0.00     0.165 A 
HETATM   10  N3  UNL     1     -22.308  29.316   7.349  1.00  0.00    -0.173 N 
HETATM   11  C6  UNL     1     -21.950  30.641   7.350  1.00  0.00     0.685 A 
ATOM     12  H3  UNL     1     -21.769  28.659   7.912  1.00  0.00     0.186 HD
HETATM   13  N4  UNL     1     -20.948  30.873   8.088  1.00  0.00    -0.234 N 
ATOM     14  H42 UNL     1     -20.681  31.858   8.089  1.00  0.00     0.174 HD
ATOM     15  H41 UNL     1     -20.438  30.179   8.635  1.00  0.00     0.174 HD
BRANCH   9  16
HETATM   16  N2  UNL     1     -23.646  27.593   6.660  1.00  0.00    -0.251 N 
ATOM     17  H2  UNL     1     -24.394  27.224   6.073  1.00  0.00     0.196 HD
BRANCH  16  18
HETATM   18  O1  UNL     1     -22.933  26.780   7.498  1.00  0.00    -0.288 OA
ATOM     19  H1  UNL     1     -23.256  26.676   8.385  1.00  0.00     0.244 HD
ENDBRANCH  16  18
ENDBRANCH   9  16
ENDBRANCH   2   4
ENDBRANCH   1   2
BRANCH   1  20
HETATM   20  O2  UNL     1     -20.635  34.572   6.360  1.00  0.00    -0.375 OA
ATOM     21  H2  UNL     1     -20.012  34.937   5.742  1.00  0.00     0.211 HD
ENDBRANCH   1  20
BRANCH   1  22
HETATM   22  C8  UNL     1     -22.191  34.544   4.785  1.00  0.00     0.201 C 
BRANCH  22  23
HETATM   23  N5  UNL     1     -21.759  35.882   4.645  1.00  0.00    -0.283 N 
HETATM   24  C9  UNL     1     -21.034  36.552   3.744  1.00  0.00     0.201 A 
HETATM   25  N6  UNL     1     -20.904  37.856   4.090  1.00  0.00    -0.346 N 
HETATM   26  C10 UNL     1     -21.562  38.014   5.243  1.00  0.00     0.198 A 
ATOM     27  H6  UNL     1     -20.403  38.576   3.571  1.00  0.00     0.167 HD
HETATM   28  N7  UNL     1     -22.069  36.851   5.573  1.00  0.00    -0.293 N 
ATOM     29  H7  UNL     1     -22.624  36.685   6.413  1.00  0.00     0.188 HD
ENDBRANCH  22  23
ENDBRANCH   1  22
BRANCH   1  30
HETATM   30  C11 UNL     1     -20.511  32.740   4.848  1.00  0.00     0.098 C 
BRANCH  30  31
HETATM   31  O3  UNL     1     -19.690  31.773   5.374  1.00  0.00    -0.360 OA
ATOM     32  H3  UNL     1     -19.904  30.849   5.302  1.00  0.00     0.217 HD
ENDBRANCH  30  31
BRANCH  30  33
HETATM   33  C12 UNL     1     -20.087  32.976   3.483  1.00  0.00     0.034 A 
HETATM   34  C13 UNL     1     -20.697  32.537   2.338  1.00  0.00     0.103 A 
HETATM   35  N8  UNL     1     -20.174  32.656   1.078  1.00  0.00    -0.374 N 
HETATM   36  C14 UNL     1     -19.001  33.220   0.865  1.00  0.00     0.089 A 
ATOM     37  H8  UNL     1     -20.706  32.300   0.283  1.00  0.00     0.164 HD
HETATM   38  C15 UNL     1     -18.305  33.691   1.956  1.00  0.00     0.042 A 
HETATM   39  C16 UNL     1     -18.833  33.571   3.202  1.00  0.00     0.049 A 
HETATM   40 CL3  UNL     1     -17.835  34.249   4.497  1.00  0.00    -0.083 Cl
ENDBRANCH  30  33
ENDBRANCH   1  30
TORSDOF 10
ENDMDL
MODEL 2
REMARK VINA RESULT: -5.533476842      2.272      3.120
REMARK  10 active torsions:
REMARK  status: ('A' for Active; 'I' for Inactive)
REMARK    1  A    between atoms: C2_2  and  N1_3 
REMARK    2  A    between atoms: C2_2  and  C7_19 
REMARK    3  A    between atoms: C5_8  and  N2_9 
REMARK    4  A    between atoms: N2_9  and  O1_11 
REMARK    5  A    between atoms: C7_19  and  O2_20 
REMARK    6  A    between atoms: C7_19  and  C8_22 
REMARK    7  A    between atoms: C7_19  and  C11_30 
REMARK    8  A    between atoms: C8_22  and  N5_23 
REMARK    9  A    between atoms: C11_30  and  O3_31 
REMARK   10  A    between atoms: C11_30  and  C12_33 
ROOT
HETATM    1  C7  UNL     1     -22.008  32.923   5.151  1.00  0.00     0.163 C 
ENDROOT
BRANCH   1   2
HETATM    2  C2  UNL     1     -23.071  32.437   6.071  1.00  0.00     0.052 C 
HETATM    3  C1  UNL     1     -24.129  33.422   6.499  1.00  0.00     0.068 C 
BRANCH   2   4
HETATM    4  N1  UNL     1     -23.623  31.112   5.913  1.00  0.00    -0.140 N 
HETATM    5  C3  UNL     1     -24.736  30.884   5.189  1.00  0.00     0.152 A 
HETATM    6 CL1  UNL     1     -25.548  32.144   4.277  1.00  0.00    -0.061 Cl
HETATM    7  C4  UNL     1     -25.303  29.638   5.093  1.00  0.00     0.119 A 
HETATM    8 CL2  UNL     1     -26.775  29.349   4.163  1.00  0.00    -0.077 Cl
HETATM    9  C5  UNL     1     -24.756  28.563   5.733  1.00  0.00     0.165 A 
HETATM   10  N3  UNL     1     -23.662  28.779   6.443  1.00  0.00    -0.173 N 
HETATM   11  C6  UNL     1     -23.090  30.023   6.543  1.00  0.00     0.685 A 
ATOM     12  H3  UNL     1     -23.228  27.996   6.932  1.00  0.00     0.186 HD
HETATM   13  N4  UNL     1     -22.051  30.024   7.266  1.00  0.00    -0.234 N 
ATOM     14  H42 UNL     1     -21.626  30.948   7.340  1.00  0.00     0.174 HD
ATOM     15  H41 UNL     1     -21.653  29.211   7.736  1.00  0.00     0.174 HD
BRANCH   9  16
HETATM   16  N2  UNL     1     -25.276  27.363   5.655  1.00  0.00    -0.251 N 
ATOM     17  H2  UNL     1     -26.172  27.203   5.194  1.00  0.00     0.196 HD
BRANCH  16  18
HETATM   18  O1  UNL     1     -24.570  26.334   6.215  1.00  0.00    -0.288 OA
ATOM     19  H1  UNL     1     -24.875  25.451   6.044  1.00  0.00     0.244 HD
ENDBRANCH  16  18
ENDBRANCH   9  16
ENDBRANCH   2   4
ENDBRANCH   1   2
BRANCH   1  20
HETATM   20  O2  UNL     1     -22.428  34.155   4.633  1.00  0.00    -0.375 OA
ATOM     21  H2  UNL     1     -21.808  34.814   4.924  1.00  0.00     0.211 HD
ENDBRANCH   1  20
BRANCH   1  22
HETATM   22  C8  UNL     1     -22.203  32.117   3.800  1.00  0.00     0.201 C 
BRANCH  22  23
HETATM   23  N5  UNL     1     -21.833  32.730   2.583  1.00  0.00    -0.283 N 
HETATM   24  C9  UNL     1     -20.736  32.731   1.819  1.00  0.00     0.201 A 
HETATM   25  N6  UNL     1     -20.900  33.510   0.724  1.00  0.00    -0.346 N 
HETATM   26  C10 UNL     1     -22.134  34.021   0.798  1.00  0.00     0.198 A 
ATOM     27  H6  UNL     1     -20.216  33.676  -0.014  1.00  0.00     0.167 HD
HETATM   28  N7  UNL     1     -22.688  33.561   1.893  1.00  0.00    -0.293 N 
ATOM     29  H7  UNL     1     -23.635  33.790   2.197  1.00  0.00     0.188 HD
ENDBRANCH  22  23
ENDBRANCH   1  22
BRANCH   1  30
HETATM   30  C11 UNL     1     -20.609  32.900   5.510  1.00  0.00     0.098 C 
BRANCH  30  31
HETATM   31  O3  UNL     1     -20.121  32.001   6.427  1.00  0.00    -0.360 OA
ATOM     32  H3  UNL     1     -19.217  31.708   6.400  1.00  0.00     0.217 HD
ENDBRANCH  30  31
BRANCH  30  33
HETATM   33  C12 UNL     1     -19.605  33.930   5.333  1.00  0.00     0.034 A 
HETATM   34  C13 UNL     1     -18.505  33.884   4.520  1.00  0.00     0.103 A 
HETATM   35  N8  UNL     1     -17.504  34.819   4.503  1.00  0.00    -0.374 N 
HETATM   36  C14 UNL     1     -17.525  35.870   5.300  1.00  0.00     0.089 A 
ATOM     37  H8  UNL     1     -16.723  34.700   3.858  1.00  0.00     0.164 HD
HETATM   38  C15 UNL     1     -18.591  36.005   6.160  1.00  0.00     0.042 A 
HETATM   39  C16 UNL     1     -19.580  35.074   6.168  1.00  0.00     0.049 A 
HETATM   40 CL3  UNL     1     -20.895  35.399   7.307  1.00  0.00    -0.083 Cl
ENDBRANCH  30  33
ENDBRANCH   1  30
TORSDOF 10
ENDMDL
MODEL 3
REMARK VINA RESULT: -5.481216923      1.720      3.097
REMARK  10 active torsions:
REMARK  status: ('A' for Active; 'I' for Inactive)
REMARK    1  A    between atoms: C2_2  and  N1_3 
REMARK    2  A    between atoms: C2_2  and  C7_19 
REMARK    3  A    between atoms: C5_8  and  N2_9 
REMARK    4  A    between atoms: N2_9  and  O1_11 
REMARK    5  A    between atoms: C7_19  and  O2_20 
REMARK    6  A    between atoms: C7_19  and  C8_22 
REMARK    7  A    between atoms: C7_19  and  C11_30 
REMARK    8  A    between atoms: C8_22  and  N5_23 
REMARK    9  A    between atoms: C11_30  and  O3_31 
REMARK   10  A    between atoms: C11_30  and  C12_33 
ROOT
HETATM    1  C7  UNL     1     -21.656  33.503   4.863  1.00  0.00     0.163 C 
ENDROOT
BRANCH   1   2
HETATM    2  C2  UNL     1     -22.571  33.013   5.929  1.00  0.00     0.052 C 
HETATM    3  C1  UNL     1     -23.777  33.855   6.257  1.00  0.00     0.068 C 
BRANCH   2   4
HETATM    4  N1  UNL     1     -22.869  31.604   6.044  1.00  0.00    -0.140 N 
HETATM    5  C3  UNL     1     -23.957  31.056   5.470  1.00  0.00     0.152 A 
HETATM    6 CL1  UNL     1     -25.044  31.967   4.436  1.00  0.00    -0.061 Cl
HETATM    7  C4  UNL     1     -24.281  29.732   5.634  1.00  0.00     0.119 A 
HETATM    8 CL2  UNL     1     -25.721  29.025   4.899  1.00  0.00    -0.077 Cl
HETATM    9  C5  UNL     1     -23.505  28.905   6.392  1.00  0.00     0.165 A 
HETATM   10  N3  UNL     1     -22.433  29.436   6.956  1.00  0.00    -0.173 N 
HETATM   11  C6  UNL     1     -22.104  30.758   6.797  1.00  0.00     0.685 A 
ATOM     12  H3  UNL     1     -21.832  28.843   7.528  1.00  0.00     0.186 HD
HETATM   13  N4  UNL     1     -21.045  31.074   7.414  1.00  0.00    -0.234 N 
ATOM     14  H42 UNL     1     -20.800  32.057   7.296  1.00  0.00     0.174 HD
ATOM     15  H41 UNL     1     -20.474  30.442   7.976  1.00  0.00     0.174 HD
BRANCH   9  16
HETATM   16  N2  UNL     1     -23.792  27.637   6.562  1.00  0.00    -0.251 N 
ATOM     17  H2  UNL     1     -24.650  27.233   6.187  1.00  0.00     0.196 HD
BRANCH  16  18
HETATM   18  O1  UNL     1     -22.894  26.878   7.261  1.00  0.00    -0.288 OA
ATOM     19  H1  UNL     1     -23.120  25.969   7.419  1.00  0.00     0.244 HD
ENDBRANCH  16  18
ENDBRANCH   9  16
ENDBRANCH   2   4
ENDBRANCH   1   2
BRANCH   1  20
HETATM   20  O2  UNL     1     -22.178  34.710   4.381  1.00  0.00    -0.375 OA
ATOM     21  H2  UNL     1     -21.544  35.391   4.568  1.00  0.00     0.211 HD
ENDBRANCH   1  20
BRANCH   1  22
HETATM   22  C8  UNL     1     -22.008  32.657   3.569  1.00  0.00     0.201 C 
BRANCH  22  23
HETATM   23  N5  UNL     1     -21.393  33.001   2.345  1.00  0.00    -0.283 N 
HETATM   24  C9  UNL     1     -20.474  32.436   1.556  1.00  0.00     0.201 A 
HETATM   25  N6  UNL     1     -20.224  33.200   0.466  1.00  0.00    -0.346 N 
HETATM   26  C10 UNL     1     -21.004  34.281   0.569  1.00  0.00     0.198 A 
ATOM     27  H6  UNL     1     -19.569  32.991  -0.286  1.00  0.00     0.167 HD
HETATM   28  N7  UNL     1     -21.696  34.167   1.676  1.00  0.00    -0.293 N 
ATOM     29  H7  UNL     1     -22.375  34.855   2.002  1.00  0.00     0.188 HD
ENDBRANCH  22  23
ENDBRANCH   1  22
BRANCH   1  30
HETATM   30  C11 UNL     1     -20.221  33.525   5.029  1.00  0.00     0.098 C 
BRANCH  30  31
HETATM   31  O3  UNL     1     -19.509  32.371   5.249  1.00  0.00    -0.360 OA
ATOM     32  H3  UNL     1     -18.586  32.396   5.477  1.00  0.00     0.217 HD
ENDBRANCH  30  31
BRANCH  30  33
HETATM   33  C12 UNL     1     -19.361  34.640   5.370  1.00  0.00     0.034 A 
HETATM   34  C13 UNL     1     -19.557  35.566   6.359  1.00  0.00     0.103 A 
HETATM   35  N8  UNL     1     -18.795  36.689   6.543  1.00  0.00    -0.374 N 
HETATM   36  C14 UNL     1     -17.780  36.974   5.750  1.00  0.00     0.089 A 
ATOM     37  H8  UNL     1     -19.018  37.321   7.312  1.00  0.00     0.164 HD
HETATM   38  C15 UNL     1     -17.503  36.104   4.720  1.00  0.00     0.042 A 
HETATM   39  C16 UNL     1     -18.263  34.992   4.547  1.00  0.00     0.049 A 
HETATM   40 CL3  UNL     1     -17.767  33.957   3.199  1.00  0.00    -0.083 Cl
ENDBRANCH  30  33
ENDBRANCH   1  30
TORSDOF 10
ENDMDL
MODEL 4
REMARK VINA RESULT: -5.449498548      2.050      3.107
REMARK  10 active torsions:
REMARK  status: ('A' for Active; 'I' for Inactive)
REMARK    1  A    between atoms: C2_2  and  N1_3 
REMARK    2  A    between atoms: C2_2  and  C7_19 
REMARK    3  A    between atoms: C5_8  and  N2_9 
REMARK    4  A    between atoms: N2_9  and  O1_11 
REMARK    5  A    between atoms: C7_19  and  O2_20 
REMARK    6  A    between atoms: C7_19  and  C8_22 
REMARK    7  A    between atoms: C7_19  and  C11_30 
REMARK    8  A    between atoms: C8_22  and  N5_23 
REMARK    9  A    between atoms: C11_30  and  O3_31 
REMARK   10  A    between atoms: C11_30  and  C12_33 
ROOT
HETATM    1  C7  UNL     1     -21.476  33.419   4.709  1.00  0.00     0.163 C 
ENDROOT
BRANCH   1   2
HETATM    2  C2  UNL     1     -22.392  33.012   5.809  1.00  0.00     0.052 C 
HETATM    3  C1  UNL     1     -23.535  33.935   6.144  1.00  0.00     0.068 C 
BRANCH   2   4
HETATM    4  N1  UNL     1     -22.774  31.628   5.965  1.00  0.00    -0.140 N 
HETATM    5  C3  UNL     1     -23.893  31.129   5.405  1.00  0.00     0.152 A 
HETATM    6 CL1  UNL     1     -24.924  32.072   4.344  1.00  0.00    -0.061 Cl
HETATM    7  C4  UNL     1     -24.295  29.832   5.608  1.00  0.00     0.119 A 
HETATM    8 CL2  UNL     1     -25.776  29.191   4.892  1.00  0.00    -0.077 Cl
HETATM    9  C5  UNL     1     -23.570  28.983   6.392  1.00  0.00     0.165 A 
HETATM   10  N3  UNL     1     -22.468  29.465   6.941  1.00  0.00    -0.173 N 
HETATM   11  C6  UNL     1     -22.060  30.761   6.743  1.00  0.00     0.685 A 
ATOM     12  H3  UNL     1     -21.903  28.855   7.532  1.00  0.00     0.186 HD
HETATM   13  N4  UNL     1     -20.984  31.030   7.353  1.00  0.00    -0.234 N 
ATOM     14  H42 UNL     1     -20.681  31.993   7.205  1.00  0.00     0.174 HD
ATOM     15  H41 UNL     1     -20.452  30.383   7.934  1.00  0.00     0.174 HD
BRANCH   9  16
HETATM   16  N2  UNL     1     -23.932  27.740   6.598  1.00  0.00    -0.251 N 
ATOM     17  H2  UNL     1     -24.872  27.417   6.371  1.00  0.00     0.196 HD
BRANCH  16  18
HETATM   18  O1  UNL     1     -22.998  26.894   7.131  1.00  0.00    -0.288 OA
ATOM     19  H1  UNL     1     -23.245  25.983   7.239  1.00  0.00     0.244 HD
ENDBRANCH  16  18
ENDBRANCH   9  16
ENDBRANCH   2   4
ENDBRANCH   1   2
BRANCH   1  20
HETATM   20  O2  UNL     1     -21.989  34.596   4.147  1.00  0.00    -0.375 OA
ATOM     21  H2  UNL     1     -21.436  35.314   4.433  1.00  0.00     0.211 HD
ENDBRANCH   1  20
BRANCH   1  22
HETATM   22  C8  UNL     1     -21.839  32.491   3.478  1.00  0.00     0.201 C 
BRANCH  22  23
HETATM   23  N5  UNL     1     -21.391  32.864   2.191  1.00  0.00    -0.283 N 
HETATM   24  C9  UNL     1     -20.318  32.584   1.445  1.00  0.00     0.201 A 
HETATM   25  N6  UNL     1     -20.369  33.221   0.251  1.00  0.00    -0.346 N 
HETATM   26  C10 UNL     1     -21.504  33.927   0.241  1.00  0.00     0.198 A 
ATOM     27  H6  UNL     1     -19.677  33.172  -0.496  1.00  0.00     0.167 HD
HETATM   28  N7  UNL     1     -22.111  33.717   1.385  1.00  0.00    -0.293 N 
ATOM     29  H7  UNL     1     -23.005  34.135   1.644  1.00  0.00     0.188 HD
ENDBRANCH  22  23
ENDBRANCH   1  22
BRANCH   1  30
HETATM   30  C11 UNL     1     -20.040  33.440   4.871  1.00  0.00     0.098 C 
BRANCH  30  31
HETATM   31  O3  UNL     1     -19.376  32.411   5.493  1.00  0.00    -0.360 OA
ATOM     32  H3  UNL     1     -19.001  32.516   6.360  1.00  0.00     0.217 HD
ENDBRANCH  30  31
BRANCH  30  33
HETATM   33  C12 UNL     1     -19.132  34.567   4.803  1.00  0.00     0.034 A 
HETATM   34  C13 UNL     1     -18.099  34.747   3.922  1.00  0.00     0.103 A 
HETATM   35  N8  UNL     1     -17.174  35.753   3.994  1.00  0.00    -0.374 N 
HETATM   36  C14 UNL     1     -17.208  36.656   4.956  1.00  0.00     0.089 A 
ATOM     37  H8  UNL     1     -16.440  35.807   3.288  1.00  0.00     0.164 HD
HETATM   38  C15 UNL     1     -18.208  36.559   5.896  1.00  0.00     0.042 A 
HETATM   39  C16 UNL     1     -19.123  35.558   5.814  1.00  0.00     0.049 A 
HETATM   40 CL3  UNL     1     -20.363  35.582   7.077  1.00  0.00    -0.083 Cl
ENDBRANCH  30  33
ENDBRANCH   1  30
TORSDOF 10
ENDMDL
MODEL 5
REMARK VINA RESULT: -5.408980160      6.954      8.950
REMARK  10 active torsions:
REMARK  status: ('A' for Active; 'I' for Inactive)
REMARK    1  A    between atoms: C2_2  and  N1_3 
REMARK    2  A    between atoms: C2_2  and  C7_19 
REMARK    3  A    between atoms: C5_8  and  N2_9 
REMARK    4  A    between atoms: N2_9  and  O1_11 
REMARK    5  A    between atoms: C7_19  and  O2_20 
REMARK    6  A    between atoms: C7_19  and  C8_22 
REMARK    7  A    between atoms: C7_19  and  C11_30 
REMARK    8  A    between atoms: C8_22  and  N5_23 
REMARK    9  A    between atoms: C11_30  and  O3_31 
REMARK   10  A    between atoms: C11_30  and  C12_33 
ROOT
HETATM    1  C7  UNL     1     -22.049  33.787  12.315  1.00  0.00     0.163 C 
ENDROOT
BRANCH   1   2
HETATM    2  C2  UNL     1     -22.362  34.667  13.474  1.00  0.00     0.052 C 
HETATM    3  C1  UNL     1     -21.517  35.901  13.663  1.00  0.00     0.068 C 
BRANCH   2   4
HETATM    4  N1  UNL     1     -23.733  34.908  13.857  1.00  0.00    -0.140 N 
HETATM    5  C3  UNL     1     -24.416  35.986  13.424  1.00  0.00     0.152 A 
HETATM    6 CL1  UNL     1     -23.753  37.127  12.268  1.00  0.00    -0.061 Cl
HETATM    7  C4  UNL     1     -25.696  36.255  13.841  1.00  0.00     0.119 A 
HETATM    8 CL2  UNL     1     -26.578  37.681  13.289  1.00  0.00    -0.077 Cl
HETATM    9  C5  UNL     1     -26.339  35.433  14.719  1.00  0.00     0.165 A 
HETATM   10  N3  UNL     1     -25.676  34.372  15.146  1.00  0.00    -0.173 N 
HETATM   11  C6  UNL     1     -24.396  34.097  14.733  1.00  0.00     0.685 A 
ATOM     12  H3  UNL     1     -26.130  33.737  15.802  1.00  0.00     0.186 HD
HETATM   13  N4  UNL     1     -23.935  33.038  15.253  1.00  0.00    -0.234 N 
ATOM     14  H42 UNL     1     -22.983  32.834  14.947  1.00  0.00     0.174 HD
ATOM     15  H41 UNL     1     -24.430  32.432  15.908  1.00  0.00     0.174 HD
BRANCH   9  16
HETATM   16  N2  UNL     1     -27.562  35.667  15.130  1.00  0.00    -0.251 N 
ATOM     17  H2  UNL     1     -27.758  36.381  15.831  1.00  0.00     0.196 HD
BRANCH  16  18
HETATM   18  O1  UNL     1     -28.564  34.915  14.580  1.00  0.00    -0.288 OA
ATOM     19  H1  UNL     1     -29.358  35.368  14.321  1.00  0.00     0.244 HD
ENDBRANCH  16  18
ENDBRANCH   9  16
ENDBRANCH   2   4
ENDBRANCH   1   2
BRANCH   1  20
HETATM   20  O2  UNL     1     -21.263  34.528  11.423  1.00  0.00    -0.375 OA
ATOM     21  H2  UNL     1     -20.598  33.945  11.076  1.00  0.00     0.211 HD
ENDBRANCH   1  20
BRANCH   1  22
HETATM   22  C8  UNL     1     -23.349  33.787  11.409  1.00  0.00     0.201 C 
BRANCH  22  23
HETATM   23  N5  UNL     1     -23.213  34.042  10.026  1.00  0.00    -0.283 N 
HETATM   24  C9  UNL     1     -23.709  34.948   9.177  1.00  0.00     0.201 A 
HETATM   25  N6  UNL     1     -23.255  34.743   7.918  1.00  0.00    -0.346 N 
HETATM   26  C10 UNL     1     -22.451  33.676   7.970  1.00  0.00     0.198 A 
ATOM     27  H6  UNL     1     -23.480  35.296   7.092  1.00  0.00     0.167 HD
HETATM   28  N7  UNL     1     -22.423  33.260   9.213  1.00  0.00    -0.293 N 
ATOM     29  H7  UNL     1     -21.883  32.457   9.537  1.00  0.00     0.188 HD
ENDBRANCH  22  23
ENDBRANCH   1  22
BRANCH   1  30
HETATM   30  C11 UNL     1     -21.597  32.426  12.482  1.00  0.00     0.098 C 
BRANCH  30  31
HETATM   31  O3  UNL     1     -22.469  31.419  12.820  1.00  0.00    -0.360 OA
ATOM     32  H3  UNL     1     -22.577  31.140  13.722  1.00  0.00     0.217 HD
ENDBRANCH  30  31
BRANCH  30  33
HETATM   33  C12 UNL     1     -20.253  31.933  12.710  1.00  0.00     0.034 A 
HETATM   34  C13 UNL     1     -19.410  32.270  13.734  1.00  0.00     0.103 A 
HETATM   35  N8  UNL     1     -18.095  31.896  13.822  1.00  0.00    -0.374 N 
HETATM   36  C14 UNL     1     -17.523  31.157  12.891  1.00  0.00     0.089 A 
ATOM     37  H8  UNL     1     -17.545  32.195  14.627  1.00  0.00     0.164 HD
HETATM   38  C15 UNL     1     -18.289  30.769  11.815  1.00  0.00     0.042 A 
HETATM   39  C16 UNL     1     -19.592  31.143  11.738  1.00  0.00     0.049 A 
HETATM   40 CL3  UNL     1     -20.452  30.543  10.312  1.00  0.00    -0.083 Cl
ENDBRANCH  30  33
ENDBRANCH   1  30
TORSDOF 10
ENDMDL
