MODEL 1
REMARK VINA RESULT: -7.715639023      0.000      0.000
REMARK  11 active torsions:
REMARK  status: ('A' for Active; 'I' for Inactive)
REMARK    1  A    between atoms: C2_2  and  O1_3 
REMARK    2  A    between atoms: O1_3  and  C3_4 
REMARK    3  A    between atoms: C3_4  and  C4_6 
REMARK    4  A    between atoms: C5_9  and  N2_10 
REMARK    5  A    between atoms: N2_10  and  O3_12 
REMARK    6  A    between atoms: O3_12  and  C6_13 
REMARK    7  A    between atoms: C6_13  and  O4_14 
REMARK    8  A    between atoms: C13_26  and  N5_27 
REMARK    9  A    between atoms: N5_27  and  C14_29 
REMARK   10  A    between atoms: C14_29  and  C15_30 
REMARK   11  A    between atoms: C15_30  and  C16_31 
ROOT
HETATM    1  C4  UNL     1     -21.344  32.143   5.704  1.00  0.00     0.185 C 
HETATM    2  N1  UNL     1     -22.589  32.415   5.221  1.00  0.00    -0.321 N 
ATOM      3  H1  UNL     1     -22.677  33.331   4.779  1.00  0.00     0.169 HD
HETATM    4  C5  UNL     1     -23.724  31.691   5.222  1.00  0.00     0.141 C 
HETATM    5  C7  UNL     1     -23.814  30.384   5.679  1.00  0.00     0.066 A 
HETATM    6  C8  UNL     1     -24.921  29.725   5.184  1.00  0.00     0.158 A 
HETATM    7  F1  UNL     1     -25.759  30.395   4.353  1.00  0.00    -0.203 F 
HETATM    8  C9  UNL     1     -25.150  28.405   5.544  1.00  0.00     0.126 A 
HETATM    9  N3  UNL     1     -26.303  27.753   5.015  1.00  0.00    -0.096 NA
HETATM   10  C10 UNL     1     -24.297  27.734   6.385  1.00  0.00     0.168 A 
HETATM   11  F2  UNL     1     -24.485  26.448   6.759  1.00  0.00    -0.202 F 
HETATM   12  C11 UNL     1     -23.180  28.431   6.871  1.00  0.00     0.102 A 
HETATM   13  N4  UNL     1     -22.281  27.751   7.728  1.00  0.00    -0.098 NA
HETATM   14  C12 UNL     1     -22.932  29.720   6.538  1.00  0.00     0.052 A 
HETATM   15  C13 UNL     1     -21.779  30.223   7.142  1.00  0.00     0.116 C 
HETATM   16  N6  UNL     1     -21.003  31.161   6.560  1.00  0.00    -0.323 N 
ATOM     17  H6  UNL     1     -20.013  31.120   6.805  1.00  0.00     0.169 HD
ENDROOT
BRANCH  15  18
HETATM   18  N5  UNL     1     -21.504  29.750   8.287  1.00  0.00    -0.375 N 
ATOM     19  H5  UNL     1     -22.091  28.974   8.594  1.00  0.00     0.161 HD
BRANCH  18  20
HETATM   20  C14 UNL     1     -20.487  30.153   9.206  1.00  0.00     0.126 C 
BRANCH  20  21
HETATM   21  C15 UNL     1     -20.446  29.398  10.503  1.00  0.00     0.061 C 
BRANCH  21  22
HETATM   22  C16 UNL     1     -20.282  30.256  11.698  1.00  0.00    -0.018 A 
HETATM   23  C17 UNL     1     -21.343  30.408  12.607  1.00  0.00     0.013 A 
HETATM   24  C18 UNL     1     -21.255  31.207  13.723  1.00  0.00     0.043 A 
HETATM   25  C19 UNL     1     -20.097  31.902  13.994  1.00  0.00     0.119 A 
HETATM   26  F3  UNL     1     -19.990  32.701  15.097  1.00  0.00    -0.206 F 
HETATM   27  C20 UNL     1     -19.040  31.777  13.126  1.00  0.00     0.085 A 
HETATM   28  C21 UNL     1     -19.147  30.970  12.011  1.00  0.00     0.125 A 
HETATM   29  F4  UNL     1     -18.054  30.881  11.214  1.00  0.00    -0.205 F 
ENDBRANCH  21  22
ENDBRANCH  20  21
ENDBRANCH  18  20
ENDBRANCH  15  18
BRANCH   1  30
HETATM   30  C3  UNL     1     -20.274  33.014   5.236  1.00  0.00     0.327 C 
HETATM   31  O2  UNL     1     -20.260  34.196   5.662  1.00  0.00    -0.256 OA
BRANCH  30  32
HETATM   32  O1  UNL     1     -19.293  32.622   4.368  1.00  0.00    -0.316 OA
BRANCH  32  33
HETATM   33  C2  UNL     1     -19.109  33.336   3.156  1.00  0.00     0.175 C 
HETATM   34  C1  UNL     1     -20.172  32.901   2.195  1.00  0.00     0.034 C 
ENDBRANCH  32  33
ENDBRANCH  30  32
ENDBRANCH   1  30
BRANCH   4  35
HETATM   35  N2  UNL     1     -24.815  32.197   4.785  1.00  0.00    -0.247 N 
ATOM     36  H2  UNL     1     -25.283  31.744   4.001  1.00  0.00     0.196 HD
BRANCH  35  37
HETATM   37  O3  UNL     1     -25.374  33.311   5.320  1.00  0.00    -0.253 OA
BRANCH  37  38
HETATM   38  C6  UNL     1     -26.221  33.350   6.439  1.00  0.00     0.366 C 
BRANCH  38  39
HETATM   39  O4  UNL     1     -27.091  32.261   6.475  1.00  0.00    -0.375 OA
ATOM     40  H4  UNL     1     -27.405  32.084   7.354  1.00  0.00     0.212 HD
ENDBRANCH  38  39
ENDBRANCH  37  38
ENDBRANCH  35  37
ENDBRANCH   4  35
TORSDOF 11
ENDMDL
MODEL 2
REMARK VINA RESULT: -7.709769761      0.906      1.313
REMARK  11 active torsions:
REMARK  status: ('A' for Active; 'I' for Inactive)
REMARK    1  A    between atoms: C2_2  and  O1_3 
REMARK    2  A    between atoms: O1_3  and  C3_4 
REMARK    3  A    between atoms: C3_4  and  C4_6 
REMARK    4  A    between atoms: C5_9  and  N2_10 
REMARK    5  A    between atoms: N2_10  and  O3_12 
REMARK    6  A    between atoms: O3_12  and  C6_13 
REMARK    7  A    between atoms: C6_13  and  O4_14 
REMARK    8  A    between atoms: C13_26  and  N5_27 
REMARK    9  A    between atoms: N5_27  and  C14_29 
REMARK   10  A    between atoms: C14_29  and  C15_30 
REMARK   11  A    between atoms: C15_30  and  C16_31 
ROOT
HETATM    1  C4  UNL     1     -21.300  32.139   5.681  1.00  0.00     0.185 C 
HETATM    2  N1  UNL     1     -22.541  32.415   5.189  1.00  0.00    -0.321 N 
ATOM      3  H1  UNL     1     -22.621  33.327   4.740  1.00  0.00     0.169 HD
HETATM    4  C5  UNL     1     -23.679  31.697   5.192  1.00  0.00     0.141 C 
HETATM    5  C7  UNL     1     -23.779  30.394   5.659  1.00  0.00     0.066 A 
HETATM    6  C8  UNL     1     -24.887  29.737   5.164  1.00  0.00     0.158 A 
HETATM    7  F1  UNL     1     -25.717  30.405   4.324  1.00  0.00    -0.203 F 
HETATM    8  C9  UNL     1     -25.125  28.421   5.535  1.00  0.00     0.126 A 
HETATM    9  N3  UNL     1     -26.280  27.771   5.006  1.00  0.00    -0.096 NA
HETATM   10  C10 UNL     1     -24.280  27.753   6.385  1.00  0.00     0.168 A 
HETATM   11  F2  UNL     1     -24.478  26.472   6.769  1.00  0.00    -0.202 F 
HETATM   12  C11 UNL     1     -23.162  28.448   6.871  1.00  0.00     0.102 A 
HETATM   13  N4  UNL     1     -22.270  27.770   7.738  1.00  0.00    -0.098 NA
HETATM   14  C12 UNL     1     -22.904  29.733   6.528  1.00  0.00     0.052 A 
HETATM   15  C13 UNL     1     -21.752  30.235   7.133  1.00  0.00     0.116 C 
HETATM   16  N6  UNL     1     -20.968  31.163   6.547  1.00  0.00    -0.323 N 
ATOM     17  H6  UNL     1     -19.979  31.118   6.797  1.00  0.00     0.169 HD
ENDROOT
BRANCH  15  18
HETATM   18  N5  UNL     1     -21.485  29.769   8.284  1.00  0.00    -0.375 N 
ATOM     19  H5  UNL     1     -22.065  28.986   8.586  1.00  0.00     0.161 HD
BRANCH  18  20
HETATM   20  C14 UNL     1     -20.485  30.191   9.214  1.00  0.00     0.126 C 
BRANCH  20  21
HETATM   21  C15 UNL     1     -20.440  29.430  10.507  1.00  0.00     0.061 C 
BRANCH  21  22
HETATM   22  C16 UNL     1     -20.270  30.282  11.706  1.00  0.00    -0.018 A 
HETATM   23  C17 UNL     1     -21.338  30.453  12.603  1.00  0.00     0.013 A 
HETATM   24  C18 UNL     1     -21.246  31.248  13.721  1.00  0.00     0.043 A 
HETATM   25  C19 UNL     1     -20.077  31.919  14.007  1.00  0.00     0.119 A 
HETATM   26  F3  UNL     1     -19.966  32.715  15.112  1.00  0.00    -0.206 F 
HETATM   27  C20 UNL     1     -19.014  31.774  13.149  1.00  0.00     0.085 A 
HETATM   28  C21 UNL     1     -19.125  30.971  12.032  1.00  0.00     0.125 A 
HETATM   29  F4  UNL     1     -18.025  30.862  11.246  1.00  0.00    -0.205 F 
ENDBRANCH  21  22
ENDBRANCH  20  21
ENDBRANCH  18  20
ENDBRANCH  15  18
BRANCH   1  30
HETATM   30  C3  UNL     1     -20.222  33.000   5.211  1.00  0.00     0.327 C 
HETATM   31  O2  UNL     1     -20.135  34.149   5.714  1.00  0.00    -0.256 OA
BRANCH  30  32
HETATM   32  O1  UNL     1     -19.309  32.635   4.262  1.00  0.00    -0.316 OA
BRANCH  32  33
HETATM   33  C2  UNL     1     -19.280  33.320   3.021  1.00  0.00     0.175 C 
HETATM   34  C1  UNL     1     -17.872  33.757   2.764  1.00  0.00     0.034 C 
ENDBRANCH  32  33
ENDBRANCH  30  32
ENDBRANCH   1  30
BRANCH   4  35
HETATM   35  N2  UNL     1     -24.765  32.205   4.745  1.00  0.00    -0.247 N 
ATOM     36  H2  UNL     1     -25.649  31.759   4.988  1.00  0.00     0.196 HD
BRANCH  35  37
HETATM   37  O3  UNL     1     -24.790  33.312   3.961  1.00  0.00    -0.253 OA
BRANCH  37  38
HETATM   38  C6  UNL     1     -24.586  33.342   2.572  1.00  0.00     0.366 C 
BRANCH  38  39
HETATM   39  O4  UNL     1     -23.232  33.390   2.244  1.00  0.00    -0.375 OA
ATOM     40  H4  UNL     1     -23.045  32.931   1.433  1.00  0.00     0.212 HD
ENDBRANCH  38  39
ENDBRANCH  37  38
ENDBRANCH  35  37
ENDBRANCH   4  35
TORSDOF 11
ENDMDL
MODEL 3
REMARK VINA RESULT: -7.644788707      3.920      6.412
REMARK  11 active torsions:
REMARK  status: ('A' for Active; 'I' for Inactive)
REMARK    1  A    between atoms: C2_2  and  O1_3 
REMARK    2  A    between atoms: O1_3  and  C3_4 
REMARK    3  A    between atoms: C3_4  and  C4_6 
REMARK    4  A    between atoms: C5_9  and  N2_10 
REMARK    5  A    between atoms: N2_10  and  O3_12 
REMARK    6  A    between atoms: O3_12  and  C6_13 
REMARK    7  A    between atoms: C6_13  and  O4_14 
REMARK    8  A    between atoms: C13_26  and  N5_27 
REMARK    9  A    between atoms: N5_27  and  C14_29 
REMARK   10  A    between atoms: C14_29  and  C15_30 
REMARK   11  A    between atoms: C15_30  and  C16_31 
ROOT
HETATM    1  C4  UNL     1     -21.252  31.155   8.682  1.00  0.00     0.185 C 
HETATM    2  N1  UNL     1     -21.760  32.417   8.602  1.00  0.00    -0.321 N 
ATOM      3  H1  UNL     1     -21.851  32.773   7.651  1.00  0.00     0.169 HD
HETATM    4  C5  UNL     1     -22.163  33.277   9.555  1.00  0.00     0.141 C 
HETATM    5  C7  UNL     1     -22.222  32.970  10.907  1.00  0.00     0.066 A 
HETATM    6  C8  UNL     1     -23.058  33.818  11.607  1.00  0.00     0.158 A 
HETATM    7  F1  UNL     1     -23.693  34.808  10.931  1.00  0.00    -0.203 F 
HETATM    8  C9  UNL     1     -23.227  33.638  12.972  1.00  0.00     0.126 A 
HETATM    9  N3  UNL     1     -24.098  34.531  13.666  1.00  0.00    -0.096 NA
HETATM   10  C10 UNL     1     -22.581  32.633  13.648  1.00  0.00     0.168 A 
HETATM   11  F2  UNL     1     -22.721  32.426  14.977  1.00  0.00    -0.202 F 
HETATM   12  C11 UNL     1     -21.739  31.789  12.909  1.00  0.00     0.102 A 
HETATM   13  N4  UNL     1     -21.075  30.737  13.587  1.00  0.00    -0.098 NA
HETATM   14  C12 UNL     1     -21.552  31.940  11.576  1.00  0.00     0.052 A 
HETATM   15  C13 UNL     1     -20.666  31.004  11.043  1.00  0.00     0.116 C 
HETATM   16  N6  UNL     1     -20.768  30.542   9.780  1.00  0.00    -0.323 N 
ATOM     17  H6  UNL     1     -20.430  29.590   9.635  1.00  0.00     0.169 HD
ENDROOT
BRANCH  15  18
HETATM   18  N5  UNL     1     -19.742  30.614  11.821  1.00  0.00    -0.375 N 
ATOM     19  H5  UNL     1     -20.053  30.204  12.702  1.00  0.00     0.161 HD
BRANCH  18  20
HETATM   20  C14 UNL     1     -18.326  30.669  11.633  1.00  0.00     0.126 C 
BRANCH  20  21
HETATM   21  C15 UNL     1     -17.540  31.229  12.783  1.00  0.00     0.061 C 
BRANCH  21  22
HETATM   22  C16 UNL     1     -16.139  30.756  12.846  1.00  0.00    -0.018 A 
HETATM   23  C17 UNL     1     -15.153  31.370  12.055  1.00  0.00     0.013 A 
HETATM   24  C18 UNL     1     -13.840  30.961  12.057  1.00  0.00     0.043 A 
HETATM   25  C19 UNL     1     -13.437  29.910  12.852  1.00  0.00     0.119 A 
HETATM   26  F3  UNL     1     -12.138  29.488  12.868  1.00  0.00    -0.206 F 
HETATM   27  C20 UNL     1     -14.377  29.287  13.638  1.00  0.00     0.085 A 
HETATM   28  C21 UNL     1     -15.689  29.712  13.623  1.00  0.00     0.125 A 
HETATM   29  F4  UNL     1     -16.552  29.061  14.441  1.00  0.00    -0.205 F 
ENDBRANCH  21  22
ENDBRANCH  20  21
ENDBRANCH  18  20
ENDBRANCH  15  18
BRANCH   1  30
HETATM   30  C3  UNL     1     -21.235  30.394   7.439  1.00  0.00     0.327 C 
HETATM   31  O2  UNL     1     -20.495  30.812   6.513  1.00  0.00    -0.256 OA
BRANCH  30  32
HETATM   32  O1  UNL     1     -21.972  29.264   7.224  1.00  0.00    -0.316 OA
BRANCH  32  33
HETATM   33  C2  UNL     1     -23.175  29.347   6.477  1.00  0.00     0.175 C 
HETATM   34  C1  UNL     1     -23.746  27.968   6.361  1.00  0.00     0.034 C 
ENDBRANCH  32  33
ENDBRANCH  30  32
ENDBRANCH   1  30
BRANCH   4  35
HETATM   35  N2  UNL     1     -22.526  34.464   9.245  1.00  0.00    -0.247 N 
ATOM     36  H2  UNL     1     -23.503  34.726   9.375  1.00  0.00     0.196 HD
BRANCH  35  37
HETATM   37  O3  UNL     1     -21.666  35.389   8.749  1.00  0.00    -0.253 OA
BRANCH  37  38
HETATM   38  C6  UNL     1     -21.283  36.580   9.385  1.00  0.00     0.366 C 
BRANCH  38  39
HETATM   39  O4  UNL     1     -20.617  36.341  10.586  1.00  0.00    -0.375 OA
ATOM     40  H4  UNL     1     -19.852  35.790  10.466  1.00  0.00     0.212 HD
ENDBRANCH  38  39
ENDBRANCH  37  38
ENDBRANCH  35  37
ENDBRANCH   4  35
TORSDOF 11
ENDMDL
MODEL 4
REMARK VINA RESULT: -7.554971253      0.691      1.172
REMARK  11 active torsions:
REMARK  status: ('A' for Active; 'I' for Inactive)
REMARK    1  A    between atoms: C2_2  and  O1_3 
REMARK    2  A    between atoms: O1_3  and  C3_4 
REMARK    3  A    between atoms: C3_4  and  C4_6 
REMARK    4  A    between atoms: C5_9  and  N2_10 
REMARK    5  A    between atoms: N2_10  and  O3_12 
REMARK    6  A    between atoms: O3_12  and  C6_13 
REMARK    7  A    between atoms: C6_13  and  O4_14 
REMARK    8  A    between atoms: C13_26  and  N5_27 
REMARK    9  A    between atoms: N5_27  and  C14_29 
REMARK   10  A    between atoms: C14_29  and  C15_30 
REMARK   11  A    between atoms: C15_30  and  C16_31 
ROOT
HETATM    1  C4  UNL     1     -21.425  32.159   5.615  1.00  0.00     0.185 C 
HETATM    2  N1  UNL     1     -22.677  32.411   5.140  1.00  0.00    -0.321 N 
ATOM      3  H1  UNL     1     -22.779  33.319   4.688  1.00  0.00     0.169 HD
HETATM    4  C5  UNL     1     -23.802  31.673   5.160  1.00  0.00     0.141 C 
HETATM    5  C7  UNL     1     -23.872  30.371   5.634  1.00  0.00     0.066 A 
HETATM    6  C8  UNL     1     -24.976  29.692   5.157  1.00  0.00     0.158 A 
HETATM    7  F1  UNL     1     -25.829  30.342   4.325  1.00  0.00    -0.203 F 
HETATM    8  C9  UNL     1     -25.186  28.374   5.536  1.00  0.00     0.126 A 
HETATM    9  N3  UNL     1     -26.336  27.701   5.025  1.00  0.00    -0.096 NA
HETATM   10  C10 UNL     1     -24.317  27.724   6.378  1.00  0.00     0.168 A 
HETATM   11  F2  UNL     1     -24.487  26.441   6.769  1.00  0.00    -0.202 F 
HETATM   12  C11 UNL     1     -23.205  28.441   6.845  1.00  0.00     0.102 A 
HETATM   13  N4  UNL     1     -22.290  27.782   7.703  1.00  0.00    -0.098 NA
HETATM   14  C12 UNL     1     -22.975  29.728   6.494  1.00  0.00     0.052 A 
HETATM   15  C13 UNL     1     -21.824  30.253   7.081  1.00  0.00     0.116 C 
HETATM   16  N6  UNL     1     -21.064  31.192   6.481  1.00  0.00    -0.323 N 
ATOM     17  H6  UNL     1     -20.072  31.167   6.717  1.00  0.00     0.169 HD
ENDROOT
BRANCH  15  18
HETATM   18  N5  UNL     1     -21.533  29.797   8.230  1.00  0.00    -0.375 N 
ATOM     19  H5  UNL     1     -22.082  28.994   8.535  1.00  0.00     0.161 HD
BRANCH  18  20
HETATM   20  C14 UNL     1     -20.544  30.255   9.154  1.00  0.00     0.126 C 
BRANCH  20  21
HETATM   21  C15 UNL     1     -20.424  29.460  10.422  1.00  0.00     0.061 C 
BRANCH  21  22
HETATM   22  C16 UNL     1     -20.255  30.285  11.640  1.00  0.00    -0.018 A 
HETATM   23  C17 UNL     1     -21.324  30.437  12.540  1.00  0.00     0.013 A 
HETATM   24  C18 UNL     1     -21.233  31.206  13.676  1.00  0.00     0.043 A 
HETATM   25  C19 UNL     1     -20.064  31.870  13.978  1.00  0.00     0.119 A 
HETATM   26  F3  UNL     1     -19.953  32.640  15.101  1.00  0.00    -0.206 F 
HETATM   27  C20 UNL     1     -19.000  31.743  13.119  1.00  0.00     0.085 A 
HETATM   28  C21 UNL     1     -19.110  30.966  11.984  1.00  0.00     0.125 A 
HETATM   29  F4  UNL     1     -18.010  30.874  11.197  1.00  0.00    -0.205 F 
ENDBRANCH  21  22
ENDBRANCH  20  21
ENDBRANCH  18  20
ENDBRANCH  15  18
BRANCH   1  30
HETATM   30  C3  UNL     1     -20.369  33.037   5.127  1.00  0.00     0.327 C 
HETATM   31  O2  UNL     1     -19.273  32.508   4.812  1.00  0.00    -0.256 OA
BRANCH  30  32
HETATM   32  O1  UNL     1     -20.500  34.391   4.995  1.00  0.00    -0.316 OA
BRANCH  32  33
HETATM   33  C2  UNL     1     -20.284  35.226   6.120  1.00  0.00     0.175 C 
HETATM   34  C1  UNL     1     -18.885  35.752   6.047  1.00  0.00     0.034 C 
ENDBRANCH  32  33
ENDBRANCH  30  32
ENDBRANCH   1  30
BRANCH   4  35
HETATM   35  N2  UNL     1     -24.903  32.160   4.726  1.00  0.00    -0.247 N 
ATOM     36  H2  UNL     1     -25.387  31.675   3.971  1.00  0.00     0.196 HD
BRANCH  35  37
HETATM   37  O3  UNL     1     -25.453  33.294   5.228  1.00  0.00    -0.253 OA
BRANCH  37  38
HETATM   38  C6  UNL     1     -26.282  33.376   6.359  1.00  0.00     0.366 C 
BRANCH  38  39
HETATM   39  O4  UNL     1     -27.097  32.253   6.492  1.00  0.00    -0.375 OA
ATOM     40  H4  UNL     1     -26.594  31.467   6.673  1.00  0.00     0.212 HD
ENDBRANCH  38  39
ENDBRANCH  37  38
ENDBRANCH  35  37
ENDBRANCH   4  35
TORSDOF 11
ENDMDL
MODEL 5
REMARK VINA RESULT: -7.489006318      0.792      1.162
REMARK  11 active torsions:
REMARK  status: ('A' for Active; 'I' for Inactive)
REMARK    1  A    between atoms: C2_2  and  O1_3 
REMARK    2  A    between atoms: O1_3  and  C3_4 
REMARK    3  A    between atoms: C3_4  and  C4_6 
REMARK    4  A    between atoms: C5_9  and  N2_10 
REMARK    5  A    between atoms: N2_10  and  O3_12 
REMARK    6  A    between atoms: O3_12  and  C6_13 
REMARK    7  A    between atoms: C6_13  and  O4_14 
REMARK    8  A    between atoms: C13_26  and  N5_27 
REMARK    9  A    between atoms: N5_27  and  C14_29 
REMARK   10  A    between atoms: C14_29  and  C15_30 
REMARK   11  A    between atoms: C15_30  and  C16_31 
ROOT
HETATM    1  C4  UNL     1     -21.366  32.167   5.704  1.00  0.00     0.185 C 
HETATM    2  N1  UNL     1     -22.612  32.438   5.222  1.00  0.00    -0.321 N 
ATOM      3  H1  UNL     1     -22.702  33.354   4.784  1.00  0.00     0.169 HD
HETATM    4  C5  UNL     1     -23.744  31.710   5.222  1.00  0.00     0.141 C 
HETATM    5  C7  UNL     1     -23.830  30.401   5.674  1.00  0.00     0.066 A 
HETATM    6  C8  UNL     1     -24.935  29.740   5.177  1.00  0.00     0.158 A 
HETATM    7  F1  UNL     1     -25.775  30.410   4.349  1.00  0.00    -0.203 F 
HETATM    8  C9  UNL     1     -25.160  28.418   5.534  1.00  0.00     0.126 A 
HETATM    9  N3  UNL     1     -26.312  27.764   5.003  1.00  0.00    -0.096 NA
HETATM   10  C10 UNL     1     -24.304  27.747   6.372  1.00  0.00     0.168 A 
HETATM   11  F2  UNL     1     -24.489  26.460   6.742  1.00  0.00    -0.202 F 
HETATM   12  C11 UNL     1     -23.190  28.446   6.860  1.00  0.00     0.102 A 
HETATM   13  N4  UNL     1     -22.288  27.766   7.715  1.00  0.00    -0.098 NA
HETATM   14  C12 UNL     1     -22.945  29.737   6.531  1.00  0.00     0.052 A 
HETATM   15  C13 UNL     1     -21.794  30.242   7.136  1.00  0.00     0.116 C 
HETATM   16  N6  UNL     1     -21.021  31.183   6.557  1.00  0.00    -0.323 N 
ATOM     17  H6  UNL     1     -20.031  31.145   6.801  1.00  0.00     0.169 HD
ENDROOT
BRANCH  15  18
HETATM   18  N5  UNL     1     -21.517  29.765   8.279  1.00  0.00    -0.375 N 
ATOM     19  H5  UNL     1     -22.144  29.033   8.614  1.00  0.00     0.161 HD
BRANCH  18  20
HETATM   20  C14 UNL     1     -20.450  30.113   9.163  1.00  0.00     0.126 C 
BRANCH  20  21
HETATM   21  C15 UNL     1     -20.538  29.537  10.547  1.00  0.00     0.061 C 
BRANCH  21  22
HETATM   22  C16 UNL     1     -20.002  30.421  11.607  1.00  0.00    -0.018 A 
HETATM   23  C17 UNL     1     -18.617  30.634  11.711  1.00  0.00     0.013 A 
HETATM   24  C18 UNL     1     -18.060  31.428  12.686  1.00  0.00     0.043 A 
HETATM   25  C19 UNL     1     -18.859  32.056  13.615  1.00  0.00     0.119 A 
HETATM   26  F3  UNL     1     -18.326  32.848  14.593  1.00  0.00    -0.206 F 
HETATM   27  C20 UNL     1     -20.218  31.869  13.542  1.00  0.00     0.085 A 
HETATM   28  C21 UNL     1     -20.759  31.069  12.556  1.00  0.00     0.125 A 
HETATM   29  F4  UNL     1     -22.109  30.950  12.537  1.00  0.00    -0.205 F 
ENDBRANCH  21  22
ENDBRANCH  20  21
ENDBRANCH  18  20
ENDBRANCH  15  18
BRANCH   1  30
HETATM   30  C3  UNL     1     -20.298  33.043   5.238  1.00  0.00     0.327 C 
HETATM   31  O2  UNL     1     -20.308  34.234   5.640  1.00  0.00    -0.256 OA
BRANCH  30  32
HETATM   32  O1  UNL     1     -19.296  32.648   4.397  1.00  0.00    -0.316 OA
BRANCH  32  33
HETATM   33  C2  UNL     1     -19.104  33.333   3.170  1.00  0.00     0.175 C 
HETATM   34  C1  UNL     1     -20.194  32.919   2.232  1.00  0.00     0.034 C 
ENDBRANCH  32  33
ENDBRANCH  30  32
ENDBRANCH   1  30
BRANCH   4  35
HETATM   35  N2  UNL     1     -24.837  32.214   4.786  1.00  0.00    -0.247 N 
ATOM     36  H2  UNL     1     -25.312  31.752   4.011  1.00  0.00     0.196 HD
BRANCH  35  37
HETATM   37  O3  UNL     1     -25.389  33.336   5.312  1.00  0.00    -0.253 OA
BRANCH  37  38
HETATM   38  C6  UNL     1     -26.228  33.390   6.437  1.00  0.00     0.366 C 
BRANCH  38  39
HETATM   39  O4  UNL     1     -27.041  32.262   6.538  1.00  0.00    -0.375 OA
ATOM     40  H4  UNL     1     -27.049  31.756   5.734  1.00  0.00     0.212 HD
ENDBRANCH  38  39
ENDBRANCH  37  38
ENDBRANCH  35  37
ENDBRANCH   4  35
TORSDOF 11
ENDMDL
