MODEL 1
REMARK VINA RESULT: -8.808942000      0.000      0.000
REMARK  9 active torsions:
REMARK  status: ('A' for Active; 'I' for Inactive)
REMARK    1  A    between atoms: N5_14  and  C7_15 
REMARK    2  A    between atoms: C7_15  and  C8_16 
REMARK    3  A    between atoms: C8_16  and  C9_17 
REMARK    4  A    between atoms: C9_17  and  C10_18 
REMARK    5  A    between atoms: C14_28  and  N8_29 
REMARK    6  A    between atoms: N8_29  and  N9_31 
REMARK    7  A    between atoms: N9_31  and  C15_33 
REMARK    8  A    between atoms: C15_33  and  C16_34 
REMARK    9  A    between atoms: C18_40  and  O2_41 
ROOT
HETATM    1  N1  UNL     1     -23.284  34.676   6.785  1.00  0.00    -0.191 NA
HETATM    2  C1  UNL     1     -22.861  33.940   7.567  1.00  0.00     0.105 C 
HETATM    3  C2  UNL     1     -22.341  33.042   8.559  1.00  0.00     0.115 A 
HETATM    4  C3  UNL     1     -22.375  33.433   9.890  1.00  0.00     0.141 A 
HETATM    5  N2  UNL     1     -22.911  34.691  10.283  1.00  0.00    -0.081 NA
HETATM    6  N3  UNL     1     -21.891  32.599  10.826  1.00  0.00    -0.328 N 
ATOM      7  H3  UNL     1     -21.922  32.895  11.801  1.00  0.00     0.168 HD
HETATM    8  C4  UNL     1     -21.359  31.374  10.537  1.00  0.00     0.142 A 
HETATM    9  C5  UNL     1     -21.341  31.013   9.194  1.00  0.00     0.108 A 
HETATM   10  C6  UNL     1     -20.771  29.743   9.180  1.00  0.00     0.276 A 
HETATM   11  O1  UNL     1     -20.586  29.078   8.121  1.00  0.00    -0.266 OA
HETATM   12  N4  UNL     1     -20.483  29.404  10.443  1.00  0.00    -0.262 N 
ATOM     13  H4  UNL     1     -20.057  28.521  10.723  1.00  0.00     0.190 HD
HETATM   14  N5  UNL     1     -20.834  30.386  11.290  1.00  0.00    -0.273 N 
HETATM   15  C14 UNL     1     -21.822  31.821   8.180  1.00  0.00     0.091 A 
ENDROOT
BRANCH  15  16
HETATM   16  N8  UNL     1     -21.758  31.401   6.996  1.00  0.00    -0.298 N 
ATOM     17  H8  UNL     1     -21.140  31.948   6.397  1.00  0.00     0.187 HD
BRANCH  16  18
HETATM   18  N9  UNL     1     -22.352  30.357   6.364  1.00  0.00    -0.309 N 
ATOM     19  H9  UNL     1     -21.786  29.648   5.899  1.00  0.00     0.186 HD
BRANCH  18  20
HETATM   20  C15 UNL     1     -23.638  30.268   6.356  1.00  0.00     0.141 C 
BRANCH  20  21
HETATM   21  C16 UNL     1     -24.313  29.036   6.047  1.00  0.00     0.101 A 
HETATM   22  N10 UNL     1     -25.473  28.966   5.339  1.00  0.00    -0.348 N 
HETATM   23  C17 UNL     1     -25.787  27.676   5.257  1.00  0.00     0.183 A 
ATOM     24  H10 UNL     1     -25.998  29.749   4.949  1.00  0.00     0.167 HD
HETATM   25  N11 UNL     1     -24.859  26.917   5.893  1.00  0.00    -0.331 N 
HETATM   26  C18 UNL     1     -23.934  27.747   6.391  1.00  0.00     0.169 A 
ATOM     27  H11 UNL     1     -24.865  25.901   5.976  1.00  0.00     0.168 HD
BRANCH  26  28
HETATM   28  O2  UNL     1     -22.823  27.391   7.104  1.00  0.00    -0.344 OA
ATOM     29  H2  UNL     1     -21.945  27.275   6.760  1.00  0.00     0.219 HD
ENDBRANCH  26  28
ENDBRANCH  20  21
ENDBRANCH  18  20
ENDBRANCH  16  18
ENDBRANCH  15  16
BRANCH  14  30
HETATM   30  C7  UNL     1     -20.650  30.385  12.720  1.00  0.00     0.151 C 
BRANCH  30  31
HETATM   31  C8  UNL     1     -19.260  30.082  13.121  1.00  0.00     0.028 C 
BRANCH  31  32
HETATM   32  C9  UNL     1     -18.310  31.161  12.676  1.00  0.00     0.060 C 
BRANCH  32  33
HETATM   33  C10 UNL     1     -16.944  30.671  12.959  1.00  0.00     0.029 A 
HETATM   34  C11 UNL     1     -15.858  31.186  12.310  1.00  0.00     0.073 A 
HETATM   35  C12 UNL     1     -14.567  30.731  12.570  1.00  0.00     0.175 A 
HETATM   36  F1  UNL     1     -13.466  31.206  11.958  1.00  0.00    -0.201 F 
HETATM   37  C13 UNL     1     -14.440  29.736  13.512  1.00  0.00     0.241 A 
HETATM   38  F2  UNL     1     -13.193  29.245  13.811  1.00  0.00    -0.181 F 
HETATM   39  N6  UNL     1     -15.529  29.252  14.130  1.00  0.00    -0.273 N 
HETATM   40  N7  UNL     1     -16.765  29.705  13.866  1.00  0.00    -0.303 N 
ATOM     41  H6  UNL     1     -15.413  28.514  14.825  1.00  0.00     0.189 HD
ATOM     42  H7  UNL     1     -17.568  29.311  14.357  1.00  0.00     0.186 HD
ENDBRANCH  32  33
ENDBRANCH  31  32
ENDBRANCH  30  31
ENDBRANCH  14  30
TORSDOF 9
ENDMDL
MODEL 2
REMARK VINA RESULT: -8.554771784      3.705      5.092
REMARK  9 active torsions:
REMARK  status: ('A' for Active; 'I' for Inactive)
REMARK    1  A    between atoms: N5_14  and  C7_15 
REMARK    2  A    between atoms: C7_15  and  C8_16 
REMARK    3  A    between atoms: C8_16  and  C9_17 
REMARK    4  A    between atoms: C9_17  and  C10_18 
REMARK    5  A    between atoms: C14_28  and  N8_29 
REMARK    6  A    between atoms: N8_29  and  N9_31 
REMARK    7  A    between atoms: N9_31  and  C15_33 
REMARK    8  A    between atoms: C15_33  and  C16_34 
REMARK    9  A    between atoms: C18_40  and  O2_41 
ROOT
HETATM    1  N1  UNL     1     -22.766  27.657   7.189  1.00  0.00    -0.191 NA
HETATM    2  C1  UNL     1     -22.179  28.123   8.066  1.00  0.00     0.105 C 
HETATM    3  C2  UNL     1     -21.445  28.725   9.143  1.00  0.00     0.115 A 
HETATM    4  C3  UNL     1     -20.925  29.998   8.960  1.00  0.00     0.141 A 
HETATM    5  N2  UNL     1     -21.104  30.708   7.740  1.00  0.00    -0.081 NA
HETATM    6  N3  UNL     1     -20.236  30.570   9.963  1.00  0.00    -0.328 N 
ATOM      7  H3  UNL     1     -19.859  31.506   9.819  1.00  0.00     0.168 HD
HETATM    8  C4  UNL     1     -20.016  29.961  11.166  1.00  0.00     0.142 A 
HETATM    9  C5  UNL     1     -20.552  28.686  11.317  1.00  0.00     0.108 A 
HETATM   10  C6  UNL     1     -20.200  28.308  12.608  1.00  0.00     0.276 A 
HETATM   11  O1  UNL     1     -20.515  27.193  13.115  1.00  0.00    -0.266 OA
HETATM   12  N4  UNL     1     -19.504  29.311  13.159  1.00  0.00    -0.262 N 
ATOM     13  H4  UNL     1     -19.122  29.301  14.105  1.00  0.00     0.190 HD
HETATM   14  N5  UNL     1     -19.380  30.332  12.295  1.00  0.00    -0.273 N 
HETATM   15  C14 UNL     1     -21.270  28.038  10.327  1.00  0.00     0.091 A 
ENDROOT
BRANCH  15  16
HETATM   16  N8  UNL     1     -21.712  26.885  10.564  1.00  0.00    -0.298 N 
ATOM     17  H8  UNL     1     -21.189  26.140  10.103  1.00  0.00     0.187 HD
BRANCH  16  18
HETATM   18  N9  UNL     1     -22.750  26.441  11.317  1.00  0.00    -0.309 N 
ATOM     19  H9  UNL     1     -23.251  27.084  11.930  1.00  0.00     0.186 HD
BRANCH  18  20
HETATM   20  C15 UNL     1     -23.098  25.202  11.252  1.00  0.00     0.141 C 
BRANCH  20  21
HETATM   21  C16 UNL     1     -23.135  24.361  12.419  1.00  0.00     0.101 A 
HETATM   22  N10 UNL     1     -24.196  24.293  13.269  1.00  0.00    -0.348 N 
HETATM   23  C17 UNL     1     -23.864  23.419  14.215  1.00  0.00     0.183 A 
ATOM     24  H10 UNL     1     -25.071  24.810  13.195  1.00  0.00     0.167 HD
HETATM   25  N11 UNL     1     -22.619  22.924  13.994  1.00  0.00    -0.331 N 
HETATM   26  C18 UNL     1     -22.151  23.500  12.880  1.00  0.00     0.169 A 
ATOM     27  H11 UNL     1     -22.130  22.240  14.571  1.00  0.00     0.168 HD
BRANCH  26  28
HETATM   28  O2  UNL     1     -20.930  23.280  12.304  1.00  0.00    -0.344 OA
ATOM     29  H2  UNL     1     -20.772  22.909  11.443  1.00  0.00     0.219 HD
ENDBRANCH  26  28
ENDBRANCH  20  21
ENDBRANCH  18  20
ENDBRANCH  16  18
ENDBRANCH  15  16
BRANCH  14  30
HETATM   30  C7  UNL     1     -18.672  31.567  12.530  1.00  0.00     0.151 C 
BRANCH  30  31
HETATM   31  C8  UNL     1     -17.316  31.357  13.078  1.00  0.00     0.028 C 
BRANCH  31  32
HETATM   32  C9  UNL     1     -16.348  30.933  12.007  1.00  0.00     0.060 C 
BRANCH  32  33
HETATM   33  C10 UNL     1     -15.080  30.593  12.688  1.00  0.00     0.029 A 
HETATM   34  C11 UNL     1     -13.933  31.294  12.442  1.00  0.00     0.073 A 
HETATM   35  C12 UNL     1     -12.734  30.980  13.078  1.00  0.00     0.175 A 
HETATM   36  F1  UNL     1     -11.580  31.641  12.870  1.00  0.00    -0.201 F 
HETATM   37  C13 UNL     1     -12.761  29.929  13.966  1.00  0.00     0.241 A 
HETATM   38  F2  UNL     1     -11.609  29.572  14.624  1.00  0.00    -0.181 F 
HETATM   39  N6  UNL     1     -13.905  29.262  14.183  1.00  0.00    -0.273 N 
HETATM   40  N7  UNL     1     -15.051  29.579  13.560  1.00  0.00    -0.303 N 
ATOM     41  H6  UNL     1     -13.903  28.485  14.845  1.00  0.00     0.189 HD
ATOM     42  H7  UNL     1     -15.900  29.048  13.752  1.00  0.00     0.186 HD
ENDBRANCH  32  33
ENDBRANCH  31  32
ENDBRANCH  30  31
ENDBRANCH  14  30
TORSDOF 9
ENDMDL
MODEL 3
REMARK VINA RESULT: -8.047334698      3.812      5.285
REMARK  9 active torsions:
REMARK  status: ('A' for Active; 'I' for Inactive)
REMARK    1  A    between atoms: N5_14  and  C7_15 
REMARK    2  A    between atoms: C7_15  and  C8_16 
REMARK    3  A    between atoms: C8_16  and  C9_17 
REMARK    4  A    between atoms: C9_17  and  C10_18 
REMARK    5  A    between atoms: C14_28  and  N8_29 
REMARK    6  A    between atoms: N8_29  and  N9_31 
REMARK    7  A    between atoms: N9_31  and  C15_33 
REMARK    8  A    between atoms: C15_33  and  C16_34 
REMARK    9  A    between atoms: C18_40  and  O2_41 
ROOT
HETATM    1  N1  UNL     1     -23.779  34.820   9.293  1.00  0.00    -0.191 NA
HETATM    2  C1  UNL     1     -23.101  34.178   9.971  1.00  0.00     0.105 C 
HETATM    3  C2  UNL     1     -22.253  33.363  10.794  1.00  0.00     0.115 A 
HETATM    4  C3  UNL     1     -21.642  32.256  10.224  1.00  0.00     0.141 A 
HETATM    5  N2  UNL     1     -21.838  31.919   8.854  1.00  0.00    -0.081 NA
HETATM    6  N3  UNL     1     -20.846  31.487  10.986  1.00  0.00    -0.328 N 
ATOM      7  H3  UNL     1     -20.400  30.676  10.556  1.00  0.00     0.168 HD
HETATM    8  C4  UNL     1     -20.603  31.736  12.307  1.00  0.00     0.142 A 
HETATM    9  C5  UNL     1     -21.229  32.853  12.847  1.00  0.00     0.108 A 
HETATM   10  C6  UNL     1     -20.813  32.883  14.174  1.00  0.00     0.276 A 
HETATM   11  O1  UNL     1     -21.179  33.769  14.997  1.00  0.00    -0.266 OA
HETATM   12  N4  UNL     1     -19.995  31.841  14.375  1.00  0.00    -0.262 N 
ATOM     13  H4  UNL     1     -19.542  31.621  15.262  1.00  0.00     0.190 HD
HETATM   14  N5  UNL     1     -19.852  31.126  13.247  1.00  0.00    -0.273 N 
HETATM   15  C14 UNL     1     -22.061  33.688  12.121  1.00  0.00     0.091 A 
ENDROOT
BRANCH  15  16
HETATM   16  N8  UNL     1     -22.581  34.673  12.705  1.00  0.00    -0.298 N 
ATOM     17  H8  UNL     1     -22.147  35.566  12.472  1.00  0.00     0.187 HD
BRANCH  16  18
HETATM   18  N9  UNL     1     -23.608  34.774  13.586  1.00  0.00    -0.309 N 
ATOM     19  H9  UNL     1     -23.671  35.577  14.211  1.00  0.00     0.186 HD
BRANCH  18  20
HETATM   20  C15 UNL     1     -24.504  33.849  13.627  1.00  0.00     0.141 C 
BRANCH  20  21
HETATM   21  C16 UNL     1     -25.703  33.916  12.834  1.00  0.00     0.101 A 
HETATM   22  N10 UNL     1     -26.662  32.949  12.831  1.00  0.00    -0.348 N 
HETATM   23  C17 UNL     1     -27.605  33.359  11.988  1.00  0.00     0.183 A 
ATOM     24  H10 UNL     1     -26.658  32.083  13.370  1.00  0.00     0.167 HD
HETATM   25  N11 UNL     1     -27.277  34.561  11.450  1.00  0.00    -0.331 N 
HETATM   26  C18 UNL     1     -26.096  34.923  11.966  1.00  0.00     0.169 A 
ATOM     27  H11 UNL     1     -27.829  35.092  10.777  1.00  0.00     0.168 HD
BRANCH  26  28
HETATM   28  O2  UNL     1     -25.405  36.070  11.689  1.00  0.00    -0.344 OA
ATOM     29  H2  UNL     1     -24.508  36.128  11.384  1.00  0.00     0.219 HD
ENDBRANCH  26  28
ENDBRANCH  20  21
ENDBRANCH  18  20
ENDBRANCH  16  18
ENDBRANCH  15  16
BRANCH  14  30
HETATM   30  C7  UNL     1     -19.071  29.923  13.092  1.00  0.00     0.151 C 
BRANCH  30  31
HETATM   31  C8  UNL     1     -17.834  30.138  12.312  1.00  0.00     0.028 C 
BRANCH  31  32
HETATM   32  C9  UNL     1     -16.930  31.141  12.978  1.00  0.00     0.060 C 
BRANCH  32  33
HETATM   33  C10 UNL     1     -15.595  30.514  13.076  1.00  0.00     0.029 A 
HETATM   34  C11 UNL     1     -14.513  31.046  12.435  1.00  0.00     0.073 A 
HETATM   35  C12 UNL     1     -13.251  30.462  12.522  1.00  0.00     0.175 A 
HETATM   36  F1  UNL     1     -12.156  30.949  11.909  1.00  0.00    -0.201 F 
HETATM   37  C13 UNL     1     -13.149  29.321  13.284  1.00  0.00     0.241 A 
HETATM   38  F2  UNL     1     -11.930  28.699  13.407  1.00  0.00    -0.181 F 
HETATM   39  N6  UNL     1     -14.233  28.825  13.900  1.00  0.00    -0.273 N 
HETATM   40  N7  UNL     1     -15.441  29.402  13.805  1.00  0.00    -0.303 N 
ATOM     41  H6  UNL     1     -14.135  27.977  14.460  1.00  0.00     0.189 HD
ATOM     42  H7  UNL     1     -16.241  28.994  14.288  1.00  0.00     0.186 HD
ENDBRANCH  32  33
ENDBRANCH  31  32
ENDBRANCH  30  31
ENDBRANCH  14  30
TORSDOF 9
ENDMDL
MODEL 4
REMARK VINA RESULT: -7.956726510      2.998      3.954
REMARK  9 active torsions:
REMARK  status: ('A' for Active; 'I' for Inactive)
REMARK    1  A    between atoms: N5_14  and  C7_15 
REMARK    2  A    between atoms: C7_15  and  C8_16 
REMARK    3  A    between atoms: C8_16  and  C9_17 
REMARK    4  A    between atoms: C9_17  and  C10_18 
REMARK    5  A    between atoms: C14_28  and  N8_29 
REMARK    6  A    between atoms: N8_29  and  N9_31 
REMARK    7  A    between atoms: N9_31  and  C15_33 
REMARK    8  A    between atoms: C15_33  and  C16_34 
REMARK    9  A    between atoms: C18_40  and  O2_41 
ROOT
HETATM    1  N1  UNL     1     -23.273  35.135  12.368  1.00  0.00    -0.191 NA
HETATM    2  C1  UNL     1     -22.507  34.272  12.381  1.00  0.00     0.105 C 
HETATM    3  C2  UNL     1     -21.546  33.207  12.420  1.00  0.00     0.115 A 
HETATM    4  C3  UNL     1     -20.743  33.080  13.544  1.00  0.00     0.141 A 
HETATM    5  N2  UNL     1     -20.856  33.976  14.645  1.00  0.00    -0.081 NA
HETATM    6  N3  UNL     1     -19.841  32.085  13.591  1.00  0.00    -0.328 N 
ATOM      7  H3  UNL     1     -19.257  32.000  14.423  1.00  0.00     0.168 HD
HETATM    8  C4  UNL     1     -19.666  31.182  12.581  1.00  0.00     0.142 A 
HETATM    9  C5  UNL     1     -20.487  31.336  11.469  1.00  0.00     0.108 A 
HETATM   10  C6  UNL     1     -20.119  30.303  10.614  1.00  0.00     0.276 A 
HETATM   11  O1  UNL     1     -20.653  30.113   9.485  1.00  0.00    -0.266 OA
HETATM   12  N4  UNL     1     -19.145  29.601  11.208  1.00  0.00    -0.262 N 
ATOM     13  H4  UNL     1     -18.688  28.784  10.802  1.00  0.00     0.190 HD
HETATM   14  N5  UNL     1     -18.852  30.121  12.411  1.00  0.00    -0.273 N 
HETATM   15  C14 UNL     1     -21.436  32.337  11.355  1.00  0.00     0.091 A 
ENDROOT
BRANCH  15  16
HETATM   16  N8  UNL     1     -22.128  32.390  10.306  1.00  0.00    -0.298 N 
ATOM     17  H8  UNL     1     -22.941  31.775  10.316  1.00  0.00     0.187 HD
BRANCH  16  18
HETATM   18  N9  UNL     1     -21.999  33.111   9.162  1.00  0.00    -0.309 N 
ATOM     19  H9  UNL     1     -21.624  34.058   9.192  1.00  0.00     0.186 HD
BRANCH  18  20
HETATM   20  C15 UNL     1     -22.354  32.588   8.039  1.00  0.00     0.141 C 
BRANCH  20  21
HETATM   21  C16 UNL     1     -21.526  32.673   6.866  1.00  0.00     0.101 A 
HETATM   22  N10 UNL     1     -21.414  33.792   6.099  1.00  0.00    -0.348 N 
HETATM   23  C17 UNL     1     -20.570  33.490   5.116  1.00  0.00     0.183 A 
ATOM     24  H10 UNL     1     -21.883  34.684   6.248  1.00  0.00     0.167 HD
HETATM   25  N11 UNL     1     -20.138  32.209   5.232  1.00  0.00    -0.331 N 
HETATM   26  C18 UNL     1     -20.724  31.685   6.316  1.00  0.00     0.169 A 
ATOM     27  H11 UNL     1     -19.487  31.732   4.609  1.00  0.00     0.168 HD
BRANCH  26  28
HETATM   28  O2  UNL     1     -20.561  30.413   6.793  1.00  0.00    -0.344 OA
ATOM     29  H2  UNL     1     -20.308  29.650   6.287  1.00  0.00     0.219 HD
ENDBRANCH  26  28
ENDBRANCH  20  21
ENDBRANCH  18  20
ENDBRANCH  16  18
ENDBRANCH  15  16
BRANCH  14  30
HETATM   30  C7  UNL     1     -17.838  29.647  13.322  1.00  0.00     0.151 C 
BRANCH  30  31
HETATM   31  C8  UNL     1     -16.567  30.390  13.203  1.00  0.00     0.028 C 
BRANCH  31  32
HETATM   32  C9  UNL     1     -15.389  29.532  13.580  1.00  0.00     0.060 C 
BRANCH  32  33
HETATM   33  C10 UNL     1     -14.174  30.329  13.306  1.00  0.00     0.029 A 
HETATM   34  C11 UNL     1     -14.037  31.036  12.146  1.00  0.00     0.073 A 
HETATM   35  C12 UNL     1     -12.895  31.789  11.880  1.00  0.00     0.175 A 
HETATM   36  F1  UNL     1     -12.713  32.503  10.753  1.00  0.00    -0.201 F 
HETATM   37  C13 UNL     1     -11.912  31.785  12.843  1.00  0.00     0.241 A 
HETATM   38  F2  UNL     1     -10.763  32.508  12.637  1.00  0.00    -0.181 F 
HETATM   39  N6  UNL     1     -12.080  31.078  13.971  1.00  0.00    -0.273 N 
HETATM   40  N7  UNL     1     -13.188  30.358  14.210  1.00  0.00    -0.303 N 
ATOM     41  H6  UNL     1     -11.339  31.087  14.673  1.00  0.00     0.189 HD
ATOM     42  H7  UNL     1     -13.278  29.834  15.081  1.00  0.00     0.186 HD
ENDBRANCH  32  33
ENDBRANCH  31  32
ENDBRANCH  30  31
ENDBRANCH  14  30
TORSDOF 9
ENDMDL
MODEL 5
REMARK VINA RESULT: -7.915030381      2.101      3.123
REMARK  9 active torsions:
REMARK  status: ('A' for Active; 'I' for Inactive)
REMARK    1  A    between atoms: N5_14  and  C7_15 
REMARK    2  A    between atoms: C7_15  and  C8_16 
REMARK    3  A    between atoms: C8_16  and  C9_17 
REMARK    4  A    between atoms: C9_17  and  C10_18 
REMARK    5  A    between atoms: C14_28  and  N8_29 
REMARK    6  A    between atoms: N8_29  and  N9_31 
REMARK    7  A    between atoms: N9_31  and  C15_33 
REMARK    8  A    between atoms: C15_33  and  C16_34 
REMARK    9  A    between atoms: C18_40  and  O2_41 
ROOT
HETATM    1  N1  UNL     1     -23.709  35.410  12.083  1.00  0.00    -0.191 NA
HETATM    2  C1  UNL     1     -22.948  34.543  12.090  1.00  0.00     0.105 C 
HETATM    3  C2  UNL     1     -21.994  33.471  12.122  1.00  0.00     0.115 A 
HETATM    4  C3  UNL     1     -21.276  33.259  13.290  1.00  0.00     0.141 A 
HETATM    5  N2  UNL     1     -21.467  34.073  14.441  1.00  0.00    -0.081 NA
HETATM    6  N3  UNL     1     -20.380  32.257  13.330  1.00  0.00    -0.328 N 
ATOM      7  H3  UNL     1     -19.859  32.108  14.194  1.00  0.00     0.168 HD
HETATM    8  C4  UNL     1     -20.134  31.428  12.273  1.00  0.00     0.142 A 
HETATM    9  C5  UNL     1     -20.870  31.667  11.118  1.00  0.00     0.108 A 
HETATM   10  C6  UNL     1     -20.442  30.696  10.220  1.00  0.00     0.276 A 
HETATM   11  O1  UNL     1     -20.892  30.592   9.043  1.00  0.00    -0.266 OA
HETATM   12  N4  UNL     1     -19.515  29.946  10.831  1.00  0.00    -0.262 N 
ATOM     13  H4  UNL     1     -19.031  29.158  10.401  1.00  0.00     0.190 HD
HETATM   14  N5  UNL     1     -19.310  30.376  12.086  1.00  0.00    -0.273 N 
HETATM   15  C14 UNL     1     -21.807  32.680  11.007  1.00  0.00     0.091 A 
ENDROOT
BRANCH  15  16
HETATM   16  N8  UNL     1     -22.420  32.813   9.917  1.00  0.00    -0.298 N 
ATOM     17  H8  UNL     1     -23.377  32.460   9.935  1.00  0.00     0.187 HD
BRANCH  16  18
HETATM   18  N9  UNL     1     -22.051  33.338   8.720  1.00  0.00    -0.309 N 
ATOM     19  H9  UNL     1     -21.083  33.615   8.557  1.00  0.00     0.186 HD
BRANCH  18  20
HETATM   20  C15 UNL     1     -22.933  33.483   7.792  1.00  0.00     0.141 C 
BRANCH  20  21
HETATM   21  C16 UNL     1     -23.090  32.520   6.735  1.00  0.00     0.101 A 
HETATM   22  N10 UNL     1     -24.291  32.193   6.183  1.00  0.00    -0.348 N 
HETATM   23  C17 UNL     1     -24.038  31.281   5.249  1.00  0.00     0.183 A 
ATOM     24  H10 UNL     1     -25.203  32.574   6.434  1.00  0.00     0.167 HD
HETATM   25  N11 UNL     1     -22.709  31.014   5.188  1.00  0.00    -0.331 N 
HETATM   26  C18 UNL     1     -22.104  31.776   6.106  1.00  0.00     0.169 A 
ATOM     27  H11 UNL     1     -22.254  30.353   4.557  1.00  0.00     0.168 HD
BRANCH  26  28
HETATM   28  O2  UNL     1     -20.763  31.815   6.374  1.00  0.00    -0.344 OA
ATOM     29  H2  UNL     1     -20.156  31.086   6.320  1.00  0.00     0.219 HD
ENDBRANCH  26  28
ENDBRANCH  20  21
ENDBRANCH  18  20
ENDBRANCH  16  18
ENDBRANCH  15  16
BRANCH  14  30
HETATM   30  C7  UNL     1     -18.367  29.831  13.032  1.00  0.00     0.151 C 
BRANCH  30  31
HETATM   31  C8  UNL     1     -17.322  30.799  13.424  1.00  0.00     0.028 C 
BRANCH  31  32
HETATM   32  C9  UNL     1     -16.341  31.034  12.307  1.00  0.00     0.060 C 
BRANCH  32  33
HETATM   33  C10 UNL     1     -15.010  30.641  12.816  1.00  0.00     0.029 A 
HETATM   34  C11 UNL     1     -13.869  31.223  12.341  1.00  0.00     0.073 A 
HETATM   35  C12 UNL     1     -12.611  30.859  12.816  1.00  0.00     0.175 A 
HETATM   36  F1  UNL     1     -11.459  31.403  12.380  1.00  0.00    -0.201 F 
HETATM   37  C13 UNL     1     -12.574  29.883  13.785  1.00  0.00     0.241 A 
HETATM   38  F2  UNL     1     -11.361  29.481  14.291  1.00  0.00    -0.181 F 
HETATM   39  N6  UNL     1     -13.714  29.332  14.228  1.00  0.00    -0.273 N 
HETATM   40  N7  UNL     1     -14.918  29.697  13.759  1.00  0.00    -0.303 N 
ATOM     41  H6  UNL     1     -13.665  28.610  14.947  1.00  0.00     0.189 HD
ATOM     42  H7  UNL     1     -15.762  29.254  14.122  1.00  0.00     0.186 HD
ENDBRANCH  32  33
ENDBRANCH  31  32
ENDBRANCH  30  31
ENDBRANCH  14  30
TORSDOF 9
ENDMDL
