MODEL 1
REMARK VINA RESULT: -6.586488172      0.000      0.000
REMARK  10 active torsions:
REMARK  status: ('A' for Active; 'I' for Inactive)
REMARK    1  A    between atoms: O1_2  and  N1_3 
REMARK    2  A    between atoms: N1_3  and  C2_4 
REMARK    3  A    between atoms: C2_4  and  C3_5 
REMARK    4  A    between atoms: C4_6  and  N2_7 
REMARK    5  A    between atoms: N3_10  and  C7_11 
REMARK    6  A    between atoms: C10_18  and  N6_19 
REMARK    7  A    between atoms: N8_25  and  C12_26 
REMARK    8  A    between atoms: C12_26  and  C13_27 
REMARK    9  A    between atoms: C13_27  and  C14_28 
REMARK   10  A    between atoms: C19_39  and  N11_40 
ROOT
HETATM    1  N2  UNL     1     -20.731  29.855   9.502  1.00  0.00    -0.363 N 
HETATM    2  C5  UNL     1     -20.899  28.522   8.850  1.00  0.00     0.145 C 
HETATM    3  C6  UNL     1     -22.333  28.573   8.335  1.00  0.00     0.161 C 
HETATM    4  N3  UNL     1     -22.362  29.590   7.275  1.00  0.00    -0.214 N 
HETATM    5  C16 UNL     1     -21.257  30.503   7.237  1.00  0.00     0.161 C 
HETATM    6  C17 UNL     1     -20.890  30.962   8.657  1.00  0.00     0.145 C 
ENDROOT
BRANCH   4   7
HETATM    7  C7  UNL     1     -23.498  29.554   6.438  1.00  0.00     0.684 A 
HETATM    8  N4  UNL     1     -24.041  28.335   6.121  1.00  0.00    -0.186 N 
HETATM    9  C8  UNL     1     -25.099  28.479   5.311  1.00  0.00     0.110 A 
ATOM     10  H4  UNL     1     -23.688  27.439   6.457  1.00  0.00     0.184 HD
HETATM   11  C9  UNL     1     -25.981  27.583   4.701  1.00  0.00     0.140 A 
HETATM   12  C11 UNL     1     -25.230  29.808   5.113  1.00  0.00     0.167 A 
HETATM   13  N5  UNL     1     -26.951  28.090   3.918  1.00  0.00    -0.200 N 
HETATM   14  C10 UNL     1     -27.058  29.410   3.734  1.00  0.00     0.677 A 
ATOM     15  H5  UNL     1     -27.610  27.461   3.460  1.00  0.00     0.183 HD
HETATM   16  N7  UNL     1     -26.212  30.283   4.319  1.00  0.00    -0.174 N 
ATOM     17  H7  UNL     1     -26.314  31.286   4.166  1.00  0.00     0.186 HD
HETATM   18  N8  UNL     1     -24.234  30.437   5.816  1.00  0.00    -0.165 N 
BRANCH  14  19
HETATM   19  N6  UNL     1     -27.967  29.830   2.925  1.00  0.00    -0.234 N 
ATOM     20  H62 UNL     1     -28.775  29.246   2.713  1.00  0.00     0.174 HD
ATOM     21  H61 UNL     1     -27.868  30.772   2.549  1.00  0.00     0.174 HD
ENDBRANCH  14  19
BRANCH  18  22
HETATM   22  C12 UNL     1     -24.097  31.869   5.819  1.00  0.00     0.155 C 
BRANCH  22  23
HETATM   23  C13 UNL     1     -23.704  32.461   4.523  1.00  0.00     0.099 C 
BRANCH  23  24
HETATM   24  C14 UNL     1     -22.203  32.448   4.264  1.00  0.00     0.241 C 
HETATM   25  C15 UNL     1     -22.023  33.263   2.953  1.00  0.00     0.090 C 
HETATM   26  F1  UNL     1     -21.698  31.210   4.087  1.00  0.00    -0.207 F 
HETATM   27  F2  UNL     1     -21.612  33.150   5.297  1.00  0.00    -0.207 F 
ENDBRANCH  23  24
ENDBRANCH  22  23
ENDBRANCH  18  22
ENDBRANCH   4   7
BRANCH   1  28
HETATM   28  C4  UNL     1     -20.557  29.745  10.881  1.00  0.00     0.120 A 
HETATM   29  C3  UNL     1     -20.885  30.765  11.745  1.00  0.00     0.083 A 
HETATM   30  C19 UNL     1     -20.637  30.665  13.120  1.00  0.00     0.116 A 
HETATM   31  N10 UNL     1     -20.056  29.485  13.547  1.00  0.00    -0.338 N 
HETATM   32  C18 UNL     1     -19.734  28.484  12.726  1.00  0.00     0.183 A 
ATOM     33  H10 UNL     1     -19.862  29.375  14.543  1.00  0.00     0.168 HD
HETATM   34  N9  UNL     1     -19.980  28.616  11.419  1.00  0.00    -0.338 N 
ATOM     35  H9  UNL     1     -19.730  27.849  10.794  1.00  0.00     0.168 HD
BRANCH  29  36
HETATM   36  C2  UNL     1     -21.500  31.951  11.206  1.00  0.00     0.237 C 
BRANCH  36  37
HETATM   37  N1  UNL     1     -21.387  33.100  11.480  1.00  0.00    -0.294 NA
BRANCH  37  38
HETATM   38  O1  UNL     1     -21.223  34.356  11.707  1.00  0.00    -0.215 OA
HETATM   39  C1  UNL     1     -21.208  34.931  13.056  1.00  0.00     0.255 C 
ENDBRANCH  37  38
ENDBRANCH  36  37
ENDBRANCH  29  36
BRANCH  30  40
HETATM   40  N11 UNL     1     -20.852  31.526  13.978  1.00  0.00    -0.385 N 
ATOM     41 2H11 UNL     1     -20.236  31.531  14.792  1.00  0.00     0.157 HD
ATOM     42 1H11 UNL     1     -21.565  32.254  13.952  1.00  0.00     0.157 HD
ENDBRANCH  30  40
ENDBRANCH   1  28
TORSDOF 10
ENDMDL
MODEL 2
REMARK VINA RESULT: -6.549443611      4.469      8.103
REMARK  10 active torsions:
REMARK  status: ('A' for Active; 'I' for Inactive)
REMARK    1  A    between atoms: O1_2  and  N1_3 
REMARK    2  A    between atoms: N1_3  and  C2_4 
REMARK    3  A    between atoms: C2_4  and  C3_5 
REMARK    4  A    between atoms: C4_6  and  N2_7 
REMARK    5  A    between atoms: N3_10  and  C7_11 
REMARK    6  A    between atoms: C10_18  and  N6_19 
REMARK    7  A    between atoms: N8_25  and  C12_26 
REMARK    8  A    between atoms: C12_26  and  C13_27 
REMARK    9  A    between atoms: C13_27  and  C14_28 
REMARK   10  A    between atoms: C19_39  and  N11_40 
ROOT
HETATM    1  N2  UNL     1     -23.714  31.029   5.933  1.00  0.00    -0.363 N 
HETATM    2  C5  UNL     1     -22.737  31.421   6.992  1.00  0.00     0.145 C 
HETATM    3  C6  UNL     1     -21.509  31.831   6.186  1.00  0.00     0.161 C 
HETATM    4  N3  UNL     1     -21.877  33.049   5.451  1.00  0.00    -0.214 N 
HETATM    5  C16 UNL     1     -23.279  33.328   5.341  1.00  0.00     0.161 C 
HETATM    6  C17 UNL     1     -24.060  32.042   5.028  1.00  0.00     0.145 C 
ENDROOT
BRANCH   4   7
HETATM    7  C7  UNL     1     -20.794  33.781   4.920  1.00  0.00     0.684 A 
HETATM    8  N4  UNL     1     -19.812  34.214   5.775  1.00  0.00    -0.186 N 
HETATM    9  C8  UNL     1     -18.871  34.902   5.113  1.00  0.00     0.110 A 
ATOM     10  H4  UNL     1     -19.800  34.037   6.778  1.00  0.00     0.184 HD
HETATM   11  C9  UNL     1     -17.694  35.551   5.498  1.00  0.00     0.140 A 
HETATM   12  C11 UNL     1     -19.260  34.904   3.820  1.00  0.00     0.167 A 
HETATM   13  N5  UNL     1     -16.976  36.170   4.543  1.00  0.00    -0.200 N 
HETATM   14  C10 UNL     1     -17.384  36.161   3.270  1.00  0.00     0.677 A 
ATOM     15  H5  UNL     1     -16.112  36.650   4.794  1.00  0.00     0.183 HD
HETATM   16  N7  UNL     1     -18.518  35.536   2.888  1.00  0.00    -0.174 N 
ATOM     17  H7  UNL     1     -18.808  35.541   1.910  1.00  0.00     0.186 HD
HETATM   18  N8  UNL     1     -20.441  34.210   3.737  1.00  0.00    -0.165 N 
BRANCH  14  19
HETATM   19  N6  UNL     1     -16.687  36.822   2.414  1.00  0.00    -0.234 N 
ATOM     20  H62 UNL     1     -16.379  36.377   1.549  1.00  0.00     0.174 HD
ATOM     21  H61 UNL     1     -16.498  37.803   2.612  1.00  0.00     0.174 HD
ENDBRANCH  14  19
BRANCH  18  22
HETATM   22  C12 UNL     1     -21.122  34.022   2.484  1.00  0.00     0.155 C 
BRANCH  22  23
HETATM   23  C13 UNL     1     -20.908  32.704   1.849  1.00  0.00     0.099 C 
BRANCH  23  24
HETATM   24  C14 UNL     1     -19.990  32.742   0.634  1.00  0.00     0.241 C 
HETATM   25  C15 UNL     1     -20.283  34.113  -0.038  1.00  0.00     0.090 C 
HETATM   26  F1  UNL     1     -20.231  31.756  -0.254  1.00  0.00    -0.207 F 
HETATM   27  F2  UNL     1     -18.694  32.760   1.111  1.00  0.00    -0.207 F 
ENDBRANCH  23  24
ENDBRANCH  22  23
ENDBRANCH  18  22
ENDBRANCH   4   7
BRANCH   1  28
HETATM   28  C4  UNL     1     -24.017  29.669   5.979  1.00  0.00     0.120 A 
HETATM   29  C3  UNL     1     -25.130  29.145   5.361  1.00  0.00     0.083 A 
HETATM   30  C19 UNL     1     -25.457  27.787   5.477  1.00  0.00     0.116 A 
HETATM   31  N10 UNL     1     -24.595  27.018   6.236  1.00  0.00    -0.338 N 
HETATM   32  C18 UNL     1     -23.510  27.506   6.838  1.00  0.00     0.183 A 
ATOM     33  H10 UNL     1     -24.799  26.024   6.341  1.00  0.00     0.168 HD
HETATM   34  N9  UNL     1     -23.230  28.808   6.711  1.00  0.00    -0.338 N 
ATOM     35  H9  UNL     1     -22.400  29.178   7.176  1.00  0.00     0.168 HD
BRANCH  29  36
HETATM   36  C2  UNL     1     -25.962  30.024   4.581  1.00  0.00     0.237 C 
BRANCH  36  37
HETATM   37  N1  UNL     1     -26.798  29.813   3.766  1.00  0.00    -0.294 NA
BRANCH  37  38
HETATM   38  O1  UNL     1     -27.685  29.504   2.887  1.00  0.00    -0.215 OA
HETATM   39  C1  UNL     1     -29.126  29.644   3.118  1.00  0.00     0.255 C 
ENDBRANCH  37  38
ENDBRANCH  36  37
ENDBRANCH  29  36
BRANCH  30  40
HETATM   40  N11 UNL     1     -26.445  27.218   5.004  1.00  0.00    -0.385 N 
ATOM     41 2H11 UNL     1     -26.605  27.326   4.003  1.00  0.00     0.157 HD
ATOM     42 1H11 UNL     1     -27.110  26.627   5.502  1.00  0.00     0.157 HD
ENDBRANCH  30  40
ENDBRANCH   1  28
TORSDOF 10
ENDMDL
MODEL 3
REMARK VINA RESULT: -6.457701296      4.328      8.241
REMARK  10 active torsions:
REMARK  status: ('A' for Active; 'I' for Inactive)
REMARK    1  A    between atoms: O1_2  and  N1_3 
REMARK    2  A    between atoms: N1_3  and  C2_4 
REMARK    3  A    between atoms: C2_4  and  C3_5 
REMARK    4  A    between atoms: C4_6  and  N2_7 
REMARK    5  A    between atoms: N3_10  and  C7_11 
REMARK    6  A    between atoms: C10_18  and  N6_19 
REMARK    7  A    between atoms: N8_25  and  C12_26 
REMARK    8  A    between atoms: C12_26  and  C13_27 
REMARK    9  A    between atoms: C13_27  and  C14_28 
REMARK   10  A    between atoms: C19_39  and  N11_40 
ROOT
HETATM    1  N2  UNL     1     -23.850  31.179   5.713  1.00  0.00    -0.363 N 
HETATM    2  C5  UNL     1     -23.534  31.787   7.039  1.00  0.00     0.145 C 
HETATM    3  C6  UNL     1     -22.078  32.210   6.880  1.00  0.00     0.161 C 
HETATM    4  N3  UNL     1     -22.062  33.290   5.884  1.00  0.00    -0.214 N 
HETATM    5  C16 UNL     1     -23.232  33.420   5.066  1.00  0.00     0.161 C 
HETATM    6  C17 UNL     1     -23.726  32.037   4.612  1.00  0.00     0.145 C 
ENDROOT
BRANCH   4   7
HETATM    7  C7  UNL     1     -20.874  34.052   5.842  1.00  0.00     0.684 A 
HETATM    8  N4  UNL     1     -20.780  35.165   6.638  1.00  0.00    -0.186 N 
HETATM    9  C8  UNL     1     -19.600  35.777   6.467  1.00  0.00     0.110 A 
ATOM     10  H4  UNL     1     -21.510  35.484   7.274  1.00  0.00     0.184 HD
HETATM   11  C9  UNL     1     -19.016  36.925   7.010  1.00  0.00     0.140 A 
HETATM   12  C11 UNL     1     -18.935  35.041   5.551  1.00  0.00     0.167 A 
HETATM   13  N5  UNL     1     -17.784  37.263   6.589  1.00  0.00    -0.200 N 
HETATM   14  C10 UNL     1     -17.147  36.519   5.678  1.00  0.00     0.677 A 
ATOM     15  H5  UNL     1     -17.331  38.094   6.968  1.00  0.00     0.183 HD
HETATM   16  N7  UNL     1     -17.701  35.409   5.148  1.00  0.00    -0.174 N 
ATOM     17  H7  UNL     1     -17.196  34.857   4.455  1.00  0.00     0.186 HD
HETATM   18  N8  UNL     1     -19.743  33.993   5.189  1.00  0.00    -0.165 N 
BRANCH  14  19
HETATM   19  N6  UNL     1     -15.996  36.928   5.270  1.00  0.00    -0.234 N 
ATOM     20  H62 UNL     1     -15.913  37.813   4.771  1.00  0.00     0.174 HD
ATOM     21  H61 UNL     1     -15.182  36.360   5.503  1.00  0.00     0.174 HD
ENDBRANCH  14  19
BRANCH  18  22
HETATM   22  C12 UNL     1     -19.324  33.010   4.226  1.00  0.00     0.155 C 
BRANCH  22  23
HETATM   23  C13 UNL     1     -19.491  33.410   2.812  1.00  0.00     0.099 C 
BRANCH  23  24
HETATM   24  C14 UNL     1     -20.622  32.686   2.093  1.00  0.00     0.241 C 
HETATM   25  C15 UNL     1     -21.628  33.809   1.714  1.00  0.00     0.090 C 
HETATM   26  F1  UNL     1     -21.250  31.772   2.860  1.00  0.00    -0.207 F 
HETATM   27  F2  UNL     1     -20.089  32.168   0.928  1.00  0.00    -0.207 F 
ENDBRANCH  23  24
ENDBRANCH  22  23
ENDBRANCH  18  22
ENDBRANCH   4   7
BRANCH   1  28
HETATM   28  C4  UNL     1     -24.105  29.811   5.811  1.00  0.00     0.120 A 
HETATM   29  C3  UNL     1     -25.219  29.231   5.247  1.00  0.00     0.083 A 
HETATM   30  C19 UNL     1     -25.496  27.868   5.417  1.00  0.00     0.116 A 
HETATM   31  N10 UNL     1     -24.585  27.153   6.171  1.00  0.00    -0.338 N 
HETATM   32  C18 UNL     1     -23.499  27.696   6.722  1.00  0.00     0.183 A 
ATOM     33  H10 UNL     1     -24.752  26.156   6.314  1.00  0.00     0.168 HD
HETATM   34  N9  UNL     1     -23.267  29.001   6.545  1.00  0.00    -0.338 N 
ATOM     35  H9  UNL     1     -22.436  29.413   6.970  1.00  0.00     0.168 HD
BRANCH  29  36
HETATM   36  C2  UNL     1     -26.104  30.057   4.467  1.00  0.00     0.237 C 
BRANCH  36  37
HETATM   37  N1  UNL     1     -26.971  29.792   3.702  1.00  0.00    -0.294 NA
BRANCH  37  38
HETATM   38  O1  UNL     1     -27.892  29.425   2.882  1.00  0.00    -0.215 OA
HETATM   39  C1  UNL     1     -29.319  29.659   3.122  1.00  0.00     0.255 C 
ENDBRANCH  37  38
ENDBRANCH  36  37
ENDBRANCH  29  36
BRANCH  30  40
HETATM   40  N11 UNL     1     -26.479  27.252   4.994  1.00  0.00    -0.385 N 
ATOM     41 2H11 UNL     1     -27.116  26.863   5.689  1.00  0.00     0.157 HD
ATOM     42 1H11 UNL     1     -26.740  27.109   4.019  1.00  0.00     0.157 HD
ENDBRANCH  30  40
ENDBRANCH   1  28
TORSDOF 10
ENDMDL
MODEL 4
REMARK VINA RESULT: -6.450906633      6.414     10.095
REMARK  10 active torsions:
REMARK  status: ('A' for Active; 'I' for Inactive)
REMARK    1  A    between atoms: O1_2  and  N1_3 
REMARK    2  A    between atoms: N1_3  and  C2_4 
REMARK    3  A    between atoms: C2_4  and  C3_5 
REMARK    4  A    between atoms: C4_6  and  N2_7 
REMARK    5  A    between atoms: N3_10  and  C7_11 
REMARK    6  A    between atoms: C10_18  and  N6_19 
REMARK    7  A    between atoms: N8_25  and  C12_26 
REMARK    8  A    between atoms: C12_26  and  C13_27 
REMARK    9  A    between atoms: C13_27  and  C14_28 
REMARK   10  A    between atoms: C19_39  and  N11_40 
ROOT
HETATM    1  N2  UNL     1     -22.437  33.703  12.660  1.00  0.00    -0.363 N 
HETATM    2  C5  UNL     1     -23.529  32.697  12.818  1.00  0.00     0.145 C 
HETATM    3  C6  UNL     1     -24.390  33.301  13.922  1.00  0.00     0.161 C 
HETATM    4  N3  UNL     1     -24.991  34.521  13.365  1.00  0.00    -0.214 N 
HETATM    5  C16 UNL     1     -24.385  35.044  12.176  1.00  0.00     0.161 C 
HETATM    6  C17 UNL     1     -22.852  34.988  12.284  1.00  0.00     0.145 C 
ENDROOT
BRANCH   4   7
HETATM    7  C7  UNL     1     -26.082  35.041  14.094  1.00  0.00     0.684 A 
HETATM    8  N4  UNL     1     -27.343  34.915  13.568  1.00  0.00    -0.186 N 
HETATM    9  C8  UNL     1     -28.256  35.472  14.376  1.00  0.00     0.110 A 
ATOM     10  H4  UNL     1     -27.556  34.459  12.682  1.00  0.00     0.184 HD
HETATM   11  C9  UNL     1     -29.643  35.625  14.310  1.00  0.00     0.140 A 
HETATM   12  C11 UNL     1     -27.565  35.956  15.430  1.00  0.00     0.167 A 
HETATM   13  N5  UNL     1     -30.254  36.266  15.323  1.00  0.00    -0.200 N 
HETATM   14  C10 UNL     1     -29.548  36.739  16.354  1.00  0.00     0.677 A 
ATOM     15  H5  UNL     1     -31.266  36.391  15.304  1.00  0.00     0.183 HD
HETATM   16  N7  UNL     1     -28.208  36.596  16.429  1.00  0.00    -0.174 N 
ATOM     17  H7  UNL     1     -27.690  36.964  17.226  1.00  0.00     0.186 HD
HETATM   18  N8  UNL     1     -26.237  35.676  15.226  1.00  0.00    -0.165 N 
BRANCH  14  19
HETATM   19  N6  UNL     1     -30.181  37.396  17.262  1.00  0.00    -0.234 N 
ATOM     20  H62 UNL     1     -31.145  37.155  17.493  1.00  0.00     0.174 HD
ATOM     21  H61 UNL     1     -29.672  38.125  17.762  1.00  0.00     0.174 HD
ENDBRANCH  14  19
BRANCH  18  22
HETATM   22  C12 UNL     1     -25.228  36.057  16.177  1.00  0.00     0.155 C 
BRANCH  22  23
HETATM   23  C13 UNL     1     -24.725  34.957  17.027  1.00  0.00     0.099 C 
BRANCH  23  24
HETATM   24  C14 UNL     1     -24.956  35.170  18.518  1.00  0.00     0.241 C 
HETATM   25  C15 UNL     1     -24.947  33.739  19.125  1.00  0.00     0.090 C 
HETATM   26  F1  UNL     1     -26.135  35.761  18.800  1.00  0.00    -0.207 F 
HETATM   27  F2  UNL     1     -23.857  35.853  19.000  1.00  0.00    -0.207 F 
ENDBRANCH  23  24
ENDBRANCH  22  23
ENDBRANCH  18  22
ENDBRANCH   4   7
BRANCH   1  28
HETATM   28  C4  UNL     1     -21.196  33.191  13.034  1.00  0.00     0.120 A 
HETATM   29  C3  UNL     1     -20.588  32.166  12.343  1.00  0.00     0.083 A 
HETATM   30  C19 UNL     1     -19.373  31.616  12.775  1.00  0.00     0.116 A 
HETATM   31  N10 UNL     1     -18.830  32.168  13.920  1.00  0.00    -0.338 N 
HETATM   32  C18 UNL     1     -19.402  33.163  14.600  1.00  0.00     0.183 A 
ATOM     33  H10 UNL     1     -17.945  31.794  14.264  1.00  0.00     0.168 HD
HETATM   34  N9  UNL     1     -20.563  33.661  14.163  1.00  0.00    -0.338 N 
ATOM     35  H9  UNL     1     -20.999  34.420  14.688  1.00  0.00     0.168 HD
BRANCH  29  36
HETATM   36  C2  UNL     1     -21.226  31.666  11.153  1.00  0.00     0.237 C 
BRANCH  36  37
HETATM   37  N1  UNL     1     -20.813  31.040  10.233  1.00  0.00    -0.294 NA
BRANCH  37  38
HETATM   38  O1  UNL     1     -20.298  30.346   9.279  1.00  0.00    -0.215 OA
HETATM   39  C1  UNL     1     -20.857  30.307   7.925  1.00  0.00     0.255 C 
ENDBRANCH  37  38
ENDBRANCH  36  37
ENDBRANCH  29  36
BRANCH  30  40
HETATM   40  N11 UNL     1     -18.760  30.675  12.262  1.00  0.00    -0.385 N 
ATOM     41 2H11 UNL     1     -19.088  30.352  11.352  1.00  0.00     0.157 HD
ATOM     42 1H11 UNL     1     -17.941  30.200  12.638  1.00  0.00     0.157 HD
ENDBRANCH  30  40
ENDBRANCH   1  28
TORSDOF 10
ENDMDL
MODEL 5
REMARK VINA RESULT: -6.257378316      4.772      8.290
REMARK  10 active torsions:
REMARK  status: ('A' for Active; 'I' for Inactive)
REMARK    1  A    between atoms: O1_2  and  N1_3 
REMARK    2  A    between atoms: N1_3  and  C2_4 
REMARK    3  A    between atoms: C2_4  and  C3_5 
REMARK    4  A    between atoms: C4_6  and  N2_7 
REMARK    5  A    between atoms: N3_10  and  C7_11 
REMARK    6  A    between atoms: C10_18  and  N6_19 
REMARK    7  A    between atoms: N8_25  and  C12_26 
REMARK    8  A    between atoms: C12_26  and  C13_27 
REMARK    9  A    between atoms: C13_27  and  C14_28 
REMARK   10  A    between atoms: C19_39  and  N11_40 
ROOT
HETATM    1  N2  UNL     1     -24.084  35.397  15.036  1.00  0.00    -0.363 N 
HETATM    2  C5  UNL     1     -23.688  33.981  15.297  1.00  0.00     0.145 C 
HETATM    3  C6  UNL     1     -23.722  33.357  13.906  1.00  0.00     0.161 C 
HETATM    4  N3  UNL     1     -22.638  33.985  13.138  1.00  0.00    -0.214 N 
HETATM    5  C16 UNL     1     -22.104  35.204  13.670  1.00  0.00     0.161 C 
HETATM    6  C17 UNL     1     -23.236  36.111  14.178  1.00  0.00     0.145 C 
ENDROOT
BRANCH   4   7
HETATM    7  C7  UNL     1     -22.276  33.314  11.950  1.00  0.00     0.684 A 
HETATM    8  N4  UNL     1     -22.726  33.811  10.753  1.00  0.00    -0.186 N 
HETATM    9  C8  UNL     1     -22.306  33.051   9.732  1.00  0.00     0.110 A 
ATOM     10  H4  UNL     1     -23.303  34.645  10.653  1.00  0.00     0.184 HD
HETATM   11  C9  UNL     1     -22.484  33.104   8.347  1.00  0.00     0.140 A 
HETATM   12  C11 UNL     1     -21.578  32.059  10.289  1.00  0.00     0.167 A 
HETATM   13  N5  UNL     1     -21.912  32.142   7.601  1.00  0.00    -0.200 N 
HETATM   14  C10 UNL     1     -21.198  31.168   8.176  1.00  0.00     0.677 A 
ATOM     15  H5  UNL     1     -22.023  32.155   6.588  1.00  0.00     0.183 HD
HETATM   16  N7  UNL     1     -21.019  31.108   9.513  1.00  0.00    -0.174 N 
ATOM     17  H7  UNL     1     -20.469  30.357   9.929  1.00  0.00     0.186 HD
HETATM   18  N8  UNL     1     -21.581  32.250  11.647  1.00  0.00    -0.165 N 
BRANCH  14  19
HETATM   19  N6  UNL     1     -20.727  30.242   7.416  1.00  0.00    -0.234 N 
ATOM     20  H62 UNL     1     -21.328  29.785   6.731  1.00  0.00     0.174 HD
ATOM     21  H61 UNL     1     -19.735  30.022   7.497  1.00  0.00     0.174 HD
ENDBRANCH  14  19
BRANCH  18  22
HETATM   22  C12 UNL     1     -20.884  31.361  12.538  1.00  0.00     0.155 C 
BRANCH  22  23
HETATM   23  C13 UNL     1     -19.495  31.757  12.855  1.00  0.00     0.099 C 
BRANCH  23  24
HETATM   24  C14 UNL     1     -18.439  30.801  12.315  1.00  0.00     0.241 C 
HETATM   25  C15 UNL     1     -17.110  31.274  12.969  1.00  0.00     0.090 C 
HETATM   26  F1  UNL     1     -18.310  30.844  10.973  1.00  0.00    -0.207 F 
HETATM   27  F2  UNL     1     -18.744  29.547  12.808  1.00  0.00    -0.207 F 
ENDBRANCH  23  24
ENDBRANCH  22  23
ENDBRANCH  18  22
ENDBRANCH   4   7
BRANCH   1  28
HETATM   28  C4  UNL     1     -25.310  35.712  15.619  1.00  0.00     0.120 A 
HETATM   29  C3  UNL     1     -26.487  35.701  14.904  1.00  0.00     0.083 A 
HETATM   30  C19 UNL     1     -27.700  36.090  15.488  1.00  0.00     0.116 A 
HETATM   31  N10 UNL     1     -27.639  36.473  16.815  1.00  0.00    -0.338 N 
HETATM   32  C18 UNL     1     -26.510  36.487  17.525  1.00  0.00     0.183 A 
ATOM     33  H10 UNL     1     -28.503  36.760  17.275  1.00  0.00     0.168 HD
HETATM   34  N9  UNL     1     -25.369  36.115  16.935  1.00  0.00    -0.338 N 
ATOM     35  H9  UNL     1     -24.508  36.130  17.482  1.00  0.00     0.168 HD
BRANCH  29  36
HETATM   36  C2  UNL     1     -26.450  35.273  13.529  1.00  0.00     0.237 C 
BRANCH  36  37
HETATM   37  N1  UNL     1     -27.095  34.481  12.925  1.00  0.00    -0.294 NA
BRANCH  37  38
HETATM   38  O1  UNL     1     -27.841  33.685  12.243  1.00  0.00    -0.215 OA
HETATM   39  C1  UNL     1     -27.976  33.766  10.785  1.00  0.00     0.255 C 
ENDBRANCH  37  38
ENDBRANCH  36  37
ENDBRANCH  29  36
BRANCH  30  40
HETATM   40  N11 UNL     1     -28.802  36.156  14.936  1.00  0.00    -0.385 N 
ATOM     41 2H11 UNL     1     -29.624  36.104  15.537  1.00  0.00     0.157 HD
ATOM     42 1H11 UNL     1     -28.983  36.286  13.941  1.00  0.00     0.157 HD
ENDBRANCH  30  40
ENDBRANCH   1  28
TORSDOF 10
ENDMDL
