MODEL 1
REMARK VINA RESULT: -7.364623367      0.000      0.000
REMARK  12 active torsions:
REMARK  status: ('A' for Active; 'I' for Inactive)
REMARK    1  A    between atoms: O1_2  and  C2_3 
REMARK    2  A    between atoms: C2_3  and  O2_4 
REMARK    3  A    between atoms: C2_3  and  C3_6 
REMARK    4  A    between atoms: C6_9  and  C7_10 
REMARK    5  A    between atoms: C8_11  and  C9_12 
REMARK    6  A    between atoms: C10_17  and  C11_18 
REMARK    7  A    between atoms: C11_18  and  C12_19 
REMARK    8  A    between atoms: C11_18  and  O4_22 
REMARK    9  A    between atoms: C12_19  and  O3_20 
REMARK   10  A    between atoms: O4_22  and  N3_23 
REMARK   11  A    between atoms: C13_25  and  C15_27 
REMARK   12  A    between atoms: C16_30  and  N5_31 
ROOT
HETATM    1  C9  UNL     1      38.630  -2.434 -13.259  1.00  0.00     0.145 A 
HETATM    2  N1  UNL     1      38.767  -3.447 -12.505  1.00  0.00    -0.286 N 
ATOM      3  H1  UNL     1      38.091  -3.627 -11.762  1.00  0.00     0.188 HD
HETATM    4  N2  UNL     1      39.801  -4.277 -12.686  1.00  0.00    -0.294 N 
ATOM      5  H2  UNL     1      39.913  -5.092 -12.082  1.00  0.00     0.187 HD
HETATM    6  C10 UNL     1      40.648  -4.053 -13.613  1.00  0.00     0.102 A 
HETATM    7  S1  UNL     1      40.024  -2.544 -14.372  1.00  0.00    -0.044 SA
ENDROOT
BRANCH   6   8
HETATM    8  C11 UNL     1      41.863  -4.815 -14.009  1.00  0.00     0.234 C 
BRANCH   8   9
HETATM    9  C12 UNL     1      42.912  -4.520 -12.943  1.00  0.00     0.205 C 
BRANCH   9  10
HETATM   10  O3  UNL     1      42.644  -3.368 -12.240  1.00  0.00    -0.398 OA
ATOM     11  H3  UNL     1      42.702  -3.492 -11.300  1.00  0.00     0.209 HD
ENDBRANCH   9  10
ENDBRANCH   8   9
BRANCH   8  12
HETATM   12  O4  UNL     1      42.375  -4.283 -15.221  1.00  0.00    -0.266 OA
BRANCH  12  13
HETATM   13  N3  UNL     1      43.393  -3.392 -15.221  1.00  0.00    -0.267 N 
HETATM   14  C13 UNL     1      44.033  -3.102 -16.270  1.00  0.00     0.074 C 
HETATM   15  C14 UNL     1      45.138  -2.087 -16.093  1.00  0.00     0.074 C 
ATOM     16  H3  UNL     1      43.652  -2.940 -14.345  1.00  0.00     0.194 HD
BRANCH  14  17
HETATM   17  C15 UNL     1      43.841  -3.614 -17.608  1.00  0.00     0.160 A 
HETATM   18  N4  UNL     1      43.117  -4.706 -17.963  1.00  0.00    -0.172 N 
HETATM   19  C16 UNL     1      43.173  -4.864 -19.289  1.00  0.00     0.692 A 
ATOM     20  H4  UNL     1      42.608  -5.311 -17.318  1.00  0.00     0.186 HD
HETATM   21  N6  UNL     1      43.918  -3.900 -19.795  1.00  0.00    -0.131 N 
HETATM   22  N7  UNL     1      44.322  -3.141 -18.759  1.00  0.00    -0.269 N 
ATOM     23  H6  UNL     1      44.145  -3.759 -20.779  1.00  0.00     0.205 HD
ATOM     24  H7  UNL     1      44.916  -2.315 -18.844  1.00  0.00     0.189 HD
BRANCH  19  25
HETATM   25  N5  UNL     1      42.600  -5.800 -19.973  1.00  0.00    -0.233 N 
ATOM     26  H52 UNL     1      42.917  -6.768 -20.025  1.00  0.00     0.174 HD
ATOM     27  H51 UNL     1      41.763  -5.702 -20.546  1.00  0.00     0.174 HD
ENDBRANCH  19  25
ENDBRANCH  14  17
ENDBRANCH  12  13
ENDBRANCH   8  12
ENDBRANCH   6   8
BRANCH   1  28
HETATM   28  C8  UNL     1      37.600  -1.462 -13.205  1.00  0.00    -0.034 C 
HETATM   29  C7  UNL     1      36.716  -0.635 -13.177  1.00  0.00    -0.058 C 
BRANCH  29  30
HETATM   30  C6  UNL     1      35.674   0.356 -13.168  1.00  0.00     0.033 A 
HETATM   31  C5  UNL     1      35.627   1.303 -12.164  1.00  0.00     0.024 A 
HETATM   32  C4  UNL     1      34.634   2.271 -12.127  1.00  0.00     0.031 A 
HETATM   33  C3  UNL     1      33.680   2.287 -13.113  1.00  0.00     0.064 A 
HETATM   34  N8  UNL     1      33.717   1.358 -14.107  1.00  0.00    -0.364 N 
HETATM   35  C17 UNL     1      34.689   0.422 -14.129  1.00  0.00     0.109 A 
ATOM     36  H8  UNL     1      33.007   1.370 -14.838  1.00  0.00     0.165 HD
BRANCH  33  37
HETATM   37  C2  UNL     1      32.613   3.301 -13.103  1.00  0.00     0.307 C 
BRANCH  37  38
HETATM   38  O1  UNL     1      33.002   4.393 -12.359  1.00  0.00    -0.360 OA
HETATM   39  C1  UNL     1      34.214   4.944 -12.796  1.00  0.00     0.205 C 
ENDBRANCH  37  38
BRANCH  37  40
HETATM   40  O2  UNL     1      32.298   3.721 -14.401  1.00  0.00    -0.366 OA
ATOM     41  H2  UNL     1      31.700   3.095 -14.793  1.00  0.00     0.213 HD
ENDBRANCH  37  40
ENDBRANCH  33  37
ENDBRANCH  29  30
ENDBRANCH   1  28
TORSDOF 12
ENDMDL
MODEL 2
REMARK VINA RESULT: -7.359180358      3.135     11.749
REMARK  12 active torsions:
REMARK  status: ('A' for Active; 'I' for Inactive)
REMARK    1  A    between atoms: O1_2  and  C2_3 
REMARK    2  A    between atoms: C2_3  and  O2_4 
REMARK    3  A    between atoms: C2_3  and  C3_6 
REMARK    4  A    between atoms: C6_9  and  C7_10 
REMARK    5  A    between atoms: C8_11  and  C9_12 
REMARK    6  A    between atoms: C10_17  and  C11_18 
REMARK    7  A    between atoms: C11_18  and  C12_19 
REMARK    8  A    between atoms: C11_18  and  O4_22 
REMARK    9  A    between atoms: C12_19  and  O3_20 
REMARK   10  A    between atoms: O4_22  and  N3_23 
REMARK   11  A    between atoms: C13_25  and  C15_27 
REMARK   12  A    between atoms: C16_30  and  N5_31 
ROOT
HETATM    1  C9  UNL     1      38.986  -1.550 -13.845  1.00  0.00     0.145 A 
HETATM    2  N1  UNL     1      38.368  -0.708 -14.568  1.00  0.00    -0.286 N 
ATOM      3  H1  UNL     1      38.714  -0.483 -15.502  1.00  0.00     0.188 HD
HETATM    4  N2  UNL     1      37.261  -0.116 -14.102  1.00  0.00    -0.294 N 
ATOM      5  H2  UNL     1      36.762   0.560 -14.682  1.00  0.00     0.187 HD
HETATM    6  C10 UNL     1      36.828  -0.395 -12.936  1.00  0.00     0.102 A 
HETATM    7  S1  UNL     1      38.023  -1.604 -12.341  1.00  0.00    -0.044 SA
ENDROOT
BRANCH   6   8
HETATM    8  C11 UNL     1      35.640   0.121 -12.204  1.00  0.00     0.234 C 
BRANCH   8   9
HETATM    9  C12 UNL     1      34.464  -0.746 -12.642  1.00  0.00     0.205 C 
BRANCH   9  10
HETATM   10  O3  UNL     1      34.789  -1.596 -13.674  1.00  0.00    -0.398 OA
ATOM     11  H3  UNL     1      34.209  -2.346 -13.725  1.00  0.00     0.209 HD
ENDBRANCH   9  10
ENDBRANCH   8   9
BRANCH   8  12
HETATM   12  O4  UNL     1      35.347   1.435 -12.653  1.00  0.00    -0.266 OA
BRANCH  12  13
HETATM   13  N3  UNL     1      34.290   1.681 -13.460  1.00  0.00    -0.267 N 
HETATM   14  C13 UNL     1      33.644   2.765 -13.412  1.00  0.00     0.074 C 
HETATM   15  C14 UNL     1      32.492   2.875 -14.383  1.00  0.00     0.074 C 
ATOM     16  H3  UNL     1      34.004   0.967 -14.130  1.00  0.00     0.194 HD
BRANCH  14  17
HETATM   17  C15 UNL     1      33.868   3.904 -12.551  1.00  0.00     0.160 A 
HETATM   18  N4  UNL     1      34.655   4.978 -12.814  1.00  0.00    -0.172 N 
HETATM   19  C16 UNL     1      34.611   5.826 -11.782  1.00  0.00     0.692 A 
ATOM     20  H4  UNL     1      35.197   5.117 -13.668  1.00  0.00     0.186 HD
HETATM   21  N6  UNL     1      33.814   5.321 -10.860  1.00  0.00    -0.131 N 
HETATM   22  N7  UNL     1      33.364   4.146 -11.339  1.00  0.00    -0.269 N 
ATOM     23  H6  UNL     1      33.583   5.739  -9.958  1.00  0.00     0.205 HD
ATOM     24  H7  UNL     1      32.725   3.525 -10.843  1.00  0.00     0.189 HD
BRANCH  19  25
HETATM   25  N5  UNL     1      35.239   6.952 -11.688  1.00  0.00    -0.233 N 
ATOM     26  H52 UNL     1      36.234   7.086 -11.865  1.00  0.00     0.174 HD
ATOM     27  H51 UNL     1      34.831   7.850 -11.430  1.00  0.00     0.174 HD
ENDBRANCH  19  25
ENDBRANCH  14  17
ENDBRANCH  12  13
ENDBRANCH   8  12
ENDBRANCH   6   8
BRANCH   1  28
HETATM   28  C8  UNL     1      40.164  -2.263 -14.183  1.00  0.00    -0.034 C 
HETATM   29  C7  UNL     1      41.158  -2.886 -14.480  1.00  0.00    -0.058 C 
BRANCH  29  30
HETATM   30  C6  UNL     1      42.328  -3.649 -14.827  1.00  0.00     0.033 A 
HETATM   31  C5  UNL     1      43.364  -3.777 -13.924  1.00  0.00     0.024 A 
HETATM   32  C4  UNL     1      44.504  -4.505 -14.229  1.00  0.00     0.031 A 
HETATM   33  C3  UNL     1      44.602  -5.111 -15.456  1.00  0.00     0.064 A 
HETATM   34  N8  UNL     1      43.586  -4.990 -16.353  1.00  0.00    -0.364 N 
HETATM   35  C17 UNL     1      42.482  -4.278 -16.042  1.00  0.00     0.109 A 
ATOM     36  H8  UNL     1      43.660  -5.440 -17.266  1.00  0.00     0.165 HD
BRANCH  33  37
HETATM   37  C2  UNL     1      45.798  -5.891 -15.811  1.00  0.00     0.307 C 
BRANCH  37  38
HETATM   38  O1  UNL     1      46.085  -6.801 -14.817  1.00  0.00    -0.360 OA
HETATM   39  C1  UNL     1      45.703  -8.107 -15.151  1.00  0.00     0.205 C 
ENDBRANCH  37  38
BRANCH  37  40
HETATM   40  O2  UNL     1      45.620  -6.575 -17.020  1.00  0.00    -0.366 OA
ATOM     41  H2  UNL     1      44.788  -6.321 -17.400  1.00  0.00     0.213 HD
ENDBRANCH  37  40
ENDBRANCH  33  37
ENDBRANCH  29  30
ENDBRANCH   1  28
TORSDOF 12
ENDMDL
MODEL 3
REMARK VINA RESULT: -7.108114404      1.142      1.379
REMARK  12 active torsions:
REMARK  status: ('A' for Active; 'I' for Inactive)
REMARK    1  A    between atoms: O1_2  and  C2_3 
REMARK    2  A    between atoms: C2_3  and  O2_4 
REMARK    3  A    between atoms: C2_3  and  C3_6 
REMARK    4  A    between atoms: C6_9  and  C7_10 
REMARK    5  A    between atoms: C8_11  and  C9_12 
REMARK    6  A    between atoms: C10_17  and  C11_18 
REMARK    7  A    between atoms: C11_18  and  C12_19 
REMARK    8  A    between atoms: C11_18  and  O4_22 
REMARK    9  A    between atoms: C12_19  and  O3_20 
REMARK   10  A    between atoms: O4_22  and  N3_23 
REMARK   11  A    between atoms: C13_25  and  C15_27 
REMARK   12  A    between atoms: C16_30  and  N5_31 
ROOT
HETATM    1  C9  UNL     1      38.656  -2.440 -12.513  1.00  0.00     0.145 A 
HETATM    2  N1  UNL     1      39.239  -2.815 -11.449  1.00  0.00    -0.286 N 
ATOM      3  H1  UNL     1      38.971  -2.415 -10.549  1.00  0.00     0.188 HD
HETATM    4  N2  UNL     1      40.208  -3.738 -11.510  1.00  0.00    -0.294 N 
ATOM      5  H2  UNL     1      40.677  -4.041 -10.656  1.00  0.00     0.187 HD
HETATM    6  C10 UNL     1      40.545  -4.238 -12.633  1.00  0.00     0.102 A 
HETATM    7  S1  UNL     1      39.453  -3.399 -13.793  1.00  0.00    -0.044 SA
ENDROOT
BRANCH   6   8
HETATM    8  C11 UNL     1      41.576  -5.261 -12.958  1.00  0.00     0.234 C 
BRANCH   8   9
HETATM    9  C12 UNL     1      42.552  -5.264 -11.786  1.00  0.00     0.205 C 
BRANCH   9  10
HETATM   10  O3  UNL     1      43.020  -4.006 -11.484  1.00  0.00    -0.398 OA
ATOM     11  H3  UNL     1      43.639  -4.010 -10.763  1.00  0.00     0.209 HD
ENDBRANCH   9  10
ENDBRANCH   8   9
BRANCH   8  12
HETATM   12  O4  UNL     1      42.321  -4.832 -14.087  1.00  0.00    -0.266 OA
BRANCH  12  13
HETATM   13  N3  UNL     1      43.658  -5.019 -14.158  1.00  0.00    -0.267 N 
HETATM   14  C13 UNL     1      44.294  -4.932 -15.245  1.00  0.00     0.074 C 
HETATM   15  C14 UNL     1      45.783  -5.170 -15.145  1.00  0.00     0.074 C 
ATOM     16  H3  UNL     1      44.171  -5.237 -13.304  1.00  0.00     0.194 HD
BRANCH  14  17
HETATM   17  C15 UNL     1      43.780  -4.636 -16.563  1.00  0.00     0.160 A 
HETATM   18  N4  UNL     1      44.509  -4.373 -17.678  1.00  0.00    -0.172 N 
HETATM   19  C16 UNL     1      43.684  -4.147 -18.705  1.00  0.00     0.692 A 
ATOM     20  H4  UNL     1      45.528  -4.350 -17.724  1.00  0.00     0.186 HD
HETATM   21  N6  UNL     1      42.442  -4.259 -18.276  1.00  0.00    -0.131 N 
HETATM   22  N7  UNL     1      42.511  -4.558 -16.966  1.00  0.00    -0.269 N 
ATOM     23  H6  UNL     1      41.593  -4.140 -18.830  1.00  0.00     0.205 HD
ATOM     24  H7  UNL     1      41.701  -4.704 -16.362  1.00  0.00     0.189 HD
BRANCH  19  25
HETATM   25  N5  UNL     1      44.031  -3.866 -19.918  1.00  0.00    -0.233 N 
ATOM     26  H52 UNL     1      44.388  -2.964 -20.233  1.00  0.00     0.174 HD
ATOM     27  H51 UNL     1      43.999  -4.498 -20.717  1.00  0.00     0.174 HD
ENDBRANCH  19  25
ENDBRANCH  14  17
ENDBRANCH  12  13
ENDBRANCH   8  12
ENDBRANCH   6   8
BRANCH   1  28
HETATM   28  C8  UNL     1      37.617  -1.481 -12.624  1.00  0.00    -0.034 C 
HETATM   29  C7  UNL     1      36.735  -0.660 -12.738  1.00  0.00    -0.058 C 
BRANCH  29  30
HETATM   30  C6  UNL     1      35.703   0.331 -12.888  1.00  0.00     0.033 A 
HETATM   31  C5  UNL     1      35.549   1.320 -11.937  1.00  0.00     0.024 A 
HETATM   32  C4  UNL     1      34.563   2.289 -12.053  1.00  0.00     0.031 A 
HETATM   33  C3  UNL     1      33.725   2.262 -13.139  1.00  0.00     0.064 A 
HETATM   34  N8  UNL     1      33.868   1.291 -14.081  1.00  0.00    -0.364 N 
HETATM   35  C17 UNL     1      34.832   0.354 -13.955  1.00  0.00     0.109 A 
ATOM     36  H8  UNL     1      33.243   1.271 -14.887  1.00  0.00     0.165 HD
BRANCH  33  37
HETATM   37  C2  UNL     1      32.668   3.276 -13.292  1.00  0.00     0.307 C 
BRANCH  37  38
HETATM   38  O1  UNL     1      32.946   4.374 -12.508  1.00  0.00    -0.360 OA
HETATM   39  C1  UNL     1      34.176   4.967 -12.821  1.00  0.00     0.205 C 
ENDBRANCH  37  38
BRANCH  37  40
HETATM   40  O2  UNL     1      32.545   3.685 -14.625  1.00  0.00    -0.366 OA
ATOM     41  H2  UNL     1      31.751   3.313 -14.991  1.00  0.00     0.213 HD
ENDBRANCH  37  40
ENDBRANCH  33  37
ENDBRANCH  29  30
ENDBRANCH   1  28
TORSDOF 12
ENDMDL
MODEL 4
REMARK VINA RESULT: -7.084494469      1.951      2.404
REMARK  12 active torsions:
REMARK  status: ('A' for Active; 'I' for Inactive)
REMARK    1  A    between atoms: O1_2  and  C2_3 
REMARK    2  A    between atoms: C2_3  and  O2_4 
REMARK    3  A    between atoms: C2_3  and  C3_6 
REMARK    4  A    between atoms: C6_9  and  C7_10 
REMARK    5  A    between atoms: C8_11  and  C9_12 
REMARK    6  A    between atoms: C10_17  and  C11_18 
REMARK    7  A    between atoms: C11_18  and  C12_19 
REMARK    8  A    between atoms: C11_18  and  O4_22 
REMARK    9  A    between atoms: C12_19  and  O3_20 
REMARK   10  A    between atoms: O4_22  and  N3_23 
REMARK   11  A    between atoms: C13_25  and  C15_27 
REMARK   12  A    between atoms: C16_30  and  N5_31 
ROOT
HETATM    1  C9  UNL     1      38.571  -2.498 -13.034  1.00  0.00     0.145 A 
HETATM    2  N1  UNL     1      38.840  -3.322 -12.106  1.00  0.00    -0.286 N 
ATOM      3  H1  UNL     1      38.289  -3.322 -11.247  1.00  0.00     0.188 HD
HETATM    4  N2  UNL     1      39.847  -4.191 -12.258  1.00  0.00    -0.294 N 
ATOM      5  H2  UNL     1      40.064  -4.854 -11.514  1.00  0.00     0.187 HD
HETATM    6  C10 UNL     1      40.536  -4.192 -13.331  1.00  0.00     0.102 A 
HETATM    7  S1  UNL     1      39.777  -2.875 -14.298  1.00  0.00    -0.044 SA
ENDROOT
BRANCH   6   8
HETATM    8  C11 UNL     1      41.688  -5.044 -13.733  1.00  0.00     0.234 C 
BRANCH   8   9
HETATM    9  C12 UNL     1      41.914  -6.017 -12.581  1.00  0.00     0.205 C 
BRANCH   9  10
HETATM   10  O3  UNL     1      42.178  -7.296 -13.013  1.00  0.00    -0.398 OA
ATOM     11  H3  UNL     1      42.992  -7.640 -12.664  1.00  0.00     0.209 HD
ENDBRANCH   9  10
ENDBRANCH   8   9
BRANCH   8  12
HETATM   12  O4  UNL     1      42.858  -4.245 -13.806  1.00  0.00    -0.266 OA
BRANCH  12  13
HETATM   13  N3  UNL     1      43.217  -3.631 -14.957  1.00  0.00    -0.267 N 
HETATM   14  C13 UNL     1      44.005  -4.164 -15.787  1.00  0.00     0.074 C 
HETATM   15  C14 UNL     1      44.300  -3.341 -17.020  1.00  0.00     0.074 C 
ATOM     16  H3  UNL     1      42.838  -2.707 -15.162  1.00  0.00     0.194 HD
BRANCH  14  17
HETATM   17  C15 UNL     1      44.656  -5.451 -15.706  1.00  0.00     0.160 A 
HETATM   18  N4  UNL     1      44.686  -6.279 -14.630  1.00  0.00    -0.172 N 
HETATM   19  C16 UNL     1      45.383  -7.378 -14.934  1.00  0.00     0.692 A 
ATOM     20  H4  UNL     1      44.244  -6.092 -13.730  1.00  0.00     0.186 HD
HETATM   21  N6  UNL     1      45.804  -7.276 -16.180  1.00  0.00    -0.131 N 
HETATM   22  N7  UNL     1      45.354  -6.094 -16.644  1.00  0.00    -0.269 N 
ATOM     23  H6  UNL     1      46.362  -7.958 -16.693  1.00  0.00     0.205 HD
ATOM     24  H7  UNL     1      45.525  -5.739 -17.585  1.00  0.00     0.189 HD
BRANCH  19  25
HETATM   25  N5  UNL     1      45.615  -8.379 -14.150  1.00  0.00    -0.233 N 
ATOM     26  H52 UNL     1      46.524  -8.619 -13.756  1.00  0.00     0.174 HD
ATOM     27  H51 UNL     1      44.929  -9.058 -13.819  1.00  0.00     0.174 HD
ENDBRANCH  19  25
ENDBRANCH  14  17
ENDBRANCH  12  13
ENDBRANCH   8  12
ENDBRANCH   6   8
BRANCH   1  28
HETATM   28  C8  UNL     1      37.545  -1.519 -13.037  1.00  0.00    -0.034 C 
HETATM   29  C7  UNL     1      36.674  -0.679 -13.057  1.00  0.00    -0.058 C 
BRANCH  29  30
HETATM   30  C6  UNL     1      35.654   0.335 -13.094  1.00  0.00     0.033 A 
HETATM   31  C5  UNL     1      35.647   1.345 -12.153  1.00  0.00     0.024 A 
HETATM   32  C4  UNL     1      34.677   2.337 -12.162  1.00  0.00     0.031 A 
HETATM   33  C3  UNL     1      33.706   2.312 -13.131  1.00  0.00     0.064 A 
HETATM   34  N8  UNL     1      33.705   1.321 -14.064  1.00  0.00    -0.364 N 
HETATM   35  C17 UNL     1      34.655   0.362 -14.042  1.00  0.00     0.109 A 
ATOM     36  H8  UNL     1      32.981   1.302 -14.783  1.00  0.00     0.165 HD
BRANCH  33  37
HETATM   37  C2  UNL     1      32.662   3.349 -13.170  1.00  0.00     0.307 C 
BRANCH  37  38
HETATM   38  O1  UNL     1      33.008   4.402 -12.351  1.00  0.00    -0.360 OA
HETATM   39  C1  UNL     1      34.183   5.045 -12.762  1.00  0.00     0.205 C 
ENDBRANCH  37  38
BRANCH  37  40
HETATM   40  O2  UNL     1      32.466   3.827 -14.471  1.00  0.00    -0.366 OA
ATOM     41  H2  UNL     1      33.305   4.082 -14.837  1.00  0.00     0.213 HD
ENDBRANCH  37  40
ENDBRANCH  33  37
ENDBRANCH  29  30
ENDBRANCH   1  28
TORSDOF 12
ENDMDL
MODEL 5
REMARK VINA RESULT: -7.075645372      1.094      1.827
REMARK  12 active torsions:
REMARK  status: ('A' for Active; 'I' for Inactive)
REMARK    1  A    between atoms: O1_2  and  C2_3 
REMARK    2  A    between atoms: C2_3  and  O2_4 
REMARK    3  A    between atoms: C2_3  and  C3_6 
REMARK    4  A    between atoms: C6_9  and  C7_10 
REMARK    5  A    between atoms: C8_11  and  C9_12 
REMARK    6  A    between atoms: C10_17  and  C11_18 
REMARK    7  A    between atoms: C11_18  and  C12_19 
REMARK    8  A    between atoms: C11_18  and  O4_22 
REMARK    9  A    between atoms: C12_19  and  O3_20 
REMARK   10  A    between atoms: O4_22  and  N3_23 
REMARK   11  A    between atoms: C13_25  and  C15_27 
REMARK   12  A    between atoms: C16_30  and  N5_31 
ROOT
HETATM    1  C9  UNL     1      38.677  -2.395 -13.353  1.00  0.00     0.145 A 
HETATM    2  N1  UNL     1      38.753  -3.491 -12.717  1.00  0.00    -0.286 N 
ATOM      3  H1  UNL     1      38.017  -3.755 -12.062  1.00  0.00     0.188 HD
HETATM    4  N2  UNL     1      39.803  -4.300 -12.908  1.00  0.00    -0.294 N 
ATOM      5  H2  UNL     1      39.866  -5.182 -12.398  1.00  0.00     0.187 HD
HETATM    6  C10 UNL     1      40.725  -3.972 -13.725  1.00  0.00     0.102 A 
HETATM    7  S1  UNL     1      40.161  -2.379 -14.349  1.00  0.00    -0.044 SA
ENDROOT
BRANCH   6   8
HETATM    8  C11 UNL     1      41.973  -4.688 -14.104  1.00  0.00     0.234 C 
BRANCH   8   9
HETATM    9  C12 UNL     1      43.002  -4.336 -13.036  1.00  0.00     0.205 C 
BRANCH   9  10
HETATM   10  O3  UNL     1      42.426  -3.855 -11.883  1.00  0.00    -0.398 OA
ATOM     11  H3  UNL     1      42.949  -4.035 -11.111  1.00  0.00     0.209 HD
ENDBRANCH   9  10
ENDBRANCH   8   9
BRANCH   8  12
HETATM   12  O4  UNL     1      42.469  -4.151 -15.320  1.00  0.00    -0.266 OA
BRANCH  12  13
HETATM   13  N3  UNL     1      42.016  -4.589 -16.517  1.00  0.00    -0.267 N 
HETATM   14  C13 UNL     1      42.541  -4.231 -17.608  1.00  0.00     0.074 C 
HETATM   15  C14 UNL     1      41.912  -4.815 -18.851  1.00  0.00     0.074 C 
ATOM     16  H3  UNL     1      41.224  -5.231 -16.539  1.00  0.00     0.194 HD
BRANCH  14  17
HETATM   17  C15 UNL     1      43.659  -3.340 -17.814  1.00  0.00     0.160 A 
HETATM   18  N4  UNL     1      43.930  -2.623 -18.936  1.00  0.00    -0.172 N 
HETATM   19  C16 UNL     1      45.048  -1.914 -18.751  1.00  0.00     0.692 A 
ATOM     20  H4  UNL     1      43.367  -2.626 -19.787  1.00  0.00     0.186 HD
HETATM   21  N6  UNL     1      45.503  -2.159 -17.538  1.00  0.00    -0.131 N 
HETATM   22  N7  UNL     1      44.648  -3.031 -16.973  1.00  0.00    -0.269 N 
ATOM     23  H6  UNL     1      46.341  -1.765 -17.111  1.00  0.00     0.205 HD
ATOM     24  H7  UNL     1      44.743  -3.406 -16.029  1.00  0.00     0.189 HD
BRANCH  19  25
HETATM   25  N5  UNL     1      45.600  -1.120 -19.609  1.00  0.00    -0.233 N 
ATOM     26  H52 UNL     1      46.568  -1.178 -19.924  1.00  0.00     0.174 HD
ATOM     27  H51 UNL     1      45.151  -0.337 -20.084  1.00  0.00     0.174 HD
ENDBRANCH  19  25
ENDBRANCH  14  17
ENDBRANCH  12  13
ENDBRANCH   8  12
ENDBRANCH   6   8
BRANCH   1  28
HETATM   28  C8  UNL     1      37.641  -1.430 -13.271  1.00  0.00    -0.034 C 
HETATM   29  C7  UNL     1      36.758  -0.604 -13.220  1.00  0.00    -0.058 C 
BRANCH  29  30
HETATM   30  C6  UNL     1      35.721   0.392 -13.178  1.00  0.00     0.033 A 
HETATM   31  C5  UNL     1      35.678   1.303 -12.141  1.00  0.00     0.024 A 
HETATM   32  C4  UNL     1      34.691   2.275 -12.072  1.00  0.00     0.031 A 
HETATM   33  C3  UNL     1      33.738   2.331 -13.057  1.00  0.00     0.064 A 
HETATM   34  N8  UNL     1      33.772   1.437 -14.083  1.00  0.00    -0.364 N 
HETATM   35  C17 UNL     1      34.739   0.497 -14.137  1.00  0.00     0.109 A 
ATOM     36  H8  UNL     1      33.062   1.478 -14.814  1.00  0.00     0.165 HD
BRANCH  33  37
HETATM   37  C2  UNL     1      32.677   3.350 -13.014  1.00  0.00     0.307 C 
BRANCH  37  38
HETATM   38  O1  UNL     1      33.084   4.429 -12.260  1.00  0.00    -0.360 OA
HETATM   39  C1  UNL     1      34.256   5.020 -12.749  1.00  0.00     0.205 C 
ENDBRANCH  37  38
BRANCH  37  40
HETATM   40  O2  UNL     1      32.341   3.791 -14.299  1.00  0.00    -0.366 OA
ATOM     41  H2  UNL     1      31.561   3.333 -14.591  1.00  0.00     0.213 HD
ENDBRANCH  37  40
ENDBRANCH  33  37
ENDBRANCH  29  30
ENDBRANCH   1  28
TORSDOF 12
ENDMDL
