MODEL 1
REMARK VINA RESULT: -8.706063154      0.000      0.000
REMARK  8 active torsions:
REMARK  status: ('A' for Active; 'I' for Inactive)
REMARK    1  A    between atoms: C2_2  and  C3_3 
REMARK    2  A    between atoms: C3_3  and  N1_4 
REMARK    3  A    between atoms: N1_4  and  C4_6 
REMARK    4  A    between atoms: C5_9  and  S1_10 
REMARK    5  A    between atoms: S1_10  and  C6_11 
REMARK    6  A    between atoms: C6_11  and  C7_12 
REMARK    7  A    between atoms: C11_28  and  N9_29 
REMARK    8  A    between atoms: N9_29  and  C12_31 
ROOT
HETATM    1  C7  UNL     1      37.283  -4.132  -7.073  1.00  0.00     0.109 A 
HETATM    2  N3  UNL     1      36.749  -5.303  -6.674  1.00  0.00    -0.322 N 
ATOM      3  H3  UNL     1      35.809  -5.554  -6.984  1.00  0.00     0.169 HD
HETATM    4  C8  UNL     1      37.432  -6.158  -5.866  1.00  0.00     0.204 A 
HETATM    5  C9  UNL     1      36.839  -7.401  -5.453  1.00  0.00     0.137 C 
HETATM    6  N4  UNL     1      36.363  -8.418  -5.124  1.00  0.00    -0.188 NA
HETATM    7  N5  UNL     1      38.677  -5.830  -5.451  1.00  0.00    -0.167 N 
ATOM      8  H5  UNL     1      39.197  -6.464  -4.845  1.00  0.00     0.186 HD
HETATM    9  C10 UNL     1      39.222  -4.679  -5.835  1.00  0.00     0.679 A 
HETATM   10  N6  UNL     1      40.428  -4.386  -5.419  1.00  0.00    -0.234 N 
ATOM     11  H61 UNL     1      40.846  -3.504  -5.714  1.00  0.00     0.174 HD
ATOM     12  H62 UNL     1      40.949  -5.020  -4.813  1.00  0.00     0.174 HD
HETATM   13  N7  UNL     1      38.537  -3.846  -6.631  1.00  0.00    -0.180 N 
ATOM     14  H7  UNL     1      38.971  -2.967  -6.913  1.00  0.00     0.185 HD
ENDROOT
BRANCH   1  15
HETATM   15  C6  UNL     1      36.517  -3.229  -7.948  1.00  0.00     0.159 C 
BRANCH  15  16
HETATM   16  S1  UNL     1      37.444  -2.829  -9.469  1.00  0.00    -0.085 SA
BRANCH  16  17
HETATM   17  C5  UNL     1      36.256  -2.755 -10.813  1.00  0.00     0.174 A 
HETATM   18  N2  UNL     1      35.262  -3.653 -10.939  1.00  0.00    -0.169 N 
HETATM   19  C4  UNL     1      34.384  -3.568 -11.965  1.00  0.00     0.694 A 
ATOM     20  H2  UNL     1      35.170  -4.404 -10.255  1.00  0.00     0.186 HD
HETATM   21  N10 UNL     1      34.551  -2.549 -12.846  1.00  0.00    -0.022 N 
HETATM   22  C11 UNL     1      35.531  -1.642 -12.742  1.00  0.00     0.699 A 
ATOM     23  H10 UNL     1      33.897  -2.469 -13.625  1.00  0.00     0.203 HD
HETATM   24  N8  UNL     1      36.391  -1.748 -11.715  1.00  0.00    -0.169 N 
ATOM     25  H8  UNL     1      37.146  -1.071 -11.612  1.00  0.00     0.186 HD
BRANCH  19  26
HETATM   26  N1  UNL     1      33.427  -4.424 -12.096  1.00  0.00    -0.226 N 
ATOM     27  H1  UNL     1      32.487  -4.114 -12.339  1.00  0.00     0.177 HD
BRANCH  26  28
HETATM   28  C3  UNL     1      33.702  -5.810 -11.896  1.00  0.00     0.137 C 
BRANCH  28  29
HETATM   29  C2  UNL     1      32.617  -6.712 -12.433  1.00  0.00     0.016 C 
HETATM   30  C1  UNL     1      32.988  -8.156 -12.404  1.00  0.00     0.006 C 
ENDBRANCH  28  29
ENDBRANCH  26  28
ENDBRANCH  19  26
BRANCH  22  31
HETATM   31  N9  UNL     1      35.684  -0.667 -13.594  1.00  0.00    -0.191 N 
ATOM     32  H9  UNL     1      36.317  -0.780 -14.386  1.00  0.00     0.184 HD
BRANCH  31  33
HETATM   33  C12 UNL     1      34.965   0.566 -13.421  1.00  0.00     0.052 A 
HETATM   34  C13 UNL     1      33.814   0.768 -14.137  1.00  0.00     0.033 A 
HETATM   35  C14 UNL     1      33.082   1.925 -14.015  1.00  0.00     0.042 A 
HETATM   36  C15 UNL     1      33.509   2.916 -13.153  1.00  0.00     0.105 A 
HETATM   37  C16 UNL     1      34.678   2.704 -12.429  1.00  0.00     0.107 A 
HETATM   38  O2  UNL     1      33.010   4.173 -12.808  1.00  0.00    -0.323 OA
HETATM   39  C17 UNL     1      35.399   1.541 -12.562  1.00  0.00     0.069 A 
HETATM   40  O1  UNL     1      34.856   3.851 -11.660  1.00  0.00    -0.323 OA
HETATM   41  C18 UNL     1      33.625   4.506 -11.568  1.00  0.00     0.352 C 
ENDBRANCH  31  33
ENDBRANCH  22  31
ENDBRANCH  16  17
ENDBRANCH  15  16
ENDBRANCH   1  15
TORSDOF 8
ENDMDL
MODEL 2
REMARK VINA RESULT: -8.687485491      2.553      4.797
REMARK  8 active torsions:
REMARK  status: ('A' for Active; 'I' for Inactive)
REMARK    1  A    between atoms: C2_2  and  C3_3 
REMARK    2  A    between atoms: C3_3  and  N1_4 
REMARK    3  A    between atoms: N1_4  and  C4_6 
REMARK    4  A    between atoms: C5_9  and  S1_10 
REMARK    5  A    between atoms: S1_10  and  C6_11 
REMARK    6  A    between atoms: C6_11  and  C7_12 
REMARK    7  A    between atoms: C11_28  and  N9_29 
REMARK    8  A    between atoms: N9_29  and  C12_31 
ROOT
HETATM    1  C7  UNL     1      35.688  -4.047  -9.277  1.00  0.00     0.109 A 
HETATM    2  N3  UNL     1      35.865  -4.813  -8.182  1.00  0.00    -0.322 N 
ATOM      3  H3  UNL     1      36.410  -4.446  -7.401  1.00  0.00     0.169 HD
HETATM    4  C8  UNL     1      35.335  -6.062  -8.094  1.00  0.00     0.204 A 
HETATM    5  C9  UNL     1      35.539  -6.859  -6.914  1.00  0.00     0.137 C 
HETATM    6  N4  UNL     1      35.694  -7.505  -5.952  1.00  0.00    -0.188 NA
HETATM    7  N5  UNL     1      34.612  -6.553  -9.127  1.00  0.00    -0.167 N 
ATOM      8  H5  UNL     1      34.210  -7.489  -9.071  1.00  0.00     0.186 HD
HETATM    9  C10 UNL     1      34.425  -5.813 -10.216  1.00  0.00     0.679 A 
HETATM   10  N6  UNL     1      33.722  -6.312 -11.201  1.00  0.00    -0.234 N 
ATOM     11  H61 UNL     1      33.579  -5.744 -12.036  1.00  0.00     0.174 HD
ATOM     12  H62 UNL     1      33.320  -7.247 -11.145  1.00  0.00     0.174 HD
HETATM   13  N7  UNL     1      34.954  -4.583 -10.290  1.00  0.00    -0.180 N 
ATOM     14  H7  UNL     1      34.802  -4.032 -11.134  1.00  0.00     0.185 HD
ENDROOT
BRANCH   1  15
HETATM   15  C6  UNL     1      36.276  -2.699  -9.341  1.00  0.00     0.159 C 
BRANCH  15  16
HETATM   16  S1  UNL     1      37.880  -2.711 -10.212  1.00  0.00    -0.085 SA
BRANCH  16  17
HETATM   17  C5  UNL     1      37.631  -1.906 -11.797  1.00  0.00     0.174 A 
HETATM   18  N2  UNL     1      38.648  -1.665 -12.644  1.00  0.00    -0.169 N 
HETATM   19  C4  UNL     1      38.426  -1.056 -13.832  1.00  0.00     0.694 A 
ATOM     20  H2  UNL     1      39.596  -1.944 -12.389  1.00  0.00     0.186 HD
HETATM   21  N10 UNL     1      37.147  -0.707 -14.123  1.00  0.00    -0.022 N 
HETATM   22  C11 UNL     1      36.117  -0.936 -13.298  1.00  0.00     0.699 A 
ATOM     23  H10 UNL     1      36.961  -0.247 -15.015  1.00  0.00     0.203 HD
HETATM   24  N8  UNL     1      36.364  -1.542 -12.125  1.00  0.00    -0.169 N 
ATOM     25  H8  UNL     1      35.598  -1.730 -11.478  1.00  0.00     0.186 HD
BRANCH  19  26
HETATM   26  N1  UNL     1      39.394  -0.819 -14.651  1.00  0.00    -0.226 N 
ATOM     27  H1  UNL     1      39.552  -1.428 -15.454  1.00  0.00     0.177 HD
BRANCH  26  28
HETATM   28  C3  UNL     1      40.242   0.306 -14.420  1.00  0.00     0.137 C 
BRANCH  28  29
HETATM   29  C2  UNL     1      41.598  -0.076 -13.876  1.00  0.00     0.016 C 
HETATM   30  C1  UNL     1      42.202   0.980 -13.014  1.00  0.00     0.006 C 
ENDBRANCH  28  29
ENDBRANCH  26  28
ENDBRANCH  19  26
BRANCH  22  31
HETATM   31  N9  UNL     1      34.893  -0.597 -13.587  1.00  0.00    -0.191 N 
ATOM     32  H9  UNL     1      34.242  -1.297 -13.942  1.00  0.00     0.184 HD
BRANCH  31  33
HETATM   33  C12 UNL     1      34.455   0.761 -13.407  1.00  0.00     0.052 A 
HETATM   34  C13 UNL     1      33.511   1.272 -14.260  1.00  0.00     0.033 A 
HETATM   35  C14 UNL     1      33.052   2.562 -14.138  1.00  0.00     0.042 A 
HETATM   36  C15 UNL     1      33.548   3.373 -13.136  1.00  0.00     0.105 A 
HETATM   37  C16 UNL     1      34.506   2.848 -12.274  1.00  0.00     0.107 A 
HETATM   38  O2  UNL     1      33.300   4.691 -12.752  1.00  0.00    -0.323 OA
HETATM   39  C17 UNL     1      34.954   1.555 -12.408  1.00  0.00     0.069 A 
HETATM   40  O1  UNL     1      34.813   3.873 -11.386  1.00  0.00    -0.323 OA
HETATM   41  C18 UNL     1      33.765   4.798 -11.412  1.00  0.00     0.352 C 
ENDBRANCH  31  33
ENDBRANCH  22  31
ENDBRANCH  16  17
ENDBRANCH  15  16
ENDBRANCH   1  15
TORSDOF 8
ENDMDL
MODEL 3
REMARK VINA RESULT: -8.646191616      4.206      6.328
REMARK  8 active torsions:
REMARK  status: ('A' for Active; 'I' for Inactive)
REMARK    1  A    between atoms: C2_2  and  C3_3 
REMARK    2  A    between atoms: C3_3  and  N1_4 
REMARK    3  A    between atoms: N1_4  and  C4_6 
REMARK    4  A    between atoms: C5_9  and  S1_10 
REMARK    5  A    between atoms: S1_10  and  C6_11 
REMARK    6  A    between atoms: C6_11  and  C7_12 
REMARK    7  A    between atoms: C11_28  and  N9_29 
REMARK    8  A    between atoms: N9_29  and  C12_31 
ROOT
HETATM    1  C7  UNL     1      41.104  -3.227 -13.606  1.00  0.00     0.109 A 
HETATM    2  N3  UNL     1      41.392  -3.199 -14.923  1.00  0.00    -0.322 N 
ATOM      3  H3  UNL     1      41.183  -2.358 -15.461  1.00  0.00     0.169 HD
HETATM    4  C8  UNL     1      41.956  -4.266 -15.551  1.00  0.00     0.204 A 
HETATM    5  C9  UNL     1      42.254  -4.211 -16.956  1.00  0.00     0.137 C 
HETATM    6  N4  UNL     1      42.507  -4.165 -18.097  1.00  0.00    -0.188 NA
HETATM    7  N5  UNL     1      42.235  -5.384 -14.842  1.00  0.00    -0.167 N 
ATOM      8  H5  UNL     1      42.657  -6.190 -15.303  1.00  0.00     0.186 HD
HETATM    9  C10 UNL     1      41.959  -5.431 -13.542  1.00  0.00     0.679 A 
HETATM   10  N6  UNL     1      42.238  -6.526 -12.880  1.00  0.00    -0.234 N 
ATOM     11  H61 UNL     1      42.027  -6.561 -11.883  1.00  0.00     0.174 HD
ATOM     12  H62 UNL     1      42.662  -7.331 -13.341  1.00  0.00     0.174 HD
HETATM   13  N7  UNL     1      41.402  -4.373 -12.936  1.00  0.00    -0.180 N 
ATOM     14  H7  UNL     1      41.196  -4.429 -11.939  1.00  0.00     0.185 HD
ENDROOT
BRANCH   1  15
HETATM   15  C6  UNL     1      40.494  -2.055 -12.958  1.00  0.00     0.159 C 
BRANCH  15  16
HETATM   16  S1  UNL     1      39.279  -1.244 -14.053  1.00  0.00    -0.085 SA
BRANCH  16  17
HETATM   17  C5  UNL     1      37.691  -1.294 -13.218  1.00  0.00     0.174 A 
HETATM   18  N2  UNL     1      37.517  -1.942 -12.052  1.00  0.00    -0.169 N 
HETATM   19  C4  UNL     1      36.306  -1.960 -11.448  1.00  0.00     0.694 A 
ATOM     20  H2  UNL     1      38.305  -2.424 -11.618  1.00  0.00     0.186 HD
HETATM   21  N10 UNL     1      35.292  -1.303 -12.066  1.00  0.00    -0.022 N 
HETATM   22  C11 UNL     1      35.439  -0.650 -13.227  1.00  0.00     0.699 A 
ATOM     23  H10 UNL     1      34.372  -1.306 -11.625  1.00  0.00     0.203 HD
HETATM   24  N8  UNL     1      36.652  -0.647 -13.805  1.00  0.00    -0.169 N 
ATOM     25  H8  UNL     1      36.792  -0.158 -14.689  1.00  0.00     0.186 HD
BRANCH  19  26
HETATM   26  N1  UNL     1      36.127  -2.579 -10.330  1.00  0.00    -0.226 N 
ATOM     27  H1  UNL     1      35.240  -3.040 -10.131  1.00  0.00     0.177 HD
BRANCH  26  28
HETATM   28  C3  UNL     1      37.187  -2.610  -9.375  1.00  0.00     0.137 C 
BRANCH  28  29
HETATM   29  C2  UNL     1      36.726  -2.995  -7.990  1.00  0.00     0.016 C 
HETATM   30  C1  UNL     1      37.433  -2.252  -6.908  1.00  0.00     0.006 C 
ENDBRANCH  28  29
ENDBRANCH  26  28
ENDBRANCH  19  26
BRANCH  22  31
HETATM   31  N9  UNL     1      34.459  -0.023 -13.813  1.00  0.00    -0.191 N 
ATOM     32  H9  UNL     1      33.897  -0.503 -14.516  1.00  0.00     0.184 HD
BRANCH  31  33
HETATM   33  C12 UNL     1      34.166   1.343 -13.473  1.00  0.00     0.052 A 
HETATM   34  C13 UNL     1      33.366   2.078 -14.310  1.00  0.00     0.033 A 
HETATM   35  C14 UNL     1      33.050   3.388 -14.039  1.00  0.00     0.042 A 
HETATM   36  C15 UNL     1      33.544   3.989 -12.898  1.00  0.00     0.105 A 
HETATM   37  C16 UNL     1      34.356   3.237 -12.053  1.00  0.00     0.107 A 
HETATM   38  O2  UNL     1      33.416   5.265 -12.349  1.00  0.00    -0.323 OA
HETATM   39  C17 UNL     1      34.663   1.928 -12.338  1.00  0.00     0.069 A 
HETATM   40  O1  UNL     1      34.698   4.089 -11.008  1.00  0.00    -0.323 OA
HETATM   41  C18 UNL     1      33.770   5.134 -10.976  1.00  0.00     0.352 C 
ENDBRANCH  31  33
ENDBRANCH  22  31
ENDBRANCH  16  17
ENDBRANCH  15  16
ENDBRANCH   1  15
TORSDOF 8
ENDMDL
MODEL 4
REMARK VINA RESULT: -8.633767219      4.039      5.770
REMARK  8 active torsions:
REMARK  status: ('A' for Active; 'I' for Inactive)
REMARK    1  A    between atoms: C2_2  and  C3_3 
REMARK    2  A    between atoms: C3_3  and  N1_4 
REMARK    3  A    between atoms: N1_4  and  C4_6 
REMARK    4  A    between atoms: C5_9  and  S1_10 
REMARK    5  A    between atoms: S1_10  and  C6_11 
REMARK    6  A    between atoms: C6_11  and  C7_12 
REMARK    7  A    between atoms: C11_28  and  N9_29 
REMARK    8  A    between atoms: N9_29  and  C12_31 
ROOT
HETATM    1  C7  UNL     1      41.117  -3.123 -13.547  1.00  0.00     0.109 A 
HETATM    2  N3  UNL     1      41.141  -4.250 -12.809  1.00  0.00    -0.322 N 
ATOM      3  H3  UNL     1      40.720  -4.246 -11.879  1.00  0.00     0.169 HD
HETATM    4  C8  UNL     1      41.713  -5.394 -13.273  1.00  0.00     0.204 A 
HETATM    5  C9  UNL     1      41.726  -6.583 -12.464  1.00  0.00     0.137 C 
HETATM    6  N4  UNL     1      41.729  -7.554 -11.813  1.00  0.00    -0.188 NA
HETATM    7  N5  UNL     1      42.273  -5.405 -14.504  1.00  0.00    -0.167 N 
ATOM      8  H5  UNL     1      42.705  -6.257 -14.861  1.00  0.00     0.186 HD
HETATM    9  C10 UNL     1      42.259  -4.304 -15.249  1.00  0.00     0.679 A 
HETATM   10  N6  UNL     1      42.808  -4.342 -16.437  1.00  0.00    -0.234 N 
ATOM     11  H61 UNL     1      42.797  -3.497 -17.008  1.00  0.00     0.174 HD
ATOM     12  H62 UNL     1      43.239  -5.194 -16.795  1.00  0.00     0.174 HD
HETATM   13  N7  UNL     1      41.693  -3.184 -14.779  1.00  0.00    -0.180 N 
ATOM     14  H7  UNL     1      41.693  -2.349 -15.364  1.00  0.00     0.185 HD
ENDROOT
BRANCH   1  15
HETATM   15  C6  UNL     1      40.490  -1.903 -13.015  1.00  0.00     0.159 C 
BRANCH  15  16
HETATM   16  S1  UNL     1      39.212  -1.261 -14.150  1.00  0.00    -0.085 SA
BRANCH  16  17
HETATM   17  C5  UNL     1      37.647  -1.307 -13.271  1.00  0.00     0.174 A 
HETATM   18  N2  UNL     1      37.504  -1.951 -12.099  1.00  0.00    -0.169 N 
HETATM   19  C4  UNL     1      36.310  -1.966 -11.462  1.00  0.00     0.694 A 
ATOM     20  H2  UNL     1      38.303  -2.432 -11.685  1.00  0.00     0.186 HD
HETATM   21  N10 UNL     1      35.280  -1.309 -12.054  1.00  0.00    -0.022 N 
HETATM   22  C11 UNL     1      35.397  -0.660 -13.220  1.00  0.00     0.699 A 
ATOM     23  H10 UNL     1      34.373  -1.309 -11.588  1.00  0.00     0.203 HD
HETATM   24  N8  UNL     1      36.593  -0.661 -13.832  1.00  0.00    -0.169 N 
ATOM     25  H8  UNL     1      36.709  -0.174 -14.721  1.00  0.00     0.186 HD
BRANCH  19  26
HETATM   26  N1  UNL     1      36.162  -2.581 -10.338  1.00  0.00    -0.226 N 
ATOM     27  H1  UNL     1      35.294  -3.075 -10.130  1.00  0.00     0.177 HD
BRANCH  26  28
HETATM   28  C3  UNL     1      37.227  -2.561  -9.388  1.00  0.00     0.137 C 
BRANCH  28  29
HETATM   29  C2  UNL     1      36.810  -3.047  -8.021  1.00  0.00     0.016 C 
HETATM   30  C1  UNL     1      37.368  -2.222  -6.910  1.00  0.00     0.006 C 
ENDBRANCH  28  29
ENDBRANCH  26  28
ENDBRANCH  19  26
BRANCH  22  31
HETATM   31  N9  UNL     1      34.402  -0.033 -13.781  1.00  0.00    -0.191 N 
ATOM     32  H9  UNL     1      33.811  -0.519 -14.456  1.00  0.00     0.184 HD
BRANCH  31  33
HETATM   33  C12 UNL     1      34.133   1.341 -13.453  1.00  0.00     0.052 A 
HETATM   34  C13 UNL     1      33.369   2.090 -14.311  1.00  0.00     0.033 A 
HETATM   35  C14 UNL     1      33.077   3.408 -14.052  1.00  0.00     0.042 A 
HETATM   36  C15 UNL     1      33.559   4.003 -12.903  1.00  0.00     0.105 A 
HETATM   37  C16 UNL     1      34.334   3.236 -12.037  1.00  0.00     0.107 A 
HETATM   38  O2  UNL     1      33.448   5.284 -12.362  1.00  0.00    -0.323 OA
HETATM   39  C17 UNL     1      34.617   1.919 -12.310  1.00  0.00     0.069 A 
HETATM   40  O1  UNL     1      34.672   4.084 -10.987  1.00  0.00    -0.323 OA
HETATM   41  C18 UNL     1      33.768   5.150 -10.981  1.00  0.00     0.352 C 
ENDBRANCH  31  33
ENDBRANCH  22  31
ENDBRANCH  16  17
ENDBRANCH  15  16
ENDBRANCH   1  15
TORSDOF 8
ENDMDL
MODEL 5
REMARK VINA RESULT: -8.629774576      2.623      4.296
REMARK  8 active torsions:
REMARK  status: ('A' for Active; 'I' for Inactive)
REMARK    1  A    between atoms: C2_2  and  C3_3 
REMARK    2  A    between atoms: C3_3  and  N1_4 
REMARK    3  A    between atoms: N1_4  and  C4_6 
REMARK    4  A    between atoms: C5_9  and  S1_10 
REMARK    5  A    between atoms: S1_10  and  C6_11 
REMARK    6  A    between atoms: C6_11  and  C7_12 
REMARK    7  A    between atoms: C11_28  and  N9_29 
REMARK    8  A    between atoms: N9_29  and  C12_31 
ROOT
HETATM    1  C7  UNL     1      36.026  -4.056  -8.711  1.00  0.00     0.109 A 
HETATM    2  N3  UNL     1      36.217  -4.881  -7.662  1.00  0.00    -0.322 N 
ATOM      3  H3  UNL     1      36.813  -4.577  -6.891  1.00  0.00     0.169 HD
HETATM    4  C8  UNL     1      35.634  -6.109  -7.606  1.00  0.00     0.204 A 
HETATM    5  C9  UNL     1      35.854  -6.970  -6.476  1.00  0.00     0.137 C 
HETATM    6  N4  UNL     1      36.023  -7.668  -5.554  1.00  0.00    -0.188 NA
HETATM    7  N5  UNL     1      34.844  -6.517  -8.626  1.00  0.00    -0.167 N 
ATOM      8  H5  UNL     1      34.402  -7.436  -8.594  1.00  0.00     0.186 HD
HETATM    9  C10 UNL     1      34.642  -5.717  -9.669  1.00  0.00     0.679 A 
HETATM   10  N6  UNL     1      33.873  -6.137 -10.642  1.00  0.00    -0.234 N 
ATOM     11  H61 UNL     1      33.718  -5.523 -11.442  1.00  0.00     0.174 HD
ATOM     12  H62 UNL     1      33.431  -7.055 -10.611  1.00  0.00     0.174 HD
HETATM   13  N7  UNL     1      35.223  -4.510  -9.711  1.00  0.00    -0.180 N 
ATOM     14  H7  UNL     1      35.059  -3.912 -10.520  1.00  0.00     0.185 HD
ENDROOT
BRANCH   1  15
HETATM   15  C6  UNL     1      36.672  -2.734  -8.739  1.00  0.00     0.159 C 
BRANCH  15  16
HETATM   16  S1  UNL     1      38.297  -2.803  -9.567  1.00  0.00    -0.085 SA
BRANCH  16  17
HETATM   17  C5  UNL     1      38.035  -2.378 -11.291  1.00  0.00     0.174 A 
HETATM   18  N2  UNL     1      39.036  -2.391 -12.191  1.00  0.00    -0.169 N 
HETATM   19  C4  UNL     1      38.803  -2.065 -13.484  1.00  0.00     0.694 A 
ATOM     20  H2  UNL     1      39.978  -2.648 -11.896  1.00  0.00     0.186 HD
HETATM   21  N10 UNL     1      37.533  -1.731 -13.824  1.00  0.00    -0.022 N 
HETATM   22  C11 UNL     1      36.519  -1.711 -12.948  1.00  0.00     0.699 A 
ATOM     23  H10 UNL     1      37.340  -1.483 -14.794  1.00  0.00     0.203 HD
HETATM   24  N8  UNL     1      36.776  -2.039 -11.670  1.00  0.00    -0.169 N 
ATOM     25  H8  UNL     1      36.022  -2.033 -10.982  1.00  0.00     0.186 HD
BRANCH  19  26
HETATM   26  N1  UNL     1      39.756  -2.073 -14.354  1.00  0.00    -0.226 N 
ATOM     27  H1  UNL     1      39.608  -1.682 -15.284  1.00  0.00     0.177 HD
BRANCH  26  28
HETATM   28  C3  UNL     1      41.018  -2.635 -13.999  1.00  0.00     0.137 C 
BRANCH  28  29
HETATM   29  C2  UNL     1      41.305  -3.940 -14.704  1.00  0.00     0.016 C 
HETATM   30  C1  UNL     1      41.683  -5.040 -13.770  1.00  0.00     0.006 C 
ENDBRANCH  28  29
ENDBRANCH  26  28
ENDBRANCH  19  26
BRANCH  22  31
HETATM   31  N9  UNL     1      35.302  -1.389 -13.284  1.00  0.00    -0.191 N 
ATOM     32  H9  UNL     1      34.667  -2.103 -13.639  1.00  0.00     0.184 HD
BRANCH  31  33
HETATM   33  C12 UNL     1      34.851  -0.029 -13.156  1.00  0.00     0.052 A 
HETATM   34  C13 UNL     1      35.335   0.736 -12.127  1.00  0.00     0.033 A 
HETATM   35  C14 UNL     1      34.943   2.042 -11.953  1.00  0.00     0.042 A 
HETATM   36  C15 UNL     1      34.038   2.607 -12.830  1.00  0.00     0.105 A 
HETATM   37  C16 UNL     1      33.551   1.824 -13.872  1.00  0.00     0.107 A 
HETATM   38  O2  UNL     1      33.452   3.869 -12.929  1.00  0.00    -0.323 OA
HETATM   39  C17 UNL     1      33.954   0.520 -14.034  1.00  0.00     0.069 A 
HETATM   40  O1  UNL     1      32.675   2.644 -14.578  1.00  0.00    -0.323 OA
HETATM   41  C18 UNL     1      32.977   3.972 -14.267  1.00  0.00     0.352 C 
ENDBRANCH  31  33
ENDBRANCH  22  31
ENDBRANCH  16  17
ENDBRANCH  15  16
ENDBRANCH   1  15
TORSDOF 8
ENDMDL
