MODEL 1
REMARK VINA RESULT: -5.316423701      0.000      0.000
REMARK  8 active torsions:
REMARK  status: ('A' for Active; 'I' for Inactive)
REMARK    1  A    between atoms: O1_2  and  C2_3 
REMARK    2  A    between atoms: C2_3  and  C3_4 
REMARK    3  A    between atoms: C3_4  and  O2_5 
REMARK    4  A    between atoms: O2_5  and  C4_6 
REMARK    5  A    between atoms: C6_11  and  N2_12 
REMARK    6  A    between atoms: C10_22  and  S2_23 
REMARK    7  A    between atoms: S2_23  and  C11_24 
REMARK    8  A    between atoms: C12_27  and  N6_28 
ROOT
HETATM    1  C11 UNL     1      44.486  -3.610 -14.669  1.00  0.00     0.100 A 
HETATM    2  N5  UNL     1      44.647  -4.870 -14.353  1.00  0.00    -0.330 N 
ATOM      3  H5  UNL     1      44.613  -5.169 -13.378  1.00  0.00     0.168 HD
HETATM    4  C12 UNL     1      44.856  -5.753 -15.327  1.00  0.00     0.144 A 
HETATM    5  S3  UNL     1      44.827  -4.794 -16.734  1.00  0.00    -0.041 SA
HETATM    6  C13 UNL     1      44.545  -3.284 -16.000  1.00  0.00     0.122 A 
HETATM    7  C14 UNL     1      44.398  -1.962 -16.601  1.00  0.00     0.110 C 
HETATM    8  N7  UNL     1      44.288  -0.923 -17.094  1.00  0.00    -0.191 NA
ENDROOT
BRANCH   1   9
HETATM    9  S2  UNL     1      44.193  -2.317 -13.406  1.00  0.00    -0.093 SA
BRANCH   9  10
HETATM   10  C10 UNL     1      42.434  -2.186 -13.184  1.00  0.00     0.173 C 
HETATM   11  C9  UNL     1      41.727  -1.173 -14.055  1.00  0.00     0.241 C 
HETATM   12  N4  UNL     1      40.629  -2.071 -13.966  1.00  0.00    -0.303 N 
HETATM   13  O3  UNL     1      41.990  -0.068 -14.593  1.00  0.00    -0.272 OA
HETATM   14  C8  UNL     1      39.225  -2.227 -13.874  1.00  0.00     0.088 A 
HETATM   15  C15 UNL     1      41.578  -3.134 -13.999  1.00  0.00     0.156 C 
HETATM   16  C5  UNL     1      38.647  -3.217 -13.111  1.00  0.00     0.117 A 
HETATM   17  C7  UNL     1      38.400  -1.374 -14.563  1.00  0.00     0.138 A 
HETATM   18  S1  UNL     1      39.796  -4.279 -12.249  1.00  0.00    -0.075 SA
HETATM   19  N1  UNL     1      37.352  -3.351 -13.039  1.00  0.00    -0.184 N 
HETATM   20  C4  UNL     1      41.214  -4.427 -13.405  1.00  0.00     0.214 C 
HETATM   21  C6  UNL     1      36.528  -2.527 -13.704  1.00  0.00     0.676 A 
ATOM     22  H1  UNL     1      36.957  -4.096 -12.466  1.00  0.00     0.185 HD
HETATM   23  N3  UNL     1      37.067  -1.554 -14.454  1.00  0.00    -0.200 N 
ATOM     24  H3  UNL     1      36.446  -0.925 -14.962  1.00  0.00     0.183 HD
BRANCH  20  25
HETATM   25  O2  UNL     1      42.285  -5.035 -12.814  1.00  0.00    -0.371 OA
BRANCH  25  26
HETATM   26  C3  UNL     1      41.996  -5.953 -11.827  1.00  0.00     0.195 C 
BRANCH  26  27
HETATM   27  C2  UNL     1      42.341  -7.361 -12.194  1.00  0.00     0.193 C 
BRANCH  27  28
HETATM   28  O1  UNL     1      43.662  -7.535 -12.566  1.00  0.00    -0.394 OA
HETATM   29  C1  UNL     1      44.576  -7.446 -11.544  1.00  0.00     0.201 C 
ENDBRANCH  27  28
ENDBRANCH  26  27
ENDBRANCH  25  26
ENDBRANCH  20  25
BRANCH  21  30
HETATM   30  N2  UNL     1      35.225  -2.666 -13.627  1.00  0.00    -0.234 N 
ATOM     31  H22 UNL     1      34.704  -3.109 -14.385  1.00  0.00     0.174 HD
ATOM     32  H21 UNL     1      34.708  -2.337 -12.812  1.00  0.00     0.174 HD
ENDBRANCH  21  30
ENDBRANCH   9  10
ENDBRANCH   1   9
BRANCH   4  33
HETATM   33  N6  UNL     1      45.039  -7.050 -15.211  1.00  0.00    -0.380 N 
ATOM     34  H62 UNL     1      44.345  -7.798 -15.189  1.00  0.00     0.158 HD
ATOM     35  H61 UNL     1      45.924  -7.550 -15.122  1.00  0.00     0.158 HD
ENDBRANCH   4  33
TORSDOF 8
ENDMDL
MODEL 2
REMARK VINA RESULT: -5.145168678      1.055      2.350
REMARK  8 active torsions:
REMARK  status: ('A' for Active; 'I' for Inactive)
REMARK    1  A    between atoms: O1_2  and  C2_3 
REMARK    2  A    between atoms: C2_3  and  C3_4 
REMARK    3  A    between atoms: C3_4  and  O2_5 
REMARK    4  A    between atoms: O2_5  and  C4_6 
REMARK    5  A    between atoms: C6_11  and  N2_12 
REMARK    6  A    between atoms: C10_22  and  S2_23 
REMARK    7  A    between atoms: S2_23  and  C11_24 
REMARK    8  A    between atoms: C12_27  and  N6_28 
ROOT
HETATM    1  C11 UNL     1      44.425  -3.265 -15.728  1.00  0.00     0.100 A 
HETATM    2  N5  UNL     1      44.271  -2.359 -16.661  1.00  0.00    -0.330 N 
ATOM      3  H5  UNL     1      44.102  -1.384 -16.415  1.00  0.00     0.168 HD
HETATM    4  C12 UNL     1      44.340  -2.736 -17.936  1.00  0.00     0.144 A 
HETATM    5  S3  UNL     1      44.630  -4.411 -17.833  1.00  0.00    -0.041 SA
HETATM    6  C13 UNL     1      44.650  -4.555 -16.136  1.00  0.00     0.122 A 
HETATM    7  C14 UNL     1      44.851  -5.732 -15.297  1.00  0.00     0.110 C 
HETATM    8  N7  UNL     1      45.008  -6.676 -14.649  1.00  0.00    -0.191 NA
ENDROOT
BRANCH   1   9
HETATM    9  S2  UNL     1      44.349  -2.852 -13.946  1.00  0.00    -0.093 SA
BRANCH   9  10
HETATM   10  C10 UNL     1      42.668  -2.405 -13.578  1.00  0.00     0.173 C 
HETATM   11  C9  UNL     1      42.122  -1.205 -14.316  1.00  0.00     0.241 C 
HETATM   12  N4  UNL     1      40.876  -1.881 -14.207  1.00  0.00    -0.303 N 
HETATM   13  O3  UNL     1      42.563  -0.129 -14.793  1.00  0.00    -0.272 OA
HETATM   14  C8  UNL     1      39.478  -1.772 -14.017  1.00  0.00     0.088 A 
HETATM   15  C15 UNL     1      41.593  -3.099 -14.389  1.00  0.00     0.156 C 
HETATM   16  C5  UNL     1      38.765  -2.695 -13.283  1.00  0.00     0.117 A 
HETATM   17  C7  UNL     1      38.795  -0.721 -14.576  1.00  0.00     0.138 A 
HETATM   18  S1  UNL     1      39.734  -4.027 -12.591  1.00  0.00    -0.075 SA
HETATM   19  N1  UNL     1      37.476  -2.583 -13.120  1.00  0.00    -0.184 N 
HETATM   20  C4  UNL     1      41.019  -4.344 -13.863  1.00  0.00     0.214 C 
HETATM   21  C6  UNL     1      36.790  -1.564 -13.658  1.00  0.00     0.676 A 
ATOM     22  H1  UNL     1      36.979  -3.286 -12.572  1.00  0.00     0.185 HD
HETATM   23  N3  UNL     1      37.463  -0.651 -14.376  1.00  0.00    -0.200 N 
ATOM     24  H3  UNL     1      36.946   0.126 -14.788  1.00  0.00     0.183 HD
BRANCH  20  25
HETATM   25  O2  UNL     1      41.985  -5.195 -13.402  1.00  0.00    -0.371 OA
BRANCH  25  26
HETATM   26  C3  UNL     1      41.673  -5.910 -12.266  1.00  0.00     0.195 C 
BRANCH  26  27
HETATM   27  C2  UNL     1      42.452  -7.179 -12.122  1.00  0.00     0.193 C 
BRANCH  27  28
HETATM   28  O1  UNL     1      41.664  -8.309 -11.997  1.00  0.00    -0.394 OA
HETATM   29  C1  UNL     1      41.338  -8.657 -10.709  1.00  0.00     0.201 C 
ENDBRANCH  27  28
ENDBRANCH  26  27
ENDBRANCH  25  26
ENDBRANCH  20  25
BRANCH  21  30
HETATM   30  N2  UNL     1      35.493  -1.457 -13.489  1.00  0.00    -0.234 N 
ATOM     31  H22 UNL     1      34.861  -2.169 -13.856  1.00  0.00     0.174 HD
ATOM     32  H21 UNL     1      35.091  -0.664 -12.989  1.00  0.00     0.174 HD
ENDBRANCH  21  30
ENDBRANCH   9  10
ENDBRANCH   1   9
BRANCH   4  33
HETATM   33  N6  UNL     1      44.212  -1.981 -19.005  1.00  0.00    -0.380 N 
ATOM     34  H62 UNL     1      44.933  -1.633 -19.637  1.00  0.00     0.158 HD
ATOM     35  H61 UNL     1      43.352  -1.603 -19.403  1.00  0.00     0.158 HD
ENDBRANCH   4  33
TORSDOF 8
ENDMDL
MODEL 3
REMARK VINA RESULT: -5.073748352      8.955     10.829
REMARK  8 active torsions:
REMARK  status: ('A' for Active; 'I' for Inactive)
REMARK    1  A    between atoms: O1_2  and  C2_3 
REMARK    2  A    between atoms: C2_3  and  C3_4 
REMARK    3  A    between atoms: C3_4  and  O2_5 
REMARK    4  A    between atoms: O2_5  and  C4_6 
REMARK    5  A    between atoms: C6_11  and  N2_12 
REMARK    6  A    between atoms: C10_22  and  S2_23 
REMARK    7  A    between atoms: S2_23  and  C11_24 
REMARK    8  A    between atoms: C12_27  and  N6_28 
ROOT
HETATM    1  C11 UNL     1      39.131  -1.531  -2.464  1.00  0.00     0.100 A 
HETATM    2  N5  UNL     1      38.571  -1.994  -1.374  1.00  0.00    -0.330 N 
ATOM      3  H5  UNL     1      38.514  -2.998  -1.205  1.00  0.00     0.168 HD
HETATM    4  C12 UNL     1      38.080  -1.128  -0.491  1.00  0.00     0.144 A 
HETATM    5  S3  UNL     1      38.408   0.384  -1.202  1.00  0.00    -0.041 SA
HETATM    6  C13 UNL     1      39.171  -0.169  -2.620  1.00  0.00     0.122 A 
HETATM    7  C14 UNL     1      39.736   0.583  -3.736  1.00  0.00     0.110 C 
HETATM    8  N7  UNL     1      40.173   1.195  -4.613  1.00  0.00    -0.191 NA
ENDROOT
BRANCH   1   9
HETATM    9  S2  UNL     1      39.838  -2.636  -3.740  1.00  0.00    -0.093 SA
BRANCH   9  10
HETATM   10  C10 UNL     1      38.480  -3.296  -4.679  1.00  0.00     0.173 C 
HETATM   11  C9  UNL     1      37.905  -2.390  -5.743  1.00  0.00     0.241 C 
HETATM   12  N4  UNL     1      37.614  -3.606  -6.422  1.00  0.00    -0.303 N 
HETATM   13  O3  UNL     1      37.757  -1.156  -5.932  1.00  0.00    -0.272 OA
HETATM   14  C8  UNL     1      36.715  -4.318  -7.250  1.00  0.00     0.088 A 
HETATM   15  C15 UNL     1      38.839  -4.115  -5.901  1.00  0.00     0.156 C 
HETATM   16  C5  UNL     1      36.475  -5.664  -7.083  1.00  0.00     0.117 A 
HETATM   17  C7  UNL     1      36.055  -3.662  -8.259  1.00  0.00     0.138 A 
HETATM   18  S1  UNL     1      37.376  -6.435  -5.746  1.00  0.00    -0.075 SA
HETATM   19  N1  UNL     1      35.646  -6.308  -7.857  1.00  0.00    -0.184 N 
HETATM   20  C4  UNL     1      38.993  -5.567  -5.745  1.00  0.00     0.214 C 
HETATM   21  C6  UNL     1      34.991  -5.686  -8.849  1.00  0.00     0.676 A 
ATOM     22  H1  UNL     1      35.494  -7.305  -7.706  1.00  0.00     0.185 HD
HETATM   23  N3  UNL     1      35.208  -4.374  -9.031  1.00  0.00    -0.200 N 
ATOM     24  H3  UNL     1      34.712  -3.896  -9.783  1.00  0.00     0.183 HD
BRANCH  20  25
HETATM   25  O2  UNL     1      39.735  -5.885  -4.642  1.00  0.00    -0.371 OA
BRANCH  25  26
HETATM   26  C3  UNL     1      40.226  -7.171  -4.589  1.00  0.00     0.195 C 
BRANCH  26  27
HETATM   27  C2  UNL     1      40.837  -7.528  -3.272  1.00  0.00     0.193 C 
BRANCH  27  28
HETATM   28  O1  UNL     1      40.303  -8.667  -2.696  1.00  0.00    -0.394 OA
HETATM   29  C1  UNL     1      39.168  -9.152  -3.298  1.00  0.00     0.201 C 
ENDBRANCH  27  28
ENDBRANCH  26  27
ENDBRANCH  25  26
ENDBRANCH  20  25
BRANCH  21  30
HETATM   30  N2  UNL     1      34.158  -6.339  -9.624  1.00  0.00    -0.234 N 
ATOM     31  H22 UNL     1      33.350  -6.820  -9.228  1.00  0.00     0.174 HD
ATOM     32  H21 UNL     1      34.300  -6.380 -10.633  1.00  0.00     0.174 HD
ENDBRANCH  21  30
ENDBRANCH   9  10
ENDBRANCH   1   9
BRANCH   4  33
HETATM   33  N6  UNL     1      37.486  -1.395   0.652  1.00  0.00    -0.380 N 
ATOM     34  H62 UNL     1      36.656  -1.961   0.829  1.00  0.00     0.158 HD
ATOM     35  H61 UNL     1      37.755  -1.077   1.584  1.00  0.00     0.158 HD
ENDBRANCH   4  33
TORSDOF 8
ENDMDL
MODEL 4
REMARK VINA RESULT: -5.007726707      1.270      1.305
REMARK  8 active torsions:
REMARK  status: ('A' for Active; 'I' for Inactive)
REMARK    1  A    between atoms: O1_2  and  C2_3 
REMARK    2  A    between atoms: C2_3  and  C3_4 
REMARK    3  A    between atoms: C3_4  and  O2_5 
REMARK    4  A    between atoms: O2_5  and  C4_6 
REMARK    5  A    between atoms: C6_11  and  N2_12 
REMARK    6  A    between atoms: C10_22  and  S2_23 
REMARK    7  A    between atoms: S2_23  and  C11_24 
REMARK    8  A    between atoms: C12_27  and  N6_28 
ROOT
HETATM    1  C11 UNL     1      44.161  -2.917 -14.368  1.00  0.00     0.100 A 
HETATM    2  N5  UNL     1      44.105  -4.150 -13.930  1.00  0.00    -0.330 N 
ATOM      3  H5  UNL     1      44.006  -4.343 -12.933  1.00  0.00     0.168 HD
HETATM    4  C12 UNL     1      44.179  -5.145 -14.810  1.00  0.00     0.144 A 
HETATM    5  S3  UNL     1      44.332  -4.337 -16.302  1.00  0.00    -0.041 SA
HETATM    6  C13 UNL     1      44.294  -2.737 -15.721  1.00  0.00     0.122 A 
HETATM    7  C14 UNL     1      44.379  -1.473 -16.448  1.00  0.00     0.110 C 
HETATM    8  N7  UNL     1      44.452  -0.484 -17.039  1.00  0.00    -0.191 NA
ENDROOT
BRANCH   1   9
HETATM    9  S2  UNL     1      44.067  -1.477 -13.242  1.00  0.00    -0.093 SA
BRANCH   9  10
HETATM   10  C10 UNL     1      42.345  -1.127 -12.976  1.00  0.00     0.173 C 
HETATM   11  C9  UNL     1      41.650  -0.343 -14.064  1.00  0.00     0.241 C 
HETATM   12  N4  UNL     1      40.499  -1.074 -13.662  1.00  0.00    -0.303 N 
HETATM   13  O3  UNL     1      41.950   0.534 -14.914  1.00  0.00    -0.272 OA
HETATM   14  C8  UNL     1      39.099  -1.067 -13.455  1.00  0.00     0.088 A 
HETATM   15  C15 UNL     1      41.362  -2.184 -13.433  1.00  0.00     0.156 C 
HETATM   16  C5  UNL     1      38.510  -1.740 -12.408  1.00  0.00     0.117 A 
HETATM   17  C7  UNL     1      38.288  -0.373 -14.318  1.00  0.00     0.138 A 
HETATM   18  S1  UNL     1      39.641  -2.613 -11.335  1.00  0.00    -0.075 SA
HETATM   19  N1  UNL     1      37.217  -1.727 -12.232  1.00  0.00    -0.184 N 
HETATM   20  C4  UNL     1      40.951  -3.215 -12.471  1.00  0.00     0.214 C 
HETATM   21  C6  UNL     1      36.407  -1.056 -13.064  1.00  0.00     0.676 A 
ATOM     22  H1  UNL     1      36.815  -2.239 -11.447  1.00  0.00     0.185 HD
HETATM   23  N3  UNL     1      36.958  -0.391 -14.092  1.00  0.00    -0.200 N 
ATOM     24  H3  UNL     1      36.346   0.121 -14.727  1.00  0.00     0.183 HD
BRANCH  20  25
HETATM   25  O2  UNL     1      42.018  -3.725 -11.785  1.00  0.00    -0.371 OA
BRANCH  25  26
HETATM   26  C3  UNL     1      41.902  -5.033 -11.367  1.00  0.00     0.195 C 
BRANCH  26  27
HETATM   27  C2  UNL     1      41.293  -5.940 -12.389  1.00  0.00     0.193 C 
BRANCH  27  28
HETATM   28  O1  UNL     1      41.879  -7.191 -12.450  1.00  0.00    -0.394 OA
HETATM   29  C1  UNL     1      42.585  -7.563 -11.331  1.00  0.00     0.201 C 
ENDBRANCH  27  28
ENDBRANCH  26  27
ENDBRANCH  25  26
ENDBRANCH  20  25
BRANCH  21  30
HETATM   30  N2  UNL     1      35.107  -1.046 -12.882  1.00  0.00    -0.234 N 
ATOM     31  H22 UNL     1      34.687  -1.571 -12.115  1.00  0.00     0.174 HD
ATOM     32  H21 UNL     1      34.494  -0.515 -13.499  1.00  0.00     0.174 HD
ENDBRANCH  21  30
ENDBRANCH   9  10
ENDBRANCH   1   9
BRANCH   4  33
HETATM   33  N6  UNL     1      44.141  -6.438 -14.568  1.00  0.00    -0.380 N 
ATOM     34  H62 UNL     1      43.622  -6.943 -13.849  1.00  0.00     0.158 HD
ATOM     35  H61 UNL     1      44.633  -7.180 -15.065  1.00  0.00     0.158 HD
ENDBRANCH   4  33
TORSDOF 8
ENDMDL
MODEL 5
REMARK VINA RESULT: -4.975907700      2.633      4.802
REMARK  8 active torsions:
REMARK  status: ('A' for Active; 'I' for Inactive)
REMARK    1  A    between atoms: O1_2  and  C2_3 
REMARK    2  A    between atoms: C2_3  and  C3_4 
REMARK    3  A    between atoms: C3_4  and  O2_5 
REMARK    4  A    between atoms: O2_5  and  C4_6 
REMARK    5  A    between atoms: C6_11  and  N2_12 
REMARK    6  A    between atoms: C10_22  and  S2_23 
REMARK    7  A    between atoms: S2_23  and  C11_24 
REMARK    8  A    between atoms: C12_27  and  N6_28 
ROOT
HETATM    1  C11 UNL     1      43.033  -3.706 -16.304  1.00  0.00     0.100 A 
HETATM    2  N5  UNL     1      42.317  -4.502 -17.057  1.00  0.00    -0.330 N 
ATOM      3  H5  UNL     1      41.577  -5.075 -16.652  1.00  0.00     0.168 HD
HETATM    4  C12 UNL     1      42.574  -4.550 -18.362  1.00  0.00     0.144 A 
HETATM    5  S3  UNL     1      43.858  -3.447 -18.548  1.00  0.00    -0.041 SA
HETATM    6  C13 UNL     1      44.010  -2.967 -16.921  1.00  0.00     0.122 A 
HETATM    7  C14 UNL     1      44.932  -2.017 -16.305  1.00  0.00     0.110 C 
HETATM    8  N7  UNL     1      45.672  -1.266 -15.835  1.00  0.00    -0.191 NA
ENDROOT
BRANCH   1   9
HETATM    9  S2  UNL     1      42.760  -3.566 -14.499  1.00  0.00    -0.093 SA
BRANCH   9  10
HETATM   10  C10 UNL     1      41.087  -3.016 -14.259  1.00  0.00     0.173 C 
HETATM   11  C9  UNL     1      40.310  -3.708 -13.162  1.00  0.00     0.241 C 
HETATM   12  N4  UNL     1      39.642  -2.458 -13.041  1.00  0.00    -0.303 N 
HETATM   13  O3  UNL     1      40.276  -4.843 -12.623  1.00  0.00    -0.272 OA
HETATM   14  C8  UNL     1      38.426  -1.781 -12.788  1.00  0.00     0.088 A 
HETATM   15  C15 UNL     1      40.890  -1.835 -13.332  1.00  0.00     0.156 C 
HETATM   16  C5  UNL     1      38.077  -0.628 -13.455  1.00  0.00     0.117 A 
HETATM   17  C7  UNL     1      37.555  -2.275 -11.849  1.00  0.00     0.138 A 
HETATM   18  S1  UNL     1      39.268  -0.059 -14.660  1.00  0.00    -0.075 SA
HETATM   19  N1  UNL     1      36.954  -0.012 -13.208  1.00  0.00    -0.184 N 
HETATM   20  C4  UNL     1      40.890  -0.487 -13.914  1.00  0.00     0.214 C 
HETATM   21  C6  UNL     1      36.090  -0.478 -12.295  1.00  0.00     0.676 A 
ATOM     22  H1  UNL     1      36.729   0.841 -13.721  1.00  0.00     0.185 HD
HETATM   23  N3  UNL     1      36.407  -1.601 -11.632  1.00  0.00    -0.200 N 
ATOM     24  H3  UNL     1      35.753  -1.960 -10.935  1.00  0.00     0.183 HD
BRANCH  20  25
HETATM   25  O2  UNL     1      41.914  -0.315 -14.802  1.00  0.00    -0.371 OA
BRANCH  25  26
HETATM   26  C3  UNL     1      42.840   0.654 -14.482  1.00  0.00     0.195 C 
BRANCH  26  27
HETATM   27  C2  UNL     1      42.523   2.000 -15.050  1.00  0.00     0.193 C 
BRANCH  27  28
HETATM   28  O1  UNL     1      41.915   1.957 -16.291  1.00  0.00    -0.394 OA
HETATM   29  C1  UNL     1      40.944   2.906 -16.502  1.00  0.00     0.201 C 
ENDBRANCH  27  28
ENDBRANCH  26  27
ENDBRANCH  25  26
ENDBRANCH  20  25
BRANCH  21  30
HETATM   30  N2  UNL     1      34.961   0.145 -12.051  1.00  0.00    -0.234 N 
ATOM     31  H22 UNL     1      34.656   0.311 -11.092  1.00  0.00     0.174 HD
ATOM     32  H21 UNL     1      34.368   0.476 -12.813  1.00  0.00     0.174 HD
ENDBRANCH  21  30
ENDBRANCH   9  10
ENDBRANCH   1   9
BRANCH   4  33
HETATM   33  N6  UNL     1      41.970  -5.280 -19.275  1.00  0.00    -0.380 N 
ATOM     34  H62 UNL     1      42.032  -6.285 -19.439  1.00  0.00     0.158 HD
ATOM     35  H61 UNL     1      41.320  -4.966 -19.995  1.00  0.00     0.158 HD
ENDBRANCH   4  33
TORSDOF 8
ENDMDL
