MODEL 1
REMARK VINA RESULT: -9.203556386      0.000      0.000
REMARK  6 active torsions:
REMARK  status: ('A' for Active; 'I' for Inactive)
REMARK    1  A    between atoms: C2_2  and  C15_17 
REMARK    2  A    between atoms: C3_3  and  C4_4 
REMARK    3  A    between atoms: C4_4  and  C5_5 
REMARK    4  A    between atoms: C5_5  and  C6_6 
REMARK    5  A    between atoms: C6_6  and  C7_7 
REMARK    6  A    between atoms: C7_7  and  C8_8 
ROOT
HETATM    1  C4  UNL     1     -19.926  37.364 -32.780  1.00  0.00     0.028 C 
ENDROOT
BRANCH   1   2
HETATM    2  C3  UNL     1     -19.016  36.464 -32.080  1.00  0.00    -0.016 C 
HETATM    3  C2  UNL     1     -19.264  35.462 -31.294  1.00  0.00    -0.013 C 
HETATM    4  C1  UNL     1     -18.067  34.738 -30.733  1.00  0.00     0.052 C 
BRANCH   3   5
HETATM    5  C15 UNL     1     -20.561  34.982 -30.896  1.00  0.00     0.169 A 
HETATM    6  N1  UNL     1     -20.912  34.206 -29.876  1.00  0.00    -0.278 N 
HETATM    7  N2  UNL     1     -22.215  34.033 -29.912  1.00  0.00    -0.281 N 
ATOM      8  H1  UNL     1     -20.277  33.811 -29.182  1.00  0.00     0.189 HD
HETATM    9  C16 UNL     1     -22.706  34.699 -30.958  1.00  0.00     0.136 A 
ATOM     10  H2  UNL     1     -22.759  33.482 -29.249  1.00  0.00     0.189 HD
HETATM   11  C17 UNL     1     -24.113  34.822 -31.436  1.00  0.00     0.099 C 
HETATM   12  O1  UNL     1     -21.690  35.264 -31.538  1.00  0.00    -0.278 OA
ENDBRANCH   3   5
ENDBRANCH   1   2
BRANCH   1  13
HETATM   13  C5  UNL     1     -19.291  37.813 -34.077  1.00  0.00     0.004 C 
BRANCH  13  14
HETATM   14  C6  UNL     1     -20.315  37.708 -35.226  1.00  0.00     0.001 C 
BRANCH  14  15
HETATM   15  C7  UNL     1     -21.372  36.803 -34.760  1.00  0.00     0.009 C 
BRANCH  15  16
HETATM   16  C8  UNL     1     -22.038  35.861 -35.673  1.00  0.00     0.040 C 
HETATM   17  C9  UNL     1     -23.522  35.742 -35.601  1.00  0.00    -0.011 C 
HETATM   18  C10 UNL     1     -24.232  36.689 -34.691  1.00  0.00     0.010 C 
HETATM   19  C11 UNL     1     -24.013  34.340 -35.267  1.00  0.00     0.005 C 
HETATM   20  C12 UNL     1     -23.494  33.327 -36.254  1.00  0.00     0.004 C 
HETATM   21  C13 UNL     1     -22.199  33.771 -36.895  1.00  0.00     0.056 C 
HETATM   22  C14 UNL     1     -21.336  34.535 -35.889  1.00  0.00     0.164 C 
HETATM   23  F1  UNL     1     -20.137  34.793 -36.520  1.00  0.00    -0.230 F 
HETATM   24 BR1  UNL     1     -21.101  33.434 -34.381  1.00  0.00    -0.048 Br
ENDBRANCH  15  16
ENDBRANCH  14  15
ENDBRANCH  13  14
ENDBRANCH   1  13
TORSDOF 6
ENDMDL
MODEL 2
REMARK VINA RESULT: -9.078783234      4.471      6.390
REMARK  6 active torsions:
REMARK  status: ('A' for Active; 'I' for Inactive)
REMARK    1  A    between atoms: C2_2  and  C15_17 
REMARK    2  A    between atoms: C3_3  and  C4_4 
REMARK    3  A    between atoms: C4_4  and  C5_5 
REMARK    4  A    between atoms: C5_5  and  C6_6 
REMARK    5  A    between atoms: C6_6  and  C7_7 
REMARK    6  A    between atoms: C7_7  and  C8_8 
ROOT
HETATM    1  C4  UNL     1     -23.355  36.702 -33.139  1.00  0.00     0.028 C 
ENDROOT
BRANCH   1   2
HETATM    2  C3  UNL     1     -22.929  37.792 -34.010  1.00  0.00    -0.016 C 
HETATM    3  C2  UNL     1     -21.738  38.212 -34.310  1.00  0.00    -0.013 C 
HETATM    4  C1  UNL     1     -21.659  39.381 -35.258  1.00  0.00     0.052 C 
BRANCH   3   5
HETATM    5  C15 UNL     1     -20.492  37.684 -33.821  1.00  0.00     0.169 A 
HETATM    6  N1  UNL     1     -19.279  37.707 -34.364  1.00  0.00    -0.278 N 
HETATM    7  N2  UNL     1     -18.445  37.099 -33.550  1.00  0.00    -0.281 N 
ATOM      8  H1  UNL     1     -19.036  38.126 -35.262  1.00  0.00     0.189 HD
HETATM    9  C16 UNL     1     -19.122  36.682 -32.478  1.00  0.00     0.136 A 
ATOM     10  H2  UNL     1     -17.447  36.968 -33.711  1.00  0.00     0.189 HD
HETATM   11  C17 UNL     1     -18.642  35.945 -31.274  1.00  0.00     0.099 C 
HETATM   12  O1  UNL     1     -20.355  37.046 -32.663  1.00  0.00    -0.278 OA
ENDBRANCH   3   5
ENDBRANCH   1   2
BRANCH   1  13
HETATM   13  C5  UNL     1     -24.804  36.371 -33.419  1.00  0.00     0.004 C 
BRANCH  13  14
HETATM   14  C6  UNL     1     -25.533  36.051 -32.099  1.00  0.00     0.001 C 
BRANCH  14  15
HETATM   15  C7  UNL     1     -26.750  35.316 -32.463  1.00  0.00     0.009 C 
BRANCH  15  16
HETATM   16  C8  UNL     1     -28.068  35.971 -32.484  1.00  0.00     0.040 C 
HETATM   17  C9  UNL     1     -29.116  35.471 -31.548  1.00  0.00    -0.011 C 
HETATM   18  C10 UNL     1     -28.703  34.424 -30.568  1.00  0.00     0.010 C 
HETATM   19  C11 UNL     1     -30.374  34.968 -32.243  1.00  0.00     0.005 C 
HETATM   20  C12 UNL     1     -30.978  36.033 -33.123  1.00  0.00     0.004 C 
HETATM   21  C13 UNL     1     -29.946  37.031 -33.594  1.00  0.00     0.056 C 
HETATM   22  C14 UNL     1     -28.606  36.340 -33.851  1.00  0.00     0.164 C 
HETATM   23  F1  UNL     1     -27.769  37.297 -34.387  1.00  0.00    -0.230 F 
HETATM   24 BR1  UNL     1     -28.910  34.932 -35.061  1.00  0.00    -0.048 Br
ENDBRANCH  15  16
ENDBRANCH  14  15
ENDBRANCH  13  14
ENDBRANCH   1  13
TORSDOF 6
ENDMDL
MODEL 3
REMARK VINA RESULT: -9.053563085      3.483      5.635
REMARK  6 active torsions:
REMARK  status: ('A' for Active; 'I' for Inactive)
REMARK    1  A    between atoms: C2_2  and  C15_17 
REMARK    2  A    between atoms: C3_3  and  C4_4 
REMARK    3  A    between atoms: C4_4  and  C5_5 
REMARK    4  A    between atoms: C5_5  and  C6_6 
REMARK    5  A    between atoms: C6_6  and  C7_7 
REMARK    6  A    between atoms: C7_7  and  C8_8 
ROOT
HETATM    1  C4  UNL     1     -24.555  37.872 -34.683  1.00  0.00     0.028 C 
ENDROOT
BRANCH   1   2
HETATM    2  C3  UNL     1     -24.722  37.130 -33.438  1.00  0.00    -0.016 C 
HETATM    3  C2  UNL     1     -25.707  36.395 -33.024  1.00  0.00    -0.013 C 
HETATM    4  C1  UNL     1     -25.547  35.764 -31.663  1.00  0.00     0.052 C 
BRANCH   3   5
HETATM    5  C15 UNL     1     -26.938  36.133 -33.722  1.00  0.00     0.169 A 
HETATM    6  N1  UNL     1     -27.978  36.927 -33.955  1.00  0.00    -0.278 N 
HETATM    7  N2  UNL     1     -28.875  36.250 -34.636  1.00  0.00    -0.281 N 
ATOM      8  H1  UNL     1     -28.065  37.897 -33.655  1.00  0.00     0.189 HD
HETATM    9  C16 UNL     1     -28.414  35.015 -34.844  1.00  0.00     0.136 A 
ATOM     10  H2  UNL     1     -29.776  36.609 -34.954  1.00  0.00     0.189 HD
HETATM   11  C17 UNL     1     -29.043  33.868 -35.558  1.00  0.00     0.099 C 
HETATM   12  O1  UNL     1     -27.242  34.967 -34.283  1.00  0.00    -0.278 OA
ENDBRANCH   3   5
ENDBRANCH   1   2
BRANCH   1  13
HETATM   13  C5  UNL     1     -23.081  38.012 -34.992  1.00  0.00     0.004 C 
BRANCH  13  14
HETATM   14  C6  UNL     1     -22.576  36.749 -35.720  1.00  0.00     0.001 C 
BRANCH  14  15
HETATM   15  C7  UNL     1     -21.340  36.344 -35.042  1.00  0.00     0.009 C 
BRANCH  15  16
HETATM   16  C8  UNL     1     -21.268  36.226 -33.576  1.00  0.00     0.040 C 
HETATM   17  C9  UNL     1     -20.178  36.955 -32.865  1.00  0.00    -0.011 C 
HETATM   18  C10 UNL     1     -19.318  37.854 -33.688  1.00  0.00     0.010 C 
HETATM   19  C11 UNL     1     -19.251  36.049 -32.067  1.00  0.00     0.005 C 
HETATM   20  C12 UNL     1     -20.018  35.225 -31.064  1.00  0.00     0.004 C 
HETATM   21  C13 UNL     1     -21.452  35.010 -31.486  1.00  0.00     0.056 C 
HETATM   22  C14 UNL     1     -21.548  34.852 -33.005  1.00  0.00     0.164 C 
HETATM   23  F1  UNL     1     -22.864  34.542 -33.283  1.00  0.00    -0.230 F 
HETATM   24 BR1  UNL     1     -20.389  33.460 -33.512  1.00  0.00    -0.048 Br
ENDBRANCH  15  16
ENDBRANCH  14  15
ENDBRANCH  13  14
ENDBRANCH   1  13
TORSDOF 6
ENDMDL
MODEL 4
REMARK VINA RESULT: -9.048782406      4.535      6.748
REMARK  6 active torsions:
REMARK  status: ('A' for Active; 'I' for Inactive)
REMARK    1  A    between atoms: C2_2  and  C15_17 
REMARK    2  A    between atoms: C3_3  and  C4_4 
REMARK    3  A    between atoms: C4_4  and  C5_5 
REMARK    4  A    between atoms: C5_5  and  C6_6 
REMARK    5  A    between atoms: C6_6  and  C7_7 
REMARK    6  A    between atoms: C7_7  and  C8_8 
ROOT
HETATM    1  C4  UNL     1     -24.732  35.825 -34.153  1.00  0.00     0.028 C 
ENDROOT
BRANCH   1   2
HETATM    2  C3  UNL     1     -24.075  34.865 -35.034  1.00  0.00    -0.016 C 
HETATM    3  C2  UNL     1     -22.920  34.918 -35.623  1.00  0.00    -0.013 C 
HETATM    4  C1  UNL     1     -22.548  33.732 -36.475  1.00  0.00     0.052 C 
BRANCH   3   5
HETATM    5  C15 UNL     1     -21.969  35.995 -35.555  1.00  0.00     0.169 A 
HETATM    6  N1  UNL     1     -20.659  35.969 -35.331  1.00  0.00    -0.278 N 
HETATM    7  N2  UNL     1     -20.206  37.203 -35.362  1.00  0.00    -0.281 N 
ATOM      8  H1  UNL     1     -20.100  35.134 -35.163  1.00  0.00     0.189 HD
HETATM    9  C16 UNL     1     -21.226  38.028 -35.607  1.00  0.00     0.136 A 
ATOM     10  H2  UNL     1     -19.235  37.484 -35.223  1.00  0.00     0.189 HD
HETATM   11  C17 UNL     1     -21.242  39.513 -35.739  1.00  0.00     0.099 C 
HETATM   12  O1  UNL     1     -22.280  37.277 -35.719  1.00  0.00    -0.278 OA
ENDBRANCH   3   5
ENDBRANCH   1   2
BRANCH   1  13
HETATM   13  C5  UNL     1     -24.396  35.500 -32.715  1.00  0.00     0.004 C 
BRANCH  13  14
HETATM   14  C6  UNL     1     -25.559  35.928 -31.796  1.00  0.00     0.001 C 
BRANCH  14  15
HETATM   15  C7  UNL     1     -26.757  35.243 -32.294  1.00  0.00     0.009 C 
BRANCH  15  16
HETATM   16  C8  UNL     1     -28.058  35.927 -32.375  1.00  0.00     0.040 C 
HETATM   17  C9  UNL     1     -29.163  35.441 -31.500  1.00  0.00    -0.011 C 
HETATM   18  C10 UNL     1     -28.824  34.375 -30.513  1.00  0.00     0.010 C 
HETATM   19  C11 UNL     1     -30.394  34.974 -32.266  1.00  0.00     0.005 C 
HETATM   20  C12 UNL     1     -30.928  36.061 -33.162  1.00  0.00     0.004 C 
HETATM   21  C13 UNL     1     -29.852  37.042 -33.567  1.00  0.00     0.056 C 
HETATM   22  C14 UNL     1     -28.516  36.323 -33.763  1.00  0.00     0.164 C 
HETATM   23  F1  UNL     1     -27.632  37.267 -34.244  1.00  0.00    -0.230 F 
HETATM   24 BR1  UNL     1     -28.788  34.935 -35.005  1.00  0.00    -0.048 Br
ENDBRANCH  15  16
ENDBRANCH  14  15
ENDBRANCH  13  14
ENDBRANCH   1  13
TORSDOF 6
ENDMDL
MODEL 5
REMARK VINA RESULT: -8.956425741      4.415      6.303
REMARK  6 active torsions:
REMARK  status: ('A' for Active; 'I' for Inactive)
REMARK    1  A    between atoms: C2_2  and  C15_17 
REMARK    2  A    between atoms: C3_3  and  C4_4 
REMARK    3  A    between atoms: C4_4  and  C5_5 
REMARK    4  A    between atoms: C5_5  and  C6_6 
REMARK    5  A    between atoms: C6_6  and  C7_7 
REMARK    6  A    between atoms: C7_7  and  C8_8 
ROOT
HETATM    1  C4  UNL     1     -24.219  35.998 -32.482  1.00  0.00     0.028 C 
ENDROOT
BRANCH   1   2
HETATM    2  C3  UNL     1     -22.966  35.655 -31.817  1.00  0.00    -0.016 C 
HETATM    3  C2  UNL     1     -21.738  35.855 -32.184  1.00  0.00    -0.013 C 
HETATM    4  C1  UNL     1     -20.669  35.365 -31.240  1.00  0.00     0.052 C 
BRANCH   3   5
HETATM    5  C15 UNL     1     -21.295  36.484 -33.400  1.00  0.00     0.169 A 
HETATM    6  N1  UNL     1     -20.532  36.011 -34.380  1.00  0.00    -0.278 N 
HETATM    7  N2  UNL     1     -20.395  36.950 -35.291  1.00  0.00    -0.281 N 
ATOM      8  H1  UNL     1     -20.122  35.079 -34.420  1.00  0.00     0.189 HD
HETATM    9  C16 UNL     1     -21.071  38.031 -34.897  1.00  0.00     0.136 A 
ATOM     10  H2  UNL     1     -19.861  36.865 -36.156  1.00  0.00     0.189 HD
HETATM   11  C17 UNL     1     -21.232  39.352 -35.568  1.00  0.00     0.099 C 
HETATM   12  O1  UNL     1     -21.606  37.726 -33.753  1.00  0.00    -0.278 OA
ENDBRANCH   3   5
ENDBRANCH   1   2
BRANCH   1  13
HETATM   13  C5  UNL     1     -25.357  35.906 -31.490  1.00  0.00     0.004 C 
BRANCH  13  14
HETATM   14  C6  UNL     1     -25.907  34.465 -31.454  1.00  0.00     0.001 C 
BRANCH  14  15
HETATM   15  C7  UNL     1     -27.007  34.416 -32.424  1.00  0.00     0.009 C 
BRANCH  15  16
HETATM   16  C8  UNL     1     -28.046  35.457 -32.464  1.00  0.00     0.040 C 
HETATM   17  C9  UNL     1     -29.293  35.236 -31.676  1.00  0.00    -0.011 C 
HETATM   18  C10 UNL     1     -29.334  34.028 -30.802  1.00  0.00     0.010 C 
HETATM   19  C11 UNL     1     -30.561  35.229 -32.518  1.00  0.00     0.005 C 
HETATM   20  C12 UNL     1     -30.705  36.506 -33.305  1.00  0.00     0.004 C 
HETATM   21  C13 UNL     1     -29.369  37.160 -33.574  1.00  0.00     0.056 C 
HETATM   22  C14 UNL     1     -28.291  36.102 -33.812  1.00  0.00     0.164 C 
HETATM   23  F1  UNL     1     -27.145  36.785 -34.165  1.00  0.00    -0.230 F 
HETATM   24 BR1  UNL     1     -28.883  34.982 -35.203  1.00  0.00    -0.048 Br
ENDBRANCH  15  16
ENDBRANCH  14  15
ENDBRANCH  13  14
ENDBRANCH   1  13
TORSDOF 6
ENDMDL
