MODEL 1
REMARK VINA RESULT: -9.326242541      0.000      0.000
REMARK  8 active torsions:
REMARK  status: ('A' for Active; 'I' for Inactive)
REMARK    1  A    between atoms: C9_10  and  C10_11 
REMARK    2  A    between atoms: C10_11  and  O3_13 
REMARK    3  A    between atoms: O3_13  and  C11_14 
REMARK    4  A    between atoms: C11_14  and  C12_15 
REMARK    5  A    between atoms: C12_15  and  C13_16 
REMARK    6  A    between atoms: C13_16  and  C14_17 
REMARK    7  A    between atoms: C14_17  and  C15_18 
REMARK    8  A    between atoms: C16_22  and  C17_23 
ROOT
HETATM    1  O1  UNL     1     -22.499  34.883 -31.308  1.00  0.00    -0.297 OA
HETATM    2  C1  UNL     1     -21.812  35.447 -32.130  1.00  0.00     0.139 C 
HETATM    3  C2  UNL     1     -22.110  36.797 -32.674  1.00  0.00     0.089 C 
HETATM    4  C3  UNL     1     -21.257  36.979 -33.885  1.00  0.00    -0.020 C 
HETATM    5  C4  UNL     1     -22.197  37.180 -35.070  1.00  0.00     0.011 C 
HETATM    6  C5  UNL     1     -22.605  38.642 -35.161  1.00  0.00     0.001 C 
HETATM    7  C6  UNL     1     -21.467  39.523 -35.597  1.00  0.00     0.000 C 
HETATM    8  C7  UNL     1     -20.181  38.905 -35.095  1.00  0.00     0.001 C 
HETATM    9  C8  UNL     1     -20.409  38.230 -33.747  1.00  0.00     0.011 C 
HETATM   10  C9  UNL     1     -20.412  35.744 -34.002  1.00  0.00     0.112 C 
HETATM   11  C16 UNL     1     -20.582  34.931 -32.738  1.00  0.00     0.127 C 
ENDROOT
BRANCH  10  12
HETATM   12  C10 UNL     1     -20.909  34.928 -35.136  1.00  0.00     0.265 C 
HETATM   13  O2  UNL     1     -20.307  34.949 -36.234  1.00  0.00    -0.265 OA
BRANCH  12  14
HETATM   14  O3  UNL     1     -22.014  34.144 -35.027  1.00  0.00    -0.321 OA
BRANCH  14  15
HETATM   15  C11 UNL     1     -22.926  33.812 -36.037  1.00  0.00     0.178 C 
BRANCH  15  16
HETATM   16  C12 UNL     1     -24.362  33.924 -35.690  1.00  0.00     0.027 C 
BRANCH  16  17
HETATM   17  C13 UNL     1     -24.527  34.911 -34.564  1.00  0.00     0.011 C 
BRANCH  17  18
HETATM   18  C14 UNL     1     -25.952  35.053 -34.088  1.00  0.00     0.117 C 
BRANCH  18  19
HETATM   19  C15 UNL     1     -26.014  36.423 -33.392  1.00  0.00     0.387 C 
HETATM   20  F1  UNL     1     -25.454  37.378 -34.199  1.00  0.00    -0.171 F 
HETATM   21  F2  UNL     1     -27.347  36.703 -33.149  1.00  0.00    -0.171 F 
HETATM   22  F3  UNL     1     -25.316  36.326 -32.213  1.00  0.00    -0.171 F 
ENDBRANCH  18  19
ENDBRANCH  17  18
ENDBRANCH  16  17
ENDBRANCH  15  16
ENDBRANCH  14  15
ENDBRANCH  12  14
ENDBRANCH  10  12
BRANCH  11  23
HETATM   23  C17 UNL     1     -19.414  34.996 -31.858  1.00  0.00     0.064 A 
HETATM   24  C18 UNL     1     -18.748  36.132 -31.486  1.00  0.00     0.035 A 
HETATM   25  C19 UNL     1     -17.723  35.734 -30.661  1.00  0.00     0.027 A 
HETATM   26  C20 UNL     1     -17.825  34.355 -30.577  1.00  0.00     0.142 A 
HETATM   27  O4  UNL     1     -18.842  33.954 -31.302  1.00  0.00    -0.326 OA
ENDBRANCH  11  23
TORSDOF 8
ENDMDL
MODEL 2
REMARK VINA RESULT: -9.277192999      3.030      5.968
REMARK  8 active torsions:
REMARK  status: ('A' for Active; 'I' for Inactive)
REMARK    1  A    between atoms: C9_10  and  C10_11 
REMARK    2  A    between atoms: C10_11  and  O3_13 
REMARK    3  A    between atoms: O3_13  and  C11_14 
REMARK    4  A    between atoms: C11_14  and  C12_15 
REMARK    5  A    between atoms: C12_15  and  C13_16 
REMARK    6  A    between atoms: C13_16  and  C14_17 
REMARK    7  A    between atoms: C14_17  and  C15_18 
REMARK    8  A    between atoms: C16_22  and  C17_23 
ROOT
HETATM    1  O1  UNL     1     -22.291  35.172 -31.020  1.00  0.00    -0.297 OA
HETATM    2  C1  UNL     1     -22.611  35.297 -32.181  1.00  0.00     0.139 C 
HETATM    3  C2  UNL     1     -22.172  34.381 -33.265  1.00  0.00     0.089 C 
HETATM    4  C3  UNL     1     -22.471  35.060 -34.559  1.00  0.00    -0.020 C 
HETATM    5  C4  UNL     1     -21.142  35.250 -35.286  1.00  0.00     0.011 C 
HETATM    6  C5  UNL     1     -20.789  33.986 -36.052  1.00  0.00     0.001 C 
HETATM    7  C6  UNL     1     -21.689  33.770 -37.238  1.00  0.00     0.000 C 
HETATM    8  C7  UNL     1     -23.042  34.357 -36.907  1.00  0.00     0.001 C 
HETATM    9  C8  UNL     1     -23.351  34.176 -35.425  1.00  0.00     0.011 C 
HETATM   10  C9  UNL     1     -23.149  36.354 -34.217  1.00  0.00     0.112 C 
HETATM   11  C16 UNL     1     -23.471  36.345 -32.739  1.00  0.00     0.127 C 
ENDROOT
BRANCH  10  12
HETATM   12  C10 UNL     1     -22.206  37.471 -34.468  1.00  0.00     0.265 C 
HETATM   13  O2  UNL     1     -22.296  38.142 -35.522  1.00  0.00    -0.265 OA
BRANCH  12  14
HETATM   14  O3  UNL     1     -21.230  37.801 -33.581  1.00  0.00    -0.321 OA
BRANCH  14  15
HETATM   15  C11 UNL     1     -19.938  38.259 -33.868  1.00  0.00     0.178 C 
BRANCH  15  16
HETATM   16  C12 UNL     1     -18.819  37.423 -33.375  1.00  0.00     0.027 C 
BRANCH  16  17
HETATM   17  C13 UNL     1     -19.315  36.528 -32.270  1.00  0.00     0.011 C 
BRANCH  17  18
HETATM   18  C14 UNL     1     -18.236  36.107 -31.301  1.00  0.00     0.117 C 
BRANCH  18  19
HETATM   19  C15 UNL     1     -18.572  34.655 -30.925  1.00  0.00     0.387 C 
HETATM   20  F1  UNL     1     -17.422  33.981 -30.607  1.00  0.00    -0.171 F 
HETATM   21  F2  UNL     1     -19.433  34.698 -29.843  1.00  0.00    -0.171 F 
HETATM   22  F3  UNL     1     -19.183  34.071 -32.007  1.00  0.00    -0.171 F 
ENDBRANCH  18  19
ENDBRANCH  17  18
ENDBRANCH  16  17
ENDBRANCH  15  16
ENDBRANCH  14  15
ENDBRANCH  12  14
ENDBRANCH  10  12
BRANCH  11  23
HETATM   23  C17 UNL     1     -24.896  36.148 -32.468  1.00  0.00     0.064 A 
HETATM   24  C18 UNL     1     -25.916  36.303 -33.368  1.00  0.00     0.035 A 
HETATM   25  C19 UNL     1     -27.080  36.020 -32.693  1.00  0.00     0.027 A 
HETATM   26  C20 UNL     1     -26.696  35.703 -31.400  1.00  0.00     0.142 A 
HETATM   27  O4  UNL     1     -25.390  35.791 -31.307  1.00  0.00    -0.326 OA
ENDBRANCH  11  23
TORSDOF 8
ENDMDL
MODEL 3
REMARK VINA RESULT: -9.235599600      2.725      3.059
REMARK  8 active torsions:
REMARK  status: ('A' for Active; 'I' for Inactive)
REMARK    1  A    between atoms: C9_10  and  C10_11 
REMARK    2  A    between atoms: C10_11  and  O3_13 
REMARK    3  A    between atoms: O3_13  and  C11_14 
REMARK    4  A    between atoms: C11_14  and  C12_15 
REMARK    5  A    between atoms: C12_15  and  C13_16 
REMARK    6  A    between atoms: C13_16  and  C14_17 
REMARK    7  A    between atoms: C14_17  and  C15_18 
REMARK    8  A    between atoms: C16_22  and  C17_23 
ROOT
HETATM    1  O1  UNL     1     -22.514  34.546 -31.379  1.00  0.00    -0.297 OA
HETATM    2  C1  UNL     1     -21.871  35.192 -32.178  1.00  0.00     0.139 C 
HETATM    3  C2  UNL     1     -22.279  36.529 -32.680  1.00  0.00     0.089 C 
HETATM    4  C3  UNL     1     -21.438  36.820 -33.878  1.00  0.00    -0.020 C 
HETATM    5  C4  UNL     1     -22.385  36.981 -35.064  1.00  0.00     0.011 C 
HETATM    6  C5  UNL     1     -22.913  38.406 -35.112  1.00  0.00     0.001 C 
HETATM    7  C6  UNL     1     -21.850  39.393 -35.511  1.00  0.00     0.000 C 
HETATM    8  C7  UNL     1     -20.521  38.868 -35.018  1.00  0.00     0.001 C 
HETATM    9  C8  UNL     1     -20.698  38.133 -33.694  1.00  0.00     0.011 C 
HETATM   10  C9  UNL     1     -20.492  35.665 -34.028  1.00  0.00     0.112 C 
HETATM   11  C16 UNL     1     -20.599  34.800 -32.793  1.00  0.00     0.127 C 
ENDROOT
BRANCH  10  12
HETATM   12  C10 UNL     1     -20.913  34.848 -35.192  1.00  0.00     0.265 C 
HETATM   13  O2  UNL     1     -20.315  34.960 -36.286  1.00  0.00    -0.265 OA
BRANCH  12  14
HETATM   14  O3  UNL     1     -21.944  33.964 -35.114  1.00  0.00    -0.321 OA
BRANCH  14  15
HETATM   15  C11 UNL     1     -22.722  33.470 -36.168  1.00  0.00     0.178 C 
BRANCH  15  16
HETATM   16  C12 UNL     1     -24.187  33.440 -35.946  1.00  0.00     0.027 C 
BRANCH  16  17
HETATM   17  C13 UNL     1     -24.794  32.335 -36.771  1.00  0.00     0.011 C 
BRANCH  17  18
HETATM   18  C14 UNL     1     -26.259  32.105 -36.490  1.00  0.00     0.117 C 
BRANCH  18  19
HETATM   19  C15 UNL     1     -26.470  30.590 -36.645  1.00  0.00     0.387 C 
HETATM   20  F1  UNL     1     -27.442  30.351 -37.580  1.00  0.00    -0.171 F 
HETATM   21  F2  UNL     1     -25.262  30.044 -37.040  1.00  0.00    -0.171 F 
HETATM   22  F3  UNL     1     -26.850  30.092 -35.423  1.00  0.00    -0.171 F 
ENDBRANCH  18  19
ENDBRANCH  17  18
ENDBRANCH  16  17
ENDBRANCH  15  16
ENDBRANCH  14  15
ENDBRANCH  12  14
ENDBRANCH  10  12
BRANCH  11  23
HETATM   23  C17 UNL     1     -19.446  34.933 -31.902  1.00  0.00     0.064 A 
HETATM   24  C18 UNL     1     -18.822  36.103 -31.561  1.00  0.00     0.035 A 
HETATM   25  C19 UNL     1     -17.795  35.768 -30.711  1.00  0.00     0.027 A 
HETATM   26  C20 UNL     1     -17.854  34.389 -30.580  1.00  0.00     0.142 A 
HETATM   27  O4  UNL     1     -18.848  33.931 -31.303  1.00  0.00    -0.326 OA
ENDBRANCH  11  23
TORSDOF 8
ENDMDL
MODEL 4
REMARK VINA RESULT: -9.206878808      2.793      4.905
REMARK  8 active torsions:
REMARK  status: ('A' for Active; 'I' for Inactive)
REMARK    1  A    between atoms: C9_10  and  C10_11 
REMARK    2  A    between atoms: C10_11  and  O3_13 
REMARK    3  A    between atoms: O3_13  and  C11_14 
REMARK    4  A    between atoms: C11_14  and  C12_15 
REMARK    5  A    between atoms: C12_15  and  C13_16 
REMARK    6  A    between atoms: C13_16  and  C14_17 
REMARK    7  A    between atoms: C14_17  and  C15_18 
REMARK    8  A    between atoms: C16_22  and  C17_23 
ROOT
HETATM    1  O1  UNL     1     -25.451  38.538 -35.055  1.00  0.00    -0.297 OA
HETATM    2  C1  UNL     1     -24.498  37.908 -34.653  1.00  0.00     0.139 C 
HETATM    3  C2  UNL     1     -23.153  38.495 -34.424  1.00  0.00     0.089 C 
HETATM    4  C3  UNL     1     -22.198  37.357 -34.282  1.00  0.00    -0.020 C 
HETATM    5  C4  UNL     1     -21.174  37.487 -35.406  1.00  0.00     0.011 C 
HETATM    6  C5  UNL     1     -20.068  38.443 -34.987  1.00  0.00     0.001 C 
HETATM    7  C6  UNL     1     -19.187  37.859 -33.917  1.00  0.00     0.000 C 
HETATM    8  C7  UNL     1     -20.030  36.925 -33.079  1.00  0.00     0.001 C 
HETATM    9  C8  UNL     1     -21.454  37.457 -32.962  1.00  0.00     0.011 C 
HETATM   10  C9  UNL     1     -23.014  36.101 -34.367  1.00  0.00     0.112 C 
HETATM   11  C16 UNL     1     -24.477  36.480 -34.319  1.00  0.00     0.127 C 
ENDROOT
BRANCH  10  12
HETATM   12  C10 UNL     1     -22.757  35.449 -35.674  1.00  0.00     0.265 C 
HETATM   13  O2  UNL     1     -23.250  35.928 -36.721  1.00  0.00    -0.265 OA
BRANCH  12  14
HETATM   14  O3  UNL     1     -21.991  34.330 -35.781  1.00  0.00    -0.321 OA
BRANCH  14  15
HETATM   15  C11 UNL     1     -21.648  33.433 -34.761  1.00  0.00     0.178 C 
BRANCH  15  16
HETATM   16  C12 UNL     1     -20.257  33.511 -34.257  1.00  0.00     0.027 C 
BRANCH  16  17
HETATM   17  C13 UNL     1     -20.256  33.314 -32.764  1.00  0.00     0.011 C 
BRANCH  17  18
HETATM   18  C14 UNL     1     -21.566  33.669 -32.106  1.00  0.00     0.117 C 
BRANCH  18  19
HETATM   19  C15 UNL     1     -21.192  34.190 -30.709  1.00  0.00     0.387 C 
HETATM   20  F1  UNL     1     -21.840  33.455 -29.750  1.00  0.00    -0.171 F 
HETATM   21  F2  UNL     1     -19.820  34.069 -30.577  1.00  0.00    -0.171 F 
HETATM   22  F3  UNL     1     -21.572  35.508 -30.636  1.00  0.00    -0.171 F 
ENDBRANCH  18  19
ENDBRANCH  17  18
ENDBRANCH  16  17
ENDBRANCH  15  16
ENDBRANCH  14  15
ENDBRANCH  12  14
ENDBRANCH  10  12
BRANCH  11  23
HETATM   23  C17 UNL     1     -25.106  36.163 -33.037  1.00  0.00     0.064 A 
HETATM   24  C18 UNL     1     -24.457  35.787 -31.892  1.00  0.00     0.035 A 
HETATM   25  C19 UNL     1     -25.427  35.589 -30.937  1.00  0.00     0.027 A 
HETATM   26  C20 UNL     1     -26.631  35.860 -31.567  1.00  0.00     0.142 A 
HETATM   27  O4  UNL     1     -26.398  36.198 -32.813  1.00  0.00    -0.326 OA
ENDBRANCH  11  23
TORSDOF 8
ENDMDL
MODEL 5
REMARK VINA RESULT: -9.197069876      1.653      4.129
REMARK  8 active torsions:
REMARK  status: ('A' for Active; 'I' for Inactive)
REMARK    1  A    between atoms: C9_10  and  C10_11 
REMARK    2  A    between atoms: C10_11  and  O3_13 
REMARK    3  A    between atoms: O3_13  and  C11_14 
REMARK    4  A    between atoms: C11_14  and  C12_15 
REMARK    5  A    between atoms: C12_15  and  C13_16 
REMARK    6  A    between atoms: C13_16  and  C14_17 
REMARK    7  A    between atoms: C14_17  and  C15_18 
REMARK    8  A    between atoms: C16_22  and  C17_23 
ROOT
HETATM    1  O1  UNL     1     -18.303  37.048 -33.739  1.00  0.00    -0.297 OA
HETATM    2  C1  UNL     1     -19.422  36.605 -33.603  1.00  0.00     0.139 C 
HETATM    3  C2  UNL     1     -19.980  36.150 -32.304  1.00  0.00     0.089 C 
HETATM    4  C3  UNL     1     -21.211  35.363 -32.609  1.00  0.00    -0.020 C 
HETATM    5  C4  UNL     1     -20.983  33.949 -32.085  1.00  0.00     0.011 C 
HETATM    6  C5  UNL     1     -21.330  33.884 -30.607  1.00  0.00     0.001 C 
HETATM    7  C6  UNL     1     -22.811  33.999 -30.366  1.00  0.00     0.000 C 
HETATM    8  C7  UNL     1     -23.395  34.861 -31.463  1.00  0.00     0.001 C 
HETATM    9  C8  UNL     1     -22.403  35.945 -31.870  1.00  0.00     0.011 C 
HETATM   10  C9  UNL     1     -21.397  35.421 -34.097  1.00  0.00     0.112 C 
HETATM   11  C16 UNL     1     -20.424  36.432 -34.659  1.00  0.00     0.127 C 
ENDROOT
BRANCH  10  12
HETATM   12  C10 UNL     1     -21.060  34.097 -34.675  1.00  0.00     0.265 C 
HETATM   13  O2  UNL     1     -19.874  33.694 -34.667  1.00  0.00    -0.265 OA
BRANCH  12  14
HETATM   14  O3  UNL     1     -22.007  33.290 -35.222  1.00  0.00    -0.321 OA
BRANCH  14  15
HETATM   15  C11 UNL     1     -22.998  33.645 -36.146  1.00  0.00     0.178 C 
BRANCH  15  16
HETATM   16  C12 UNL     1     -24.395  33.626 -35.652  1.00  0.00     0.027 C 
BRANCH  16  17
HETATM   17  C13 UNL     1     -24.663  34.883 -34.867  1.00  0.00     0.011 C 
BRANCH  17  18
HETATM   18  C14 UNL     1     -25.976  34.862 -34.122  1.00  0.00     0.117 C 
BRANCH  18  19
HETATM   19  C15 UNL     1     -26.134  36.276 -33.539  1.00  0.00     0.387 C 
HETATM   20  F1  UNL     1     -24.990  36.999 -33.757  1.00  0.00    -0.171 F 
HETATM   21  F2  UNL     1     -27.216  36.864 -34.171  1.00  0.00    -0.171 F 
HETATM   22  F3  UNL     1     -26.369  36.151 -32.192  1.00  0.00    -0.171 F 
ENDBRANCH  18  19
ENDBRANCH  17  18
ENDBRANCH  16  17
ENDBRANCH  15  16
ENDBRANCH  14  15
ENDBRANCH  12  14
ENDBRANCH  10  12
BRANCH  11  23
HETATM   23  C17 UNL     1     -21.071  37.679 -35.070  1.00  0.00     0.064 A 
HETATM   24  C18 UNL     1     -22.376  38.024 -34.839  1.00  0.00     0.035 A 
HETATM   25  C19 UNL     1     -22.557  39.269 -35.392  1.00  0.00     0.027 A 
HETATM   26  C20 UNL     1     -21.331  39.617 -35.938  1.00  0.00     0.142 A 
HETATM   27  O4  UNL     1     -20.475  38.646 -35.725  1.00  0.00    -0.326 OA
ENDBRANCH  11  23
TORSDOF 8
ENDMDL
