MODEL 1
REMARK VINA RESULT: -10.286244716      0.000      0.000
REMARK  7 active torsions:
REMARK  status: ('A' for Active; 'I' for Inactive)
REMARK    1  A    between atoms: C2_2  and  C3_3 
REMARK    2  A    between atoms: C3_3  and  C4_4 
REMARK    3  A    between atoms: C4_4  and  C5_5 
REMARK    4  A    between atoms: C5_5  and  C6_6 
REMARK    5  A    between atoms: C6_6  and  C7_7 
REMARK    6  A    between atoms: C7_7  and  C8_8 
REMARK    7  A    between atoms: C18_22  and  C19_23 
ROOT
HETATM    1  C8  UNL     1     -26.596  35.484 -31.088  1.00  0.00    -0.075 C 
HETATM    2  C9  UNL     1     -25.409  35.198 -30.505  1.00  0.00    -0.004 C 
HETATM    3  C10 UNL     1     -24.255  34.858 -31.381  1.00  0.00     0.158 C 
HETATM    4  N1  UNL     1     -24.282  35.869 -32.448  1.00  0.00    -0.335 N 
HETATM    5  C11 UNL     1     -25.425  36.186 -33.047  1.00  0.00     0.088 A 
HETATM    6  N2  UNL     1     -25.193  37.125 -33.974  1.00  0.00    -0.347 N 
ATOM      7  H2  UNL     1     -25.888  37.554 -34.585  1.00  0.00     0.167 HD
HETATM    8  C12 UNL     1     -23.876  37.401 -33.954  1.00  0.00     0.036 A 
HETATM    9  C13 UNL     1     -23.306  36.603 -32.987  1.00  0.00     0.038 A 
HETATM   10  C14 UNL     1     -21.878  36.560 -32.608  1.00  0.00     0.096 C 
HETATM   11  C15 UNL     1     -21.039  36.272 -33.836  1.00  0.00     0.060 C 
HETATM   12  C16 UNL     1     -19.616  36.659 -33.465  1.00  0.00     0.046 C 
HETATM   13  C17 UNL     1     -21.005  34.722 -33.869  1.00  0.00     0.046 C 
HETATM   14  O1  UNL     1     -21.482  36.640 -35.001  1.00  0.00    -0.366 OA
HETATM   15  C18 UNL     1     -21.967  37.753 -35.471  1.00  0.00     0.235 C 
HETATM   16  C20 UNL     1     -23.167  38.378 -34.811  1.00  0.00     0.100 C 
HETATM   17  C21 UNL     1     -26.658  35.455 -32.574  1.00  0.00     0.110 C 
ENDROOT
BRANCH   1  18
HETATM   18  C7  UNL     1     -27.779  35.828 -30.311  1.00  0.00     0.034 C 
BRANCH  18  19
HETATM   19  C6  UNL     1     -28.830  34.834 -30.118  1.00  0.00     0.004 C 
BRANCH  19  20
HETATM   20  C5  UNL     1     -29.622  34.257 -31.213  1.00  0.00     0.001 C 
BRANCH  20  21
HETATM   21  C4  UNL     1     -30.524  35.210 -31.911  1.00  0.00     0.004 C 
BRANCH  21  22
HETATM   22  C3  UNL     1     -30.153  35.300 -33.411  1.00  0.00     0.026 C 
BRANCH  22  23
HETATM   23  C2  UNL     1     -30.220  36.714 -33.877  1.00  0.00    -0.037 C 
HETATM   24  C1  UNL     1     -29.327  37.613 -33.489  1.00  0.00     0.007 C 
ENDBRANCH  22  23
ENDBRANCH  21  22
ENDBRANCH  20  21
ENDBRANCH  19  20
ENDBRANCH  18  19
ENDBRANCH   1  18
BRANCH  15  25
HETATM   25  C19 UNL     1     -20.976  38.900 -35.722  1.00  0.00     0.413 C 
HETATM   26  F1  UNL     1     -20.518  39.442 -34.553  1.00  0.00    -0.168 F 
HETATM   27  F2  UNL     1     -21.424  39.795 -36.640  1.00  0.00    -0.168 F 
HETATM   28  F3  UNL     1     -19.865  38.267 -36.307  1.00  0.00    -0.168 F 
ENDBRANCH  15  25
TORSDOF 7
ENDMDL
MODEL 2
REMARK VINA RESULT: -9.972448141      2.325      3.441
REMARK  7 active torsions:
REMARK  status: ('A' for Active; 'I' for Inactive)
REMARK    1  A    between atoms: C2_2  and  C3_3 
REMARK    2  A    between atoms: C3_3  and  C4_4 
REMARK    3  A    between atoms: C4_4  and  C5_5 
REMARK    4  A    between atoms: C5_5  and  C6_6 
REMARK    5  A    between atoms: C6_6  and  C7_7 
REMARK    6  A    between atoms: C7_7  and  C8_8 
REMARK    7  A    between atoms: C18_22  and  C19_23 
ROOT
HETATM    1  C8  UNL     1     -27.465  35.262 -32.495  1.00  0.00    -0.075 C 
HETATM    2  C9  UNL     1     -27.010  35.615 -33.720  1.00  0.00    -0.004 C 
HETATM    3  C10 UNL     1     -25.830  36.519 -33.802  1.00  0.00     0.158 C 
HETATM    4  N1  UNL     1     -24.869  35.973 -32.833  1.00  0.00    -0.335 N 
HETATM    5  C11 UNL     1     -25.271  35.609 -31.619  1.00  0.00     0.088 A 
HETATM    6  N2  UNL     1     -24.220  35.145 -30.928  1.00  0.00    -0.347 N 
ATOM      7  H2  UNL     1     -24.237  34.797 -29.969  1.00  0.00     0.167 HD
HETATM    8  C12 UNL     1     -23.141  35.220 -31.727  1.00  0.00     0.036 A 
HETATM    9  C13 UNL     1     -23.558  35.745 -32.929  1.00  0.00     0.038 A 
HETATM   10  C14 UNL     1     -22.717  36.011 -34.115  1.00  0.00     0.096 C 
HETATM   11  C15 UNL     1     -21.563  36.912 -33.724  1.00  0.00     0.060 C 
HETATM   12  C16 UNL     1     -20.545  36.791 -34.846  1.00  0.00     0.046 C 
HETATM   13  C17 UNL     1     -22.160  38.331 -33.915  1.00  0.00     0.046 C 
HETATM   14  O1  UNL     1     -21.125  36.876 -32.501  1.00  0.00    -0.366 OA
HETATM   15  C18 UNL     1     -20.777  35.914 -31.696  1.00  0.00     0.235 C 
HETATM   16  C20 UNL     1     -21.758  34.817 -31.381  1.00  0.00     0.100 C 
HETATM   17  C21 UNL     1     -26.737  35.793 -31.312  1.00  0.00     0.110 C 
ENDROOT
BRANCH   1  18
HETATM   18  C7  UNL     1     -28.611  34.382 -32.318  1.00  0.00     0.034 C 
BRANCH  18  19
HETATM   19  C6  UNL     1     -29.818  34.889 -31.673  1.00  0.00     0.004 C 
BRANCH  19  20
HETATM   20  C5  UNL     1     -30.961  35.455 -32.404  1.00  0.00     0.001 C 
BRANCH  20  21
HETATM   21  C4  UNL     1     -30.607  36.392 -33.502  1.00  0.00     0.004 C 
BRANCH  21  22
HETATM   22  C3  UNL     1     -31.074  35.824 -34.864  1.00  0.00     0.026 C 
BRANCH  22  23
HETATM   23  C2  UNL     1     -29.964  35.877 -35.855  1.00  0.00    -0.037 C 
HETATM   24  C1  UNL     1     -30.145  35.519 -37.118  1.00  0.00     0.007 C 
ENDBRANCH  22  23
ENDBRANCH  21  22
ENDBRANCH  20  21
ENDBRANCH  19  20
ENDBRANCH  18  19
ENDBRANCH   1  18
BRANCH  15  25
HETATM   25  C19 UNL     1     -19.436  35.217 -31.972  1.00  0.00     0.413 C 
HETATM   26  F1  UNL     1     -18.449  36.114 -32.270  1.00  0.00    -0.168 F 
HETATM   27  F2  UNL     1     -19.550  34.172 -32.830  1.00  0.00    -0.168 F 
HETATM   28  F3  UNL     1     -19.080  34.662 -30.730  1.00  0.00    -0.168 F 
ENDBRANCH  15  25
TORSDOF 7
ENDMDL
MODEL 3
REMARK VINA RESULT: -9.928382367      1.074      1.365
REMARK  7 active torsions:
REMARK  status: ('A' for Active; 'I' for Inactive)
REMARK    1  A    between atoms: C2_2  and  C3_3 
REMARK    2  A    between atoms: C3_3  and  C4_4 
REMARK    3  A    between atoms: C4_4  and  C5_5 
REMARK    4  A    between atoms: C5_5  and  C6_6 
REMARK    5  A    between atoms: C6_6  and  C7_7 
REMARK    6  A    between atoms: C7_7  and  C8_8 
REMARK    7  A    between atoms: C18_22  and  C19_23 
ROOT
HETATM    1  C8  UNL     1     -27.447  35.141 -31.739  1.00  0.00    -0.075 C 
HETATM    2  C9  UNL     1     -26.368  34.842 -30.979  1.00  0.00    -0.004 C 
HETATM    3  C10 UNL     1     -25.081  34.545 -31.665  1.00  0.00     0.158 C 
HETATM    4  N1  UNL     1     -24.945  35.596 -32.683  1.00  0.00    -0.335 N 
HETATM    5  C11 UNL     1     -25.979  35.927 -33.451  1.00  0.00     0.088 A 
HETATM    6  N2  UNL     1     -25.609  36.903 -34.292  1.00  0.00    -0.347 N 
ATOM      7  H2  UNL     1     -26.200  37.350 -34.993  1.00  0.00     0.167 HD
HETATM    8  C12 UNL     1     -24.318  37.188 -34.044  1.00  0.00     0.036 A 
HETATM    9  C13 UNL     1     -23.905  36.358 -33.026  1.00  0.00     0.038 A 
HETATM   10  C14 UNL     1     -22.558  36.312 -32.418  1.00  0.00     0.096 C 
HETATM   11  C15 UNL     1     -21.524  36.078 -33.500  1.00  0.00     0.060 C 
HETATM   12  C16 UNL     1     -20.187  36.461 -32.885  1.00  0.00     0.046 C 
HETATM   13  C17 UNL     1     -21.464  34.530 -33.584  1.00  0.00     0.046 C 
HETATM   14  O1  UNL     1     -21.774  36.487 -34.707  1.00  0.00    -0.366 OA
HETATM   15  C18 UNL     1     -22.190  37.614 -35.210  1.00  0.00     0.235 C 
HETATM   16  C20 UNL     1     -23.491  38.203 -34.735  1.00  0.00     0.100 C 
HETATM   17  C21 UNL     1     -27.262  35.169 -33.215  1.00  0.00     0.110 C 
ENDROOT
BRANCH   1  18
HETATM   18  C7  UNL     1     -28.746  35.446 -31.157  1.00  0.00     0.034 C 
BRANCH  18  19
HETATM   19  C6  UNL     1     -29.943  34.798 -31.683  1.00  0.00     0.004 C 
BRANCH  19  20
HETATM   20  C5  UNL     1     -31.020  35.513 -32.383  1.00  0.00     0.001 C 
BRANCH  20  21
HETATM   21  C4  UNL     1     -30.574  36.407 -33.483  1.00  0.00     0.004 C 
BRANCH  21  22
HETATM   22  C3  UNL     1     -31.035  35.848 -34.850  1.00  0.00     0.026 C 
BRANCH  22  23
HETATM   23  C2  UNL     1     -29.910  35.877 -35.827  1.00  0.00    -0.037 C 
HETATM   24  C1  UNL     1     -30.074  35.487 -37.083  1.00  0.00     0.007 C 
ENDBRANCH  22  23
ENDBRANCH  21  22
ENDBRANCH  20  21
ENDBRANCH  19  20
ENDBRANCH  18  19
ENDBRANCH   1  18
BRANCH  15  25
HETATM   25  C19 UNL     1     -21.188  38.777 -35.252  1.00  0.00     0.413 C 
HETATM   26  F1  UNL     1     -20.949  39.287 -34.006  1.00  0.00    -0.168 F 
HETATM   27  F2  UNL     1     -21.481  39.694 -36.208  1.00  0.00    -0.168 F 
HETATM   28  F3  UNL     1     -19.982  38.173 -35.650  1.00  0.00    -0.168 F 
ENDBRANCH  15  25
TORSDOF 7
ENDMDL
MODEL 4
REMARK VINA RESULT: -9.836680711      2.231      3.248
REMARK  7 active torsions:
REMARK  status: ('A' for Active; 'I' for Inactive)
REMARK    1  A    between atoms: C2_2  and  C3_3 
REMARK    2  A    between atoms: C3_3  and  C4_4 
REMARK    3  A    between atoms: C4_4  and  C5_5 
REMARK    4  A    between atoms: C5_5  and  C6_6 
REMARK    5  A    between atoms: C6_6  and  C7_7 
REMARK    6  A    between atoms: C7_7  and  C8_8 
REMARK    7  A    between atoms: C18_22  and  C19_23 
ROOT
HETATM    1  C8  UNL     1     -29.095  34.948 -31.759  1.00  0.00    -0.075 C 
HETATM    2  C9  UNL     1     -28.287  35.733 -31.009  1.00  0.00    -0.004 C 
HETATM    3  C10 UNL     1     -26.854  35.351 -30.879  1.00  0.00     0.158 C 
HETATM    4  N1  UNL     1     -26.428  35.015 -32.245  1.00  0.00    -0.335 N 
HETATM    5  C11 UNL     1     -27.191  34.250 -33.019  1.00  0.00     0.088 A 
HETATM    6  N2  UNL     1     -26.593  34.090 -34.208  1.00  0.00    -0.347 N 
ATOM      7  H2  UNL     1     -26.953  33.551 -34.996  1.00  0.00     0.167 HD
HETATM    8  C12 UNL     1     -25.432  34.769 -34.175  1.00  0.00     0.036 A 
HETATM    9  C13 UNL     1     -25.334  35.351 -32.932  1.00  0.00     0.038 A 
HETATM   10  C14 UNL     1     -24.225  36.195 -32.437  1.00  0.00     0.096 C 
HETATM   11  C15 UNL     1     -22.918  35.441 -32.573  1.00  0.00     0.060 C 
HETATM   12  C16 UNL     1     -21.823  36.489 -32.458  1.00  0.00     0.046 C 
HETATM   13  C17 UNL     1     -22.833  34.665 -31.233  1.00  0.00     0.046 C 
HETATM   14  O1  UNL     1     -22.804  34.546 -33.508  1.00  0.00    -0.366 OA
HETATM   15  C18 UNL     1     -23.056  34.537 -34.785  1.00  0.00     0.235 C 
HETATM   16  C20 UNL     1     -24.440  34.874 -35.270  1.00  0.00     0.100 C 
HETATM   17  C21 UNL     1     -28.485  33.761 -32.416  1.00  0.00     0.110 C 
ENDROOT
BRANCH   1  18
HETATM   18  C7  UNL     1     -30.509  35.243 -31.944  1.00  0.00     0.034 C 
BRANCH  18  19
HETATM   19  C6  UNL     1     -30.955  35.898 -33.169  1.00  0.00     0.004 C 
BRANCH  19  20
HETATM   20  C5  UNL     1     -30.153  36.880 -33.911  1.00  0.00     0.001 C 
BRANCH  20  21
HETATM   21  C4  UNL     1     -29.426  36.341 -35.091  1.00  0.00     0.004 C 
BRANCH  21  22
HETATM   22  C3  UNL     1     -30.056  35.002 -35.544  1.00  0.00     0.026 C 
BRANCH  22  23
HETATM   23  C2  UNL     1     -30.421  35.063 -36.987  1.00  0.00    -0.037 C 
HETATM   24  C1  UNL     1     -30.115  36.114 -37.733  1.00  0.00     0.007 C 
ENDBRANCH  22  23
ENDBRANCH  21  22
ENDBRANCH  20  21
ENDBRANCH  19  20
ENDBRANCH  18  19
ENDBRANCH   1  18
BRANCH  15  25
HETATM   25  C19 UNL     1     -22.089  35.305 -35.697  1.00  0.00     0.413 C 
HETATM   26  F1  UNL     1     -20.784  35.100 -35.342  1.00  0.00    -0.168 F 
HETATM   27  F2  UNL     1     -22.445  36.603 -35.874  1.00  0.00    -0.168 F 
HETATM   28  F3  UNL     1     -22.241  34.687 -36.951  1.00  0.00    -0.168 F 
ENDBRANCH  15  25
TORSDOF 7
ENDMDL
MODEL 5
REMARK VINA RESULT: -9.797749199      4.005      7.171
REMARK  7 active torsions:
REMARK  status: ('A' for Active; 'I' for Inactive)
REMARK    1  A    between atoms: C2_2  and  C3_3 
REMARK    2  A    between atoms: C3_3  and  C4_4 
REMARK    3  A    between atoms: C4_4  and  C5_5 
REMARK    4  A    between atoms: C5_5  and  C6_6 
REMARK    5  A    between atoms: C6_6  and  C7_7 
REMARK    6  A    between atoms: C7_7  and  C8_8 
REMARK    7  A    between atoms: C18_22  and  C19_23 
ROOT
HETATM    1  C8  UNL     1     -21.792  34.963 -32.258  1.00  0.00    -0.075 C 
HETATM    2  C9  UNL     1     -22.338  34.001 -31.479  1.00  0.00    -0.004 C 
HETATM    3  C10 UNL     1     -23.576  34.325 -30.719  1.00  0.00     0.158 C 
HETATM    4  N1  UNL     1     -24.443  35.013 -31.686  1.00  0.00    -0.335 N 
HETATM    5  C11 UNL     1     -23.950  35.963 -32.475  1.00  0.00     0.088 A 
HETATM    6  N2  UNL     1     -24.927  36.433 -33.263  1.00  0.00    -0.347 N 
ATOM      7  H2  UNL     1     -24.834  37.167 -33.966  1.00  0.00     0.167 HD
HETATM    8  C12 UNL     1     -26.053  35.763 -32.959  1.00  0.00     0.036 A 
HETATM    9  C13 UNL     1     -25.740  34.868 -31.962  1.00  0.00     0.038 A 
HETATM   10  C14 UNL     1     -26.664  33.915 -31.309  1.00  0.00     0.096 C 
HETATM   11  C15 UNL     1     -27.848  34.671 -30.740  1.00  0.00     0.060 C 
HETATM   12  C16 UNL     1     -28.920  33.624 -30.480  1.00  0.00     0.046 C 
HETATM   13  C17 UNL     1     -27.355  35.057 -29.321  1.00  0.00     0.046 C 
HETATM   14  O1  UNL     1     -28.212  35.784 -31.303  1.00  0.00    -0.366 OA
HETATM   15  C18 UNL     1     -28.451  36.137 -32.533  1.00  0.00     0.235 C 
HETATM   16  C20 UNL     1     -27.385  35.951 -33.579  1.00  0.00     0.100 C 
HETATM   17  C21 UNL     1     -22.483  36.279 -32.312  1.00  0.00     0.110 C 
ENDROOT
BRANCH   1  18
HETATM   18  C7  UNL     1     -20.584  34.736 -33.038  1.00  0.00     0.034 C 
BRANCH  18  19
HETATM   19  C6  UNL     1     -20.586  33.733 -34.098  1.00  0.00     0.004 C 
BRANCH  19  20
HETATM   20  C5  UNL     1     -21.084  33.980 -35.458  1.00  0.00     0.001 C 
BRANCH  20  21
HETATM   21  C4  UNL     1     -22.490  33.564 -35.702  1.00  0.00     0.004 C 
BRANCH  21  22
HETATM   22  C3  UNL     1     -23.358  34.793 -36.068  1.00  0.00     0.026 C 
BRANCH  22  23
HETATM   23  C2  UNL     1     -22.535  36.034 -36.040  1.00  0.00    -0.037 C 
HETATM   24  C1  UNL     1     -23.095  37.235 -36.047  1.00  0.00     0.007 C 
ENDBRANCH  22  23
ENDBRANCH  21  22
ENDBRANCH  20  21
ENDBRANCH  19  20
ENDBRANCH  18  19
ENDBRANCH   1  18
BRANCH  15  25
HETATM   25  C19 UNL     1     -29.758  35.637 -33.166  1.00  0.00     0.413 C 
HETATM   26  F1  UNL     1     -30.788  35.627 -32.266  1.00  0.00    -0.168 F 
HETATM   27  F2  UNL     1     -29.598  34.492 -33.877  1.00  0.00    -0.168 F 
HETATM   28  F3  UNL     1     -30.085  36.633 -34.103  1.00  0.00    -0.168 F 
ENDBRANCH  15  25
TORSDOF 7
ENDMDL
