MODEL 1
REMARK VINA RESULT: -9.605642513      0.000      0.000
REMARK  7 active torsions:
REMARK  status: ('A' for Active; 'I' for Inactive)
REMARK    1  A    between atoms: C1_2  and  C2_5 
REMARK    2  A    between atoms: N1_10  and  C7_11 
REMARK    3  A    between atoms: C7_11  and  C8_12 
REMARK    4  A    between atoms: C8_12  and  C9_13 
REMARK    5  A    between atoms: C9_13  and  C10_14 
REMARK    6  A    between atoms: C10_14  and  C11_15 
REMARK    7  A    between atoms: C11_15  and  N2_16 
ROOT
HETATM    1  C10 UNL     1     -23.276  35.702 -33.129  1.00  0.00    -0.006 C 
HETATM    2  C15 UNL     1     -22.580  34.793 -34.023  1.00  0.00     0.015 C 
HETATM    3  C16 UNL     1     -22.886  34.709 -35.456  1.00  0.00     0.001 C 
HETATM    4  C17 UNL     1     -23.263  35.977 -36.153  1.00  0.00     0.000 C 
HETATM    5  C18 UNL     1     -22.283  37.025 -35.692  1.00  0.00     0.000 C 
HETATM    6  C19 UNL     1     -22.859  37.793 -34.561  1.00  0.00     0.001 C 
HETATM    7  C20 UNL     1     -23.591  37.077 -33.517  1.00  0.00     0.015 C 
ENDROOT
BRANCH   1   8
HETATM    8  C9  UNL     1     -24.631  35.109 -32.591  1.00  0.00     0.020 C 
BRANCH   8   9
HETATM    9  C8  UNL     1     -25.829  35.666 -33.130  1.00  0.00     0.045 C 
BRANCH   9  10
HETATM   10  C7  UNL     1     -26.715  34.741 -33.877  1.00  0.00     0.059 C 
BRANCH  10  11
HETATM   11  N1  UNL     1     -28.054  34.645 -33.536  1.00  0.00    -0.380 N 
HETATM   12  C2  UNL     1     -28.701  35.447 -32.602  1.00  0.00     0.191 C 
HETATM   13  C3  UNL     1     -29.278  36.685 -33.309  1.00  0.00     0.034 C 
HETATM   14  C4  UNL     1     -29.833  36.444 -34.647  1.00  0.00     0.004 C 
HETATM   15  C5  UNL     1     -29.760  35.095 -35.242  1.00  0.00     0.020 C 
HETATM   16  C6  UNL     1     -28.908  34.087 -34.565  1.00  0.00     0.122 C 
BRANCH  12  17
HETATM   17  C1  UNL     1     -29.792  34.783 -31.777  1.00  0.00     0.407 C 
HETATM   18  F1  UNL     1     -29.516  33.444 -31.677  1.00  0.00    -0.169 F 
HETATM   19  F2  UNL     1     -31.057  35.054 -32.191  1.00  0.00    -0.169 F 
HETATM   20  F3  UNL     1     -29.727  35.253 -30.450  1.00  0.00    -0.169 F 
ENDBRANCH  12  17
ENDBRANCH  10  11
ENDBRANCH   9  10
ENDBRANCH   8   9
ENDBRANCH   1   8
BRANCH   1  21
HETATM   21  C11 UNL     1     -22.531  35.738 -31.781  1.00  0.00     0.098 C 
BRANCH  21  22
HETATM   22  N2  UNL     1     -21.135  35.755 -31.797  1.00  0.00    -0.282 N 
HETATM   23  C12 UNL     1     -20.297  34.855 -31.282  1.00  0.00     0.116 A 
HETATM   24  C13 UNL     1     -18.991  35.205 -31.525  1.00  0.00     0.038 A 
HETATM   25  C14 UNL     1     -19.065  36.387 -32.228  1.00  0.00     0.109 A 
HETATM   26  N3  UNL     1     -20.354  36.656 -32.354  1.00  0.00    -0.306 N 
ATOM     27  H3  UNL     1     -20.709  37.482 -32.837  1.00  0.00     0.186 HD
ENDBRANCH  21  22
ENDBRANCH   1  21
TORSDOF 7
ENDMDL
MODEL 2
REMARK VINA RESULT: -9.532230405      4.477      8.046
REMARK  7 active torsions:
REMARK  status: ('A' for Active; 'I' for Inactive)
REMARK    1  A    between atoms: C1_2  and  C2_5 
REMARK    2  A    between atoms: N1_10  and  C7_11 
REMARK    3  A    between atoms: C7_11  and  C8_12 
REMARK    4  A    between atoms: C8_12  and  C9_13 
REMARK    5  A    between atoms: C9_13  and  C10_14 
REMARK    6  A    between atoms: C10_14  and  C11_15 
REMARK    7  A    between atoms: C11_15  and  N2_16 
ROOT
HETATM    1  C10 UNL     1     -26.863  34.912 -30.798  1.00  0.00    -0.006 C 
HETATM    2  C15 UNL     1     -27.376  35.981 -31.636  1.00  0.00     0.015 C 
HETATM    3  C16 UNL     1     -28.137  35.723 -32.864  1.00  0.00     0.001 C 
HETATM    4  C17 UNL     1     -29.050  34.539 -32.871  1.00  0.00     0.000 C 
HETATM    5  C18 UNL     1     -29.796  34.568 -31.561  1.00  0.00     0.000 C 
HETATM    6  C19 UNL     1     -29.114  33.696 -30.573  1.00  0.00     0.001 C 
HETATM    7  C20 UNL     1     -27.655  33.719 -30.495  1.00  0.00     0.015 C 
ENDROOT
BRANCH   1   8
HETATM    8  C9  UNL     1     -25.473  34.363 -31.294  1.00  0.00     0.020 C 
BRANCH   8   9
HETATM    9  C8  UNL     1     -24.383  35.285 -31.283  1.00  0.00     0.045 C 
BRANCH   9  10
HETATM   10  C7  UNL     1     -23.024  34.706 -31.166  1.00  0.00     0.059 C 
BRANCH  10  11
HETATM   11  N1  UNL     1     -22.023  35.121 -32.028  1.00  0.00    -0.380 N 
HETATM   12  C2  UNL     1     -20.666  35.141 -31.729  1.00  0.00     0.191 C 
HETATM   13  C3  UNL     1     -20.038  33.795 -32.129  1.00  0.00     0.034 C 
HETATM   14  C4  UNL     1     -20.553  33.204 -33.371  1.00  0.00     0.004 C 
HETATM   15  C5  UNL     1     -21.641  33.876 -34.109  1.00  0.00     0.020 C 
HETATM   16  C6  UNL     1     -22.340  34.998 -33.437  1.00  0.00     0.122 C 
BRANCH  12  17
HETATM   17  C1  UNL     1     -19.853  36.275 -32.333  1.00  0.00     0.407 C 
HETATM   18  F1  UNL     1     -20.672  37.361 -32.505  1.00  0.00    -0.169 F 
HETATM   19  F2  UNL     1     -19.148  35.936 -33.443  1.00  0.00    -0.169 F 
HETATM   20  F3  UNL     1     -18.889  36.709 -31.401  1.00  0.00    -0.169 F 
ENDBRANCH  12  17
ENDBRANCH  10  11
ENDBRANCH   9  10
ENDBRANCH   8   9
ENDBRANCH   1   8
BRANCH   1  21
HETATM   21  C11 UNL     1     -26.370  35.516 -29.469  1.00  0.00     0.098 C 
BRANCH  21  22
HETATM   22  N2  UNL     1     -27.281  35.630 -28.416  1.00  0.00    -0.282 N 
HETATM   23  C12 UNL     1     -28.181  36.591 -28.211  1.00  0.00     0.116 A 
HETATM   24  C13 UNL     1     -28.918  36.340 -27.079  1.00  0.00     0.038 A 
HETATM   25  C14 UNL     1     -28.419  35.154 -26.587  1.00  0.00     0.109 A 
HETATM   26  N3  UNL     1     -27.458  34.789 -27.420  1.00  0.00    -0.306 N 
ATOM     27  H3  UNL     1     -26.908  33.938 -27.301  1.00  0.00     0.186 HD
ENDBRANCH  21  22
ENDBRANCH   1  21
TORSDOF 7
ENDMDL
MODEL 3
REMARK VINA RESULT: -9.449746737      1.804      3.566
REMARK  7 active torsions:
REMARK  status: ('A' for Active; 'I' for Inactive)
REMARK    1  A    between atoms: C1_2  and  C2_5 
REMARK    2  A    between atoms: N1_10  and  C7_11 
REMARK    3  A    between atoms: C7_11  and  C8_12 
REMARK    4  A    between atoms: C8_12  and  C9_13 
REMARK    5  A    between atoms: C9_13  and  C10_14 
REMARK    6  A    between atoms: C10_14  and  C11_15 
REMARK    7  A    between atoms: C11_15  and  N2_16 
ROOT
HETATM    1  C10 UNL     1     -22.547  35.569 -32.551  1.00  0.00    -0.006 C 
HETATM    2  C15 UNL     1     -21.320  35.938 -31.868  1.00  0.00     0.015 C 
HETATM    3  C16 UNL     1     -20.476  34.955 -31.177  1.00  0.00     0.001 C 
HETATM    4  C17 UNL     1     -20.373  33.592 -31.783  1.00  0.00     0.000 C 
HETATM    5  C18 UNL     1     -20.168  33.797 -33.262  1.00  0.00     0.000 C 
HETATM    6  C19 UNL     1     -21.470  33.717 -33.969  1.00  0.00     0.001 C 
HETATM    7  C20 UNL     1     -22.639  34.363 -33.375  1.00  0.00     0.015 C 
ENDROOT
BRANCH   1   8
HETATM    8  C9  UNL     1     -23.786  35.497 -31.583  1.00  0.00     0.020 C 
BRANCH   8   9
HETATM    9  C8  UNL     1     -25.009  36.046 -32.071  1.00  0.00     0.045 C 
BRANCH   9  10
HETATM   10  C7  UNL     1     -26.166  35.122 -32.156  1.00  0.00     0.059 C 
BRANCH  10  11
HETATM   11  N1  UNL     1     -27.450  35.634 -32.236  1.00  0.00    -0.380 N 
HETATM   12  C2  UNL     1     -28.340  35.403 -33.279  1.00  0.00     0.191 C 
HETATM   13  C3  UNL     1     -29.180  34.154 -32.962  1.00  0.00     0.034 C 
HETATM   14  C4  UNL     1     -29.571  33.998 -31.555  1.00  0.00     0.004 C 
HETATM   15  C5  UNL     1     -29.109  34.977 -30.550  1.00  0.00     0.020 C 
HETATM   16  C6  UNL     1     -28.064  35.946 -30.961  1.00  0.00     0.122 C 
BRANCH  12  17
HETATM   17  C1  UNL     1     -29.266  36.552 -33.649  1.00  0.00     0.407 C 
HETATM   18  F1  UNL     1     -28.619  37.735 -33.403  1.00  0.00    -0.169 F 
HETATM   19  F2  UNL     1     -30.505  36.478 -33.099  1.00  0.00    -0.169 F 
HETATM   20  F3  UNL     1     -29.478  36.551 -35.042  1.00  0.00    -0.169 F 
ENDBRANCH  12  17
ENDBRANCH  10  11
ENDBRANCH   9  10
ENDBRANCH   8   9
ENDBRANCH   1   8
BRANCH   1  21
HETATM   21  C11 UNL     1     -23.027  36.767 -33.392  1.00  0.00     0.098 C 
BRANCH  21  22
HETATM   22  N2  UNL     1     -22.081  37.470 -34.142  1.00  0.00    -0.282 N 
HETATM   23  C12 UNL     1     -21.533  37.121 -35.305  1.00  0.00     0.116 A 
HETATM   24  C13 UNL     1     -20.664  38.089 -35.748  1.00  0.00     0.038 A 
HETATM   25  C14 UNL     1     -20.705  39.071 -34.783  1.00  0.00     0.109 A 
HETATM   26  N3  UNL     1     -21.557  38.645 -33.865  1.00  0.00    -0.306 N 
ATOM     27  H3  UNL     1     -21.787  39.177 -33.025  1.00  0.00     0.186 HD
ENDBRANCH  21  22
ENDBRANCH   1  21
TORSDOF 7
ENDMDL
MODEL 4
REMARK VINA RESULT: -9.426520326      3.977      7.195
REMARK  7 active torsions:
REMARK  status: ('A' for Active; 'I' for Inactive)
REMARK    1  A    between atoms: C1_2  and  C2_5 
REMARK    2  A    between atoms: N1_10  and  C7_11 
REMARK    3  A    between atoms: C7_11  and  C8_12 
REMARK    4  A    between atoms: C8_12  and  C9_13 
REMARK    5  A    between atoms: C9_13  and  C10_14 
REMARK    6  A    between atoms: C10_14  and  C11_15 
REMARK    7  A    between atoms: C11_15  and  N2_16 
ROOT
HETATM    1  C10 UNL     1     -26.858  34.977 -30.729  1.00  0.00    -0.006 C 
HETATM    2  C15 UNL     1     -27.426  36.053 -31.522  1.00  0.00     0.015 C 
HETATM    3  C16 UNL     1     -28.180  35.807 -32.758  1.00  0.00     0.001 C 
HETATM    4  C17 UNL     1     -29.035  34.582 -32.808  1.00  0.00     0.000 C 
HETATM    5  C18 UNL     1     -29.775  34.523 -31.496  1.00  0.00     0.000 C 
HETATM    6  C19 UNL     1     -29.047  33.647 -30.545  1.00  0.00     0.001 C 
HETATM    7  C20 UNL     1     -27.590  33.737 -30.472  1.00  0.00     0.015 C 
ENDROOT
BRANCH   1   8
HETATM    8  C9  UNL     1     -25.446  34.516 -31.251  1.00  0.00     0.020 C 
BRANCH   8   9
HETATM    9  C8  UNL     1     -24.469  35.540 -31.436  1.00  0.00     0.045 C 
BRANCH   9  10
HETATM   10  C7  UNL     1     -23.464  35.315 -32.502  1.00  0.00     0.059 C 
BRANCH  10  11
HETATM   11  N1  UNL     1     -23.613  35.939 -33.729  1.00  0.00    -0.380 N 
HETATM   12  C2  UNL     1     -22.804  36.961 -34.211  1.00  0.00     0.191 C 
HETATM   13  C3  UNL     1     -21.632  36.353 -35.001  1.00  0.00     0.034 C 
HETATM   14  C4  UNL     1     -21.964  35.174 -35.812  1.00  0.00     0.004 C 
HETATM   15  C5  UNL     1     -23.335  34.625 -35.784  1.00  0.00     0.020 C 
HETATM   16  C6  UNL     1     -24.263  35.138 -34.748  1.00  0.00     0.122 C 
BRANCH  12  17
HETATM   17  C1  UNL     1     -23.485  38.025 -35.060  1.00  0.00     0.407 C 
HETATM   18  F1  UNL     1     -24.716  38.294 -34.523  1.00  0.00    -0.169 F 
HETATM   19  F2  UNL     1     -23.511  37.754 -36.390  1.00  0.00    -0.169 F 
HETATM   20  F3  UNL     1     -22.778  39.239 -34.943  1.00  0.00    -0.169 F 
ENDBRANCH  12  17
ENDBRANCH  10  11
ENDBRANCH   9  10
ENDBRANCH   8   9
ENDBRANCH   1   8
BRANCH   1  21
HETATM   21  C11 UNL     1     -26.387  35.551 -29.379  1.00  0.00     0.098 C 
BRANCH  21  22
HETATM   22  N2  UNL     1     -27.316  35.643 -28.340  1.00  0.00    -0.282 N 
HETATM   23  C12 UNL     1     -28.236  36.588 -28.143  1.00  0.00     0.116 A 
HETATM   24  C13 UNL     1     -28.986  36.317 -27.024  1.00  0.00     0.038 A 
HETATM   25  C14 UNL     1     -28.474  35.136 -26.532  1.00  0.00     0.109 A 
HETATM   26  N3  UNL     1     -27.494  34.793 -27.352  1.00  0.00    -0.306 N 
ATOM     27  H3  UNL     1     -26.932  33.951 -27.230  1.00  0.00     0.186 HD
ENDBRANCH  21  22
ENDBRANCH   1  21
TORSDOF 7
ENDMDL
MODEL 5
REMARK VINA RESULT: -9.412986865      1.491      2.537
REMARK  7 active torsions:
REMARK  status: ('A' for Active; 'I' for Inactive)
REMARK    1  A    between atoms: C1_2  and  C2_5 
REMARK    2  A    between atoms: N1_10  and  C7_11 
REMARK    3  A    between atoms: C7_11  and  C8_12 
REMARK    4  A    between atoms: C8_12  and  C9_13 
REMARK    5  A    between atoms: C9_13  and  C10_14 
REMARK    6  A    between atoms: C10_14  and  C11_15 
REMARK    7  A    between atoms: C11_15  and  N2_16 
ROOT
HETATM    1  C10 UNL     1     -23.139  35.593 -33.679  1.00  0.00    -0.006 C 
HETATM    2  C15 UNL     1     -21.987  35.105 -32.943  1.00  0.00     0.015 C 
HETATM    3  C16 UNL     1     -21.445  33.754 -33.133  1.00  0.00     0.001 C 
HETATM    4  C17 UNL     1     -21.490  33.184 -34.514  1.00  0.00     0.000 C 
HETATM    5  C18 UNL     1     -21.027  34.278 -35.443  1.00  0.00     0.000 C 
HETATM    6  C19 UNL     1     -22.198  35.002 -35.995  1.00  0.00     0.001 C 
HETATM    7  C20 UNL     1     -23.314  35.326 -35.107  1.00  0.00     0.015 C 
ENDROOT
BRANCH   1   8
HETATM    8  C9  UNL     1     -24.507  35.178 -33.017  1.00  0.00     0.020 C 
BRANCH   8   9
HETATM    9  C8  UNL     1     -25.637  35.100 -33.884  1.00  0.00     0.045 C 
BRANCH   9  10
HETATM   10  C7  UNL     1     -26.804  35.943 -33.533  1.00  0.00     0.059 C 
BRANCH  10  11
HETATM   11  N1  UNL     1     -28.051  35.361 -33.379  1.00  0.00    -0.380 N 
HETATM   12  C2  UNL     1     -29.117  35.923 -32.685  1.00  0.00     0.191 C 
HETATM   13  C3  UNL     1     -29.963  36.770 -33.651  1.00  0.00     0.034 C 
HETATM   14  C4  UNL     1     -30.119  36.217 -35.002  1.00  0.00     0.004 C 
HETATM   15  C5  UNL     1     -29.438  34.958 -35.365  1.00  0.00     0.020 C 
HETATM   16  C6  UNL     1     -28.422  34.427 -34.423  1.00  0.00     0.122 C 
BRANCH  12  17
HETATM   17  C1  UNL     1     -30.023  34.958 -31.935  1.00  0.00     0.407 C 
HETATM   18  F1  UNL     1     -29.497  33.696 -32.030  1.00  0.00    -0.169 F 
HETATM   19  F2  UNL     1     -31.335  35.035 -32.276  1.00  0.00    -0.169 F 
HETATM   20  F3  UNL     1     -29.980  35.252 -30.557  1.00  0.00    -0.169 F 
ENDBRANCH  12  17
ENDBRANCH  10  11
ENDBRANCH   9  10
ENDBRANCH   8   9
ENDBRANCH   1   8
BRANCH   1  21
HETATM   21  C11 UNL     1     -23.267  37.111 -33.451  1.00  0.00     0.098 C 
BRANCH  21  22
HETATM   22  N2  UNL     1     -22.375  37.957 -34.116  1.00  0.00    -0.282 N 
HETATM   23  C12 UNL     1     -22.631  38.787 -35.126  1.00  0.00     0.116 A 
HETATM   24  C13 UNL     1     -21.499  39.477 -35.492  1.00  0.00     0.038 A 
HETATM   25  C14 UNL     1     -20.516  39.023 -34.641  1.00  0.00     0.109 A 
HETATM   26  N3  UNL     1     -21.097  38.130 -33.856  1.00  0.00    -0.306 N 
ATOM     27  H3  UNL     1     -20.601  37.625 -33.121  1.00  0.00     0.186 HD
ENDBRANCH  21  22
ENDBRANCH   1  21
TORSDOF 7
ENDMDL
