MODEL 1
REMARK VINA RESULT: -9.303386654      0.000      0.000
REMARK  7 active torsions:
REMARK  status: ('A' for Active; 'I' for Inactive)
REMARK    1  A    between atoms: C2_2  and  C3_3 
REMARK    2  A    between atoms: C2_2  and  C7_11 
REMARK    3  A    between atoms: C3_3  and  C4_4 
REMARK    4  A    between atoms: C4_4  and  O1_5 
REMARK    5  A    between atoms: O1_5  and  C5_6 
REMARK    6  A    between atoms: C5_6  and  C6_7 
REMARK    7  A    between atoms: C15_19  and  O2_20 
ROOT
HETATM    1  C7  UNL     1     -22.515  34.930 -33.397  1.00  0.00    -0.013 C 
HETATM    2  C8  UNL     1     -22.753  34.146 -32.166  1.00  0.00     0.014 C 
HETATM    3  C9  UNL     1     -22.612  34.773 -30.849  1.00  0.00     0.001 C 
HETATM    4  C10 UNL     1     -21.650  33.902 -30.016  1.00  0.00     0.000 C 
HETATM    5  C11 UNL     1     -20.527  34.713 -29.454  1.00  0.00     0.000 C 
HETATM    6  C12 UNL     1     -19.176  34.297 -29.951  1.00  0.00     0.000 C 
HETATM    7  C13 UNL     1     -19.036  34.356 -31.445  1.00  0.00     0.005 C 
HETATM    8  C14 UNL     1     -19.353  35.714 -32.016  1.00  0.00     0.068 C 
HETATM    9  C15 UNL     1     -20.058  35.601 -33.369  1.00  0.00     0.164 C 
HETATM   10  C17 UNL     1     -21.483  36.012 -33.339  1.00  0.00     0.082 C 
HETATM   11  O3  UNL     1     -19.813  34.322 -33.859  1.00  0.00    -0.355 OA
HETATM   12  C18 UNL     1     -19.887  34.348 -35.260  1.00  0.00     0.171 C 
HETATM   13  C19 UNL     1     -21.360  34.462 -35.600  1.00  0.00     0.027 C 
HETATM   14  C20 UNL     1     -22.150  33.901 -34.476  1.00  0.00     0.016 C 
ENDROOT
BRANCH   1  15
HETATM   15  C2  UNL     1     -23.781  35.587 -33.843  1.00  0.00    -0.078 C 
HETATM   16  C1  UNL     1     -24.749  35.017 -34.524  1.00  0.00     0.015 C 
BRANCH  15  17
HETATM   17  C3  UNL     1     -23.955  37.052 -33.489  1.00  0.00     0.060 C 
BRANCH  17  18
HETATM   18  C4  UNL     1     -24.485  37.867 -34.622  1.00  0.00     0.172 C 
BRANCH  18  19
HETATM   19  O1  UNL     1     -23.579  38.811 -35.032  1.00  0.00    -0.382 OA
BRANCH  19  20
HETATM   20  C5  UNL     1     -22.585  38.307 -35.835  1.00  0.00     0.284 C 
BRANCH  20  21
HETATM   21  C6  UNL     1     -21.300  39.119 -35.654  1.00  0.00     0.408 C 
HETATM   22  F1  UNL     1     -20.289  38.428 -36.270  1.00  0.00    -0.169 F 
HETATM   23  F2  UNL     1     -21.078  39.334 -34.311  1.00  0.00    -0.169 F 
HETATM   24  F3  UNL     1     -21.412  40.339 -36.282  1.00  0.00    -0.169 F 
ENDBRANCH  20  21
ENDBRANCH  19  20
ENDBRANCH  18  19
ENDBRANCH  17  18
ENDBRANCH  15  17
ENDBRANCH   1  15
BRANCH   9  25
HETATM   25  O2  UNL     1     -19.380  36.468 -34.223  1.00  0.00    -0.360 OA
HETATM   26  C16 UNL     1     -18.615  37.418 -33.604  1.00  0.00     0.205 C 
ENDBRANCH   9  25
TORSDOF 7
ENDMDL
MODEL 2
REMARK VINA RESULT: -9.262681708      3.277      3.891
REMARK  7 active torsions:
REMARK  status: ('A' for Active; 'I' for Inactive)
REMARK    1  A    between atoms: C2_2  and  C3_3 
REMARK    2  A    between atoms: C2_2  and  C7_11 
REMARK    3  A    between atoms: C3_3  and  C4_4 
REMARK    4  A    between atoms: C4_4  and  O1_5 
REMARK    5  A    between atoms: O1_5  and  C5_6 
REMARK    6  A    between atoms: C5_6  and  C6_7 
REMARK    7  A    between atoms: C15_19  and  O2_20 
ROOT
HETATM    1  C7  UNL     1     -22.873  35.401 -33.589  1.00  0.00    -0.013 C 
HETATM    2  C8  UNL     1     -22.955  34.477 -32.438  1.00  0.00     0.014 C 
HETATM    3  C9  UNL     1     -22.673  34.955 -31.081  1.00  0.00     0.001 C 
HETATM    4  C10 UNL     1     -21.608  34.024 -30.469  1.00  0.00     0.000 C 
HETATM    5  C11 UNL     1     -20.440  34.799 -29.947  1.00  0.00     0.000 C 
HETATM    6  C12 UNL     1     -19.149  34.480 -30.638  1.00  0.00     0.000 C 
HETATM    7  C13 UNL     1     -19.184  34.710 -32.122  1.00  0.00     0.005 C 
HETATM    8  C14 UNL     1     -19.585  36.114 -32.493  1.00  0.00     0.068 C 
HETATM    9  C15 UNL     1     -20.440  36.134 -33.761  1.00  0.00     0.164 C 
HETATM   10  C17 UNL     1     -21.859  36.498 -33.524  1.00  0.00     0.082 C 
HETATM   11  O3  UNL     1     -20.234  34.927 -34.420  1.00  0.00    -0.355 OA
HETATM   12  C18 UNL     1     -20.470  35.108 -35.792  1.00  0.00     0.171 C 
HETATM   13  C19 UNL     1     -21.973  35.217 -35.948  1.00  0.00     0.027 C 
HETATM   14  C20 UNL     1     -22.620  34.511 -34.813  1.00  0.00     0.016 C 
ENDROOT
BRANCH   1  15
HETATM   15  C2  UNL     1     -24.193  36.068 -33.811  1.00  0.00    -0.078 C 
HETATM   16  C1  UNL     1     -24.396  37.360 -33.929  1.00  0.00     0.015 C 
BRANCH  15  17
HETATM   17  C3  UNL     1     -25.410  35.166 -33.893  1.00  0.00     0.060 C 
BRANCH  17  18
HETATM   18  C4  UNL     1     -26.354  35.356 -32.753  1.00  0.00     0.172 C 
BRANCH  18  19
HETATM   19  O1  UNL     1     -27.662  35.297 -33.163  1.00  0.00    -0.382 OA
BRANCH  19  20
HETATM   20  C5  UNL     1     -28.424  36.351 -32.720  1.00  0.00     0.284 C 
BRANCH  20  21
HETATM   21  C6  UNL     1     -28.688  37.329 -33.868  1.00  0.00     0.408 C 
HETATM   22  F1  UNL     1     -29.610  38.240 -33.426  1.00  0.00    -0.169 F 
HETATM   23  F2  UNL     1     -29.100  36.628 -34.982  1.00  0.00    -0.169 F 
HETATM   24  F3  UNL     1     -27.539  38.018 -34.183  1.00  0.00    -0.169 F 
ENDBRANCH  20  21
ENDBRANCH  19  20
ENDBRANCH  18  19
ENDBRANCH  17  18
ENDBRANCH  15  17
ENDBRANCH   1  15
BRANCH   9  25
HETATM   25  O2  UNL     1     -19.879  37.112 -34.582  1.00  0.00    -0.360 OA
HETATM   26  C16 UNL     1     -20.285  38.392 -34.326  1.00  0.00     0.205 C 
ENDBRANCH   9  25
TORSDOF 7
ENDMDL
MODEL 3
REMARK VINA RESULT: -9.210705062      4.348      5.853
REMARK  7 active torsions:
REMARK  status: ('A' for Active; 'I' for Inactive)
REMARK    1  A    between atoms: C2_2  and  C3_3 
REMARK    2  A    between atoms: C2_2  and  C7_11 
REMARK    3  A    between atoms: C3_3  and  C4_4 
REMARK    4  A    between atoms: C4_4  and  O1_5 
REMARK    5  A    between atoms: O1_5  and  C5_6 
REMARK    6  A    between atoms: C5_6  and  C6_7 
REMARK    7  A    between atoms: C15_19  and  O2_20 
ROOT
HETATM    1  C7  UNL     1     -23.748  35.939 -33.384  1.00  0.00    -0.013 C 
HETATM    2  C8  UNL     1     -23.571  37.375 -33.683  1.00  0.00     0.014 C 
HETATM    3  C9  UNL     1     -22.823  37.800 -34.869  1.00  0.00     0.001 C 
HETATM    4  C10 UNL     1     -21.735  38.790 -34.407  1.00  0.00     0.000 C 
HETATM    5  C11 UNL     1     -20.380  38.376 -34.887  1.00  0.00     0.000 C 
HETATM    6  C12 UNL     1     -19.419  38.065 -33.780  1.00  0.00     0.000 C 
HETATM    7  C13 UNL     1     -19.892  36.981 -32.855  1.00  0.00     0.005 C 
HETATM    8  C14 UNL     1     -20.223  35.697 -33.569  1.00  0.00     0.068 C 
HETATM    9  C15 UNL     1     -21.425  34.997 -32.932  1.00  0.00     0.164 C 
HETATM   10  C17 UNL     1     -22.644  35.009 -33.778  1.00  0.00     0.082 C 
HETATM   11  O3  UNL     1     -21.579  35.519 -31.652  1.00  0.00    -0.355 OA
HETATM   12  C18 UNL     1     -22.212  34.563 -30.841  1.00  0.00     0.171 C 
HETATM   13  C19 UNL     1     -23.664  34.544 -31.273  1.00  0.00     0.027 C 
HETATM   14  C20 UNL     1     -23.999  35.860 -31.872  1.00  0.00     0.016 C 
ENDROOT
BRANCH   1  15
HETATM   15  C2  UNL     1     -24.983  35.422 -34.049  1.00  0.00    -0.078 C 
HETATM   16  C1  UNL     1     -25.029  34.518 -35.001  1.00  0.00     0.015 C 
BRANCH  15  17
HETATM   17  C3  UNL     1     -26.305  36.008 -33.589  1.00  0.00     0.060 C 
BRANCH  17  18
HETATM   18  C4  UNL     1     -27.435  35.035 -33.674  1.00  0.00     0.172 C 
BRANCH  18  19
HETATM   19  O1  UNL     1     -28.611  35.655 -34.012  1.00  0.00    -0.382 OA
BRANCH  19  20
HETATM   20  C5  UNL     1     -29.720  35.069 -33.453  1.00  0.00     0.284 C 
BRANCH  20  21
HETATM   21  C6  UNL     1     -30.903  36.041 -33.489  1.00  0.00     0.408 C 
HETATM   22  F1  UNL     1     -31.639  35.832 -32.353  1.00  0.00    -0.169 F 
HETATM   23  F2  UNL     1     -31.620  35.847 -34.650  1.00  0.00    -0.169 F 
HETATM   24  F3  UNL     1     -30.454  37.342 -33.461  1.00  0.00    -0.169 F 
ENDBRANCH  20  21
ENDBRANCH  19  20
ENDBRANCH  18  19
ENDBRANCH  17  18
ENDBRANCH  15  17
ENDBRANCH   1  15
BRANCH   9  25
HETATM   25  O2  UNL     1     -21.041  33.669 -32.754  1.00  0.00    -0.360 OA
HETATM   26  C16 UNL     1     -20.445  33.084 -33.837  1.00  0.00     0.205 C 
ENDBRANCH   9  25
TORSDOF 7
ENDMDL
MODEL 4
REMARK VINA RESULT: -9.205778131      3.412      5.180
REMARK  7 active torsions:
REMARK  status: ('A' for Active; 'I' for Inactive)
REMARK    1  A    between atoms: C2_2  and  C3_3 
REMARK    2  A    between atoms: C2_2  and  C7_11 
REMARK    3  A    between atoms: C3_3  and  C4_4 
REMARK    4  A    between atoms: C4_4  and  O1_5 
REMARK    5  A    between atoms: O1_5  and  C5_6 
REMARK    6  A    between atoms: C5_6  and  C6_7 
REMARK    7  A    between atoms: C15_19  and  O2_20 
ROOT
HETATM    1  C7  UNL     1     -23.822  35.864 -33.463  1.00  0.00    -0.013 C 
HETATM    2  C8  UNL     1     -24.016  37.276 -33.855  1.00  0.00     0.014 C 
HETATM    3  C9  UNL     1     -23.572  37.750 -35.169  1.00  0.00     0.001 C 
HETATM    4  C10 UNL     1     -22.674  38.982 -34.944  1.00  0.00     0.000 C 
HETATM    5  C11 UNL     1     -21.351  38.826 -35.624  1.00  0.00     0.000 C 
HETATM    6  C12 UNL     1     -20.186  38.818 -34.681  1.00  0.00     0.000 C 
HETATM    7  C13 UNL     1     -20.259  37.739 -33.639  1.00  0.00     0.005 C 
HETATM    8  C14 UNL     1     -20.402  36.359 -34.226  1.00  0.00     0.068 C 
HETATM    9  C15 UNL     1     -21.307  35.476 -33.364  1.00  0.00     0.164 C 
HETATM   10  C17 UNL     1     -22.613  35.160 -33.992  1.00  0.00     0.082 C 
HETATM   11  O3  UNL     1     -21.374  36.058 -32.102  1.00  0.00    -0.355 OA
HETATM   12  C18 UNL     1     -21.646  35.061 -31.152  1.00  0.00     0.171 C 
HETATM   13  C19 UNL     1     -23.107  34.699 -31.333  1.00  0.00     0.027 C 
HETATM   14  C20 UNL     1     -23.813  35.861 -31.928  1.00  0.00     0.016 C 
ENDROOT
BRANCH   1  15
HETATM   15  C2  UNL     1     -24.999  35.045 -33.886  1.00  0.00    -0.078 C 
HETATM   16  C1  UNL     1     -25.113  34.379 -35.012  1.00  0.00     0.015 C 
BRANCH  15  17
HETATM   17  C3  UNL     1     -26.175  34.991 -32.929  1.00  0.00     0.060 C 
BRANCH  17  18
HETATM   18  C4  UNL     1     -27.351  34.264 -33.491  1.00  0.00     0.172 C 
BRANCH  18  19
HETATM   19  O1  UNL     1     -28.505  34.994 -33.365  1.00  0.00    -0.382 OA
BRANCH  19  20
HETATM   20  C5  UNL     1     -28.308  36.246 -32.838  1.00  0.00     0.284 C 
BRANCH  20  21
HETATM   21  C6  UNL     1     -28.560  37.313 -33.906  1.00  0.00     0.408 C 
HETATM   22  F1  UNL     1     -27.352  37.880 -34.213  1.00  0.00    -0.169 F 
HETATM   23  F2  UNL     1     -29.488  38.220 -33.439  1.00  0.00    -0.169 F 
HETATM   24  F3  UNL     1     -29.052  36.734 -35.054  1.00  0.00    -0.169 F 
ENDBRANCH  20  21
ENDBRANCH  19  20
ENDBRANCH  18  19
ENDBRANCH  17  18
ENDBRANCH  15  17
ENDBRANCH   1  15
BRANCH   9  25
HETATM   25  O2  UNL     1     -20.614  34.279 -33.190  1.00  0.00    -0.360 OA
HETATM   26  C16 UNL     1     -20.802  33.348 -34.174  1.00  0.00     0.205 C 
ENDBRANCH   9  25
TORSDOF 7
ENDMDL
MODEL 5
REMARK VINA RESULT: -9.165102087      3.184      4.000
REMARK  7 active torsions:
REMARK  status: ('A' for Active; 'I' for Inactive)
REMARK    1  A    between atoms: C2_2  and  C3_3 
REMARK    2  A    between atoms: C2_2  and  C7_11 
REMARK    3  A    between atoms: C3_3  and  C4_4 
REMARK    4  A    between atoms: C4_4  and  O1_5 
REMARK    5  A    between atoms: O1_5  and  C5_6 
REMARK    6  A    between atoms: C5_6  and  C6_7 
REMARK    7  A    between atoms: C15_19  and  O2_20 
ROOT
HETATM    1  C7  UNL     1     -22.870  35.279 -33.625  1.00  0.00    -0.013 C 
HETATM    2  C8  UNL     1     -22.926  34.376 -32.455  1.00  0.00     0.014 C 
HETATM    3  C9  UNL     1     -22.660  34.889 -31.108  1.00  0.00     0.001 C 
HETATM    4  C10 UNL     1     -21.568  34.003 -30.477  1.00  0.00     0.000 C 
HETATM    5  C11 UNL     1     -20.424  34.822 -29.971  1.00  0.00     0.000 C 
HETATM    6  C12 UNL     1     -19.123  34.529 -30.654  1.00  0.00     0.000 C 
HETATM    7  C13 UNL     1     -19.164  34.728 -32.143  1.00  0.00     0.005 C 
HETATM    8  C14 UNL     1     -19.606  36.112 -32.542  1.00  0.00     0.068 C 
HETATM    9  C15 UNL     1     -20.460  36.081 -33.811  1.00  0.00     0.164 C 
HETATM   10  C17 UNL     1     -21.889  36.407 -33.581  1.00  0.00     0.082 C 
HETATM   11  O3  UNL     1     -20.217  34.867 -34.445  1.00  0.00    -0.355 OA
HETATM   12  C18 UNL     1     -20.456  35.013 -35.820  1.00  0.00     0.171 C 
HETATM   13  C19 UNL     1     -21.963  35.075 -35.979  1.00  0.00     0.027 C 
HETATM   14  C20 UNL     1     -22.589  34.373 -34.831  1.00  0.00     0.016 C 
ENDROOT
BRANCH   1  15
HETATM   15  C2  UNL     1     -24.209  35.901 -33.861  1.00  0.00    -0.078 C 
HETATM   16  C1  UNL     1     -24.486  37.184 -33.804  1.00  0.00     0.015 C 
BRANCH  15  17
HETATM   17  C3  UNL     1     -25.355  34.960 -34.181  1.00  0.00     0.060 C 
BRANCH  17  18
HETATM   18  C4  UNL     1     -26.691  35.530 -33.837  1.00  0.00     0.172 C 
BRANCH  18  19
HETATM   19  O1  UNL     1     -27.309  34.808 -32.848  1.00  0.00    -0.382 OA
BRANCH  19  20
HETATM   20  C5  UNL     1     -27.533  35.530 -31.700  1.00  0.00     0.284 C 
BRANCH  20  21
HETATM   21  C6  UNL     1     -26.440  35.234 -30.670  1.00  0.00     0.408 C 
HETATM   22  F1  UNL     1     -25.540  36.265 -30.721  1.00  0.00    -0.169 F 
HETATM   23  F2  UNL     1     -25.881  34.002 -30.936  1.00  0.00    -0.169 F 
HETATM   24  F3  UNL     1     -26.973  35.209 -29.401  1.00  0.00    -0.169 F 
ENDBRANCH  20  21
ENDBRANCH  19  20
ENDBRANCH  18  19
ENDBRANCH  17  18
ENDBRANCH  15  17
ENDBRANCH   1  15
BRANCH   9  25
HETATM   25  O2  UNL     1     -19.927  37.058 -34.650  1.00  0.00    -0.360 OA
HETATM   26  C16 UNL     1     -20.246  38.346 -34.322  1.00  0.00     0.205 C 
ENDBRANCH   9  25
TORSDOF 7
ENDMDL
