MODEL 1
REMARK VINA RESULT: -6.610195020      0.000      0.000
REMARK  6 active torsions:
REMARK  status: ('A' for Active; 'I' for Inactive)
REMARK       I    between atoms: N1_2  and  C2_4 
REMARK       I    between atoms: C2_4  and  N3_8 
REMARK    1  A    between atoms: N4_11  and  C4_12 
REMARK    2  A    between atoms: C4_12  and  C5_13 
REMARK    3  A    between atoms: C5_13  and  C6_14 
REMARK    4  A    between atoms: C6_14  and  C7_15 
REMARK    5  A    between atoms: C7_15  and  C8_16 
REMARK    6  A    between atoms: C8_16  and  S1_17 
ROOT
HETATM    1  C1  UNL     1      17.848 -15.651  24.943  1.00  0.00     0.165 C 
HETATM    2  N1  UNL     1      19.077 -15.615  24.190  1.00  0.00    -0.231 N 
ATOM      3  H1  UNL     1      19.965 -15.483  24.675  1.00  0.00     0.177 HD
HETATM    4  C2  UNL     1      19.060 -15.762  22.783  1.00  0.00     0.679 C 
HETATM    5  N2  UNL     1      19.572 -16.804  22.233  1.00  0.00    -0.234 N 
ATOM      6  H21 UNL     1      19.560 -16.909  21.219  1.00  0.00     0.174 HD
ATOM      7  H22 UNL     1      19.988 -17.522  22.826  1.00  0.00     0.174 HD
HETATM    8  N3  UNL     1      18.471 -14.746  21.944  1.00  0.00    -0.106 N 
HETATM    9  C3  UNL     1      17.383 -14.887  21.038  1.00  0.00     0.347 C 
HETATM   10  O1  UNL     1      16.966 -15.981  20.566  1.00  0.00    -0.246 OA
HETATM   11  N4  UNL     1      16.872 -13.571  20.777  1.00  0.00    -0.267 N 
HETATM   12  C11 UNL     1      17.667 -12.652  21.537  1.00  0.00     0.265 C 
HETATM   13  O2  UNL     1      17.284 -11.491  21.788  1.00  0.00    -0.269 OA
HETATM   14  C12 UNL     1      18.896 -13.382  21.882  1.00  0.00     0.204 C 
HETATM   15  C13 UNL     1      19.680 -12.873  23.009  1.00  0.00     0.166 C 
HETATM   16  O3  UNL     1      19.539 -12.463  24.161  1.00  0.00    -0.295 OA
HETATM   17  C14 UNL     1      20.914 -13.033  22.190  1.00  0.00     0.089 C 
HETATM   18  C15 UNL     1      20.044 -13.085  20.955  1.00  0.00     0.035 C 
HETATM   19  C16 UNL     1      19.935 -11.731  20.274  1.00  0.00     0.014 C 
ENDROOT
BRANCH  11  20
HETATM   20  C4  UNL     1      15.768 -13.334  19.903  1.00  0.00     0.137 C 
BRANCH  20  21
HETATM   21  C5  UNL     1      15.975 -12.277  18.882  1.00  0.00     0.020 C 
BRANCH  21  22
HETATM   22  C6  UNL     1      15.023 -11.136  19.173  1.00  0.00     0.002 C 
BRANCH  22  23
HETATM   23  C7  UNL     1      14.038 -11.480  20.268  1.00  0.00     0.009 C 
BRANCH  23  24
HETATM   24  C8  UNL     1      13.978 -10.286  21.197  1.00  0.00     0.062 C 
BRANCH  24  25
HETATM   25  S1  UNL     1      12.326  -9.974  21.764  1.00  0.00    -0.228 SA
HETATM   26  C9  UNL     1      11.699 -11.524  22.408  1.00  0.00     0.078 C 
HETATM   27  C10 UNL     1      12.367  -8.841  23.146  1.00  0.00     0.078 C 
ENDBRANCH  24  25
ENDBRANCH  23  24
ENDBRANCH  22  23
ENDBRANCH  21  22
ENDBRANCH  20  21
ENDBRANCH  11  20
TORSDOF 6
ENDMDL
MODEL 2
REMARK VINA RESULT: -6.294412981      1.913      3.058
REMARK  6 active torsions:
REMARK  status: ('A' for Active; 'I' for Inactive)
REMARK       I    between atoms: N1_2  and  C2_4 
REMARK       I    between atoms: C2_4  and  N3_8 
REMARK    1  A    between atoms: N4_11  and  C4_12 
REMARK    2  A    between atoms: C4_12  and  C5_13 
REMARK    3  A    between atoms: C5_13  and  C6_14 
REMARK    4  A    between atoms: C6_14  and  C7_15 
REMARK    5  A    between atoms: C7_15  and  C8_16 
REMARK    6  A    between atoms: C8_16  and  S1_17 
ROOT
HETATM    1  C1  UNL     1      20.390 -12.031  25.322  1.00  0.00     0.165 C 
HETATM    2  N1  UNL     1      19.898 -13.373  25.509  1.00  0.00    -0.231 N 
ATOM      3  H1  UNL     1      20.427 -14.031  26.083  1.00  0.00     0.177 HD
HETATM    4  C2  UNL     1      18.688 -13.784  24.901  1.00  0.00     0.679 C 
HETATM    5  N2  UNL     1      17.661 -14.057  25.622  1.00  0.00    -0.234 N 
ATOM      6  H21 UNL     1      16.789 -14.354  25.185  1.00  0.00     0.174 HD
ATOM      7  H22 UNL     1      17.731 -13.971  26.636  1.00  0.00     0.174 HD
HETATM    8  N3  UNL     1      18.588 -13.906  23.467  1.00  0.00    -0.106 N 
HETATM    9  C3  UNL     1      17.706 -13.212  22.593  1.00  0.00     0.347 C 
HETATM   10  O1  UNL     1      16.643 -12.628  22.945  1.00  0.00    -0.246 OA
HETATM   11  N4  UNL     1      18.253 -13.311  21.269  1.00  0.00    -0.267 N 
HETATM   12  C11 UNL     1      19.465 -14.067  21.369  1.00  0.00     0.265 C 
HETATM   13  O2  UNL     1      20.336 -14.049  20.474  1.00  0.00    -0.269 OA
HETATM   14  C12 UNL     1      19.389 -14.771  22.657  1.00  0.00     0.204 C 
HETATM   15  C13 UNL     1      20.647 -15.252  23.231  1.00  0.00     0.166 C 
HETATM   16  O3  UNL     1      21.801 -14.880  23.445  1.00  0.00    -0.295 OA
HETATM   17  C14 UNL     1      19.987 -16.553  23.528  1.00  0.00     0.089 C 
HETATM   18  C15 UNL     1      18.910 -16.192  22.530  1.00  0.00     0.035 C 
HETATM   19  C16 UNL     1      19.173 -16.798  21.161  1.00  0.00     0.014 C 
ENDROOT
BRANCH  11  20
HETATM   20  C4  UNL     1      17.621 -12.724  20.131  1.00  0.00     0.137 C 
BRANCH  20  21
HETATM   21  C5  UNL     1      17.759 -11.252  20.010  1.00  0.00     0.020 C 
BRANCH  21  22
HETATM   22  C6  UNL     1      16.375 -10.639  19.996  1.00  0.00     0.002 C 
BRANCH  22  23
HETATM   23  C7  UNL     1      15.339 -11.581  19.420  1.00  0.00     0.009 C 
BRANCH  23  24
HETATM   24  C8  UNL     1      13.982 -10.991  19.739  1.00  0.00     0.062 C 
BRANCH  24  25
HETATM   25  S1  UNL     1      13.626 -11.058  21.476  1.00  0.00    -0.228 SA
HETATM   26  C9  UNL     1      13.258  -9.384  21.994  1.00  0.00     0.078 C 
HETATM   27  C10 UNL     1      12.134 -12.005  21.750  1.00  0.00     0.078 C 
ENDBRANCH  24  25
ENDBRANCH  23  24
ENDBRANCH  22  23
ENDBRANCH  21  22
ENDBRANCH  20  21
ENDBRANCH  11  20
TORSDOF 6
ENDMDL
MODEL 3
REMARK VINA RESULT: -6.174522289      1.345      1.455
REMARK  6 active torsions:
REMARK  status: ('A' for Active; 'I' for Inactive)
REMARK       I    between atoms: N1_2  and  C2_4 
REMARK       I    between atoms: C2_4  and  N3_8 
REMARK    1  A    between atoms: N4_11  and  C4_12 
REMARK    2  A    between atoms: C4_12  and  C5_13 
REMARK    3  A    between atoms: C5_13  and  C6_14 
REMARK    4  A    between atoms: C6_14  and  C7_15 
REMARK    5  A    between atoms: C7_15  and  C8_16 
REMARK    6  A    between atoms: C8_16  and  S1_17 
ROOT
HETATM    1  C1  UNL     1      16.181 -16.747  23.882  1.00  0.00     0.165 C 
HETATM    2  N1  UNL     1      17.470 -16.925  23.262  1.00  0.00    -0.231 N 
ATOM      3  H1  UNL     1      18.265 -17.229  23.825  1.00  0.00     0.177 HD
HETATM    4  C2  UNL     1      17.641 -16.681  21.879  1.00  0.00     0.679 C 
HETATM    5  N2  UNL     1      17.902 -17.650  21.077  1.00  0.00    -0.234 N 
ATOM      6  H21 UNL     1      18.025 -17.474  20.080  1.00  0.00     0.174 HD
ATOM      7  H22 UNL     1      17.982 -18.595  21.452  1.00  0.00     0.174 HD
HETATM    8  N3  UNL     1      17.527 -15.344  21.347  1.00  0.00    -0.106 N 
HETATM    9  C3  UNL     1      16.610 -14.871  20.368  1.00  0.00     0.347 C 
HETATM   10  O1  UNL     1      15.969 -15.599  19.560  1.00  0.00    -0.246 OA
HETATM   11  N4  UNL     1      16.565 -13.441  20.482  1.00  0.00    -0.267 N 
HETATM   12  C11 UNL     1      17.462 -13.074  21.537  1.00  0.00     0.265 C 
HETATM   13  O2  UNL     1      17.407 -11.961  22.101  1.00  0.00    -0.269 OA
HETATM   14  C12 UNL     1      18.344 -14.234  21.731  1.00  0.00     0.204 C 
HETATM   15  C13 UNL     1      19.048 -14.332  23.011  1.00  0.00     0.166 C 
HETATM   16  O3  UNL     1      18.849 -14.218  24.220  1.00  0.00    -0.295 OA
HETATM   17  C14 UNL     1      20.295 -14.671  22.270  1.00  0.00     0.089 C 
HETATM   18  C15 UNL     1      19.663 -14.104  21.020  1.00  0.00     0.035 C 
HETATM   19  C16 UNL     1      20.076 -12.662  20.774  1.00  0.00     0.014 C 
ENDROOT
BRANCH  11  20
HETATM   20  C4  UNL     1      15.741 -12.628  19.646  1.00  0.00     0.137 C 
BRANCH  20  21
HETATM   21  C5  UNL     1      14.638 -11.914  20.334  1.00  0.00     0.020 C 
BRANCH  21  22
HETATM   22  C6  UNL     1      14.913 -10.427  20.268  1.00  0.00     0.002 C 
BRANCH  22  23
HETATM   23  C7  UNL     1      13.648  -9.605  20.387  1.00  0.00     0.009 C 
BRANCH  23  24
HETATM   24  C8  UNL     1      13.459  -9.298  21.857  1.00  0.00     0.062 C 
BRANCH  24  25
HETATM   25  S1  UNL     1      11.817  -9.690  22.405  1.00  0.00    -0.228 SA
HETATM   26  C9  UNL     1      11.755 -11.468  22.622  1.00  0.00     0.078 C 
HETATM   27  C10 UNL     1      11.536  -8.981  24.022  1.00  0.00     0.078 C 
ENDBRANCH  24  25
ENDBRANCH  23  24
ENDBRANCH  22  23
ENDBRANCH  21  22
ENDBRANCH  20  21
ENDBRANCH  11  20
TORSDOF 6
ENDMDL
MODEL 4
REMARK VINA RESULT: -6.145382711      2.187      3.847
REMARK  6 active torsions:
REMARK  status: ('A' for Active; 'I' for Inactive)
REMARK       I    between atoms: N1_2  and  C2_4 
REMARK       I    between atoms: C2_4  and  N3_8 
REMARK    1  A    between atoms: N4_11  and  C4_12 
REMARK    2  A    between atoms: C4_12  and  C5_13 
REMARK    3  A    between atoms: C5_13  and  C6_14 
REMARK    4  A    between atoms: C6_14  and  C7_15 
REMARK    5  A    between atoms: C7_15  and  C8_16 
REMARK    6  A    between atoms: C8_16  and  S1_17 
ROOT
HETATM    1  C1  UNL     1      22.170 -16.812  24.482  1.00  0.00     0.165 C 
HETATM    2  N1  UNL     1      21.395 -15.945  25.334  1.00  0.00    -0.231 N 
ATOM      3  H1  UNL     1      20.938 -16.327  26.163  1.00  0.00     0.177 HD
HETATM    4  C2  UNL     1      21.263 -14.570  25.029  1.00  0.00     0.679 C 
HETATM    5  N2  UNL     1      21.795 -13.683  25.791  1.00  0.00    -0.234 N 
ATOM      6  H21 UNL     1      21.700 -12.692  25.572  1.00  0.00     0.174 HD
ATOM      7  H22 UNL     1      22.313 -13.986  26.616  1.00  0.00     0.174 HD
HETATM    8  N3  UNL     1      20.530 -14.141  23.862  1.00  0.00    -0.106 N 
HETATM    9  C3  UNL     1      21.014 -13.385  22.759  1.00  0.00     0.347 C 
HETATM   10  O1  UNL     1      22.061 -12.679  22.764  1.00  0.00    -0.246 OA
HETATM   11  N4  UNL     1      20.095 -13.580  21.673  1.00  0.00    -0.267 N 
HETATM   12  C11 UNL     1      19.067 -14.459  22.144  1.00  0.00     0.265 C 
HETATM   13  O2  UNL     1      18.314 -15.080  21.365  1.00  0.00    -0.269 OA
HETATM   14  C12 UNL     1      19.149 -14.417  23.611  1.00  0.00     0.204 C 
HETATM   15  C13 UNL     1      18.544 -15.529  24.347  1.00  0.00     0.166 C 
HETATM   16  O3  UNL     1      18.481 -16.758  24.335  1.00  0.00    -0.295 OA
HETATM   17  C14 UNL     1      17.920 -14.544  25.273  1.00  0.00     0.089 C 
HETATM   18  C15 UNL     1      18.159 -13.471  24.235  1.00  0.00     0.035 C 
HETATM   19  C16 UNL     1      16.933 -13.226  23.373  1.00  0.00     0.014 C 
ENDROOT
BRANCH  11  20
HETATM   20  C4  UNL     1      20.271 -12.964  20.397  1.00  0.00     0.137 C 
BRANCH  20  21
HETATM   21  C5  UNL     1      19.752 -11.579  20.278  1.00  0.00     0.020 C 
BRANCH  21  22
HETATM   22  C6  UNL     1      18.329 -11.641  19.766  1.00  0.00     0.002 C 
BRANCH  22  23
HETATM   23  C7  UNL     1      17.369 -10.877  20.652  1.00  0.00     0.009 C 
BRANCH  23  24
HETATM   24  C8  UNL     1      16.026 -10.883  19.953  1.00  0.00     0.062 C 
BRANCH  24  25
HETATM   25  S1  UNL     1      14.697 -10.546  21.079  1.00  0.00    -0.228 SA
HETATM   26  C9  UNL     1      13.482  -9.590  20.173  1.00  0.00     0.078 C 
HETATM   27  C10 UNL     1      13.890 -12.075  21.534  1.00  0.00     0.078 C 
ENDBRANCH  24  25
ENDBRANCH  23  24
ENDBRANCH  22  23
ENDBRANCH  21  22
ENDBRANCH  20  21
ENDBRANCH  11  20
TORSDOF 6
ENDMDL
MODEL 5
REMARK VINA RESULT: -6.035916110      1.938      3.552
REMARK  6 active torsions:
REMARK  status: ('A' for Active; 'I' for Inactive)
REMARK       I    between atoms: N1_2  and  C2_4 
REMARK       I    between atoms: C2_4  and  N3_8 
REMARK    1  A    between atoms: N4_11  and  C4_12 
REMARK    2  A    between atoms: C4_12  and  C5_13 
REMARK    3  A    between atoms: C5_13  and  C6_14 
REMARK    4  A    between atoms: C6_14  and  C7_15 
REMARK    5  A    between atoms: C7_15  and  C8_16 
REMARK    6  A    between atoms: C8_16  and  S1_17 
ROOT
HETATM    1  C1  UNL     1      21.319 -17.003  21.063  1.00  0.00     0.165 C 
HETATM    2  N1  UNL     1      21.401 -16.871  22.496  1.00  0.00    -0.231 N 
ATOM      3  H1  UNL     1      21.404 -17.706  23.082  1.00  0.00     0.177 HD
HETATM    4  C2  UNL     1      21.478 -15.591  23.095  1.00  0.00     0.679 C 
HETATM    5  N2  UNL     1      22.548 -15.222  23.701  1.00  0.00    -0.234 N 
ATOM      6  H21 UNL     1      22.603 -14.300  24.133  1.00  0.00     0.174 HD
ATOM      7  H22 UNL     1      23.340 -15.864  23.742  1.00  0.00     0.174 HD
HETATM    8  N3  UNL     1      20.358 -14.683  23.037  1.00  0.00    -0.106 N 
HETATM    9  C3  UNL     1      20.318 -13.384  22.459  1.00  0.00     0.347 C 
HETATM   10  O1  UNL     1      21.328 -12.672  22.199  1.00  0.00    -0.246 OA
HETATM   11  N4  UNL     1      18.938 -13.056  22.241  1.00  0.00    -0.267 N 
HETATM   12  C11 UNL     1      18.163 -14.173  22.694  1.00  0.00     0.265 C 
HETATM   13  O2  UNL     1      16.976 -14.343  22.346  1.00  0.00    -0.269 OA
HETATM   14  C12 UNL     1      19.056 -14.948  23.567  1.00  0.00     0.204 C 
HETATM   15  C13 UNL     1      18.704 -16.348  23.810  1.00  0.00     0.166 C 
HETATM   16  O3  UNL     1      18.334 -17.356  23.207  1.00  0.00    -0.295 OA
HETATM   17  C14 UNL     1      18.977 -16.141  25.259  1.00  0.00     0.089 C 
HETATM   18  C15 UNL     1      18.862 -14.651  25.029  1.00  0.00     0.035 C 
HETATM   19  C16 UNL     1      17.474 -14.127  25.360  1.00  0.00     0.014 C 
ENDROOT
BRANCH  11  20
HETATM   20  C4  UNL     1      18.523 -11.815  21.669  1.00  0.00     0.137 C 
BRANCH  20  21
HETATM   21  C5  UNL     1      18.650 -11.715  20.195  1.00  0.00     0.020 C 
BRANCH  21  22
HETATM   22  C6  UNL     1      17.264 -11.595  19.600  1.00  0.00     0.002 C 
BRANCH  22  23
HETATM   23  C7  UNL     1      16.235 -11.179  20.629  1.00  0.00     0.009 C 
BRANCH  23  24
HETATM   24  C8  UNL     1      15.005 -12.029  20.391  1.00  0.00     0.062 C 
BRANCH  24  25
HETATM   25  S1  UNL     1      13.511 -11.086  20.553  1.00  0.00    -0.228 SA
HETATM   26  C9  UNL     1      12.478 -11.953  21.733  1.00  0.00     0.078 C 
HETATM   27  C10 UNL     1      13.878  -9.497  21.286  1.00  0.00     0.078 C 
ENDBRANCH  24  25
ENDBRANCH  23  24
ENDBRANCH  22  23
ENDBRANCH  21  22
ENDBRANCH  20  21
ENDBRANCH  11  20
TORSDOF 6
ENDMDL
