MODEL 1
REMARK VINA RESULT: -7.377934550      0.000      0.000
REMARK  10 active torsions:
REMARK  status: ('A' for Active; 'I' for Inactive)
REMARK    1  A    between atoms: C3_3  and  N1_4 
REMARK    2  A    between atoms: N1_4  and  C5_6 
REMARK    3  A    between atoms: C5_6  and  C6_7 
REMARK    4  A    between atoms: C7_8  and  C8_9 
REMARK    5  A    between atoms: C10_13  and  N3_14 
REMARK    6  A    between atoms: N3_14  and  C11_16 
REMARK    7  A    between atoms: C13_18  and  N4_19 
REMARK       I    between atoms: N4_19  and  C14_21 
REMARK    8  A    between atoms: C14_21  and  C15_23 
REMARK    9  A    between atoms: C15_23  and  C16_24 
REMARK   10  A    between atoms: C16_24  and  C17_25 
ROOT
HETATM    1  C1  UNL     1      20.761 -11.952  26.319  1.00  0.00     0.013 C 
HETATM    2  C2  UNL     1      20.067 -12.666  25.616  1.00  0.00    -0.087 C 
HETATM    3  C3  UNL     1      19.214 -13.520  24.789  1.00  0.00     0.365 C 
ENDROOT
BRANCH   3   4
HETATM    4  N1  UNL     1      20.007 -14.069  23.689  1.00  0.00     0.105 N 
HETATM    5  C4  UNL     1      21.065 -14.888  24.204  1.00  0.00     0.312 C 
BRANCH   4   6
HETATM    6  C5  UNL     1      20.511 -12.970  22.925  1.00  0.00     0.366 C 
BRANCH   6   7
HETATM    7  C6  UNL     1      19.472 -12.547  21.976  1.00  0.00    -0.069 C 
HETATM    8  C7  UNL     1      18.618 -12.203  21.168  1.00  0.00    -0.046 C 
BRANCH   8   9
HETATM    9  C8  UNL     1      17.621 -11.824  20.209  1.00  0.00     0.104 A 
HETATM   10  C9  UNL     1      17.932 -11.588  18.889  1.00  0.00     0.128 A 
HETATM   11  N2  UNL     1      17.014 -11.228  17.957  1.00  0.00    -0.347 N 
HETATM   12  C10 UNL     1      15.735 -11.095  18.341  1.00  0.00     0.146 A 
ATOM     13  H2  UNL     1      17.289 -11.062  16.989  1.00  0.00     0.167 HD
HETATM   14  C13 UNL     1      15.367 -11.327  19.681  1.00  0.00     0.153 A 
HETATM   15  N5  UNL     1      16.314 -11.679  20.554  1.00  0.00    -0.331 N 
ATOM     16  H5  UNL     1      16.044 -11.845  21.524  1.00  0.00     0.168 HD
BRANCH  12  17
HETATM   17  N3  UNL     1      14.865 -10.755  17.474  1.00  0.00    -0.374 N 
ATOM     18  H3  UNL     1      13.904 -10.621  17.786  1.00  0.00     0.161 HD
BRANCH  17  19
HETATM   19  C11 UNL     1      15.161 -10.550  16.079  1.00  0.00     0.117 C 
HETATM   20  C12 UNL     1      14.968 -11.804  15.241  1.00  0.00     0.026 C 
ENDBRANCH  17  19
ENDBRANCH  12  17
BRANCH  14  21
HETATM   21  N4  UNL     1      14.146 -11.180  19.952  1.00  0.00    -0.310 N 
HETATM   22  C14 UNL     1      13.562 -10.895  21.200  1.00  0.00     0.223 C 
HETATM   23  O1  UNL     1      13.887 -11.551  22.205  1.00  0.00    -0.273 OA
ATOM     24  H4  UNL     1      13.500 -11.281  19.170  1.00  0.00     0.170 HD
BRANCH  22  25
HETATM   25  C15 UNL     1      12.550  -9.809  21.340  1.00  0.00     0.104 C 
BRANCH  25  26
HETATM   26  C16 UNL     1      12.966  -8.926  22.492  1.00  0.00     0.026 C 
BRANCH  26  27
HETATM   27  C17 UNL     1      11.778  -8.573  23.367  1.00  0.00     0.060 C 
HETATM   28  C18 UNL     1      12.170  -7.497  24.346  1.00  0.00     0.023 C 
HETATM   29  C19 UNL     1      11.300  -9.781  24.031  1.00  0.00    -0.113 C 
HETATM   30  C20 UNL     1      10.917 -10.776  24.584  1.00  0.00     0.012 C 
ENDBRANCH  26  27
ENDBRANCH  25  26
ENDBRANCH  22  25
ENDBRANCH  14  21
ENDBRANCH   8   9
ENDBRANCH   6   7
ENDBRANCH   4   6
ENDBRANCH   3   4
TORSDOF 10
ENDMDL
MODEL 2
REMARK VINA RESULT: -7.268217392      1.213      1.630
REMARK  10 active torsions:
REMARK  status: ('A' for Active; 'I' for Inactive)
REMARK    1  A    between atoms: C3_3  and  N1_4 
REMARK    2  A    between atoms: N1_4  and  C5_6 
REMARK    3  A    between atoms: C5_6  and  C6_7 
REMARK    4  A    between atoms: C7_8  and  C8_9 
REMARK    5  A    between atoms: C10_13  and  N3_14 
REMARK    6  A    between atoms: N3_14  and  C11_16 
REMARK    7  A    between atoms: C13_18  and  N4_19 
REMARK       I    between atoms: N4_19  and  C14_21 
REMARK    8  A    between atoms: C14_21  and  C15_23 
REMARK    9  A    between atoms: C15_23  and  C16_24 
REMARK   10  A    between atoms: C16_24  and  C17_25 
ROOT
HETATM    1  C1  UNL     1      20.754 -11.904  26.585  1.00  0.00     0.013 C 
HETATM    2  C2  UNL     1      21.165 -12.957  26.129  1.00  0.00    -0.087 C 
HETATM    3  C3  UNL     1      21.674 -14.224  25.604  1.00  0.00     0.365 C 
ENDROOT
BRANCH   3   4
HETATM    4  N1  UNL     1      21.187 -14.407  24.236  1.00  0.00     0.105 N 
HETATM    5  C4  UNL     1      21.592 -15.688  23.735  1.00  0.00     0.312 C 
BRANCH   4   6
HETATM    6  C5  UNL     1      21.709 -13.337  23.442  1.00  0.00     0.366 C 
BRANCH   6   7
HETATM    7  C6  UNL     1      20.706 -12.975  22.432  1.00  0.00    -0.069 C 
HETATM    8  C7  UNL     1      19.857 -12.663  21.607  1.00  0.00    -0.046 C 
BRANCH   8   9
HETATM    9  C8  UNL     1      18.860 -12.274  20.651  1.00  0.00     0.104 A 
HETATM   10  C9  UNL     1      19.178 -11.559  19.518  1.00  0.00     0.128 A 
HETATM   11  N2  UNL     1      18.262 -11.175  18.594  1.00  0.00    -0.347 N 
HETATM   12  C10 UNL     1      16.978 -11.509  18.794  1.00  0.00     0.146 A 
ATOM     13  H2  UNL     1      18.542 -10.646  17.768  1.00  0.00     0.167 HD
HETATM   14  C13 UNL     1      16.603 -12.240  19.938  1.00  0.00     0.153 A 
HETATM   15  N5  UNL     1      17.548 -12.591  20.814  1.00  0.00    -0.331 N 
ATOM     16  H5  UNL     1      17.274 -13.120  21.642  1.00  0.00     0.168 HD
BRANCH  12  17
HETATM   17  N3  UNL     1      16.108 -11.151  17.934  1.00  0.00    -0.374 N 
ATOM     18  H3  UNL     1      15.180 -10.893  18.268  1.00  0.00     0.161 HD
BRANCH  17  19
HETATM   19  C11 UNL     1      16.360 -11.090  16.517  1.00  0.00     0.117 C 
HETATM   20  C12 UNL     1      15.088 -11.153  15.686  1.00  0.00     0.026 C 
ENDBRANCH  17  19
ENDBRANCH  12  17
BRANCH  14  21
HETATM   21  N4  UNL     1      15.377 -12.510  20.046  1.00  0.00    -0.310 N 
HETATM   22  C14 UNL     1      14.475 -12.070  21.031  1.00  0.00     0.223 C 
HETATM   23  O1  UNL     1      14.777 -12.150  22.234  1.00  0.00    -0.273 OA
ATOM     24  H4  UNL     1      14.992 -13.124  19.330  1.00  0.00     0.170 HD
BRANCH  22  25
HETATM   25  C15 UNL     1      13.147 -11.506  20.654  1.00  0.00     0.104 C 
BRANCH  25  26
HETATM   26  C16 UNL     1      12.430 -11.107  21.922  1.00  0.00     0.026 C 
BRANCH  26  27
HETATM   27  C17 UNL     1      12.190  -9.610  21.967  1.00  0.00     0.060 C 
HETATM   28  C18 UNL     1      13.463  -8.882  21.618  1.00  0.00     0.023 C 
HETATM   29  C19 UNL     1      11.688  -9.247  23.287  1.00  0.00    -0.113 C 
HETATM   30  C20 UNL     1      11.284  -8.952  24.379  1.00  0.00     0.012 C 
ENDBRANCH  26  27
ENDBRANCH  25  26
ENDBRANCH  22  25
ENDBRANCH  14  21
ENDBRANCH   8   9
ENDBRANCH   6   7
ENDBRANCH   4   6
ENDBRANCH   3   4
TORSDOF 10
ENDMDL
MODEL 3
REMARK VINA RESULT: -7.191150852      1.968      7.617
REMARK  10 active torsions:
REMARK  status: ('A' for Active; 'I' for Inactive)
REMARK    1  A    between atoms: C3_3  and  N1_4 
REMARK    2  A    between atoms: N1_4  and  C5_6 
REMARK    3  A    between atoms: C5_6  and  C6_7 
REMARK    4  A    between atoms: C7_8  and  C8_9 
REMARK    5  A    between atoms: C10_13  and  N3_14 
REMARK    6  A    between atoms: N3_14  and  C11_16 
REMARK    7  A    between atoms: C13_18  and  N4_19 
REMARK       I    between atoms: N4_19  and  C14_21 
REMARK    8  A    between atoms: C14_21  and  C15_23 
REMARK    9  A    between atoms: C15_23  and  C16_24 
REMARK   10  A    between atoms: C16_24  and  C17_25 
ROOT
HETATM    1  C1  UNL     1      11.641  -7.158  24.527  1.00  0.00     0.013 C 
HETATM    2  C2  UNL     1      11.581  -8.360  24.334  1.00  0.00    -0.087 C 
HETATM    3  C3  UNL     1      11.515  -9.807  24.127  1.00  0.00     0.365 C 
ENDROOT
BRANCH   3   4
HETATM    4  N1  UNL     1      11.263 -10.079  22.711  1.00  0.00     0.105 N 
HETATM    5  C4  UNL     1      11.655 -11.420  22.389  1.00  0.00     0.312 C 
BRANCH   4   6
HETATM    6  C5  UNL     1      11.991  -9.114  21.947  1.00  0.00     0.366 C 
BRANCH   6   7
HETATM    7  C6  UNL     1      13.260  -9.720  21.522  1.00  0.00    -0.069 C 
HETATM    8  C7  UNL     1      14.327 -10.220  21.189  1.00  0.00    -0.046 C 
BRANCH   8   9
HETATM    9  C8  UNL     1      15.578 -10.821  20.822  1.00  0.00     0.104 A 
HETATM   10  C9  UNL     1      15.894 -11.102  19.512  1.00  0.00     0.128 A 
HETATM   11  N2  UNL     1      17.066 -11.669  19.131  1.00  0.00    -0.347 N 
HETATM   12  C10 UNL     1      17.965 -11.972  20.079  1.00  0.00     0.146 A 
ATOM     13  H2  UNL     1      17.259 -11.860  18.147  1.00  0.00     0.167 HD
HETATM   14  C13 UNL     1      17.688 -11.703  21.434  1.00  0.00     0.153 A 
HETATM   15  N5  UNL     1      16.517 -11.144  21.750  1.00  0.00    -0.331 N 
ATOM     16  H5  UNL     1      16.319 -10.951  22.733  1.00  0.00     0.168 HD
BRANCH  12  17
HETATM   17  N3  UNL     1      19.068 -12.508  19.732  1.00  0.00    -0.374 N 
ATOM     18  H3  UNL     1      19.211 -13.495  19.946  1.00  0.00     0.161 HD
BRANCH  17  19
HETATM   19  C11 UNL     1      20.125 -11.800  19.055  1.00  0.00     0.117 C 
HETATM   20  C12 UNL     1      20.938 -10.915  19.987  1.00  0.00     0.026 C 
ENDBRANCH  17  19
ENDBRANCH  12  17
BRANCH  14  21
HETATM   21  N4  UNL     1      18.587 -12.020  22.256  1.00  0.00    -0.310 N 
HETATM   22  C14 UNL     1      18.623 -13.130  23.120  1.00  0.00     0.223 C 
HETATM   23  O1  UNL     1      17.636 -13.402  23.826  1.00  0.00    -0.273 OA
ATOM     24  H4  UNL     1      19.390 -11.394  22.302  1.00  0.00     0.170 HD
BRANCH  22  25
HETATM   25  C15 UNL     1      19.835 -13.994  23.205  1.00  0.00     0.104 C 
BRANCH  25  26
HETATM   26  C16 UNL     1      21.049 -13.122  22.991  1.00  0.00     0.026 C 
BRANCH  26  27
HETATM   27  C17 UNL     1      21.972 -13.166  24.194  1.00  0.00     0.060 C 
HETATM   28  C18 UNL     1      22.327 -14.597  24.508  1.00  0.00     0.023 C 
HETATM   29  C19 UNL     1      21.326 -12.495  25.316  1.00  0.00    -0.113 C 
HETATM   30  C20 UNL     1      20.784 -11.951  26.240  1.00  0.00     0.012 C 
ENDBRANCH  26  27
ENDBRANCH  25  26
ENDBRANCH  22  25
ENDBRANCH  14  21
ENDBRANCH   8   9
ENDBRANCH   6   7
ENDBRANCH   4   6
ENDBRANCH   3   4
TORSDOF 10
ENDMDL
MODEL 4
REMARK VINA RESULT: -7.142485893      2.846      7.824
REMARK  10 active torsions:
REMARK  status: ('A' for Active; 'I' for Inactive)
REMARK    1  A    between atoms: C3_3  and  N1_4 
REMARK    2  A    between atoms: N1_4  and  C5_6 
REMARK    3  A    between atoms: C5_6  and  C6_7 
REMARK    4  A    between atoms: C7_8  and  C8_9 
REMARK    5  A    between atoms: C10_13  and  N3_14 
REMARK    6  A    between atoms: N3_14  and  C11_16 
REMARK    7  A    between atoms: C13_18  and  N4_19 
REMARK       I    between atoms: N4_19  and  C14_21 
REMARK    8  A    between atoms: C14_21  and  C15_23 
REMARK    9  A    between atoms: C15_23  and  C16_24 
REMARK   10  A    between atoms: C16_24  and  C17_25 
ROOT
HETATM    1  C1  UNL     1      11.340  -9.278  24.423  1.00  0.00     0.013 C 
HETATM    2  C2  UNL     1      11.706  -9.280  23.261  1.00  0.00    -0.087 C 
HETATM    3  C3  UNL     1      12.123  -9.268  21.858  1.00  0.00     0.365 C 
ENDROOT
BRANCH   3   4
HETATM    4  N1  UNL     1      13.337 -10.071  21.712  1.00  0.00     0.105 N 
HETATM    5  C4  UNL     1      14.322  -9.344  20.964  1.00  0.00     0.312 C 
BRANCH   4   6
HETATM    6  C5  UNL     1      12.975 -11.294  21.065  1.00  0.00     0.366 C 
BRANCH   6   7
HETATM    7  C6  UNL     1      14.093 -12.237  21.193  1.00  0.00    -0.069 C 
HETATM    8  C7  UNL     1      15.011 -13.041  21.305  1.00  0.00    -0.046 C 
BRANCH   8   9
HETATM    9  C8  UNL     1      16.071 -14.000  21.423  1.00  0.00     0.104 A 
HETATM   10  C9  UNL     1      15.824 -15.349  21.544  1.00  0.00     0.128 A 
HETATM   11  N2  UNL     1      16.802 -16.281  21.657  1.00  0.00    -0.347 N 
HETATM   12  C10 UNL     1      18.079 -15.869  21.651  1.00  0.00     0.146 A 
ATOM     13  H2  UNL     1      16.573 -17.271  21.745  1.00  0.00     0.167 HD
HETATM   14  C13 UNL     1      18.383 -14.499  21.528  1.00  0.00     0.153 A 
HETATM   15  N5  UNL     1      17.378 -13.626  21.421  1.00  0.00    -0.331 N 
ATOM     16  H5  UNL     1      17.602 -12.634  21.333  1.00  0.00     0.168 HD
BRANCH  12  17
HETATM   17  N3  UNL     1      19.006 -16.737  21.759  1.00  0.00    -0.374 N 
ATOM     18  H3  UNL     1      19.693 -16.802  21.007  1.00  0.00     0.161 HD
BRANCH  17  19
HETATM   19  C11 UNL     1      19.140 -17.632  22.880  1.00  0.00     0.117 C 
HETATM   20  C12 UNL     1      19.864 -17.000  24.059  1.00  0.00     0.026 C 
ENDBRANCH  17  19
ENDBRANCH  12  17
BRANCH  14  21
HETATM   21  N4  UNL     1      19.607 -14.202  21.531  1.00  0.00    -0.310 N 
HETATM   22  C14 UNL     1      20.191 -12.930  21.673  1.00  0.00     0.223 C 
HETATM   23  O1  UNL     1      19.781 -11.976  20.990  1.00  0.00    -0.273 OA
ATOM     24  H4  UNL     1      20.255 -14.980  21.415  1.00  0.00     0.170 HD
BRANCH  22  25
HETATM   25  C15 UNL     1      21.306 -12.704  22.637  1.00  0.00     0.104 C 
BRANCH  25  26
HETATM   26  C16 UNL     1      20.985 -13.452  23.909  1.00  0.00     0.026 C 
BRANCH  26  27
HETATM   27  C17 UNL     1      20.039 -12.655  24.787  1.00  0.00     0.060 C 
HETATM   28  C18 UNL     1      20.748 -12.242  26.052  1.00  0.00     0.023 C 
HETATM   29  C19 UNL     1      18.849 -13.455  25.055  1.00  0.00    -0.113 C 
HETATM   30  C20 UNL     1      17.876 -14.122  25.281  1.00  0.00     0.012 C 
ENDBRANCH  26  27
ENDBRANCH  25  26
ENDBRANCH  22  25
ENDBRANCH  14  21
ENDBRANCH   8   9
ENDBRANCH   6   7
ENDBRANCH   4   6
ENDBRANCH   3   4
TORSDOF 10
ENDMDL
MODEL 5
REMARK VINA RESULT: -7.109536236      1.135      1.767
REMARK  10 active torsions:
REMARK  status: ('A' for Active; 'I' for Inactive)
REMARK    1  A    between atoms: C3_3  and  N1_4 
REMARK    2  A    between atoms: N1_4  and  C5_6 
REMARK    3  A    between atoms: C5_6  and  C6_7 
REMARK    4  A    between atoms: C7_8  and  C8_9 
REMARK    5  A    between atoms: C10_13  and  N3_14 
REMARK    6  A    between atoms: N3_14  and  C11_16 
REMARK    7  A    between atoms: C13_18  and  N4_19 
REMARK       I    between atoms: N4_19  and  C14_21 
REMARK    8  A    between atoms: C14_21  and  C15_23 
REMARK    9  A    between atoms: C15_23  and  C16_24 
REMARK   10  A    between atoms: C16_24  and  C17_25 
ROOT
HETATM    1  C1  UNL     1      20.765 -11.907  26.724  1.00  0.00     0.013 C 
HETATM    2  C2  UNL     1      20.702 -12.653  25.763  1.00  0.00    -0.087 C 
HETATM    3  C3  UNL     1      20.640 -13.532  24.594  1.00  0.00     0.365 C 
ENDROOT
BRANCH   3   4
HETATM    4  N1  UNL     1      19.807 -14.692  24.910  1.00  0.00     0.105 N 
HETATM    5  C4  UNL     1      19.852 -15.639  23.834  1.00  0.00     0.312 C 
BRANCH   4   6
HETATM    6  C5  UNL     1      18.477 -14.221  25.147  1.00  0.00     0.366 C 
BRANCH   6   7
HETATM    7  C6  UNL     1      17.968 -13.621  23.906  1.00  0.00    -0.069 C 
HETATM    8  C7  UNL     1      17.523 -13.127  22.878  1.00  0.00    -0.046 C 
BRANCH   8   9
HETATM    9  C8  UNL     1      16.981 -12.537  21.688  1.00  0.00     0.104 A 
HETATM   10  C9  UNL     1      17.762 -12.272  20.586  1.00  0.00     0.128 A 
HETATM   11  N2  UNL     1      17.282 -11.716  19.445  1.00  0.00    -0.347 N 
HETATM   12  C10 UNL     1      15.978 -11.408  19.387  1.00  0.00     0.146 A 
ATOM     13  H2  UNL     1      17.898 -11.535  18.652  1.00  0.00     0.167 HD
HETATM   14  C13 UNL     1      15.137 -11.661  20.488  1.00  0.00     0.153 A 
HETATM   15  N5  UNL     1      15.665 -12.210  21.585  1.00  0.00    -0.331 N 
ATOM     16  H5  UNL     1      15.054 -12.392  22.382  1.00  0.00     0.168 HD
BRANCH  12  17
HETATM   17  N3  UNL     1      15.517 -10.883  18.321  1.00  0.00    -0.374 N 
ATOM     18  H3  UNL     1      14.801 -10.162  18.411  1.00  0.00     0.161 HD
BRANCH  17  19
HETATM   19  C11 UNL     1      15.948 -11.248  16.995  1.00  0.00     0.117 C 
HETATM   20  C12 UNL     1      14.930 -10.893  15.922  1.00  0.00     0.026 C 
ENDBRANCH  17  19
ENDBRANCH  12  17
BRANCH  14  21
HETATM   21  N4  UNL     1      13.927 -11.342  20.347  1.00  0.00    -0.310 N 
HETATM   22  C14 UNL     1      12.895 -11.403  21.300  1.00  0.00     0.223 C 
HETATM   23  O1  UNL     1      12.725 -12.437  21.969  1.00  0.00    -0.273 OA
ATOM     24  H4  UNL     1      13.663 -10.995  19.425  1.00  0.00     0.170 HD
BRANCH  22  25
HETATM   25  C15 UNL     1      11.991 -10.238  21.525  1.00  0.00     0.104 C 
BRANCH  25  26
HETATM   26  C16 UNL     1      12.721  -9.238  22.389  1.00  0.00     0.026 C 
BRANCH  26  27
HETATM   27  C17 UNL     1      12.171  -9.232  23.803  1.00  0.00     0.060 C 
HETATM   28  C18 UNL     1      10.889 -10.025  23.851  1.00  0.00     0.023 C 
HETATM   29  C19 UNL     1      11.986  -7.852  24.237  1.00  0.00    -0.113 C 
HETATM   30  C20 UNL     1      11.826  -6.714  24.586  1.00  0.00     0.012 C 
ENDBRANCH  26  27
ENDBRANCH  25  26
ENDBRANCH  22  25
ENDBRANCH  14  21
ENDBRANCH   8   9
ENDBRANCH   6   7
ENDBRANCH   4   6
ENDBRANCH   3   4
TORSDOF 10
ENDMDL
