MODEL 1
REMARK VINA RESULT: -6.800161867      0.000      0.000
REMARK  6 active torsions:
REMARK  status: ('A' for Active; 'I' for Inactive)
REMARK    1  A    between atoms: C2_2  and  C3_3 
REMARK    2  A    between atoms: C3_3  and  N1_4 
REMARK    3  A    between atoms: N1_4  and  C6_7 
REMARK    4  A    between atoms: C6_7  and  C7_8 
REMARK    5  A    between atoms: C7_8  and  S1_9 
REMARK    6  A    between atoms: S1_9  and  N2_12 
ROOT
HETATM    1  N2  UNL     1      18.557 -11.393  19.818  1.00  0.00    -0.116 N 
ATOM      2  H2  UNL     1      19.191 -10.855  19.226  1.00  0.00     0.197 HD
HETATM    3  C8  UNL     1      19.063 -12.059  20.790  1.00  0.00     0.692 A 
HETATM    4  N3  UNL     1      20.378 -12.136  21.137  1.00  0.00    -0.193 N 
ATOM      5  H3  UNL     1      21.155 -11.670  20.667  1.00  0.00     0.184 HD
HETATM    6  C9  UNL     1      20.465 -12.936  22.210  1.00  0.00     0.054 A 
HETATM    7  C10 UNL     1      19.210 -13.371  22.549  1.00  0.00     0.087 A 
HETATM    8  N4  UNL     1      18.372 -12.811  21.656  1.00  0.00    -0.190 N 
ATOM      9  H4  UNL     1      17.360 -12.942  21.642  1.00  0.00     0.184 HD
HETATM   10  C11 UNL     1      18.911 -14.269  23.681  1.00  0.00     0.196 C 
HETATM   11  C12 UNL     1      18.427 -15.588  23.078  1.00  0.00     0.056 C 
HETATM   12  C13 UNL     1      17.816 -13.626  24.504  1.00  0.00     0.056 C 
HETATM   13  N5  UNL     1      20.065 -14.523  24.494  1.00  0.00     0.099 N 
HETATM   14  C14 UNL     1      19.924 -15.760  25.250  1.00  0.00     0.311 C 
HETATM   15  C15 UNL     1      21.280 -14.636  23.724  1.00  0.00     0.279 C 
HETATM   16  C16 UNL     1      21.643 -13.368  22.999  1.00  0.00     0.090 C 
ENDROOT
BRANCH   1  17
HETATM   17  S1  UNL     1      16.861 -11.350  19.445  1.00  0.00     0.245 S 
HETATM   18  O1  UNL     1      16.409 -12.788  19.494  1.00  0.00    -0.205 OA
HETATM   19  O2  UNL     1      16.732 -10.807  18.078  1.00  0.00    -0.205 OA
BRANCH  17  20
HETATM   20  C7  UNL     1      16.026 -10.419  20.695  1.00  0.00     0.192 C 
BRANCH  20  21
HETATM   21  C6  UNL     1      14.873 -11.066  21.338  1.00  0.00     0.253 C 
BRANCH  21  22
HETATM   22  N1  UNL     1      13.559 -10.637  21.063  1.00  0.00    -0.074 N 
HETATM   23  C4  UNL     1      13.383  -9.950  19.814  1.00  0.00     0.272 C 
HETATM   24  C5  UNL     1      12.524 -11.652  21.228  1.00  0.00     0.272 C 
BRANCH  22  25
HETATM   25  C3  UNL     1      13.237  -9.638  22.114  1.00  0.00     0.236 C 
BRANCH  25  26
HETATM   26  C2  UNL     1      11.777  -9.617  22.438  1.00  0.00     0.023 C 
HETATM   27  C1  UNL     1      11.653  -8.943  23.811  1.00  0.00     0.007 C 
ENDBRANCH  25  26
ENDBRANCH  22  25
ENDBRANCH  21  22
ENDBRANCH  20  21
ENDBRANCH  17  20
ENDBRANCH   1  17
TORSDOF 6
ENDMDL
MODEL 2
REMARK VINA RESULT: -6.702462099      1.677      2.658
REMARK  6 active torsions:
REMARK  status: ('A' for Active; 'I' for Inactive)
REMARK    1  A    between atoms: C2_2  and  C3_3 
REMARK    2  A    between atoms: C3_3  and  N1_4 
REMARK    3  A    between atoms: N1_4  and  C6_7 
REMARK    4  A    between atoms: C6_7  and  C7_8 
REMARK    5  A    between atoms: C7_8  and  S1_9 
REMARK    6  A    between atoms: S1_9  and  N2_12 
ROOT
HETATM    1  N2  UNL     1      15.283 -12.542  19.858  1.00  0.00    -0.116 N 
ATOM      2  H2  UNL     1      14.481 -13.077  19.525  1.00  0.00     0.197 HD
HETATM    3  C8  UNL     1      16.242 -13.181  20.421  1.00  0.00     0.692 A 
HETATM    4  N3  UNL     1      16.320 -14.525  20.631  1.00  0.00    -0.193 N 
ATOM      5  H3  UNL     1      15.620 -15.219  20.369  1.00  0.00     0.184 HD
HETATM    6  C9  UNL     1      17.488 -14.767  21.247  1.00  0.00     0.054 A 
HETATM    7  C10 UNL     1      18.154 -13.584  21.430  1.00  0.00     0.087 A 
HETATM    8  N4  UNL     1      17.360 -12.629  20.909  1.00  0.00    -0.190 N 
ATOM      9  H4  UNL     1      17.578 -11.632  20.890  1.00  0.00     0.184 HD
HETATM   10  C11 UNL     1      19.475 -13.456  22.075  1.00  0.00     0.196 C 
HETATM   11  C12 UNL     1      19.251 -12.709  23.389  1.00  0.00     0.056 C 
HETATM   12  C13 UNL     1      20.364 -12.652  21.150  1.00  0.00     0.056 C 
HETATM   13  N5  UNL     1      20.069 -14.730  22.357  1.00  0.00     0.099 N 
HETATM   14  C14 UNL     1      21.063 -14.634  23.417  1.00  0.00     0.311 C 
HETATM   15  C15 UNL     1      19.103 -15.719  22.774  1.00  0.00     0.279 C 
HETATM   16  C16 UNL     1      18.088 -16.041  21.710  1.00  0.00     0.090 C 
ENDROOT
BRANCH   1  17
HETATM   17  S1  UNL     1      15.264 -10.820  19.629  1.00  0.00     0.245 S 
HETATM   18  O1  UNL     1      14.211 -10.572  18.578  1.00  0.00    -0.205 OA
HETATM   19  O2  UNL     1      16.601 -10.434  19.132  1.00  0.00    -0.205 OA
BRANCH  17  20
HETATM   20  C7  UNL     1      14.786 -10.046  21.145  1.00  0.00     0.192 C 
BRANCH  20  21
HETATM   21  C6  UNL     1      13.652 -10.647  21.862  1.00  0.00     0.253 C 
BRANCH  21  22
HETATM   22  N1  UNL     1      12.475  -9.909  22.096  1.00  0.00    -0.074 N 
HETATM   23  C4  UNL     1      12.048  -9.067  21.014  1.00  0.00     0.272 C 
HETATM   24  C5  UNL     1      11.346 -10.680  22.608  1.00  0.00     0.272 C 
BRANCH  22  25
HETATM   25  C3  UNL     1      12.798  -8.986  23.214  1.00  0.00     0.236 C 
BRANCH  25  26
HETATM   26  C2  UNL     1      11.592  -8.656  24.034  1.00  0.00     0.023 C 
HETATM   27  C1  UNL     1      11.813  -7.232  24.566  1.00  0.00     0.007 C 
ENDBRANCH  25  26
ENDBRANCH  22  25
ENDBRANCH  21  22
ENDBRANCH  20  21
ENDBRANCH  17  20
ENDBRANCH   1  17
TORSDOF 6
ENDMDL
MODEL 3
REMARK VINA RESULT: -6.654401864      1.078      1.215
REMARK  6 active torsions:
REMARK  status: ('A' for Active; 'I' for Inactive)
REMARK    1  A    between atoms: C2_2  and  C3_3 
REMARK    2  A    between atoms: C3_3  and  N1_4 
REMARK    3  A    between atoms: N1_4  and  C6_7 
REMARK    4  A    between atoms: C6_7  and  C7_8 
REMARK    5  A    between atoms: C7_8  and  S1_9 
REMARK    6  A    between atoms: S1_9  and  N2_12 
ROOT
HETATM    1  N2  UNL     1      17.860 -12.510  20.416  1.00  0.00    -0.116 N 
ATOM      2  H2  UNL     1      18.175 -11.769  19.789  1.00  0.00     0.197 HD
HETATM    3  C8  UNL     1      18.658 -12.891  21.345  1.00  0.00     0.692 A 
HETATM    4  N3  UNL     1      19.907 -12.413  21.602  1.00  0.00    -0.193 N 
ATOM      5  H3  UNL     1      20.390 -11.677  21.087  1.00  0.00     0.184 HD
HETATM    6  C9  UNL     1      20.385 -13.089  22.658  1.00  0.00     0.054 A 
HETATM    7  C10 UNL     1      19.446 -13.995  23.075  1.00  0.00     0.087 A 
HETATM    8  N4  UNL     1      18.395 -13.846  22.247  1.00  0.00    -0.190 N 
ATOM      9  H4  UNL     1      17.529 -14.382  22.298  1.00  0.00     0.184 HD
HETATM   10  C11 UNL     1      19.619 -14.917  24.214  1.00  0.00     0.196 C 
HETATM   11  C12 UNL     1      19.683 -16.328  23.630  1.00  0.00     0.056 C 
HETATM   12  C13 UNL     1      18.411 -14.768  25.116  1.00  0.00     0.056 C 
HETATM   13  N5  UNL     1      20.825 -14.660  24.946  1.00  0.00     0.099 N 
HETATM   14  C14 UNL     1      21.256 -15.831  25.696  1.00  0.00     0.311 C 
HETATM   15  C15 UNL     1      21.926 -14.275  24.096  1.00  0.00     0.279 C 
HETATM   16  C16 UNL     1      21.685 -12.983  23.362  1.00  0.00     0.090 C 
ENDROOT
BRANCH   1  17
HETATM   17  S1  UNL     1      16.276 -13.175  20.158  1.00  0.00     0.245 S 
HETATM   18  O1  UNL     1      16.456 -14.670  20.248  1.00  0.00    -0.205 OA
HETATM   19  O2  UNL     1      15.857 -12.780  18.797  1.00  0.00    -0.205 OA
BRANCH  17  20
HETATM   20  C7  UNL     1      15.207 -12.624  21.453  1.00  0.00     0.192 C 
BRANCH  20  21
HETATM   21  C6  UNL     1      14.890 -11.189  21.479  1.00  0.00     0.253 C 
BRANCH  21  22
HETATM   22  N1  UNL     1      13.635 -10.720  21.041  1.00  0.00    -0.074 N 
HETATM   23  C4  UNL     1      13.607 -10.186  19.708  1.00  0.00     0.272 C 
HETATM   24  C5  UNL     1      12.521 -11.642  21.236  1.00  0.00     0.272 C 
BRANCH  22  25
HETATM   25  C3  UNL     1      13.301  -9.580  21.932  1.00  0.00     0.236 C 
BRANCH  25  26
HETATM   26  C2  UNL     1      11.855  -9.569  22.311  1.00  0.00     0.023 C 
HETATM   27  C1  UNL     1      11.774  -8.860  23.671  1.00  0.00     0.007 C 
ENDBRANCH  25  26
ENDBRANCH  22  25
ENDBRANCH  21  22
ENDBRANCH  20  21
ENDBRANCH  17  20
ENDBRANCH   1  17
TORSDOF 6
ENDMDL
MODEL 4
REMARK VINA RESULT: -6.634668143      1.307      2.084
REMARK  6 active torsions:
REMARK  status: ('A' for Active; 'I' for Inactive)
REMARK    1  A    between atoms: C2_2  and  C3_3 
REMARK    2  A    between atoms: C3_3  and  N1_4 
REMARK    3  A    between atoms: N1_4  and  C6_7 
REMARK    4  A    between atoms: C6_7  and  C7_8 
REMARK    5  A    between atoms: C7_8  and  S1_9 
REMARK    6  A    between atoms: S1_9  and  N2_12 
ROOT
HETATM    1  N2  UNL     1      17.446 -13.262  20.443  1.00  0.00    -0.116 N 
ATOM      2  H2  UNL     1      16.840 -13.887  19.910  1.00  0.00     0.197 HD
HETATM    3  C8  UNL     1      18.180 -13.776  21.361  1.00  0.00     0.692 A 
HETATM    4  N3  UNL     1      18.250 -15.088  21.718  1.00  0.00    -0.193 N 
ATOM      5  H3  UNL     1      17.722 -15.856  21.303  1.00  0.00     0.184 HD
HETATM    6  C9  UNL     1      19.140 -15.186  22.718  1.00  0.00     0.054 A 
HETATM    7  C10 UNL     1      19.638 -13.941  23.000  1.00  0.00     0.087 A 
HETATM    8  N4  UNL     1      19.027 -13.097  22.146  1.00  0.00    -0.190 N 
ATOM      9  H4  UNL     1      19.186 -12.090  22.104  1.00  0.00     0.184 HD
HETATM   10  C11 UNL     1      20.642 -13.655  24.042  1.00  0.00     0.196 C 
HETATM   11  C12 UNL     1      19.935 -12.833  25.119  1.00  0.00     0.056 C 
HETATM   12  C13 UNL     1      21.755 -12.852  23.403  1.00  0.00     0.056 C 
HETATM   13  N5  UNL     1      21.165 -14.851  24.637  1.00  0.00     0.099 N 
HETATM   14  C14 UNL     1      21.720 -14.592  25.958  1.00  0.00     0.311 C 
HETATM   15  C15 UNL     1      20.168 -15.882  24.793  1.00  0.00     0.279 C 
HETATM   16  C16 UNL     1      19.606 -16.367  23.483  1.00  0.00     0.090 C 
ENDROOT
BRANCH   1  17
HETATM   17  S1  UNL     1      17.419 -11.570  20.051  1.00  0.00     0.245 S 
HETATM   18  O1  UNL     1      16.990 -11.506  18.607  1.00  0.00    -0.205 OA
HETATM   19  O2  UNL     1      18.798 -11.067  20.210  1.00  0.00    -0.205 OA
BRANCH  17  20
HETATM   20  C7  UNL     1      16.215 -10.768  21.067  1.00  0.00     0.192 C 
BRANCH  20  21
HETATM   21  C6  UNL     1      14.962 -11.498  21.306  1.00  0.00     0.253 C 
BRANCH  21  22
HETATM   22  N1  UNL     1      13.721 -10.939  20.942  1.00  0.00    -0.074 N 
HETATM   23  C4  UNL     1      13.629 -10.467  19.589  1.00  0.00     0.272 C 
HETATM   24  C5  UNL     1      12.552 -11.748  21.272  1.00  0.00     0.272 C 
BRANCH  22  25
HETATM   25  C3  UNL     1      13.560  -9.734  21.795  1.00  0.00     0.236 C 
BRANCH  25  26
HETATM   26  C2  UNL     1      12.127  -9.329  21.928  1.00  0.00     0.023 C 
HETATM   27  C1  UNL     1      11.948  -8.861  23.379  1.00  0.00     0.007 C 
ENDBRANCH  25  26
ENDBRANCH  22  25
ENDBRANCH  21  22
ENDBRANCH  20  21
ENDBRANCH  17  20
ENDBRANCH   1  17
TORSDOF 6
ENDMDL
MODEL 5
REMARK VINA RESULT: -6.558231400      1.754      2.806
REMARK  6 active torsions:
REMARK  status: ('A' for Active; 'I' for Inactive)
REMARK    1  A    between atoms: C2_2  and  C3_3 
REMARK    2  A    between atoms: C3_3  and  N1_4 
REMARK    3  A    between atoms: N1_4  and  C6_7 
REMARK    4  A    between atoms: C6_7  and  C7_8 
REMARK    5  A    between atoms: C7_8  and  S1_9 
REMARK    6  A    between atoms: S1_9  and  N2_12 
ROOT
HETATM    1  N2  UNL     1      15.563 -13.016  19.769  1.00  0.00    -0.116 N 
ATOM      2  H2  UNL     1      14.730 -13.286  19.246  1.00  0.00     0.197 HD
HETATM    3  C8  UNL     1      15.983 -13.809  20.686  1.00  0.00     0.692 A 
HETATM    4  N3  UNL     1      15.434 -15.001  21.053  1.00  0.00    -0.193 N 
ATOM      5  H3  UNL     1      14.604 -15.434  20.649  1.00  0.00     0.184 HD
HETATM    6  C9  UNL     1      16.187 -15.499  22.046  1.00  0.00     0.054 A 
HETATM    7  C10 UNL     1      17.213 -14.630  22.313  1.00  0.00     0.087 A 
HETATM    8  N4  UNL     1      17.058 -13.602  21.457  1.00  0.00    -0.190 N 
ATOM      9  H4  UNL     1      17.669 -12.787  21.405  1.00  0.00     0.184 HD
HETATM   10  C11 UNL     1      18.245 -14.844  23.344  1.00  0.00     0.196 C 
HETATM   11  C12 UNL     1      18.018 -13.782  24.420  1.00  0.00     0.056 C 
HETATM   12  C13 UNL     1      19.598 -14.657  22.689  1.00  0.00     0.056 C 
HETATM   13  N5  UNL     1      18.156 -16.143  23.945  1.00  0.00     0.099 N 
HETATM   14  C14 UNL     1      18.783 -16.169  25.259  1.00  0.00     0.311 C 
HETATM   15  C15 UNL     1      16.794 -16.587  24.119  1.00  0.00     0.279 C 
HETATM   16  C16 UNL     1      16.056 -16.758  22.818  1.00  0.00     0.090 C 
ENDROOT
BRANCH   1  17
HETATM   17  S1  UNL     1      16.326 -11.509  19.362  1.00  0.00     0.245 S 
HETATM   18  O1  UNL     1      15.754 -11.125  18.021  1.00  0.00    -0.205 OA
HETATM   19  O2  UNL     1      17.776 -11.772  19.256  1.00  0.00    -0.205 OA
BRANCH  17  20
HETATM   20  C7  UNL     1      15.879 -10.298  20.570  1.00  0.00     0.192 C 
BRANCH  20  21
HETATM   21  C6  UNL     1      14.772 -10.645  21.472  1.00  0.00     0.253 C 
BRANCH  21  22
HETATM   22  N1  UNL     1      13.443 -10.306  21.146  1.00  0.00    -0.074 N 
HETATM   23  C4  UNL     1      13.285  -9.477  19.983  1.00  0.00     0.272 C 
HETATM   24  C5  UNL     1      12.508 -11.425  21.095  1.00  0.00     0.272 C 
BRANCH  22  25
HETATM   25  C3  UNL     1      12.947  -9.491  22.284  1.00  0.00     0.236 C 
BRANCH  25  26
HETATM   26  C2  UNL     1      11.756 -10.112  22.940  1.00  0.00     0.023 C 
HETATM   27  C1  UNL     1      11.383  -9.190  24.110  1.00  0.00     0.007 C 
ENDBRANCH  25  26
ENDBRANCH  22  25
ENDBRANCH  21  22
ENDBRANCH  20  21
ENDBRANCH  17  20
ENDBRANCH   1  17
TORSDOF 6
ENDMDL
