MODEL 1
REMARK VINA RESULT: -7.002524622      0.000      0.000
REMARK  6 active torsions:
REMARK  status: ('A' for Active; 'I' for Inactive)
REMARK    1  A    between atoms: C2_2  and  C3_3 
REMARK    2  A    between atoms: C3_3  and  N1_5 
REMARK       I    between atoms: C5_7  and  N3_9 
REMARK    3  A    between atoms: N4_15  and  C11_16 
REMARK    4  A    between atoms: C11_16  and  C12_17 
REMARK    5  A    between atoms: C12_17  and  N5_18 
REMARK    6  A    between atoms: N5_18  and  S1_20 
ROOT
HETATM    1  N1  UNL     1      19.932 -13.182  23.683  1.00  0.00    -0.360 N 
ATOM      2  H1  UNL     1      19.690 -12.392  23.086  1.00  0.00     0.162 HD
HETATM    3  C5  UNL     1      19.125 -14.133  23.584  1.00  0.00     0.194 C 
HETATM    4  N2  UNL     1      19.316 -15.317  24.350  1.00  0.00    -0.063 NA
HETATM    5  N3  UNL     1      18.012 -14.049  22.711  1.00  0.00    -0.273 N 
HETATM    6  C6  UNL     1      17.109 -15.141  22.612  1.00  0.00     0.147 C 
HETATM    7  C7  UNL     1      16.216 -15.146  21.435  1.00  0.00    -0.015 C 
HETATM    8  C8  UNL     1      16.799 -16.089  20.382  1.00  0.00     0.018 C 
HETATM    9  C9  UNL     1      14.889 -15.775  21.862  1.00  0.00     0.018 C 
HETATM   10  C10 UNL     1      15.906 -13.836  20.804  1.00  0.00     0.137 C 
HETATM   11  N4  UNL     1      16.944 -12.863  20.854  1.00  0.00    -0.331 N 
HETATM   12  C14 UNL     1      17.842 -12.864  21.960  1.00  0.00     0.327 C 
HETATM   13  O3  UNL     1      18.450 -11.803  22.223  1.00  0.00    -0.247 OA
ENDROOT
BRANCH   1  14
HETATM   14  C3  UNL     1      21.096 -12.965  24.437  1.00  0.00     0.079 C 
HETATM   15  C4  UNL     1      22.377 -13.013  23.628  1.00  0.00     0.032 C 
BRANCH  14  16
HETATM   16  C2  UNL     1      21.089 -11.755  25.340  1.00  0.00     0.020 C 
HETATM   17  C1  UNL     1      20.788 -12.179  26.770  1.00  0.00     0.007 C 
ENDBRANCH  14  16
ENDBRANCH   1  14
BRANCH  11  18
HETATM   18  C11 UNL     1      17.054 -11.903  19.778  1.00  0.00     0.148 C 
BRANCH  18  19
HETATM   19  C12 UNL     1      15.750 -11.206  19.472  1.00  0.00     0.151 C 
BRANCH  19  20
HETATM   20  N5  UNL     1      15.624 -10.083  20.371  1.00  0.00    -0.318 N 
ATOM     21  H5  UNL     1      16.415  -9.596  20.792  1.00  0.00     0.172 HD
BRANCH  20  22
HETATM   22  S1  UNL     1      13.967  -9.666  20.645  1.00  0.00     0.222 S 
HETATM   23  C13 UNL     1      13.026 -11.190  20.771  1.00  0.00     0.185 C 
HETATM   24  O1  UNL     1      13.900  -8.999  21.990  1.00  0.00    -0.206 OA
HETATM   25  O2  UNL     1      13.424  -8.827  19.552  1.00  0.00    -0.206 OA
ENDBRANCH  20  22
ENDBRANCH  19  20
ENDBRANCH  18  19
ENDBRANCH  11  18
TORSDOF 6
ENDMDL
MODEL 2
REMARK VINA RESULT: -6.320090719      1.942      2.320
REMARK  6 active torsions:
REMARK  status: ('A' for Active; 'I' for Inactive)
REMARK    1  A    between atoms: C2_2  and  C3_3 
REMARK    2  A    between atoms: C3_3  and  N1_5 
REMARK       I    between atoms: C5_7  and  N3_9 
REMARK    3  A    between atoms: N4_15  and  C11_16 
REMARK    4  A    between atoms: C11_16  and  C12_17 
REMARK    5  A    between atoms: C12_17  and  N5_18 
REMARK    6  A    between atoms: N5_18  and  S1_20 
ROOT
HETATM    1  N1  UNL     1      19.914 -13.227  23.696  1.00  0.00    -0.360 N 
ATOM      2  H1  UNL     1      19.639 -12.451  23.094  1.00  0.00     0.162 HD
HETATM    3  C5  UNL     1      19.140 -14.207  23.612  1.00  0.00     0.194 C 
HETATM    4  N2  UNL     1      19.380 -15.377  24.386  1.00  0.00    -0.063 NA
HETATM    5  N3  UNL     1      18.017 -14.170  22.749  1.00  0.00    -0.273 N 
HETATM    6  C6  UNL     1      17.153 -15.293  22.667  1.00  0.00     0.147 C 
HETATM    7  C7  UNL     1      16.250 -15.339  21.499  1.00  0.00    -0.015 C 
HETATM    8  C8  UNL     1      16.856 -16.271  20.449  1.00  0.00     0.018 C 
HETATM    9  C9  UNL     1      14.950 -16.011  21.943  1.00  0.00     0.018 C 
HETATM   10  C10 UNL     1      15.888 -14.047  20.860  1.00  0.00     0.137 C 
HETATM   11  N4  UNL     1      16.891 -13.037  20.892  1.00  0.00    -0.331 N 
HETATM   12  C14 UNL     1      17.799 -12.997  21.990  1.00  0.00     0.327 C 
HETATM   13  O3  UNL     1      18.371 -11.914  22.239  1.00  0.00    -0.247 OA
ENDROOT
BRANCH   1  14
HETATM   14  C3  UNL     1      21.076 -12.963  24.437  1.00  0.00     0.079 C 
HETATM   15  C4  UNL     1      22.354 -12.999  23.622  1.00  0.00     0.032 C 
BRANCH  14  16
HETATM   16  C2  UNL     1      21.044 -11.731  25.310  1.00  0.00     0.020 C 
HETATM   17  C1  UNL     1      20.766 -12.128  26.752  1.00  0.00     0.007 C 
ENDBRANCH  14  16
ENDBRANCH   1  14
BRANCH  11  18
HETATM   18  C11 UNL     1      16.958 -12.084  19.807  1.00  0.00     0.148 C 
BRANCH  18  19
HETATM   19  C12 UNL     1      15.988 -12.391  18.691  1.00  0.00     0.151 C 
BRANCH  19  20
HETATM   20  N5  UNL     1      15.390 -11.148  18.265  1.00  0.00    -0.318 N 
ATOM     21  H5  UNL     1      14.860 -10.529  18.878  1.00  0.00     0.172 HD
BRANCH  20  22
HETATM   22  S1  UNL     1      15.684 -10.838  16.588  1.00  0.00     0.222 S 
HETATM   23  C13 UNL     1      15.678 -12.413  15.725  1.00  0.00     0.185 C 
HETATM   24  O1  UNL     1      14.509 -10.054  16.075  1.00  0.00    -0.206 OA
HETATM   25  O2  UNL     1      16.978 -10.152  16.376  1.00  0.00    -0.206 OA
ENDBRANCH  20  22
ENDBRANCH  19  20
ENDBRANCH  18  19
ENDBRANCH  11  18
TORSDOF 6
ENDMDL
MODEL 3
REMARK VINA RESULT: -6.307602317      1.075      1.135
REMARK  6 active torsions:
REMARK  status: ('A' for Active; 'I' for Inactive)
REMARK    1  A    between atoms: C2_2  and  C3_3 
REMARK    2  A    between atoms: C3_3  and  N1_5 
REMARK       I    between atoms: C5_7  and  N3_9 
REMARK    3  A    between atoms: N4_15  and  C11_16 
REMARK    4  A    between atoms: C11_16  and  C12_17 
REMARK    5  A    between atoms: C12_17  and  N5_18 
REMARK    6  A    between atoms: N5_18  and  S1_20 
ROOT
HETATM    1  N1  UNL     1      19.863 -13.582  23.944  1.00  0.00    -0.360 N 
ATOM      2  H1  UNL     1      19.341 -12.843  23.474  1.00  0.00     0.162 HD
HETATM    3  C5  UNL     1      19.321 -14.704  23.840  1.00  0.00     0.194 C 
HETATM    4  N2  UNL     1      19.921 -15.848  24.438  1.00  0.00    -0.063 NA
HETATM    5  N3  UNL     1      18.104 -14.857  23.130  1.00  0.00    -0.273 N 
HETATM    6  C6  UNL     1      17.505 -16.140  23.023  1.00  0.00     0.147 C 
HETATM    7  C7  UNL     1      16.475 -16.295  21.975  1.00  0.00    -0.015 C 
HETATM    8  C8  UNL     1      17.113 -16.965  20.758  1.00  0.00     0.018 C 
HETATM    9  C9  UNL     1      15.433 -17.288  22.492  1.00  0.00     0.018 C 
HETATM   10  C10 UNL     1      15.750 -15.073  21.540  1.00  0.00     0.137 C 
HETATM   11  N4  UNL     1      16.500 -13.863  21.568  1.00  0.00    -0.331 N 
HETATM   12  C14 UNL     1      17.526 -13.707  22.545  1.00  0.00     0.327 C 
HETATM   13  O3  UNL     1      17.876 -12.545  22.847  1.00  0.00    -0.247 OA
ENDROOT
BRANCH   1  14
HETATM   14  C3  UNL     1      21.034 -13.118  24.564  1.00  0.00     0.079 C 
HETATM   15  C4  UNL     1      22.246 -13.079  23.654  1.00  0.00     0.032 C 
BRANCH  14  16
HETATM   16  C2  UNL     1      20.913 -11.824  25.333  1.00  0.00     0.020 C 
HETATM   17  C1  UNL     1      20.790 -12.118  26.821  1.00  0.00     0.007 C 
ENDBRANCH  14  16
ENDBRANCH   1  14
BRANCH  11  18
HETATM   18  C11 UNL     1      16.198 -12.832  20.601  1.00  0.00     0.148 C 
BRANCH  18  19
HETATM   19  C12 UNL     1      14.946 -12.057  20.936  1.00  0.00     0.151 C 
BRANCH  19  20
HETATM   20  N5  UNL     1      15.307 -10.668  21.086  1.00  0.00    -0.318 N 
ATOM     21  H5  UNL     1      16.190 -10.346  21.483  1.00  0.00     0.172 HD
BRANCH  20  22
HETATM   22  S1  UNL     1      14.061  -9.616  20.510  1.00  0.00     0.222 S 
HETATM   23  C13 UNL     1      12.662  -9.750  21.627  1.00  0.00     0.185 C 
HETATM   24  O1  UNL     1      14.582  -8.211  20.629  1.00  0.00    -0.206 OA
HETATM   25  O2  UNL     1      13.641  -9.965  19.133  1.00  0.00    -0.206 OA
ENDBRANCH  20  22
ENDBRANCH  19  20
ENDBRANCH  18  19
ENDBRANCH  11  18
TORSDOF 6
ENDMDL
MODEL 4
REMARK VINA RESULT: -6.256591413      3.076      6.844
REMARK  6 active torsions:
REMARK  status: ('A' for Active; 'I' for Inactive)
REMARK    1  A    between atoms: C2_2  and  C3_3 
REMARK    2  A    between atoms: C3_3  and  N1_5 
REMARK       I    between atoms: C5_7  and  N3_9 
REMARK    3  A    between atoms: N4_15  and  C11_16 
REMARK    4  A    between atoms: C11_16  and  C12_17 
REMARK    5  A    between atoms: C12_17  and  N5_18 
REMARK    6  A    between atoms: N5_18  and  S1_20 
ROOT
HETATM    1  N1  UNL     1      13.285 -10.714  21.824  1.00  0.00    -0.360 N 
ATOM      2  H1  UNL     1      13.348 -11.713  22.016  1.00  0.00     0.162 HD
HETATM    3  C5  UNL     1      14.324 -10.251  21.303  1.00  0.00     0.194 C 
HETATM    4  N2  UNL     1      14.402  -8.870  20.969  1.00  0.00    -0.063 NA
HETATM    5  N3  UNL     1      15.435 -11.089  21.037  1.00  0.00    -0.273 N 
HETATM    6  C6  UNL     1      16.604 -10.543  20.443  1.00  0.00     0.147 C 
HETATM    7  C7  UNL     1      17.551 -11.512  19.854  1.00  0.00    -0.015 C 
HETATM    8  C8  UNL     1      17.325 -11.559  18.342  1.00  0.00     0.018 C 
HETATM    9  C9  UNL     1      18.962 -10.954  20.042  1.00  0.00     0.018 C 
HETATM   10  C10 UNL     1      17.543 -12.895  20.396  1.00  0.00     0.137 C 
HETATM   11  N4  UNL     1      16.280 -13.379  20.842  1.00  0.00    -0.331 N 
HETATM   12  C14 UNL     1      15.335 -12.457  21.378  1.00  0.00     0.327 C 
HETATM   13  O3  UNL     1      14.445 -12.902  22.135  1.00  0.00    -0.247 OA
ENDROOT
BRANCH   1  14
HETATM   14  C3  UNL     1      12.053 -10.159  22.203  1.00  0.00     0.079 C 
HETATM   15  C4  UNL     1      11.092 -11.150  22.831  1.00  0.00     0.032 C 
BRANCH  14  16
HETATM   16  C2  UNL     1      12.116  -8.894  23.026  1.00  0.00     0.020 C 
HETATM   17  C1  UNL     1      11.313  -9.072  24.306  1.00  0.00     0.007 C 
ENDBRANCH  14  16
ENDBRANCH   1  14
BRANCH  11  18
HETATM   18  C11 UNL     1      15.996 -14.793  20.735  1.00  0.00     0.148 C 
BRANCH  18  19
HETATM   19  C12 UNL     1      16.883 -15.642  21.614  1.00  0.00     0.151 C 
BRANCH  19  20
HETATM   20  N5  UNL     1      16.536 -15.376  22.989  1.00  0.00    -0.318 N 
ATOM     21  H5  UNL     1      15.603 -15.508  23.379  1.00  0.00     0.172 HD
BRANCH  20  22
HETATM   22  S1  UNL     1      17.895 -14.804  23.894  1.00  0.00     0.222 S 
HETATM   23  C13 UNL     1      19.377 -15.133  22.935  1.00  0.00     0.185 C 
HETATM   24  O1  UNL     1      17.761 -13.311  23.992  1.00  0.00    -0.206 OA
HETATM   25  O2  UNL     1      17.993 -15.467  25.215  1.00  0.00    -0.206 OA
ENDBRANCH  20  22
ENDBRANCH  19  20
ENDBRANCH  18  19
ENDBRANCH  11  18
TORSDOF 6
ENDMDL
MODEL 5
REMARK VINA RESULT: -6.247274879      3.806      6.932
REMARK  6 active torsions:
REMARK  status: ('A' for Active; 'I' for Inactive)
REMARK    1  A    between atoms: C2_2  and  C3_3 
REMARK    2  A    between atoms: C3_3  and  N1_5 
REMARK       I    between atoms: C5_7  and  N3_9 
REMARK    3  A    between atoms: N4_15  and  C11_16 
REMARK    4  A    between atoms: C11_16  and  C12_17 
REMARK    5  A    between atoms: C12_17  and  N5_18 
REMARK    6  A    between atoms: N5_18  and  S1_20 
ROOT
HETATM    1  N1  UNL     1      13.246 -10.755  21.811  1.00  0.00    -0.360 N 
ATOM      2  H1  UNL     1      13.311 -11.758  21.987  1.00  0.00     0.162 HD
HETATM    3  C5  UNL     1      14.285 -10.281  21.301  1.00  0.00     0.194 C 
HETATM    4  N2  UNL     1      14.361  -8.894  20.991  1.00  0.00    -0.063 NA
HETATM    5  N3  UNL     1      15.399 -11.112  21.024  1.00  0.00    -0.273 N 
HETATM    6  C6  UNL     1      16.568 -10.554  20.443  1.00  0.00     0.147 C 
HETATM    7  C7  UNL     1      17.519 -11.510  19.840  1.00  0.00    -0.015 C 
HETATM    8  C8  UNL     1      17.298 -11.532  18.327  1.00  0.00     0.018 C 
HETATM    9  C9  UNL     1      18.929 -10.953  20.042  1.00  0.00     0.018 C 
HETATM   10  C10 UNL     1      17.513 -12.903  20.359  1.00  0.00     0.137 C 
HETATM   11  N4  UNL     1      16.249 -13.397  20.793  1.00  0.00    -0.331 N 
HETATM   12  C14 UNL     1      15.301 -12.486  21.341  1.00  0.00     0.327 C 
HETATM   13  O3  UNL     1      14.410 -12.946  22.088  1.00  0.00    -0.247 OA
ENDROOT
BRANCH   1  14
HETATM   14  C3  UNL     1      12.011 -10.210  22.195  1.00  0.00     0.079 C 
HETATM   15  C4  UNL     1      11.075 -11.200  22.860  1.00  0.00     0.032 C 
BRANCH  14  16
HETATM   16  C2  UNL     1      12.068  -8.926  22.989  1.00  0.00     0.020 C 
HETATM   17  C1  UNL     1      11.285  -9.085  24.284  1.00  0.00     0.007 C 
ENDBRANCH  14  16
ENDBRANCH   1  14
BRANCH  11  18
HETATM   18  C11 UNL     1      15.969 -14.809  20.661  1.00  0.00     0.148 C 
BRANCH  18  19
HETATM   19  C12 UNL     1      16.652 -15.648  21.715  1.00  0.00     0.151 C 
BRANCH  19  20
HETATM   20  N5  UNL     1      15.759 -15.760  22.843  1.00  0.00    -0.318 N 
ATOM     21  H5  UNL     1      15.745 -15.111  23.629  1.00  0.00     0.172 HD
BRANCH  20  22
HETATM   22  S1  UNL     1      14.714 -17.132  22.698  1.00  0.00     0.222 S 
HETATM   23  C13 UNL     1      15.521 -18.334  21.636  1.00  0.00     0.185 C 
HETATM   24  O1  UNL     1      14.614 -17.753  24.063  1.00  0.00    -0.206 OA
HETATM   25  O2  UNL     1      13.398 -16.762  22.130  1.00  0.00    -0.206 OA
ENDBRANCH  20  22
ENDBRANCH  19  20
ENDBRANCH  18  19
ENDBRANCH  11  18
TORSDOF 6
ENDMDL
