MODEL 1
REMARK VINA RESULT: -7.868320545      0.000      0.000
REMARK  8 active torsions:
REMARK  status: ('A' for Active; 'I' for Inactive)
REMARK    1  A    between atoms: C3_4  and  O1_5 
REMARK    2  A    between atoms: O1_5  and  C4_6 
REMARK    3  A    between atoms: C4_6  and  C5_7 
REMARK    4  A    between atoms: C5_7  and  O2_8 
REMARK    5  A    between atoms: O2_8  and  C6_9 
REMARK    6  A    between atoms: C6_9  and  C7_10 
REMARK    7  A    between atoms: C7_10  and  O3_11 
REMARK    8  A    between atoms: C8_15  and  N3_16 
ROOT
HETATM    1  N1  UNL     1       6.319  11.985  -6.952  1.00  0.00    -0.191 NA
HETATM    2  C1  UNL     1       6.938  11.893  -5.976  1.00  0.00     0.105 C 
HETATM    3  C2  UNL     1       7.724  11.788  -4.767  1.00  0.00     0.112 A 
HETATM    4  C3  UNL     1       7.492  10.742  -3.857  1.00  0.00     0.166 A 
HETATM    5  N2  UNL     1       8.249  10.690  -2.751  1.00  0.00    -0.320 N 
ATOM      6  H2  UNL     1       8.071   9.926  -2.099  1.00  0.00     0.169 HD
HETATM    7  C8  UNL     1       9.220  11.557  -2.430  1.00  0.00     0.131 A 
HETATM    8  C13 UNL     1       9.462  12.588  -3.307  1.00  0.00     0.022 A 
HETATM    9  C14 UNL     1       8.713  12.685  -4.456  1.00  0.00     0.068 A 
HETATM   10  C15 UNL     1       9.173  13.856  -5.197  1.00  0.00     0.254 A 
HETATM   11  O5  UNL     1       8.698  14.234  -6.299  1.00  0.00    -0.268 OA
HETATM   12  N7  UNL     1      10.212  14.454  -4.467  1.00  0.00    -0.352 N 
ATOM     13  H7  UNL     1      10.724  15.291  -4.746  1.00  0.00     0.163 HD
HETATM   14  C16 UNL     1      10.442  13.697  -3.256  1.00  0.00     0.166 A 
ENDROOT
BRANCH   4  15
HETATM   15  O1  UNL     1       6.503   9.860  -4.190  1.00  0.00    -0.332 OA
BRANCH  15  16
HETATM   16  C4  UNL     1       6.614   8.486  -4.481  1.00  0.00     0.203 C 
BRANCH  16  17
HETATM   17  C5  UNL     1       5.302   7.752  -4.506  1.00  0.00     0.194 C 
BRANCH  17  18
HETATM   18  O2  UNL     1       4.529   7.922  -5.546  1.00  0.00    -0.387 OA
BRANCH  18  19
HETATM   19  C6  UNL     1       4.245   8.916  -6.333  1.00  0.00     0.193 C 
BRANCH  19  20
HETATM   20  C7  UNL     1       4.946   9.150  -7.629  1.00  0.00     0.190 C 
BRANCH  20  21
HETATM   21  O3  UNL     1       4.226  10.128  -8.387  1.00  0.00    -0.399 OA
ATOM     22  H3  UNL     1       4.790  10.474  -9.069  1.00  0.00     0.209 HD
ENDBRANCH  20  21
ENDBRANCH  19  20
ENDBRANCH  18  19
ENDBRANCH  17  18
ENDBRANCH  16  17
ENDBRANCH  15  16
ENDBRANCH   4  15
BRANCH   7  23
HETATM   23  N3  UNL     1       9.985  11.442  -1.237  1.00  0.00    -0.261 N 
HETATM   24  C9  UNL     1      11.231  10.739  -0.997  1.00  0.00     0.188 C 
HETATM   25  C10 UNL     1      11.792  11.442   0.212  1.00  0.00     0.162 A 
HETATM   26  C11 UNL     1      13.262  11.764   0.138  1.00  0.00     0.162 A 
HETATM   27  C12 UNL     1      12.019  10.625   1.395  1.00  0.00     0.247 A 
HETATM   28  N5  UNL     1      10.918  12.580   0.347  1.00  0.00    -0.102 NA
HETATM   29  N4  UNL     1      13.407  10.867   1.289  1.00  0.00    -0.357 N 
ATOM     30  H4  UNL     1      14.215  10.538   1.818  1.00  0.00     0.162 HD
HETATM   31  O4  UNL     1      11.314   9.974   2.189  1.00  0.00    -0.271 OA
HETATM   32  N6  UNL     1       9.673  12.017   0.024  1.00  0.00    -0.026 NA
ENDBRANCH   7  23
TORSDOF 8
ENDMDL
MODEL 2
REMARK VINA RESULT: -7.775343381      2.678      7.686
REMARK  8 active torsions:
REMARK  status: ('A' for Active; 'I' for Inactive)
REMARK    1  A    between atoms: C3_4  and  O1_5 
REMARK    2  A    between atoms: O1_5  and  C4_6 
REMARK    3  A    between atoms: C4_6  and  C5_7 
REMARK    4  A    between atoms: C5_7  and  O2_8 
REMARK    5  A    between atoms: O2_8  and  C6_9 
REMARK    6  A    between atoms: C6_9  and  C7_10 
REMARK    7  A    between atoms: C7_10  and  O3_11 
REMARK    8  A    between atoms: C8_15  and  N3_16 
ROOT
HETATM    1  N1  UNL     1      12.365  13.715  -0.393  1.00  0.00    -0.191 NA
HETATM    2  C1  UNL     1      11.580  13.371  -1.173  1.00  0.00     0.105 C 
HETATM    3  C2  UNL     1      10.598  12.925  -2.135  1.00  0.00     0.112 A 
HETATM    4  C3  UNL     1      10.650  13.376  -3.465  1.00  0.00     0.166 A 
HETATM    5  N2  UNL     1       9.714  12.932  -4.318  1.00  0.00    -0.320 N 
ATOM      6  H2  UNL     1       9.764  13.267  -5.281  1.00  0.00     0.169 HD
HETATM    7  C8  UNL     1       8.721  12.086  -4.013  1.00  0.00     0.131 A 
HETATM    8  C13 UNL     1       8.651  11.633  -2.716  1.00  0.00     0.022 A 
HETATM    9  C14 UNL     1       9.588  12.060  -1.804  1.00  0.00     0.068 A 
HETATM   10  C15 UNL     1       9.283  11.434  -0.521  1.00  0.00     0.254 A 
HETATM   11  O5  UNL     1       9.947  11.609   0.534  1.00  0.00    -0.268 OA
HETATM   12  N7  UNL     1       8.148  10.625  -0.687  1.00  0.00    -0.352 N 
ATOM     13  H7  UNL     1       7.708  10.066   0.045  1.00  0.00     0.163 HD
HETATM   14  C16 UNL     1       7.698  10.711  -2.058  1.00  0.00     0.166 A 
ENDROOT
BRANCH   4  15
HETATM   15  O1  UNL     1      11.666  14.237  -3.772  1.00  0.00    -0.332 OA
BRANCH  15  16
HETATM   16  C4  UNL     1      12.782  14.016  -4.604  1.00  0.00     0.203 C 
BRANCH  16  17
HETATM   17  C5  UNL     1      14.037  13.640  -3.867  1.00  0.00     0.194 C 
BRANCH  17  18
HETATM   18  O2  UNL     1      14.335  12.371  -3.778  1.00  0.00    -0.387 OA
BRANCH  18  19
HETATM   19  C6  UNL     1      13.722  11.306  -3.354  1.00  0.00     0.193 C 
BRANCH  19  20
HETATM   20  C7  UNL     1      13.188  10.259  -4.272  1.00  0.00     0.190 C 
BRANCH  20  21
HETATM   21  O3  UNL     1      11.756  10.289  -4.243  1.00  0.00    -0.399 OA
ATOM     22  H3  UNL     1      11.437   9.572  -3.709  1.00  0.00     0.209 HD
ENDBRANCH  20  21
ENDBRANCH  19  20
ENDBRANCH  18  19
ENDBRANCH  17  18
ENDBRANCH  16  17
ENDBRANCH  15  16
ENDBRANCH   4  15
BRANCH   7  23
HETATM   23  N3  UNL     1       7.760  11.657  -4.970  1.00  0.00    -0.261 N 
HETATM   24  C9  UNL     1       7.474  10.323  -5.464  1.00  0.00     0.188 C 
HETATM   25  C10 UNL     1       6.060  10.443  -5.970  1.00  0.00     0.162 A 
HETATM   26  C11 UNL     1       5.147   9.306  -5.589  1.00  0.00     0.162 A 
HETATM   27  C12 UNL     1       5.846  10.157  -7.382  1.00  0.00     0.247 A 
HETATM   28  N5  UNL     1       5.663  11.742  -5.487  1.00  0.00    -0.102 NA
HETATM   29  N4  UNL     1       5.045   9.046  -7.028  1.00  0.00    -0.357 N 
ATOM     30  H4  UNL     1       4.570   8.328  -7.574  1.00  0.00     0.162 HD
HETATM   31  O4  UNL     1       6.200  10.656  -8.465  1.00  0.00    -0.271 OA
HETATM   32  N6  UNL     1       6.841  12.481  -5.671  1.00  0.00    -0.026 NA
ENDBRANCH   7  23
TORSDOF 8
ENDMDL
MODEL 3
REMARK VINA RESULT: -7.770377742      2.832      8.575
REMARK  8 active torsions:
REMARK  status: ('A' for Active; 'I' for Inactive)
REMARK    1  A    between atoms: C3_4  and  O1_5 
REMARK    2  A    between atoms: O1_5  and  C4_6 
REMARK    3  A    between atoms: C4_6  and  C5_7 
REMARK    4  A    between atoms: C5_7  and  O2_8 
REMARK    5  A    between atoms: O2_8  and  C6_9 
REMARK    6  A    between atoms: C6_9  and  C7_10 
REMARK    7  A    between atoms: C7_10  and  O3_11 
REMARK    8  A    between atoms: C8_15  and  N3_16 
ROOT
HETATM    1  N1  UNL     1      16.044  11.005   1.893  1.00  0.00    -0.191 NA
HETATM    2  C1  UNL     1      15.101  11.132   1.231  1.00  0.00     0.105 C 
HETATM    3  C2  UNL     1      13.916  11.279   0.416  1.00  0.00     0.112 A 
HETATM    4  C3  UNL     1      14.015  11.751  -0.903  1.00  0.00     0.166 A 
HETATM    5  N2  UNL     1      12.884  11.869  -1.617  1.00  0.00    -0.320 N 
ATOM      6  H2  UNL     1      12.970  12.213  -2.573  1.00  0.00     0.169 HD
HETATM    7  C8  UNL     1      11.653  11.572  -1.179  1.00  0.00     0.131 A 
HETATM    8  C13 UNL     1      11.535  11.108   0.110  1.00  0.00     0.022 A 
HETATM    9  C14 UNL     1      12.664  10.970   0.882  1.00  0.00     0.068 A 
HETATM   10  C15 UNL     1      12.257  10.466   2.190  1.00  0.00     0.254 A 
HETATM   11  O5  UNL     1      13.047  10.226   3.140  1.00  0.00    -0.268 OA
HETATM   12  N7  UNL     1      10.863  10.305   2.182  1.00  0.00    -0.352 N 
ATOM     13  H7  UNL     1      10.302   9.966   2.964  1.00  0.00     0.163 HD
HETATM   14  C16 UNL     1      10.345  10.698   0.890  1.00  0.00     0.166 A 
ENDROOT
BRANCH   4  15
HETATM   15  O1  UNL     1      15.273  12.051  -1.345  1.00  0.00    -0.332 OA
BRANCH  15  16
HETATM   16  C4  UNL     1      15.767  13.284  -1.816  1.00  0.00     0.203 C 
BRANCH  16  17
HETATM   17  C5  UNL     1      15.703  14.399  -0.811  1.00  0.00     0.194 C 
BRANCH  17  18
HETATM   18  O2  UNL     1      14.586  15.071  -0.715  1.00  0.00    -0.387 OA
BRANCH  18  19
HETATM   19  C6  UNL     1      13.673  15.467  -1.550  1.00  0.00     0.193 C 
BRANCH  19  20
HETATM   20  C7  UNL     1      12.264  15.740  -1.141  1.00  0.00     0.190 C 
BRANCH  20  21
HETATM   21  O3  UNL     1      11.753  14.613  -0.421  1.00  0.00    -0.399 OA
ATOM     22  H3  UNL     1      11.103  14.908   0.205  1.00  0.00     0.209 HD
ENDBRANCH  20  21
ENDBRANCH  19  20
ENDBRANCH  18  19
ENDBRANCH  17  18
ENDBRANCH  16  17
ENDBRANCH  15  16
ENDBRANCH   4  15
BRANCH   7  23
HETATM   23  N3  UNL     1      10.495  11.721  -1.992  1.00  0.00    -0.261 N 
HETATM   24  C9  UNL     1      10.030  10.913  -3.102  1.00  0.00     0.188 C 
HETATM   25  C10 UNL     1       8.554  11.214  -3.148  1.00  0.00     0.162 A 
HETATM   26  C11 UNL     1       7.663  10.013  -3.330  1.00  0.00     0.162 A 
HETATM   27  C12 UNL     1       8.045  11.793  -4.383  1.00  0.00     0.247 A 
HETATM   28  N5  UNL     1       8.347  11.957  -1.931  1.00  0.00    -0.102 NA
HETATM   29  N4  UNL     1       7.260  10.636  -4.594  1.00  0.00    -0.357 N 
ATOM     30  H4  UNL     1       6.639  10.343  -5.349  1.00  0.00     0.162 HD
HETATM   31  O4  UNL     1       8.209  12.852  -5.016  1.00  0.00    -0.271 OA
HETATM   32  N6  UNL     1       9.512  12.739  -1.879  1.00  0.00    -0.026 NA
ENDBRANCH   7  23
TORSDOF 8
ENDMDL
MODEL 4
REMARK VINA RESULT: -7.760944297      3.303      5.464
REMARK  8 active torsions:
REMARK  status: ('A' for Active; 'I' for Inactive)
REMARK    1  A    between atoms: C3_4  and  O1_5 
REMARK    2  A    between atoms: O1_5  and  C4_6 
REMARK    3  A    between atoms: C4_6  and  C5_7 
REMARK    4  A    between atoms: C5_7  and  O2_8 
REMARK    5  A    between atoms: O2_8  and  C6_9 
REMARK    6  A    between atoms: C6_9  and  C7_10 
REMARK    7  A    between atoms: C7_10  and  O3_11 
REMARK    8  A    between atoms: C8_15  and  N3_16 
ROOT
HETATM    1  N1  UNL     1       7.845  11.687  -1.702  1.00  0.00    -0.191 NA
HETATM    2  C1  UNL     1       9.004  11.691  -1.732  1.00  0.00     0.105 C 
HETATM    3  C2  UNL     1      10.449  11.700  -1.751  1.00  0.00     0.112 A 
HETATM    4  C3  UNL     1      11.142  11.988  -2.938  1.00  0.00     0.166 A 
HETATM    5  N2  UNL     1      12.484  11.983  -2.902  1.00  0.00    -0.320 N 
ATOM      6  H2  UNL     1      12.975  12.194  -3.771  1.00  0.00     0.169 HD
HETATM    7  C8  UNL     1      13.232  11.725  -1.821  1.00  0.00     0.131 A 
HETATM    8  C13 UNL     1      12.573  11.441  -0.648  1.00  0.00     0.022 A 
HETATM    9  C14 UNL     1      11.198  11.433  -0.635  1.00  0.00     0.068 A 
HETATM   10  C15 UNL     1      10.763  11.106   0.720  1.00  0.00     0.254 A 
HETATM   11  O5  UNL     1       9.561  11.016   1.082  1.00  0.00    -0.268 OA
HETATM   12  N7  UNL     1      11.906  10.919   1.513  1.00  0.00    -0.352 N 
ATOM     13  H7  UNL     1      11.905  10.681   2.505  1.00  0.00     0.163 HD
HETATM   14  C16 UNL     1      13.087  11.117   0.702  1.00  0.00     0.166 A 
ENDROOT
BRANCH   4  15
HETATM   15  O1  UNL     1      10.374  12.252  -4.038  1.00  0.00    -0.332 OA
BRANCH  15  16
HETATM   16  C4  UNL     1      10.488  11.717  -5.337  1.00  0.00     0.203 C 
BRANCH  16  17
HETATM   17  C5  UNL     1       9.623  10.514  -5.587  1.00  0.00     0.194 C 
BRANCH  17  18
HETATM   18  O2  UNL     1       8.476  10.447  -4.964  1.00  0.00    -0.387 OA
BRANCH  18  19
HETATM   19  C6  UNL     1       7.253  10.788  -5.242  1.00  0.00     0.193 C 
BRANCH  19  20
HETATM   20  C7  UNL     1       6.891  12.127  -5.791  1.00  0.00     0.190 C 
BRANCH  20  21
HETATM   21  O3  UNL     1       5.649  12.552  -5.220  1.00  0.00    -0.399 OA
ATOM     22  H3  UNL     1       5.794  12.831  -4.324  1.00  0.00     0.209 HD
ENDBRANCH  20  21
ENDBRANCH  19  20
ENDBRANCH  18  19
ENDBRANCH  17  18
ENDBRANCH  16  17
ENDBRANCH  15  16
ENDBRANCH   4  15
BRANCH   7  23
HETATM   23  N3  UNL     1      14.654  11.737  -1.854  1.00  0.00    -0.261 N 
HETATM   24  C9  UNL     1      15.587  12.713  -1.325  1.00  0.00     0.188 C 
HETATM   25  C10 UNL     1      16.857  11.918  -1.163  1.00  0.00     0.162 A 
HETATM   26  C11 UNL     1      17.589  12.142   0.135  1.00  0.00     0.162 A 
HETATM   27  C12 UNL     1      18.017  12.383  -1.910  1.00  0.00     0.247 A 
HETATM   28  N5  UNL     1      16.413  10.567  -1.396  1.00  0.00    -0.102 NA
HETATM   29  N4  UNL     1      18.682  12.660  -0.693  1.00  0.00    -0.357 N 
ATOM     30  H4  UNL     1      19.589  13.071  -0.473  1.00  0.00     0.162 HD
HETATM   31  O4  UNL     1      18.327  12.501  -3.110  1.00  0.00    -0.271 OA
HETATM   32  N6  UNL     1      15.492  10.751  -2.439  1.00  0.00    -0.026 NA
ENDBRANCH   7  23
TORSDOF 8
ENDMDL
MODEL 5
REMARK VINA RESULT: -7.756451324      2.840      8.853
REMARK  8 active torsions:
REMARK  status: ('A' for Active; 'I' for Inactive)
REMARK    1  A    between atoms: C3_4  and  O1_5 
REMARK    2  A    between atoms: O1_5  and  C4_6 
REMARK    3  A    between atoms: C4_6  and  C5_7 
REMARK    4  A    between atoms: C5_7  and  O2_8 
REMARK    5  A    between atoms: O2_8  and  C6_9 
REMARK    6  A    between atoms: C6_9  and  C7_10 
REMARK    7  A    between atoms: C7_10  and  O3_11 
REMARK    8  A    between atoms: C8_15  and  N3_16 
ROOT
HETATM    1  N1  UNL     1      14.218  11.225   0.942  1.00  0.00    -0.191 NA
HETATM    2  C1  UNL     1      13.366  11.282   0.157  1.00  0.00     0.105 C 
HETATM    3  C2  UNL     1      12.294  11.343  -0.809  1.00  0.00     0.112 A 
HETATM    4  C3  UNL     1      12.576  11.518  -2.174  1.00  0.00     0.166 A 
HETATM    5  N2  UNL     1      11.543  11.569  -3.030  1.00  0.00    -0.320 N 
ATOM      6  H2  UNL     1      11.762  11.696  -4.018  1.00  0.00     0.169 HD
HETATM    7  C8  UNL     1      10.250  11.466  -2.696  1.00  0.00     0.131 A 
HETATM    8  C13 UNL     1       9.952  11.294  -1.364  1.00  0.00     0.022 A 
HETATM    9  C14 UNL     1      10.976  11.236  -0.449  1.00  0.00     0.068 A 
HETATM   10  C15 UNL     1      10.386  11.051   0.874  1.00  0.00     0.254 A 
HETATM   11  O5  UNL     1      11.045  10.957   1.943  1.00  0.00    -0.268 OA
HETATM   12  N7  UNL     1       8.991  11.000   0.728  1.00  0.00    -0.352 N 
ATOM     13  H7  UNL     1       8.321  10.876   1.487  1.00  0.00     0.163 HD
HETATM   14  C16 UNL     1       8.652  11.149  -0.670  1.00  0.00     0.166 A 
ENDROOT
BRANCH   4  15
HETATM   15  O1  UNL     1      13.897  11.621  -2.510  1.00  0.00    -0.332 OA
BRANCH  15  16
HETATM   16  C4  UNL     1      14.638  12.781  -2.813  1.00  0.00     0.203 C 
BRANCH  16  17
HETATM   17  C5  UNL     1      15.920  12.913  -2.040  1.00  0.00     0.194 C 
BRANCH  17  18
HETATM   18  O2  UNL     1      16.474  11.821  -1.585  1.00  0.00    -0.387 OA
BRANCH  18  19
HETATM   19  C6  UNL     1      17.415  11.550  -0.731  1.00  0.00     0.193 C 
BRANCH  19  20
HETATM   20  C7  UNL     1      17.675  12.382   0.480  1.00  0.00     0.190 C 
BRANCH  20  21
HETATM   21  O3  UNL     1      17.250  11.668   1.645  1.00  0.00    -0.399 OA
ATOM     22  H3  UNL     1      17.179  12.271   2.375  1.00  0.00     0.209 HD
ENDBRANCH  20  21
ENDBRANCH  19  20
ENDBRANCH  18  19
ENDBRANCH  17  18
ENDBRANCH  16  17
ENDBRANCH  15  16
ENDBRANCH   4  15
BRANCH   7  23
HETATM   23  N3  UNL     1       9.204  11.528  -3.658  1.00  0.00    -0.261 N 
HETATM   24  C9  UNL     1       8.854  12.591  -4.581  1.00  0.00     0.188 C 
HETATM   25  C10 UNL     1       8.091  11.868  -5.661  1.00  0.00     0.162 A 
HETATM   26  C11 UNL     1       8.454  12.258  -7.070  1.00  0.00     0.162 A 
HETATM   27  C12 UNL     1       6.717  12.293  -5.885  1.00  0.00     0.247 A 
HETATM   28  N5  UNL     1       8.313  10.483  -5.327  1.00  0.00    -0.102 NA
HETATM   29  N4  UNL     1       7.069  12.725  -7.184  1.00  0.00    -0.357 N 
ATOM     30  H4  UNL     1       6.551  13.192  -7.929  1.00  0.00     0.162 HD
HETATM   31  O4  UNL     1       5.656  12.292  -5.233  1.00  0.00    -0.271 OA
HETATM   32  N6  UNL     1       8.243  10.518  -3.926  1.00  0.00    -0.026 NA
ENDBRANCH   7  23
TORSDOF 8
ENDMDL
