MODEL 1
REMARK VINA RESULT: -7.778617725      0.000      0.000
REMARK  12 active torsions:
REMARK  status: ('A' for Active; 'I' for Inactive)
REMARK    1  A    between atoms: O1_2  and  C2_3 
REMARK    2  A    between atoms: C2_3  and  C3_5 
REMARK    3  A    between atoms: C3_5  and  N1_6 
REMARK       I    between atoms: N1_6  and  C4_8 
REMARK       I    between atoms: C4_8  and  N2_10 
REMARK    4  A    between atoms: N2_10  and  C5_12 
REMARK    5  A    between atoms: C5_12  and  C6_13 
REMARK    6  A    between atoms: C5_12  and  C7_16 
REMARK    7  A    between atoms: C6_13  and  O4_14 
REMARK    8  A    between atoms: C7_16  and  O6_18 
REMARK    9  A    between atoms: O6_18  and  C8_19 
REMARK   10  A    between atoms: C8_19  and  C9_21 
REMARK   11  A    between atoms: C12_24  and  N3_25 
REMARK   12  A    between atoms: C13_28  and  N4_29 
ROOT
HETATM    1  C7  UNL     1       9.391  12.151  -2.878  1.00  0.00     0.291 C 
HETATM    2  O5  UNL     1       8.670  12.475  -1.901  1.00  0.00    -0.262 OA
ENDROOT
BRANCH   1   3
HETATM    3  C5  UNL     1       9.016  12.542  -4.254  1.00  0.00     0.210 C 
BRANCH   3   4
HETATM    4  N2  UNL     1       7.633  12.371  -4.540  1.00  0.00    -0.327 N 
HETATM    5  C4  UNL     1       7.194  11.254  -5.282  1.00  0.00     0.317 C 
HETATM    6  N1  UNL     1       5.823  11.082  -5.568  1.00  0.00    -0.334 N 
HETATM    7  O3  UNL     1       8.068  10.407  -5.687  1.00  0.00    -0.247 OA
ATOM      8  H1  UNL     1       5.134  11.761  -5.243  1.00  0.00     0.164 HD
ATOM      9  H2  UNL     1       6.956  13.057  -4.207  1.00  0.00     0.165 HD
BRANCH   6  10
HETATM   10  C3  UNL     1       5.415   9.926  -6.331  1.00  0.00     0.235 C 
BRANCH  10  11
HETATM   11  C2  UNL     1       4.233   9.284  -5.755  1.00  0.00     0.276 C 
HETATM   12  O2  UNL     1       3.159   9.927  -5.683  1.00  0.00    -0.263 OA
BRANCH  11  13
HETATM   13  O1  UNL     1       4.332   7.979  -5.300  1.00  0.00    -0.325 OA
HETATM   14  C1  UNL     1       5.436   7.542  -4.542  1.00  0.00     0.213 C 
ENDBRANCH  11  13
ENDBRANCH  10  11
ENDBRANCH   6  10
ENDBRANCH   3   4
BRANCH   3  15
HETATM   15  C6  UNL     1       9.369  14.004  -4.413  1.00  0.00     0.199 C 
BRANCH  15  16
HETATM   16  O4  UNL     1      10.337  14.409  -3.515  1.00  0.00    -0.398 OA
ATOM     17  H4  UNL     1      10.075  15.182  -3.028  1.00  0.00     0.209 HD
ENDBRANCH  15  16
ENDBRANCH   3  15
ENDBRANCH   1   3
BRANCH   1  18
HETATM   18  O6  UNL     1      10.537  11.426  -2.644  1.00  0.00    -0.238 OA
BRANCH  18  19
HETATM   19  C8  UNL     1      11.621  11.877  -1.905  1.00  0.00     0.317 C 
HETATM   20  O7  UNL     1      12.326  12.768  -2.445  1.00  0.00    -0.257 OA
BRANCH  19  21
HETATM   21  C9  UNL     1      11.956  11.378  -0.591  1.00  0.00     0.110 A 
HETATM   22  C10 UNL     1      13.243  11.463  -0.143  1.00  0.00     0.038 A 
HETATM   23  C11 UNL     1      13.564  10.982   1.127  1.00  0.00     0.042 A 
HETATM   24  C12 UNL     1      12.587  10.425   1.925  1.00  0.00     0.146 A 
HETATM   25  C13 UNL     1      11.310  10.369   1.414  1.00  0.00     0.133 A 
HETATM   26  N5  UNL     1      11.015  10.839   0.182  1.00  0.00    -0.336 N 
ATOM     27  H5  UNL     1      10.056  10.780  -0.161  1.00  0.00     0.168 HD
BRANCH  24  28
HETATM   28  N3  UNL     1      12.927   9.939   3.216  1.00  0.00    -0.112 N 
HETATM   29  O8  UNL     1      13.588   8.905   3.373  1.00  0.00    -0.532 OA
HETATM   30  O9  UNL     1      12.511  10.634   4.321  1.00  0.00    -0.532 OA
ENDBRANCH  24  28
BRANCH  25  31
HETATM   31  N4  UNL     1      10.395   9.839   2.180  1.00  0.00    -0.383 N 
ATOM     32  H42 UNL     1      10.612   9.073   2.818  1.00  0.00     0.157 HD
ATOM     33  H41 UNL     1       9.455  10.228   2.108  1.00  0.00     0.157 HD
ENDBRANCH  25  31
ENDBRANCH  19  21
ENDBRANCH  18  19
ENDBRANCH   1  18
TORSDOF 12
ENDMDL
MODEL 2
REMARK VINA RESULT: -7.669522298      1.796      8.593
REMARK  12 active torsions:
REMARK  status: ('A' for Active; 'I' for Inactive)
REMARK    1  A    between atoms: O1_2  and  C2_3 
REMARK    2  A    between atoms: C2_3  and  C3_5 
REMARK    3  A    between atoms: C3_5  and  N1_6 
REMARK       I    between atoms: N1_6  and  C4_8 
REMARK       I    between atoms: C4_8  and  N2_10 
REMARK    4  A    between atoms: N2_10  and  C5_12 
REMARK    5  A    between atoms: C5_12  and  C6_13 
REMARK    6  A    between atoms: C5_12  and  C7_16 
REMARK    7  A    between atoms: C6_13  and  O4_14 
REMARK    8  A    between atoms: C7_16  and  O6_18 
REMARK    9  A    between atoms: O6_18  and  C8_19 
REMARK   10  A    between atoms: C8_19  and  C9_21 
REMARK   11  A    between atoms: C12_24  and  N3_25 
REMARK   12  A    between atoms: C13_28  and  N4_29 
ROOT
HETATM    1  C7  UNL     1      10.201  12.393  -2.740  1.00  0.00     0.291 C 
HETATM    2  O5  UNL     1      10.228  13.137  -3.752  1.00  0.00    -0.262 OA
ENDROOT
BRANCH   1   3
HETATM    3  C5  UNL     1      11.414  11.664  -2.308  1.00  0.00     0.210 C 
BRANCH   3   4
HETATM    4  N2  UNL     1      11.178  10.730  -1.262  1.00  0.00    -0.327 N 
HETATM    5  C4  UNL     1      11.379  11.105   0.084  1.00  0.00     0.317 C 
HETATM    6  N1  UNL     1      11.147  10.179   1.124  1.00  0.00    -0.334 N 
HETATM    7  O3  UNL     1      11.777  12.298   0.334  1.00  0.00    -0.247 OA
ATOM      8  H1  UNL     1      10.832   9.231   0.917  1.00  0.00     0.164 HD
ATOM      9  H2  UNL     1      10.862   9.787  -1.485  1.00  0.00     0.165 HD
BRANCH   6  10
HETATM   10  C3  UNL     1      11.366  10.602   2.487  1.00  0.00     0.235 C 
BRANCH  10  11
HETATM   11  C2  UNL     1      12.014   9.558   3.282  1.00  0.00     0.276 C 
HETATM   12  O2  UNL     1      13.249   9.377   3.166  1.00  0.00    -0.263 OA
BRANCH  11  13
HETATM   13  O1  UNL     1      11.243   8.795   4.143  1.00  0.00    -0.325 OA
HETATM   14  C1  UNL     1      10.470   7.711   3.681  1.00  0.00     0.213 C 
ENDBRANCH  11  13
ENDBRANCH  10  11
ENDBRANCH   6  10
ENDBRANCH   3   4
BRANCH   3  15
HETATM   15  C6  UNL     1      11.941  10.921  -3.515  1.00  0.00     0.199 C 
BRANCH  15  16
HETATM   16  O4  UNL     1      10.934  10.287  -4.219  1.00  0.00    -0.398 OA
ATOM     17  H4  UNL     1      11.113   9.363  -4.348  1.00  0.00     0.209 HD
ENDBRANCH  15  16
ENDBRANCH   3  15
ENDBRANCH   1   3
BRANCH   1  18
HETATM   18  O6  UNL     1       9.023  12.267  -2.040  1.00  0.00    -0.238 OA
BRANCH  18  19
HETATM   19  C8  UNL     1       8.112  11.232  -2.204  1.00  0.00     0.317 C 
HETATM   20  O7  UNL     1       7.877  10.537  -1.181  1.00  0.00    -0.257 OA
BRANCH  19  21
HETATM   21  C9  UNL     1       7.454  10.937  -3.455  1.00  0.00     0.110 A 
HETATM   22  C10 UNL     1       7.178   9.641  -3.785  1.00  0.00     0.038 A 
HETATM   23  C11 UNL     1       6.540   9.359  -4.993  1.00  0.00     0.042 A 
HETATM   24  C12 UNL     1       6.190  10.381  -5.848  1.00  0.00     0.146 A 
HETATM   25  C13 UNL     1       6.496  11.666  -5.457  1.00  0.00     0.133 A 
HETATM   26  N5  UNL     1       7.114  11.923  -4.284  1.00  0.00    -0.336 N 
ATOM     27  H5  UNL     1       7.324  12.888  -4.029  1.00  0.00     0.168 HD
BRANCH  24  28
HETATM   28  N3  UNL     1       5.541  10.080  -7.077  1.00  0.00    -0.112 N 
HETATM   29  O8  UNL     1       4.369   9.688  -7.118  1.00  0.00    -0.532 OA
HETATM   30  O9  UNL     1       6.232  10.230  -8.250  1.00  0.00    -0.532 OA
ENDBRANCH  24  28
BRANCH  25  31
HETATM   31  N4  UNL     1       6.160  12.625  -6.277  1.00  0.00    -0.383 N 
ATOM     32  H42 UNL     1       5.183  12.872  -6.436  1.00  0.00     0.157 HD
ATOM     33  H41 UNL     1       6.921  13.112  -6.749  1.00  0.00     0.157 HD
ENDBRANCH  25  31
ENDBRANCH  19  21
ENDBRANCH  18  19
ENDBRANCH   1  18
TORSDOF 12
ENDMDL
MODEL 3
REMARK VINA RESULT: -7.639690784      1.428      1.996
REMARK  12 active torsions:
REMARK  status: ('A' for Active; 'I' for Inactive)
REMARK    1  A    between atoms: O1_2  and  C2_3 
REMARK    2  A    between atoms: C2_3  and  C3_5 
REMARK    3  A    between atoms: C3_5  and  N1_6 
REMARK       I    between atoms: N1_6  and  C4_8 
REMARK       I    between atoms: C4_8  and  N2_10 
REMARK    4  A    between atoms: N2_10  and  C5_12 
REMARK    5  A    between atoms: C5_12  and  C6_13 
REMARK    6  A    between atoms: C5_12  and  C7_16 
REMARK    7  A    between atoms: C6_13  and  O4_14 
REMARK    8  A    between atoms: C7_16  and  O6_18 
REMARK    9  A    between atoms: O6_18  and  C8_19 
REMARK   10  A    between atoms: C8_19  and  C9_21 
REMARK   11  A    between atoms: C12_24  and  N3_25 
REMARK   12  A    between atoms: C13_28  and  N4_29 
ROOT
HETATM    1  C7  UNL     1      11.480  11.599  -3.227  1.00  0.00     0.291 C 
HETATM    2  O5  UNL     1      12.075  10.560  -3.609  1.00  0.00    -0.262 OA
ENDROOT
BRANCH   1   3
HETATM    3  C5  UNL     1      10.073  11.846  -3.614  1.00  0.00     0.210 C 
BRANCH   3   4
HETATM    4  N2  UNL     1       9.236  10.703  -3.487  1.00  0.00    -0.327 N 
HETATM    5  C4  UNL     1       8.202  10.472  -4.420  1.00  0.00     0.317 C 
HETATM    6  N1  UNL     1       7.369   9.340  -4.296  1.00  0.00    -0.334 N 
HETATM    7  O3  UNL     1       8.040  11.314  -5.374  1.00  0.00    -0.247 OA
ATOM      8  H1  UNL     1       7.504   8.675  -3.533  1.00  0.00     0.164 HD
ATOM      9  H2  UNL     1       9.384  10.047  -2.720  1.00  0.00     0.165 HD
BRANCH   6  10
HETATM   10  C3  UNL     1       6.323   9.141  -5.270  1.00  0.00     0.235 C 
BRANCH  10  11
HETATM   11  C2  UNL     1       5.386   8.096  -4.856  1.00  0.00     0.276 C 
HETATM   12  O2  UNL     1       5.773   7.202  -4.067  1.00  0.00    -0.263 OA
BRANCH  11  13
HETATM   13  O1  UNL     1       4.092   8.121  -5.349  1.00  0.00    -0.325 OA
HETATM   14  C1  UNL     1       3.475   9.323  -5.749  1.00  0.00     0.213 C 
ENDBRANCH  11  13
ENDBRANCH  10  11
ENDBRANCH   6  10
ENDBRANCH   3   4
BRANCH   3  15
HETATM   15  C6  UNL     1       9.547  12.937  -2.709  1.00  0.00     0.199 C 
BRANCH  15  16
HETATM   16  O4  UNL     1       9.274  12.475  -1.435  1.00  0.00    -0.398 OA
ATOM     17  H4  UNL     1       8.963  11.577  -1.438  1.00  0.00     0.209 HD
ENDBRANCH  15  16
ENDBRANCH   3  15
ENDBRANCH   1   3
BRANCH   1  18
HETATM   18  O6  UNL     1      12.158  12.501  -2.441  1.00  0.00    -0.238 OA
BRANCH  18  19
HETATM   19  C8  UNL     1      13.139  12.166  -1.518  1.00  0.00     0.317 C 
HETATM   20  O7  UNL     1      14.326  12.414  -1.858  1.00  0.00    -0.257 OA
BRANCH  19  21
HETATM   21  C9  UNL     1      12.859  11.565  -0.235  1.00  0.00     0.110 A 
HETATM   22  C10 UNL     1      13.889  11.152   0.559  1.00  0.00     0.038 A 
HETATM   23  C11 UNL     1      13.616  10.574   1.799  1.00  0.00     0.042 A 
HETATM   24  C12 UNL     1      12.312  10.421   2.220  1.00  0.00     0.146 A 
HETATM   25  C13 UNL     1      11.318  10.859   1.373  1.00  0.00     0.133 A 
HETATM   26  N5  UNL     1      11.600  11.416   0.175  1.00  0.00    -0.336 N 
ATOM     27  H5  UNL     1      10.836  11.728  -0.425  1.00  0.00     0.168 HD
BRANCH  24  28
HETATM   28  N3  UNL     1      12.046   9.830   3.485  1.00  0.00    -0.112 N 
HETATM   29  O8  UNL     1      11.494   8.729   3.589  1.00  0.00    -0.532 OA
HETATM   30  O9  UNL     1      12.412  10.499   4.624  1.00  0.00    -0.532 OA
ENDBRANCH  24  28
BRANCH  25  31
HETATM   31  N4  UNL     1      10.088  10.707   1.784  1.00  0.00    -0.383 N 
ATOM     32  H42 UNL     1       9.834  10.835   2.763  1.00  0.00     0.157 HD
ATOM     33  H41 UNL     1       9.397  10.455   1.078  1.00  0.00     0.157 HD
ENDBRANCH  25  31
ENDBRANCH  19  21
ENDBRANCH  18  19
ENDBRANCH   1  18
TORSDOF 12
ENDMDL
MODEL 4
REMARK VINA RESULT: -7.628796666      1.858      2.527
REMARK  12 active torsions:
REMARK  status: ('A' for Active; 'I' for Inactive)
REMARK    1  A    between atoms: O1_2  and  C2_3 
REMARK    2  A    between atoms: C2_3  and  C3_5 
REMARK    3  A    between atoms: C3_5  and  N1_6 
REMARK       I    between atoms: N1_6  and  C4_8 
REMARK       I    between atoms: C4_8  and  N2_10 
REMARK    4  A    between atoms: N2_10  and  C5_12 
REMARK    5  A    between atoms: C5_12  and  C6_13 
REMARK    6  A    between atoms: C5_12  and  C7_16 
REMARK    7  A    between atoms: C6_13  and  O4_14 
REMARK    8  A    between atoms: C7_16  and  O6_18 
REMARK    9  A    between atoms: O6_18  and  C8_19 
REMARK   10  A    between atoms: C8_19  and  C9_21 
REMARK   11  A    between atoms: C12_24  and  N3_25 
REMARK   12  A    between atoms: C13_28  and  N4_29 
ROOT
HETATM    1  C7  UNL     1      11.789  12.303  -3.659  1.00  0.00     0.291 C 
HETATM    2  O5  UNL     1      11.737  13.127  -4.606  1.00  0.00    -0.262 OA
ENDROOT
BRANCH   1   3
HETATM    3  C5  UNL     1      11.621  10.855  -3.910  1.00  0.00     0.210 C 
BRANCH   3   4
HETATM    4  N2  UNL     1      10.577  10.551  -4.827  1.00  0.00    -0.327 N 
HETATM    5  C4  UNL     1       9.234  10.526  -4.392  1.00  0.00     0.317 C 
HETATM    6  N1  UNL     1       8.196  10.223  -5.299  1.00  0.00    -0.334 N 
HETATM    7  O3  UNL     1       8.985  10.781  -3.160  1.00  0.00    -0.247 OA
ATOM      8  H1  UNL     1       8.403  10.020  -6.278  1.00  0.00     0.164 HD
ATOM      9  H2  UNL     1      10.799  10.352  -5.802  1.00  0.00     0.165 HD
BRANCH   6  10
HETATM   10  C3  UNL     1       6.837  10.207  -4.814  1.00  0.00     0.235 C 
BRANCH  10  11
HETATM   11  C2  UNL     1       5.943  10.981  -5.676  1.00  0.00     0.276 C 
HETATM   12  O2  UNL     1       5.629  12.148  -5.344  1.00  0.00    -0.263 OA
BRANCH  11  13
HETATM   13  O1  UNL     1       5.463  10.401  -6.839  1.00  0.00    -0.325 OA
HETATM   14  C1  UNL     1       4.811   9.153  -6.828  1.00  0.00     0.213 C 
ENDBRANCH  11  13
ENDBRANCH  10  11
ENDBRANCH   6  10
ENDBRANCH   3   4
BRANCH   3  15
HETATM   15  C6  UNL     1      12.928  10.345  -4.474  1.00  0.00     0.199 C 
BRANCH  15  16
HETATM   16  O4  UNL     1      13.834  11.365  -4.697  1.00  0.00    -0.398 OA
ATOM     17  H4  UNL     1      13.601  11.895  -5.450  1.00  0.00     0.209 HD
ENDBRANCH  15  16
ENDBRANCH   3  15
ENDBRANCH   1   3
BRANCH   1  18
HETATM   18  O6  UNL     1      12.007  12.772  -2.384  1.00  0.00    -0.238 OA
BRANCH  18  19
HETATM   19  C8  UNL     1      13.011  12.325  -1.537  1.00  0.00     0.317 C 
HETATM   20  O7  UNL     1      14.192  12.509  -1.935  1.00  0.00    -0.257 OA
BRANCH  19  21
HETATM   21  C9  UNL     1      12.761  11.681  -0.269  1.00  0.00     0.110 A 
HETATM   22  C10 UNL     1      13.811  11.282   0.507  1.00  0.00     0.038 A 
HETATM   23  C11 UNL     1      13.566  10.663   1.733  1.00  0.00     0.042 A 
HETATM   24  C12 UNL     1      12.272  10.454   2.159  1.00  0.00     0.146 A 
HETATM   25  C13 UNL     1      11.258  10.879   1.330  1.00  0.00     0.133 A 
HETATM   26  N5  UNL     1      11.511  11.478   0.145  1.00  0.00    -0.336 N 
ATOM     27  H5  UNL     1      10.732  11.779  -0.441  1.00  0.00     0.168 HD
BRANCH  24  28
HETATM   28  N3  UNL     1      12.035   9.821   3.409  1.00  0.00    -0.112 N 
HETATM   29  O8  UNL     1      11.494   8.712   3.488  1.00  0.00    -0.532 OA
HETATM   30  O9  UNL     1      12.418  10.456   4.561  1.00  0.00    -0.532 OA
ENDBRANCH  24  28
BRANCH  25  31
HETATM   31  N4  UNL     1      10.036  10.675   1.745  1.00  0.00    -0.383 N 
ATOM     32  H42 UNL     1       9.416  10.017   1.272  1.00  0.00     0.157 HD
ATOM     33  H41 UNL     1       9.736  11.204   2.563  1.00  0.00     0.157 HD
ENDBRANCH  25  31
ENDBRANCH  19  21
ENDBRANCH  18  19
ENDBRANCH   1  18
TORSDOF 12
ENDMDL
MODEL 5
REMARK VINA RESULT: -7.591149287      1.723      8.716
REMARK  12 active torsions:
REMARK  status: ('A' for Active; 'I' for Inactive)
REMARK    1  A    between atoms: O1_2  and  C2_3 
REMARK    2  A    between atoms: C2_3  and  C3_5 
REMARK    3  A    between atoms: C3_5  and  N1_6 
REMARK       I    between atoms: N1_6  and  C4_8 
REMARK       I    between atoms: C4_8  and  N2_10 
REMARK    4  A    between atoms: N2_10  and  C5_12 
REMARK    5  A    between atoms: C5_12  and  C6_13 
REMARK    6  A    between atoms: C5_12  and  C7_16 
REMARK    7  A    between atoms: C6_13  and  O4_14 
REMARK    8  A    between atoms: C7_16  and  O6_18 
REMARK    9  A    between atoms: O6_18  and  C8_19 
REMARK   10  A    between atoms: C8_19  and  C9_21 
REMARK   11  A    between atoms: C12_24  and  N3_25 
REMARK   12  A    between atoms: C13_28  and  N4_29 
ROOT
HETATM    1  C7  UNL     1      10.202  12.458  -2.836  1.00  0.00     0.291 C 
HETATM    2  O5  UNL     1      10.231  13.221  -3.835  1.00  0.00    -0.262 OA
ENDROOT
BRANCH   1   3
HETATM    3  C5  UNL     1      11.406  11.698  -2.434  1.00  0.00     0.210 C 
BRANCH   3   4
HETATM    4  N2  UNL     1      11.163  10.744  -1.408  1.00  0.00    -0.327 N 
HETATM    5  C4  UNL     1      11.402  11.075  -0.057  1.00  0.00     0.317 C 
HETATM    6  N1  UNL     1      11.163  10.129   0.962  1.00  0.00    -0.334 N 
HETATM    7  O3  UNL     1      11.840  12.250   0.216  1.00  0.00    -0.247 OA
ATOM      8  H1  UNL     1      10.816   9.197   0.737  1.00  0.00     0.164 HD
ATOM      9  H2  UNL     1      10.815   9.816  -1.649  1.00  0.00     0.165 HD
BRANCH   6  10
HETATM   10  C3  UNL     1      11.421  10.509   2.331  1.00  0.00     0.235 C 
BRANCH  10  11
HETATM   11  C2  UNL     1      12.725  10.029   2.791  1.00  0.00     0.276 C 
HETATM   12  O2  UNL     1      12.793   8.952   3.428  1.00  0.00    -0.263 OA
BRANCH  11  13
HETATM   13  O1  UNL     1      13.854  10.782   2.511  1.00  0.00    -0.325 OA
HETATM   14  C1  UNL     1      14.757  10.412   1.496  1.00  0.00     0.213 C 
ENDBRANCH  11  13
ENDBRANCH  10  11
ENDBRANCH   6  10
ENDBRANCH   3   4
BRANCH   3  15
HETATM   15  C6  UNL     1      11.908  10.975  -3.664  1.00  0.00     0.199 C 
BRANCH  15  16
HETATM   16  O4  UNL     1      10.888  10.351  -4.356  1.00  0.00    -0.398 OA
ATOM     17  H4  UNL     1      11.205   9.890  -5.125  1.00  0.00     0.209 HD
ENDBRANCH  15  16
ENDBRANCH   3  15
ENDBRANCH   1   3
BRANCH   1  18
HETATM   18  O6  UNL     1       9.031  12.343  -2.124  1.00  0.00    -0.238 OA
BRANCH  18  19
HETATM   19  C8  UNL     1       8.119  11.306  -2.264  1.00  0.00     0.317 C 
HETATM   20  O7  UNL     1       7.884  10.633  -1.227  1.00  0.00    -0.257 OA
BRANCH  19  21
HETATM   21  C9  UNL     1       7.457  10.986  -3.508  1.00  0.00     0.110 A 
HETATM   22  C10 UNL     1       7.151   9.688  -3.797  1.00  0.00     0.038 A 
HETATM   23  C11 UNL     1       6.511   9.381  -4.997  1.00  0.00     0.042 A 
HETATM   24  C12 UNL     1       6.188  10.383  -5.887  1.00  0.00     0.146 A 
HETATM   25  C13 UNL     1       6.524  11.672  -5.537  1.00  0.00     0.133 A 
HETATM   26  N5  UNL     1       7.145  11.953  -4.370  1.00  0.00    -0.336 N 
ATOM     27  H5  UNL     1       7.377  12.920  -4.146  1.00  0.00     0.168 HD
BRANCH  24  28
HETATM   28  N3  UNL     1       5.536  10.058  -7.108  1.00  0.00    -0.112 N 
HETATM   29  O8  UNL     1       4.363   9.668  -7.139  1.00  0.00    -0.532 OA
HETATM   30  O9  UNL     1       6.226  10.180  -8.285  1.00  0.00    -0.532 OA
ENDBRANCH  24  28
BRANCH  25  31
HETATM   31  N4  UNL     1       6.214  12.611  -6.389  1.00  0.00    -0.383 N 
ATOM     32  H42 UNL     1       5.255  12.744  -6.711  1.00  0.00     0.157 HD
ATOM     33  H41 UNL     1       6.977  13.204  -6.715  1.00  0.00     0.157 HD
ENDBRANCH  25  31
ENDBRANCH  19  21
ENDBRANCH  18  19
ENDBRANCH   1  18
TORSDOF 12
ENDMDL
