MODEL 1
REMARK VINA RESULT: -8.250943135      0.000      0.000
REMARK  10 active torsions:
REMARK  status: ('A' for Active; 'I' for Inactive)
REMARK    1  A    between atoms: N1_1  and  S1_4 
REMARK    2  A    between atoms: S1_4  and  O3_7 
REMARK    3  A    between atoms: O3_7  and  C1_8 
REMARK    4  A    between atoms: C1_8  and  C2_9 
REMARK    5  A    between atoms: C2_9  and  O4_10 
REMARK    6  A    between atoms: O4_10  and  N2_11 
REMARK    7  A    between atoms: N2_11  and  N3_13 
REMARK    8  A    between atoms: C5_20  and  C6_21 
REMARK    9  A    between atoms: C6_21  and  C7_22 
REMARK   10  A    between atoms: C10_25  and  O7_26 
ROOT
HETATM    1  N3  UNL     1       9.947  12.132  -2.061  1.00  0.00    -0.147 N 
HETATM    2  C3  UNL     1      10.784  12.577  -3.148  1.00  0.00     0.353 A 
HETATM    3  O5  UNL     1      11.529  13.560  -2.862  1.00  0.00    -0.244 OA
HETATM    4  N4  UNL     1      10.783  11.979  -4.417  1.00  0.00    -0.273 N 
ATOM      5  H4  UNL     1      11.402  12.344  -5.140  1.00  0.00     0.173 HD
HETATM    6  C4  UNL     1       9.918  10.854  -4.720  1.00  0.00     0.265 A 
HETATM    7  O6  UNL     1       9.966  10.383  -5.859  1.00  0.00    -0.267 OA
HETATM    8  C5  UNL     1       9.065  10.374  -3.665  1.00  0.00     0.103 A 
HETATM    9  C13 UNL     1       9.093  11.032  -2.328  1.00  0.00     0.287 A 
HETATM   10  O8  UNL     1       8.315  10.570  -1.426  1.00  0.00    -0.265 OA
ENDROOT
BRANCH   1  11
HETATM   11  N2  UNL     1       9.928  12.735  -0.846  1.00  0.00    -0.194 N 
ATOM     12  H2  UNL     1       9.199  13.434  -0.704  1.00  0.00     0.216 HD
BRANCH  11  13
HETATM   13  O4  UNL     1      10.696  12.537   0.118  1.00  0.00    -0.262 OA
BRANCH  13  14
HETATM   14  C2  UNL     1      11.835  11.823   0.141  1.00  0.00     0.230 C 
BRANCH  14  15
HETATM   15  C1  UNL     1      11.492  10.480   0.843  1.00  0.00     0.220 C 
BRANCH  15  16
HETATM   16  O3  UNL     1      11.152  10.723   2.171  1.00  0.00    -0.258 OA
BRANCH  16  17
HETATM   17  S1  UNL     1      12.006   9.808   3.261  1.00  0.00     0.355 S 
HETATM   18  O1  UNL     1      11.259   8.617   3.772  1.00  0.00    -0.176 OA
HETATM   19  O2  UNL     1      12.442  10.613   4.476  1.00  0.00    -0.176 OA
BRANCH  17  20
HETATM   20  N1  UNL     1      13.438   9.243   2.478  1.00  0.00    -0.306 N 
ATOM     21  H12 UNL     1      13.557   8.319   2.063  1.00  0.00     0.171 HD
ATOM     22  H11 UNL     1      14.130   9.993   2.507  1.00  0.00     0.171 HD
ENDBRANCH  17  20
ENDBRANCH  16  17
ENDBRANCH  15  16
ENDBRANCH  14  15
ENDBRANCH  13  14
ENDBRANCH  11  13
ENDBRANCH   1  11
BRANCH   8  23
HETATM   23  C6  UNL     1       8.258   9.358  -3.842  1.00  0.00     0.034 C 
BRANCH  23  24
HETATM   24  C7  UNL     1       6.974   9.403  -4.488  1.00  0.00    -0.035 A 
HETATM   25  C8  UNL     1       6.500  10.530  -5.157  1.00  0.00     0.014 A 
HETATM   26  C9  UNL     1       5.262  10.459  -5.739  1.00  0.00     0.037 A 
HETATM   27  C10 UNL     1       4.431   9.342  -5.717  1.00  0.00     0.065 A 
HETATM   28  C11 UNL     1       4.930   8.246  -5.046  1.00  0.00     0.037 A 
HETATM   29  C12 UNL     1       6.161   8.252  -4.443  1.00  0.00     0.014 A 
BRANCH  27  30
HETATM   30  O7  UNL     1       3.186   9.375  -6.342  1.00  0.00    -0.361 OA
ATOM     31  H7  UNL     1       2.543   8.696  -6.171  1.00  0.00     0.217 HD
ENDBRANCH  27  30
ENDBRANCH  23  24
ENDBRANCH   8  23
TORSDOF 10
ENDMDL
MODEL 2
REMARK VINA RESULT: -8.205891622      3.251      8.243
REMARK  10 active torsions:
REMARK  status: ('A' for Active; 'I' for Inactive)
REMARK    1  A    between atoms: N1_1  and  S1_4 
REMARK    2  A    between atoms: S1_4  and  O3_7 
REMARK    3  A    between atoms: O3_7  and  C1_8 
REMARK    4  A    between atoms: C1_8  and  C2_9 
REMARK    5  A    between atoms: C2_9  and  O4_10 
REMARK    6  A    between atoms: O4_10  and  N2_11 
REMARK    7  A    between atoms: N2_11  and  N3_13 
REMARK    8  A    between atoms: C5_20  and  C6_21 
REMARK    9  A    between atoms: C6_21  and  C7_22 
REMARK   10  A    between atoms: C10_25  and  O7_26 
ROOT
HETATM    1  N3  UNL     1       9.290  11.880  -3.467  1.00  0.00    -0.147 N 
HETATM    2  C3  UNL     1      10.281  11.633  -4.485  1.00  0.00     0.353 A 
HETATM    3  O5  UNL     1       9.799  11.340  -5.618  1.00  0.00    -0.244 OA
HETATM    4  N4  UNL     1      11.662  11.708  -4.251  1.00  0.00    -0.273 N 
ATOM      5  H4  UNL     1      12.308  11.522  -5.018  1.00  0.00     0.173 HD
HETATM    6  C4  UNL     1      12.189  12.044  -2.941  1.00  0.00     0.265 A 
HETATM    7  O6  UNL     1      13.414  12.086  -2.808  1.00  0.00    -0.267 OA
HETATM    8  C5  UNL     1      11.237  12.301  -1.893  1.00  0.00     0.103 A 
HETATM    9  C13 UNL     1       9.777  12.213  -2.177  1.00  0.00     0.287 A 
HETATM   10  O8  UNL     1       8.972  12.448  -1.212  1.00  0.00    -0.265 OA
ENDROOT
BRANCH   1  11
HETATM   11  N2  UNL     1       7.957  11.773  -3.689  1.00  0.00    -0.194 N 
ATOM     12  H2  UNL     1       7.507  12.584  -4.115  1.00  0.00     0.216 HD
BRANCH  11  13
HETATM   13  O4  UNL     1       7.214  10.803  -3.435  1.00  0.00    -0.262 OA
BRANCH  13  14
HETATM   14  C2  UNL     1       7.339   9.530  -3.849  1.00  0.00     0.230 C 
BRANCH  14  15
HETATM   15  C1  UNL     1       6.837   9.500  -5.318  1.00  0.00     0.220 C 
BRANCH  15  16
HETATM   16  O3  UNL     1       5.686  10.276  -5.433  1.00  0.00    -0.258 OA
BRANCH  16  17
HETATM   17  S1  UNL     1       4.397   9.470  -6.098  1.00  0.00     0.355 S 
HETATM   18  O1  UNL     1       3.066   9.943  -5.606  1.00  0.00    -0.176 OA
HETATM   19  O2  UNL     1       4.457   7.971  -5.842  1.00  0.00    -0.176 OA
BRANCH  17  20
HETATM   20  N1  UNL     1       4.446   9.700  -7.809  1.00  0.00    -0.306 N 
ATOM     21  H12 UNL     1       3.640   9.904  -8.399  1.00  0.00     0.171 HD
ATOM     22  H11 UNL     1       5.414   9.596  -8.113  1.00  0.00     0.171 HD
ENDBRANCH  17  20
ENDBRANCH  16  17
ENDBRANCH  15  16
ENDBRANCH  14  15
ENDBRANCH  13  14
ENDBRANCH  11  13
ENDBRANCH   1  11
BRANCH   8  23
HETATM   23  C6  UNL     1      11.618  12.621  -0.682  1.00  0.00     0.034 C 
BRANCH  23  24
HETATM   24  C7  UNL     1      12.003  11.699   0.352  1.00  0.00    -0.035 A 
HETATM   25  C8  UNL     1      11.080  11.020   1.146  1.00  0.00     0.014 A 
HETATM   26  C9  UNL     1      11.560  10.162   2.100  1.00  0.00     0.037 A 
HETATM   27  C10 UNL     1      12.907   9.912   2.344  1.00  0.00     0.065 A 
HETATM   28  C11 UNL     1      13.793  10.600   1.543  1.00  0.00     0.037 A 
HETATM   29  C12 UNL     1      13.377  11.471   0.570  1.00  0.00     0.014 A 
BRANCH  27  30
HETATM   30  O7  UNL     1      13.291   9.017   3.343  1.00  0.00    -0.361 OA
ATOM     31  H7  UNL     1      13.139   8.085   3.239  1.00  0.00     0.217 HD
ENDBRANCH  27  30
ENDBRANCH  23  24
ENDBRANCH   8  23
TORSDOF 10
ENDMDL
MODEL 3
REMARK VINA RESULT: -8.012100769      3.214      8.198
REMARK  10 active torsions:
REMARK  status: ('A' for Active; 'I' for Inactive)
REMARK    1  A    between atoms: N1_1  and  S1_4 
REMARK    2  A    between atoms: S1_4  and  O3_7 
REMARK    3  A    between atoms: O3_7  and  C1_8 
REMARK    4  A    between atoms: C1_8  and  C2_9 
REMARK    5  A    between atoms: C2_9  and  O4_10 
REMARK    6  A    between atoms: O4_10  and  N2_11 
REMARK    7  A    between atoms: N2_11  and  N3_13 
REMARK    8  A    between atoms: C5_20  and  C6_21 
REMARK    9  A    between atoms: C6_21  and  C7_22 
REMARK   10  A    between atoms: C10_25  and  O7_26 
ROOT
HETATM    1  N3  UNL     1       9.255  11.283  -3.622  1.00  0.00    -0.147 N 
HETATM    2  C3  UNL     1      10.200  10.676  -4.527  1.00  0.00     0.353 A 
HETATM    3  O5  UNL     1       9.681  10.207  -5.582  1.00  0.00    -0.244 OA
HETATM    4  N4  UNL     1      11.577  10.606  -4.271  1.00  0.00    -0.273 N 
ATOM      5  H4  UNL     1      12.190  10.164  -4.956  1.00  0.00     0.173 HD
HETATM    6  C4  UNL     1      12.147  11.150  -3.052  1.00  0.00     0.265 A 
HETATM    7  O6  UNL     1      13.366  11.048  -2.892  1.00  0.00    -0.267 OA
HETATM    8  C5  UNL     1      11.243  11.767  -2.119  1.00  0.00     0.103 A 
HETATM    9  C13 UNL     1       9.785  11.825  -2.423  1.00  0.00     0.287 A 
HETATM   10  O8  UNL     1       9.023  12.382  -1.562  1.00  0.00    -0.265 OA
ENDROOT
BRANCH   1  11
HETATM   11  N2  UNL     1       7.920  11.318  -3.859  1.00  0.00    -0.194 N 
ATOM     12  H2  UNL     1       7.565  12.166  -4.301  1.00  0.00     0.216 HD
BRANCH  11  13
HETATM   13  O4  UNL     1       7.074  10.437  -3.600  1.00  0.00    -0.262 OA
BRANCH  13  14
HETATM   14  C2  UNL     1       6.713   9.385  -4.355  1.00  0.00     0.230 C 
BRANCH  14  15
HETATM   15  C1  UNL     1       5.823   9.952  -5.494  1.00  0.00     0.220 C 
BRANCH  15  16
HETATM   16  O3  UNL     1       6.626  10.335  -6.566  1.00  0.00    -0.258 OA
BRANCH  16  17
HETATM   17  S1  UNL     1       6.564  11.959  -6.904  1.00  0.00     0.355 S 
HETATM   18  O1  UNL     1       5.891  12.774  -5.846  1.00  0.00    -0.176 OA
HETATM   19  O2  UNL     1       5.845  12.251  -8.213  1.00  0.00    -0.176 OA
BRANCH  17  20
HETATM   20  N1  UNL     1       8.185  12.532  -7.069  1.00  0.00    -0.306 N 
ATOM     21  H12 UNL     1       8.495  13.483  -6.874  1.00  0.00     0.171 HD
ATOM     22  H11 UNL     1       8.762  11.756  -7.393  1.00  0.00     0.171 HD
ENDBRANCH  17  20
ENDBRANCH  16  17
ENDBRANCH  15  16
ENDBRANCH  14  15
ENDBRANCH  13  14
ENDBRANCH  11  13
ENDBRANCH   1  11
BRANCH   8  23
HETATM   23  C6  UNL     1      11.665  12.294  -0.998  1.00  0.00     0.034 C 
BRANCH  23  24
HETATM   24  C7  UNL     1      11.974  11.575   0.209  1.00  0.00    -0.035 A 
HETATM   25  C8  UNL     1      10.996  11.075   1.066  1.00  0.00     0.014 A 
HETATM   26  C9  UNL     1      11.406  10.402   2.186  1.00  0.00     0.037 A 
HETATM   27  C10 UNL     1      12.732  10.175   2.542  1.00  0.00     0.065 A 
HETATM   28  C11 UNL     1      13.674  10.684   1.674  1.00  0.00     0.037 A 
HETATM   29  C12 UNL     1      13.330  11.365   0.536  1.00  0.00     0.014 A 
BRANCH  27  30
HETATM   30  O7  UNL     1      13.042   9.477   3.709  1.00  0.00    -0.361 OA
ATOM     31  H7  UNL     1      12.756   9.801   4.555  1.00  0.00     0.217 HD
ENDBRANCH  27  30
ENDBRANCH  23  24
ENDBRANCH   8  23
TORSDOF 10
ENDMDL
MODEL 4
REMARK VINA RESULT: -7.991015756      1.604      1.752
REMARK  10 active torsions:
REMARK  status: ('A' for Active; 'I' for Inactive)
REMARK    1  A    between atoms: N1_1  and  S1_4 
REMARK    2  A    between atoms: S1_4  and  O3_7 
REMARK    3  A    between atoms: O3_7  and  C1_8 
REMARK    4  A    between atoms: C1_8  and  C2_9 
REMARK    5  A    between atoms: C2_9  and  O4_10 
REMARK    6  A    between atoms: O4_10  and  N2_11 
REMARK    7  A    between atoms: N2_11  and  N3_13 
REMARK    8  A    between atoms: C5_20  and  C6_21 
REMARK    9  A    between atoms: C6_21  and  C7_22 
REMARK   10  A    between atoms: C10_25  and  O7_26 
ROOT
HETATM    1  N3  UNL     1      11.262  10.935  -2.293  1.00  0.00    -0.147 N 
HETATM    2  C3  UNL     1      12.108  10.674  -3.431  1.00  0.00     0.353 A 
HETATM    3  O5  UNL     1      13.306  10.390  -3.133  1.00  0.00    -0.244 OA
HETATM    4  N4  UNL     1      11.656  10.727  -4.757  1.00  0.00    -0.273 N 
ATOM      5  H4  UNL     1      12.309  10.530  -5.515  1.00  0.00     0.173 HD
HETATM    6  C4  UNL     1      10.278  11.057  -5.072  1.00  0.00     0.265 A 
HETATM    7  O6  UNL     1       9.953  11.091  -6.261  1.00  0.00    -0.267 OA
HETATM    8  C5  UNL     1       9.395  11.325  -3.968  1.00  0.00     0.103 A 
HETATM    9  C13 UNL     1       9.909  11.258  -2.571  1.00  0.00     0.287 A 
HETATM   10  O8  UNL     1       9.086  11.506  -1.626  1.00  0.00    -0.265 OA
ENDROOT
BRANCH   1  11
HETATM   11  N2  UNL     1      11.712  10.915  -1.014  1.00  0.00    -0.194 N 
ATOM     12  H2  UNL     1      11.579  10.041  -0.505  1.00  0.00     0.216 HD
BRANCH  11  13
HETATM   13  O4  UNL     1      12.270  11.838  -0.385  1.00  0.00    -0.262 OA
BRANCH  13  14
HETATM   14  C2  UNL     1      13.517  11.865   0.119  1.00  0.00     0.230 C 
BRANCH  14  15
HETATM   15  C1  UNL     1      13.527  10.864   1.306  1.00  0.00     0.220 C 
BRANCH  15  16
HETATM   16  O3  UNL     1      12.234  10.719   1.805  1.00  0.00    -0.258 OA
BRANCH  16  17
HETATM   17  S1  UNL     1      12.141   9.768   3.161  1.00  0.00     0.355 S 
HETATM   18  O1  UNL     1      11.882  10.531   4.422  1.00  0.00    -0.176 OA
HETATM   19  O2  UNL     1      13.408   8.956   3.388  1.00  0.00    -0.176 OA
BRANCH  17  20
HETATM   20  N1  UNL     1      10.846   8.647   2.940  1.00  0.00    -0.306 N 
ATOM     21  H12 UNL     1       9.858   8.893   2.885  1.00  0.00     0.171 HD
ATOM     22  H11 UNL     1      11.246   7.711   2.876  1.00  0.00     0.171 HD
ENDBRANCH  17  20
ENDBRANCH  16  17
ENDBRANCH  15  16
ENDBRANCH  14  15
ENDBRANCH  13  14
ENDBRANCH  11  13
ENDBRANCH   1  11
BRANCH   8  23
HETATM   23  C6  UNL     1       8.133  11.621  -4.153  1.00  0.00     0.034 C 
BRANCH  23  24
HETATM   24  C7  UNL     1       7.115  10.721  -4.622  1.00  0.00    -0.035 A 
HETATM   25  C8  UNL     1       6.130  11.097  -5.534  1.00  0.00     0.014 A 
HETATM   26  C9  UNL     1       5.212  10.154  -5.913  1.00  0.00     0.037 A 
HETATM   27  C10 UNL     1       5.180   8.839  -5.457  1.00  0.00     0.065 A 
HETATM   28  C11 UNL     1       6.167   8.501  -4.555  1.00  0.00     0.037 A 
HETATM   29  C12 UNL     1       7.116   9.396  -4.137  1.00  0.00     0.014 A 
BRANCH  27  30
HETATM   30  O7  UNL     1       4.199   7.957  -5.907  1.00  0.00    -0.361 OA
ATOM     31  H7  UNL     1       3.290   8.080  -5.658  1.00  0.00     0.217 HD
ENDBRANCH  27  30
ENDBRANCH  23  24
ENDBRANCH   8  23
TORSDOF 10
ENDMDL
MODEL 5
REMARK VINA RESULT: -7.903872200      3.259      7.063
REMARK  10 active torsions:
REMARK  status: ('A' for Active; 'I' for Inactive)
REMARK    1  A    between atoms: N1_1  and  S1_4 
REMARK    2  A    between atoms: S1_4  and  O3_7 
REMARK    3  A    between atoms: O3_7  and  C1_8 
REMARK    4  A    between atoms: C1_8  and  C2_9 
REMARK    5  A    between atoms: C2_9  and  O4_10 
REMARK    6  A    between atoms: O4_10  and  N2_11 
REMARK    7  A    between atoms: N2_11  and  N3_13 
REMARK    8  A    between atoms: C5_20  and  C6_21 
REMARK    9  A    between atoms: C6_21  and  C7_22 
REMARK   10  A    between atoms: C10_25  and  O7_26 
ROOT
HETATM    1  N3  UNL     1      10.617  11.981  -2.551  1.00  0.00    -0.147 N 
HETATM    2  C3  UNL     1      10.495  10.889  -3.484  1.00  0.00     0.353 A 
HETATM    3  O5  UNL     1       9.323  10.422  -3.587  1.00  0.00    -0.244 OA
HETATM    4  N4  UNL     1      11.574  10.380  -4.220  1.00  0.00    -0.273 N 
ATOM      5  H4  UNL     1      11.417   9.605  -4.865  1.00  0.00     0.173 HD
HETATM    6  C4  UNL     1      12.910  10.931  -4.083  1.00  0.00     0.265 A 
HETATM    7  O6  UNL     1      13.812  10.430  -4.758  1.00  0.00    -0.267 OA
HETATM    8  C5  UNL     1      13.080  12.025  -3.163  1.00  0.00     0.103 A 
HETATM    9  C13 UNL     1      11.911  12.542  -2.397  1.00  0.00     0.287 A 
HETATM   10  O8  UNL     1      12.115  13.513  -1.592  1.00  0.00    -0.265 OA
ENDROOT
BRANCH   1  11
HETATM   11  N2  UNL     1       9.577  12.448  -1.816  1.00  0.00    -0.194 N 
ATOM     12  H2  UNL     1       8.823  12.894  -2.339  1.00  0.00     0.216 HD
BRANCH  11  13
HETATM   13  O4  UNL     1       9.432  12.398  -0.577  1.00  0.00    -0.262 OA
BRANCH  13  14
HETATM   14  C2  UNL     1       9.457  11.315   0.219  1.00  0.00     0.230 C 
BRANCH  14  15
HETATM   15  C1  UNL     1      10.881  11.262   0.837  1.00  0.00     0.220 C 
BRANCH  15  16
HETATM   16  O3  UNL     1      10.784  11.163   2.223  1.00  0.00    -0.258 OA
BRANCH  16  17
HETATM   17  S1  UNL     1      11.827  10.059   2.891  1.00  0.00     0.355 S 
HETATM   18  O1  UNL     1      12.339  10.447   4.241  1.00  0.00    -0.176 OA
HETATM   19  O2  UNL     1      13.043   9.806   2.011  1.00  0.00    -0.176 OA
BRANCH  17  20
HETATM   20  N1  UNL     1      10.987   8.558   3.050  1.00  0.00    -0.306 N 
ATOM     21  H12 UNL     1      10.965   7.982   3.891  1.00  0.00     0.171 HD
ATOM     22  H11 UNL     1      10.527   8.359   2.161  1.00  0.00     0.171 HD
ENDBRANCH  17  20
ENDBRANCH  16  17
ENDBRANCH  15  16
ENDBRANCH  14  15
ENDBRANCH  13  14
ENDBRANCH  11  13
ENDBRANCH   1  11
BRANCH   8  23
HETATM   23  C6  UNL     1      14.245  12.594  -2.979  1.00  0.00     0.034 C 
BRANCH  23  24
HETATM   24  C7  UNL     1      15.122  12.377  -1.861  1.00  0.00    -0.035 A 
HETATM   25  C8  UNL     1      15.202  11.162  -1.183  1.00  0.00     0.014 A 
HETATM   26  C9  UNL     1      16.077  11.068  -0.132  1.00  0.00     0.037 A 
HETATM   27  C10 UNL     1      16.899  12.097   0.318  1.00  0.00     0.065 A 
HETATM   28  C11 UNL     1      16.794  13.285  -0.374  1.00  0.00     0.037 A 
HETATM   29  C12 UNL     1      15.941  13.444  -1.434  1.00  0.00     0.014 A 
BRANCH  27  30
HETATM   30  O7  UNL     1      17.755  11.896   1.400  1.00  0.00    -0.361 OA
ATOM     31  H7  UNL     1      17.994  12.621   1.967  1.00  0.00     0.217 HD
ENDBRANCH  27  30
ENDBRANCH  23  24
ENDBRANCH   8  23
TORSDOF 10
ENDMDL
