MODEL 1
REMARK VINA RESULT: -7.319346634      0.000      0.000
REMARK  4 active torsions:
REMARK  status: ('A' for Active; 'I' for Inactive)
REMARK    1  A    between atoms: C9_9  and  C10_10 
REMARK    2  A    between atoms: C10_10  and  N1_11 
REMARK       I    between atoms: N1_11  and  C11_13 
REMARK       I    between atoms: C11_13  and  N2_15 
REMARK    3  A    between atoms: N2_15  and  C12_17 
REMARK    4  A    between atoms: C12_17  and  N3_18 
ROOT
HETATM    1  C10 UNL     1      31.604 -10.154 -11.404  1.00  0.00     0.078 C 
ENDROOT
BRANCH   1   2
HETATM    2  C9  UNL     1      31.380 -10.412  -9.918  1.00  0.00     0.023 C 
HETATM    3  C8  UNL     1      32.731 -10.103  -9.307  1.00  0.00     0.018 C 
HETATM    4  C7  UNL     1      32.781 -10.068  -7.828  1.00  0.00     0.001 C 
HETATM    5  C6  UNL     1      32.938  -8.773  -7.142  1.00  0.00     0.000 C 
HETATM    6  C5  UNL     1      33.133  -7.606  -8.053  1.00  0.00     0.004 C 
HETATM    7  C4  UNL     1      31.832  -7.203  -8.689  1.00  0.00     0.027 C 
HETATM    8  C3  UNL     1      30.665  -7.850  -8.007  1.00  0.00    -0.024 C 
HETATM    9  C2  UNL     1      29.994  -8.920  -8.338  1.00  0.00    -0.080 C 
HETATM   10  C1  UNL     1      28.866  -9.291  -7.415  1.00  0.00     0.043 C 
HETATM   11  C20 UNL     1      30.186  -9.799  -9.486  1.00  0.00     0.053 C 
HETATM   12  C19 UNL     1      29.203 -10.978  -9.336  1.00  0.00     0.177 C 
HETATM   13  O2  UNL     1      29.775 -12.027 -10.011  1.00  0.00    -0.389 OA
HETATM   14  C18 UNL     1      31.139 -11.927  -9.831  1.00  0.00     0.183 C 
ENDBRANCH   1   2
BRANCH   1  15
HETATM   15  N1  UNL     1      31.019  -9.007 -11.949  1.00  0.00    -0.322 N 
HETATM   16  C11 UNL     1      31.876  -8.038 -12.565  1.00  0.00     0.321 C 
HETATM   17  O1  UNL     1      33.137  -8.202 -12.622  1.00  0.00    -0.247 OA
HETATM   18  N2  UNL     1      31.366  -6.847 -13.142  1.00  0.00    -0.317 N 
ATOM     19  H2  UNL     1      30.360  -6.681 -13.115  1.00  0.00     0.166 HD
ATOM     20  H1  UNL     1      30.010  -8.864 -11.910  1.00  0.00     0.169 HD
BRANCH  18  21
HETATM   21  C12 UNL     1      32.204  -5.873 -13.759  1.00  0.00     0.399 C 
BRANCH  21  22
HETATM   22  N3  UNL     1      31.941  -4.524 -13.295  1.00  0.00     0.109 N 
HETATM   23  C13 UNL     1      33.085  -3.691 -13.406  1.00  0.00     0.304 C 
HETATM   24  C14 UNL     1      33.836  -3.457 -12.147  1.00  0.00     0.302 C 
HETATM   25  N4  UNL     1      33.570  -4.590 -11.261  1.00  0.00     0.087 N 
HETATM   26  C15 UNL     1      34.480  -4.617 -10.144  1.00  0.00     0.310 C 
HETATM   27  C16 UNL     1      32.180  -4.415 -10.832  1.00  0.00     0.302 C 
HETATM   28  C17 UNL     1      31.312  -4.603 -12.024  1.00  0.00     0.304 C 
ENDBRANCH  21  22
ENDBRANCH  18  21
ENDBRANCH   1  15
TORSDOF 4
ENDMDL
MODEL 2
REMARK VINA RESULT: -7.249613737      4.429      7.357
REMARK  4 active torsions:
REMARK  status: ('A' for Active; 'I' for Inactive)
REMARK    1  A    between atoms: C9_9  and  C10_10 
REMARK    2  A    between atoms: C10_10  and  N1_11 
REMARK       I    between atoms: N1_11  and  C11_13 
REMARK       I    between atoms: C11_13  and  N2_15 
REMARK    3  A    between atoms: N2_15  and  C12_17 
REMARK    4  A    between atoms: C12_17  and  N3_18 
ROOT
HETATM    1  C10 UNL     1      30.141  -7.689  -4.374  1.00  0.00     0.078 C 
ENDROOT
BRANCH   1   2
HETATM    2  C9  UNL     1      28.722  -7.167  -4.566  1.00  0.00     0.023 C 
HETATM    3  C8  UNL     1      27.924  -8.426  -4.835  1.00  0.00     0.018 C 
HETATM    4  C7  UNL     1      26.453  -8.267  -4.866  1.00  0.00     0.001 C 
HETATM    5  C6  UNL     1      25.645  -8.810  -3.760  1.00  0.00     0.000 C 
HETATM    6  C5  UNL     1      26.423  -9.574  -2.739  1.00  0.00     0.004 C 
HETATM    7  C4  UNL     1      27.178  -8.640  -1.835  1.00  0.00     0.027 C 
HETATM    8  C3  UNL     1      26.703  -7.227  -1.988  1.00  0.00    -0.024 C 
HETATM    9  C2  UNL     1      27.204  -6.251  -2.695  1.00  0.00    -0.080 C 
HETATM   10  C1  UNL     1      26.462  -4.944  -2.617  1.00  0.00     0.043 C 
HETATM   11  C20 UNL     1      28.390  -6.253  -3.544  1.00  0.00     0.053 C 
HETATM   12  C19 UNL     1      28.464  -4.880  -4.242  1.00  0.00     0.177 C 
HETATM   13  O2  UNL     1      29.150  -5.094  -5.411  1.00  0.00    -0.389 OA
HETATM   14  C18 UNL     1      28.795  -6.347  -5.864  1.00  0.00     0.183 C 
ENDBRANCH   1   2
BRANCH   1  15
HETATM   15  N1  UNL     1      31.010  -7.594  -5.466  1.00  0.00    -0.322 N 
HETATM   16  C11 UNL     1      31.462  -8.807  -6.079  1.00  0.00     0.321 C 
HETATM   17  O1  UNL     1      31.092  -9.949  -5.653  1.00  0.00    -0.247 OA
HETATM   18  N2  UNL     1      32.344  -8.803  -7.190  1.00  0.00    -0.317 N 
ATOM     19  H2  UNL     1      32.662  -7.906  -7.558  1.00  0.00     0.166 HD
ATOM     20  H1  UNL     1      31.314  -6.686  -5.816  1.00  0.00     0.169 HD
BRANCH  18  21
HETATM   21  C12 UNL     1      32.802 -10.000  -7.812  1.00  0.00     0.399 C 
BRANCH  21  22
HETATM   22  N3  UNL     1      32.634  -9.991  -9.252  1.00  0.00     0.109 N 
HETATM   23  C13 UNL     1      31.763  -8.955  -9.680  1.00  0.00     0.304 C 
HETATM   24  C14 UNL     1      30.377  -9.374 -10.009  1.00  0.00     0.302 C 
HETATM   25  N4  UNL     1      30.099 -10.597  -9.257  1.00  0.00     0.087 N 
HETATM   26  C15 UNL     1      28.694 -10.917  -9.263  1.00  0.00     0.310 C 
HETATM   27  C16 UNL     1      30.900 -11.633  -9.912  1.00  0.00     0.302 C 
HETATM   28  C17 UNL     1      32.333 -11.313  -9.675  1.00  0.00     0.304 C 
ENDBRANCH  21  22
ENDBRANCH  18  21
ENDBRANCH   1  15
TORSDOF 4
ENDMDL
MODEL 3
REMARK VINA RESULT: -7.121780906      2.564      4.127
REMARK  4 active torsions:
REMARK  status: ('A' for Active; 'I' for Inactive)
REMARK    1  A    between atoms: C9_9  and  C10_10 
REMARK    2  A    between atoms: C10_10  and  N1_11 
REMARK       I    between atoms: N1_11  and  C11_13 
REMARK       I    between atoms: C11_13  and  N2_15 
REMARK    3  A    between atoms: N2_15  and  C12_17 
REMARK    4  A    between atoms: C12_17  and  N3_18 
ROOT
HETATM    1  C10 UNL     1      33.262  -8.386  -9.519  1.00  0.00     0.078 C 
ENDROOT
BRANCH   1   2
HETATM    2  C9  UNL     1      32.239  -9.114  -8.655  1.00  0.00     0.023 C 
HETATM    3  C8  UNL     1      31.998  -8.147  -7.515  1.00  0.00     0.018 C 
HETATM    4  C7  UNL     1      30.887  -8.489  -6.598  1.00  0.00     0.001 C 
HETATM    5  C6  UNL     1      29.650  -7.688  -6.634  1.00  0.00     0.000 C 
HETATM    6  C5  UNL     1      29.694  -6.517  -7.560  1.00  0.00     0.004 C 
HETATM    7  C4  UNL     1      29.545  -6.960  -8.988  1.00  0.00     0.027 C 
HETATM    8  C3  UNL     1      29.075  -8.380  -9.075  1.00  0.00    -0.024 C 
HETATM    9  C2  UNL     1      29.761  -9.475  -9.263  1.00  0.00    -0.080 C 
HETATM   10  C1  UNL     1      28.957 -10.747  -9.296  1.00  0.00     0.043 C 
HETATM   11  C20 UNL     1      31.198  -9.631  -9.454  1.00  0.00     0.053 C 
HETATM   12  C19 UNL     1      31.497 -11.143  -9.512  1.00  0.00     0.177 C 
HETATM   13  O2  UNL     1      32.795 -11.282  -9.088  1.00  0.00    -0.389 OA
HETATM   14  C18 UNL     1      33.004 -10.331  -8.111  1.00  0.00     0.183 C 
ENDBRANCH   1   2
BRANCH   1  15
HETATM   15  N1  UNL     1      32.787  -7.738 -10.664  1.00  0.00    -0.322 N 
HETATM   16  C11 UNL     1      32.915  -8.409 -11.923  1.00  0.00     0.321 C 
HETATM   17  O1  UNL     1      33.446  -9.563 -12.014  1.00  0.00    -0.247 OA
HETATM   18  N2  UNL     1      32.460  -7.824 -13.133  1.00  0.00    -0.317 N 
ATOM     19  H2  UNL     1      32.030  -6.900 -13.099  1.00  0.00     0.166 HD
ATOM     20  H1  UNL     1      32.360  -6.814 -10.604  1.00  0.00     0.169 HD
BRANCH  18  21
HETATM   21  C12 UNL     1      32.580  -8.478 -14.394  1.00  0.00     0.399 C 
BRANCH  21  22
HETATM   22  N3  UNL     1      31.312  -8.965 -14.902  1.00  0.00     0.109 N 
HETATM   23  C13 UNL     1      31.474  -9.739 -16.081  1.00  0.00     0.304 C 
HETATM   24  C14 UNL     1      31.164  -9.044 -17.356  1.00  0.00     0.302 C 
HETATM   25  N4  UNL     1      31.349  -7.611 -17.129  1.00  0.00     0.087 N 
HETATM   26  C15 UNL     1      31.372  -6.875 -18.369  1.00  0.00     0.310 C 
HETATM   27  C16 UNL     1      30.224  -7.215 -16.278  1.00  0.00     0.302 C 
HETATM   28  C17 UNL     1      30.404  -7.874 -14.957  1.00  0.00     0.304 C 
ENDBRANCH  21  22
ENDBRANCH  18  21
ENDBRANCH   1  15
TORSDOF 4
ENDMDL
MODEL 4
REMARK VINA RESULT: -7.081099687      3.261      7.193
REMARK  4 active torsions:
REMARK  status: ('A' for Active; 'I' for Inactive)
REMARK    1  A    between atoms: C9_9  and  C10_10 
REMARK    2  A    between atoms: C10_10  and  N1_11 
REMARK       I    between atoms: N1_11  and  C11_13 
REMARK       I    between atoms: C11_13  and  N2_15 
REMARK    3  A    between atoms: N2_15  and  C12_17 
REMARK    4  A    between atoms: C12_17  and  N3_18 
ROOT
HETATM    1  C10 UNL     1      31.010  -9.111 -11.275  1.00  0.00     0.078 C 
ENDROOT
BRANCH   1   2
HETATM    2  C9  UNL     1      32.120  -8.353 -11.996  1.00  0.00     0.023 C 
HETATM    3  C8  UNL     1      32.457  -9.260 -13.161  1.00  0.00     0.018 C 
HETATM    4  C7  UNL     1      33.376  -8.697 -14.175  1.00  0.00     0.001 C 
HETATM    5  C6  UNL     1      32.850  -8.327 -15.501  1.00  0.00     0.000 C 
HETATM    6  C5  UNL     1      31.410  -8.662 -15.713  1.00  0.00     0.004 C 
HETATM    7  C4  UNL     1      30.522  -7.683 -14.997  1.00  0.00     0.027 C 
HETATM    8  C3  UNL     1      31.289  -6.477 -14.548  1.00  0.00    -0.024 C 
HETATM    9  C2  UNL     1      31.801  -6.202 -13.379  1.00  0.00    -0.080 C 
HETATM   10  C1  UNL     1      32.516  -4.882 -13.277  1.00  0.00     0.043 C 
HETATM   11  C20 UNL     1      31.766  -6.998 -12.157  1.00  0.00     0.053 C 
HETATM   12  C19 UNL     1      32.624  -6.267 -11.104  1.00  0.00     0.177 C 
HETATM   13  O2  UNL     1      33.070  -7.242 -10.247  1.00  0.00    -0.389 OA
HETATM   14  C18 UNL     1      33.294  -8.373 -11.004  1.00  0.00     0.183 C 
ENDBRANCH   1   2
BRANCH   1  15
HETATM   15  N1  UNL     1      30.269  -8.406 -10.321  1.00  0.00    -0.322 N 
HETATM   16  C11 UNL     1      30.040  -9.024  -9.050  1.00  0.00     0.321 C 
HETATM   17  O1  UNL     1      30.491 -10.184  -8.780  1.00  0.00    -0.247 OA
HETATM   18  N2  UNL     1      29.299  -8.380  -8.026  1.00  0.00    -0.317 N 
ATOM     19  H2  UNL     1      28.921  -7.450  -8.206  1.00  0.00     0.166 HD
ATOM     20  H1  UNL     1      29.902  -7.476 -10.525  1.00  0.00     0.169 HD
BRANCH  18  21
HETATM   21  C12 UNL     1      29.061  -8.981  -6.756  1.00  0.00     0.399 C 
BRANCH  21  22
HETATM   22  N3  UNL     1      29.481  -8.146  -5.647  1.00  0.00     0.109 N 
HETATM   23  C13 UNL     1      29.952  -8.914  -4.551  1.00  0.00     0.304 C 
HETATM   24  C14 UNL     1      28.997  -9.086  -3.426  1.00  0.00     0.302 C 
HETATM   25  N4  UNL     1      27.648  -8.938  -3.971  1.00  0.00     0.087 N 
HETATM   26  C15 UNL     1      26.646  -9.385  -3.037  1.00  0.00     0.310 C 
HETATM   27  C16 UNL     1      27.518  -7.511  -4.275  1.00  0.00     0.302 C 
HETATM   28  C17 UNL     1      28.455  -7.199  -5.387  1.00  0.00     0.304 C 
ENDBRANCH  21  22
ENDBRANCH  18  21
ENDBRANCH   1  15
TORSDOF 4
ENDMDL
MODEL 5
REMARK VINA RESULT: -7.001252411      3.208      5.530
REMARK  4 active torsions:
REMARK  status: ('A' for Active; 'I' for Inactive)
REMARK    1  A    between atoms: C9_9  and  C10_10 
REMARK    2  A    between atoms: C10_10  and  N1_11 
REMARK       I    between atoms: N1_11  and  C11_13 
REMARK       I    between atoms: C11_13  and  N2_15 
REMARK    3  A    between atoms: N2_15  and  C12_17 
REMARK    4  A    between atoms: C12_17  and  N3_18 
ROOT
HETATM    1  C10 UNL     1      29.059  -8.859  -7.041  1.00  0.00     0.078 C 
ENDROOT
BRANCH   1   2
HETATM    2  C9  UNL     1      29.376  -8.011  -5.815  1.00  0.00     0.023 C 
HETATM    3  C8  UNL     1      28.127  -7.172  -5.642  1.00  0.00     0.018 C 
HETATM    4  C7  UNL     1      28.048  -6.376  -4.397  1.00  0.00     0.001 C 
HETATM    5  C6  UNL     1      27.098  -6.777  -3.343  1.00  0.00     0.000 C 
HETATM    6  C5  UNL     1      26.221  -7.931  -3.703  1.00  0.00     0.004 C 
HETATM    7  C4  UNL     1      26.982  -9.225  -3.623  1.00  0.00     0.027 C 
HETATM    8  C3  UNL     1      28.286  -9.050  -2.907  1.00  0.00    -0.024 C 
HETATM    9  C2  UNL     1      29.486  -8.878  -3.390  1.00  0.00    -0.080 C 
HETATM   10  C1  UNL     1      30.583  -8.735  -2.370  1.00  0.00     0.043 C 
HETATM   11  C20 UNL     1      29.909  -8.813  -4.785  1.00  0.00     0.053 C 
HETATM   12  C19 UNL     1      31.414  -8.477  -4.798  1.00  0.00     0.177 C 
HETATM   13  O2  UNL     1      31.643  -7.846  -5.995  1.00  0.00    -0.389 OA
HETATM   14  C18 UNL     1      30.521  -7.095  -6.276  1.00  0.00     0.183 C 
ENDBRANCH   1   2
BRANCH   1  15
HETATM   15  N1  UNL     1      29.368  -8.314  -8.292  1.00  0.00    -0.322 N 
HETATM   16  C11 UNL     1      30.228  -9.060  -9.161  1.00  0.00     0.321 C 
HETATM   17  O1  UNL     1      30.708 -10.189  -8.819  1.00  0.00    -0.247 OA
HETATM   18  N2  UNL     1      30.592  -8.582 -10.446  1.00  0.00    -0.317 N 
ATOM     19  H2  UNL     1      30.227  -7.681 -10.755  1.00  0.00     0.166 HD
ATOM     20  H1  UNL     1      28.990  -7.411  -8.578  1.00  0.00     0.169 HD
BRANCH  18  21
HETATM   21  C12 UNL     1      31.446  -9.311 -11.324  1.00  0.00     0.399 C 
BRANCH  21  22
HETATM   22  N3  UNL     1      32.517  -8.502 -11.873  1.00  0.00     0.109 N 
HETATM   23  C13 UNL     1      32.149  -7.136 -11.986  1.00  0.00     0.304 C 
HETATM   24  C14 UNL     1      31.764  -6.682 -13.346  1.00  0.00     0.302 C 
HETATM   25  N4  UNL     1      31.293  -7.855 -14.082  1.00  0.00     0.087 N 
HETATM   26  C15 UNL     1      30.614  -7.482 -15.298  1.00  0.00     0.310 C 
HETATM   27  C16 UNL     1      32.499  -8.643 -14.347  1.00  0.00     0.302 C 
HETATM   28  C17 UNL     1      33.007  -9.145 -13.042  1.00  0.00     0.304 C 
ENDBRANCH  21  22
ENDBRANCH  18  21
ENDBRANCH   1  15
TORSDOF 4
ENDMDL
