MODEL 1
REMARK VINA RESULT: -4.928265319      0.000      0.000
REMARK  4 active torsions:
REMARK  status: ('A' for Active; 'I' for Inactive)
REMARK    1  A    between atoms: C2_2  and  C3_3 
REMARK    2  A    between atoms: C2_2  and  N1_6 
REMARK    3  A    between atoms: C8_11  and  N3_12 
REMARK    4  A    between atoms: N5_18  and  C10_19 
ROOT
HETATM    1  N1  UNL     1      -4.925   2.477   1.048  1.00  0.00    -0.322 N 
HETATM    2  C6  UNL     1      -3.598   2.049   0.944  1.00  0.00     0.185 A 
HETATM    3  N2  UNL     1      -2.878   2.646   1.891  1.00  0.00    -0.346 N 
ATOM      4  H2  UNL     1      -1.878   2.514   2.044  1.00  0.00     0.167 HD
HETATM    5  C7  UNL     1      -3.674   3.450   2.614  1.00  0.00     0.122 A 
HETATM    6  C8  UNL     1      -3.480   4.277   3.679  1.00  0.00     0.131 A 
HETATM    7  N4  UNL     1      -4.483   4.972   4.212  1.00  0.00    -0.337 N 
ATOM      8  H4  UNL     1      -4.342   5.592   5.009  1.00  0.00     0.168 HD
HETATM    9  C9  UNL     1      -5.691   4.816   3.644  1.00  0.00     0.188 A 
HETATM   10  N5  UNL     1      -6.002   4.028   2.591  1.00  0.00    -0.304 N 
HETATM   11  C13 UNL     1      -4.954   3.316   2.051  1.00  0.00     0.144 A 
ENDROOT
BRANCH   1  12
HETATM   12  C2  UNL     1      -5.817   1.940   0.137  1.00  0.00     0.092 C 
HETATM   13  C1  UNL     1      -4.945   1.767  -1.176  1.00  0.00     0.033 C 
BRANCH  12  14
HETATM   14  C3  UNL     1      -6.044   0.412   0.460  1.00  0.00     0.009 A 
HETATM   15  C4  UNL     1      -7.390  -0.128   0.441  1.00  0.00     0.007 A 
HETATM   16  C5  UNL     1      -6.419  -0.464  -0.708  1.00  0.00     0.007 A 
ENDBRANCH  12  14
ENDBRANCH   1  12
BRANCH  10  17
HETATM   17  C10 UNL     1      -7.286   3.887   2.027  1.00  0.00     0.109 C 
HETATM   18  C11 UNL     1      -8.050   5.080   2.704  1.00  0.00     0.056 C 
HETATM   19  C12 UNL     1      -8.183   2.799   2.519  1.00  0.00     0.056 C 
HETATM   20 CL1  UNL     1      -7.601   4.553   0.414  1.00  0.00    -0.096 Cl
ENDBRANCH  10  17
BRANCH   6  21
HETATM   21  N3  UNL     1      -2.263   4.333   4.126  1.00  0.00    -0.383 N 
ATOM     22  H32 UNL     1      -1.670   5.155   4.023  1.00  0.00     0.157 HD
ATOM     23  H31 UNL     1      -1.930   3.491   4.596  1.00  0.00     0.157 HD
ENDBRANCH   6  21
TORSDOF 4
ENDMDL
MODEL 2
REMARK VINA RESULT: -4.760624805      2.042      3.727
REMARK  4 active torsions:
REMARK  status: ('A' for Active; 'I' for Inactive)
REMARK    1  A    between atoms: C2_2  and  C3_3 
REMARK    2  A    between atoms: C2_2  and  N1_6 
REMARK    3  A    between atoms: C8_11  and  N3_12 
REMARK    4  A    between atoms: N5_18  and  C10_19 
ROOT
HETATM    1  N1  UNL     1      -6.649   3.019   2.259  1.00  0.00    -0.322 N 
HETATM    2  C6  UNL     1      -7.909   3.578   2.020  1.00  0.00     0.185 A 
HETATM    3  N2  UNL     1      -7.852   4.885   2.260  1.00  0.00    -0.346 N 
ATOM      4  H2  UNL     1      -8.631   5.537   2.165  1.00  0.00     0.167 HD
HETATM    5  C7  UNL     1      -6.609   5.213   2.648  1.00  0.00     0.122 A 
HETATM    6  C8  UNL     1      -5.998   6.375   3.009  1.00  0.00     0.131 A 
HETATM    7  N4  UNL     1      -4.712   6.407   3.353  1.00  0.00    -0.337 N 
ATOM      8  H4  UNL     1      -4.251   7.276   3.623  1.00  0.00     0.168 HD
HETATM    9  C9  UNL     1      -4.053   5.236   3.327  1.00  0.00     0.188 A 
HETATM   10  N5  UNL     1      -4.552   4.027   2.989  1.00  0.00    -0.304 N 
HETATM   11  C13 UNL     1      -5.883   4.010   2.635  1.00  0.00     0.144 A 
ENDROOT
BRANCH   1  12
HETATM   12  C2  UNL     1      -6.530   1.657   2.045  1.00  0.00     0.092 C 
HETATM   13  C1  UNL     1      -7.920   1.082   2.544  1.00  0.00     0.033 C 
BRANCH  12  14
HETATM   14  C3  UNL     1      -6.698   1.350   0.506  1.00  0.00     0.009 A 
HETATM   15  C4  UNL     1      -5.771   0.445  -0.145  1.00  0.00     0.007 A 
HETATM   16  C5  UNL     1      -7.207  -0.026   0.157  1.00  0.00     0.007 A 
ENDBRANCH  12  14
ENDBRANCH   1  12
BRANCH  10  17
HETATM   17  C10 UNL     1      -3.826   2.820   2.970  1.00  0.00     0.109 C 
HETATM   18  C11 UNL     1      -2.498   3.250   3.691  1.00  0.00     0.056 C 
HETATM   19  C12 UNL     1      -3.195   2.367   1.692  1.00  0.00     0.056 C 
HETATM   20 CL1  UNL     1      -4.147   1.595   4.212  1.00  0.00    -0.096 Cl
ENDBRANCH  10  17
BRANCH   6  21
HETATM   21  N3  UNL     1      -6.753   7.430   2.990  1.00  0.00    -0.383 N 
ATOM     22  H32 UNL     1      -7.695   7.433   2.601  1.00  0.00     0.157 HD
ATOM     23  H31 UNL     1      -6.340   8.271   3.394  1.00  0.00     0.157 HD
ENDBRANCH   6  21
TORSDOF 4
ENDMDL
MODEL 3
REMARK VINA RESULT: -4.691372422      9.919     12.472
REMARK  4 active torsions:
REMARK  status: ('A' for Active; 'I' for Inactive)
REMARK    1  A    between atoms: C2_2  and  C3_3 
REMARK    2  A    between atoms: C2_2  and  N1_6 
REMARK    3  A    between atoms: C8_11  and  N3_12 
REMARK    4  A    between atoms: N5_18  and  C10_19 
ROOT
HETATM    1  N1  UNL     1       0.523   0.451  -7.162  1.00  0.00    -0.322 N 
HETATM    2  C6  UNL     1       0.706   1.801  -6.842  1.00  0.00     0.185 A 
HETATM    3  N2  UNL     1       0.517   2.532  -7.937  1.00  0.00    -0.346 N 
ATOM      4  H2  UNL     1       0.588   3.548  -7.988  1.00  0.00     0.167 HD
HETATM    5  C7  UNL     1       0.219   1.723  -8.966  1.00  0.00     0.122 A 
HETATM    6  C8  UNL     1      -0.066   1.921 -10.284  1.00  0.00     0.131 A 
HETATM    7  N4  UNL     1      -0.336   0.902 -11.097  1.00  0.00    -0.337 N 
ATOM      8  H4  UNL     1      -0.551   1.046 -12.084  1.00  0.00     0.168 HD
HETATM    9  C9  UNL     1      -0.312  -0.326 -10.552  1.00  0.00     0.188 A 
HETATM   10  N5  UNL     1      -0.044  -0.643  -9.266  1.00  0.00    -0.304 N 
HETATM   11  C13 UNL     1       0.234   0.422  -8.437  1.00  0.00     0.144 A 
ENDROOT
BRANCH   1  12
HETATM   12  C2  UNL     1       0.674  -0.452  -6.125  1.00  0.00     0.092 C 
HETATM   13  C1  UNL     1       1.317   0.418  -4.967  1.00  0.00     0.033 C 
BRANCH  12  14
HETATM   14  C3  UNL     1      -0.729  -0.721  -5.453  1.00  0.00     0.009 A 
HETATM   15  C4  UNL     1      -0.869  -1.813  -4.509  1.00  0.00     0.007 A 
HETATM   16  C5  UNL     1      -0.846  -0.360  -3.994  1.00  0.00     0.007 A 
ENDBRANCH  12  14
ENDBRANCH   1  12
BRANCH  10  17
HETATM   17  C10 UNL     1      -0.033  -1.946  -8.731  1.00  0.00     0.109 C 
HETATM   18  C11 UNL     1      -0.048  -2.814 -10.039  1.00  0.00     0.056 C 
HETATM   19  C12 UNL     1      -1.287  -2.501  -8.135  1.00  0.00     0.056 C 
HETATM   20 CL1  UNL     1       1.509  -2.663  -8.228  1.00  0.00    -0.096 Cl
ENDBRANCH  10  17
BRANCH   6  21
HETATM   21  N3  UNL     1      -0.054   3.157 -10.676  1.00  0.00    -0.383 N 
ATOM     22  H32 UNL     1      -0.817   3.807 -10.489  1.00  0.00     0.157 HD
ATOM     23  H31 UNL     1       0.777   3.446 -11.191  1.00  0.00     0.157 HD
ENDBRANCH   6  21
TORSDOF 4
ENDMDL
MODEL 4
REMARK VINA RESULT: -4.688699622      9.751     12.458
REMARK  4 active torsions:
REMARK  status: ('A' for Active; 'I' for Inactive)
REMARK    1  A    between atoms: C2_2  and  C3_3 
REMARK    2  A    between atoms: C2_2  and  N1_6 
REMARK    3  A    between atoms: C8_11  and  N3_12 
REMARK    4  A    between atoms: N5_18  and  C10_19 
ROOT
HETATM    1  N1  UNL     1      -0.543  -0.404  -7.098  1.00  0.00    -0.322 N 
HETATM    2  C6  UNL     1      -0.748  -1.731  -6.704  1.00  0.00     0.185 A 
HETATM    3  N2  UNL     1      -0.563  -2.524  -7.756  1.00  0.00    -0.346 N 
ATOM      4  H2  UNL     1      -0.649  -3.541  -7.751  1.00  0.00     0.167 HD
HETATM    5  C7  UNL     1      -0.247  -1.778  -8.827  1.00  0.00     0.122 A 
HETATM    6  C8  UNL     1       0.043  -2.053 -10.129  1.00  0.00     0.131 A 
HETATM    7  N4  UNL     1       0.333  -1.085 -10.996  1.00  0.00    -0.337 N 
ATOM      8  H4  UNL     1       0.551  -1.287 -11.972  1.00  0.00     0.168 HD
HETATM    9  C9  UNL     1       0.324   0.171 -10.520  1.00  0.00     0.188 A 
HETATM   10  N5  UNL     1       0.053   0.563  -9.255  1.00  0.00    -0.304 N 
HETATM   11  C13 UNL     1      -0.245  -0.450  -8.371  1.00  0.00     0.144 A 
ENDROOT
BRANCH   1  12
HETATM   12  C2  UNL     1      -0.686   0.558  -6.113  1.00  0.00     0.092 C 
HETATM   13  C1  UNL     1      -1.339  -0.240  -4.909  1.00  0.00     0.033 C 
BRANCH  12  14
HETATM   14  C3  UNL     1       0.719   0.851  -5.455  1.00  0.00     0.009 A 
HETATM   15  C4  UNL     1       0.841   1.921  -4.485  1.00  0.00     0.007 A 
HETATM   16  C5  UNL     1       0.868   0.456  -4.008  1.00  0.00     0.007 A 
ENDBRANCH  12  14
ENDBRANCH   1  12
BRANCH  10  17
HETATM   17  C10 UNL     1       0.059   1.894  -8.793  1.00  0.00     0.109 C 
HETATM   18  C11 UNL     1       0.130   2.687 -10.147  1.00  0.00     0.056 C 
HETATM   19  C12 UNL     1       1.308   2.453  -8.193  1.00  0.00     0.056 C 
HETATM   20 CL1  UNL     1      -1.479   2.672  -8.375  1.00  0.00    -0.096 Cl
ENDBRANCH  10  17
BRANCH   6  21
HETATM   21  N3  UNL     1       0.015  -3.309 -10.452  1.00  0.00    -0.383 N 
ATOM     22  H32 UNL     1      -0.126  -3.634 -11.408  1.00  0.00     0.157 HD
ATOM     23  H31 UNL     1       0.145  -3.963  -9.681  1.00  0.00     0.157 HD
ENDBRANCH   6  21
TORSDOF 4
ENDMDL
MODEL 5
REMARK VINA RESULT: -4.551985909      9.869     11.767
REMARK  4 active torsions:
REMARK  status: ('A' for Active; 'I' for Inactive)
REMARK    1  A    between atoms: C2_2  and  C3_3 
REMARK    2  A    between atoms: C2_2  and  N1_6 
REMARK    3  A    between atoms: C8_11  and  N3_12 
REMARK    4  A    between atoms: N5_18  and  C10_19 
ROOT
HETATM    1  N1  UNL     1      -0.184   1.078  -8.504  1.00  0.00    -0.322 N 
HETATM    2  C6  UNL     1       0.404   2.343  -8.392  1.00  0.00     0.185 A 
HETATM    3  N2  UNL     1       0.876   2.489  -7.156  1.00  0.00    -0.346 N 
ATOM      4  H2  UNL     1       1.354   3.317  -6.801  1.00  0.00     0.167 HD
HETATM    5  C7  UNL     1       0.624   1.376  -6.449  1.00  0.00     0.122 A 
HETATM    6  C8  UNL     1       0.877   0.981  -5.170  1.00  0.00     0.131 A 
HETATM    7  N4  UNL     1       0.505  -0.218  -4.726  1.00  0.00    -0.337 N 
ATOM      8  H4  UNL     1       0.693  -0.518  -3.769  1.00  0.00     0.168 HD
HETATM    9  C9  UNL     1      -0.131  -1.013  -5.603  1.00  0.00     0.188 A 
HETATM   10  N5  UNL     1      -0.436  -0.731  -6.889  1.00  0.00    -0.304 N 
HETATM   11  C13 UNL     1      -0.045   0.513  -7.333  1.00  0.00     0.144 A 
ENDROOT
BRANCH   1  12
HETATM   12  C2  UNL     1      -0.719   0.757  -9.739  1.00  0.00     0.092 C 
HETATM   13  C1  UNL     1      -1.038   2.170 -10.383  1.00  0.00     0.033 C 
BRANCH  12  14
HETATM   14  C3  UNL     1       0.439   0.319 -10.717  1.00  0.00     0.009 A 
HETATM   15  C4  UNL     1       0.561  -1.075 -11.098  1.00  0.00     0.007 A 
HETATM   16  C5  UNL     1       0.020  -0.053 -12.117  1.00  0.00     0.007 A 
ENDBRANCH  12  14
ENDBRANCH   1  12
BRANCH  10  17
HETATM   17  C10 UNL     1      -1.102  -1.596  -7.780  1.00  0.00     0.109 C 
HETATM   18  C11 UNL     1      -1.710  -2.649  -6.786  1.00  0.00     0.056 C 
HETATM   19  C12 UNL     1      -0.303  -2.561  -8.594  1.00  0.00     0.056 C 
HETATM   20 CL1  UNL     1      -2.718  -1.160  -8.365  1.00  0.00    -0.096 Cl
ENDBRANCH  10  17
BRANCH   6  21
HETATM   21  N3  UNL     1       1.498   1.848  -4.432  1.00  0.00    -0.383 N 
ATOM     22  H32 UNL     1       1.489   1.820  -3.413  1.00  0.00     0.157 HD
ATOM     23  H31 UNL     1       2.006   2.572  -4.940  1.00  0.00     0.157 HD
ENDBRANCH   6  21
TORSDOF 4
ENDMDL
