MODEL 1
REMARK VINA RESULT: -4.583031763      0.000      0.000
REMARK  2 active torsions:
REMARK  status: ('A' for Active; 'I' for Inactive)
REMARK       I    between atoms: N1_1  and  C1_4 
REMARK       I    between atoms: C1_4  and  N5_16 
REMARK       I    between atoms: N2_5  and  C2_7 
REMARK       I    between atoms: C2_7  and  N3_9 
REMARK    1  A    between atoms: N5_16  and  N6_18 
REMARK       I    between atoms: N6_18  and  C7_19 
REMARK    2  A    between atoms: C7_19  and  C8_21 
ROOT
HETATM    1  N1  UNL     1       0.648  -0.667  -3.217  1.00  0.00    -0.232 N 
ATOM      2  H11 UNL     1       1.098  -0.620  -2.303  1.00  0.00     0.174 HD
ATOM      3  H12 UNL     1       0.804  -1.512  -3.767  1.00  0.00     0.174 HD
HETATM    4  C1  UNL     1      -0.263   0.254  -3.673  1.00  0.00     0.705 C 
HETATM    5  N2  UNL     1      -0.827   0.195  -4.819  1.00  0.00    -0.140 N 
ATOM      6  H2  UNL     1      -1.503   0.904  -5.104  1.00  0.00     0.189 HD
HETATM    7  C2  UNL     1      -0.495  -0.873  -5.682  1.00  0.00     0.336 C 
HETATM    8  O1  UNL     1      -0.206  -1.986  -5.232  1.00  0.00    -0.246 OA
HETATM    9  N3  UNL     1      -0.478  -0.666  -7.072  1.00  0.00    -0.331 N 
HETATM   10  C3  UNL     1       0.105  -1.653  -7.963  1.00  0.00     0.143 C 
HETATM   11  C4  UNL     1       0.383  -1.205  -9.331  1.00  0.00     0.123 C 
HETATM   12  N4  UNL     1      -0.449  -0.103  -9.795  1.00  0.00    -0.247 NA
HETATM   13 BR1  UNL     1       0.049   0.386 -11.509  1.00  0.00     0.012 Br
HETATM   14  C5  UNL     1      -0.325   0.991  -8.802  1.00  0.00     0.123 C 
HETATM   15  C6  UNL     1      -1.119   0.516  -7.611  1.00  0.00     0.143 C 
HETATM   16  N5  UNL     1      -0.485   1.460  -2.890  1.00  0.00    -0.062 N 
ATOM     17  H5  UNL     1       0.336   2.042  -2.728  1.00  0.00     0.221 HD
ENDROOT
BRANCH  16  18
HETATM   18  N6  UNL     1      -1.582   1.886  -2.376  1.00  0.00    -0.271 NA
HETATM   19  C7  UNL     1      -2.776   2.348  -1.822  1.00  0.00     0.323 C 
HETATM   20  O2  UNL     1      -3.848   2.500  -2.504  1.00  0.00    -0.254 OA
BRANCH  19  21
HETATM   21  C8  UNL     1      -2.870   2.697  -0.366  1.00  0.00     0.206 C 
HETATM   22 BR2  UNL     1      -4.735   2.376   0.101  1.00  0.00    -0.085 Br
ENDBRANCH  19  21
ENDBRANCH  16  18
TORSDOF 2
ENDMDL
MODEL 2
REMARK VINA RESULT: -4.531516207      3.587      4.782
REMARK  2 active torsions:
REMARK  status: ('A' for Active; 'I' for Inactive)
REMARK       I    between atoms: N1_1  and  C1_4 
REMARK       I    between atoms: C1_4  and  N5_16 
REMARK       I    between atoms: N2_5  and  C2_7 
REMARK       I    between atoms: C2_7  and  N3_9 
REMARK    1  A    between atoms: N5_16  and  N6_18 
REMARK       I    between atoms: N6_18  and  C7_19 
REMARK    2  A    between atoms: C7_19  and  C8_21 
ROOT
HETATM    1  N1  UNL     1      -0.737   0.517  -3.210  1.00  0.00    -0.232 N 
ATOM      2  H11 UNL     1      -1.183   0.401  -2.300  1.00  0.00     0.174 HD
ATOM      3  H12 UNL     1      -0.994   1.345  -3.748  1.00  0.00     0.174 HD
HETATM    4  C1  UNL     1       0.283  -0.277  -3.672  1.00  0.00     0.705 C 
HETATM    5  N2  UNL     1       0.841  -0.131  -4.814  1.00  0.00    -0.140 N 
ATOM      6  H2  UNL     1       1.600  -0.747  -5.105  1.00  0.00     0.189 HD
HETATM    7  C2  UNL     1       0.383   0.901  -5.664  1.00  0.00     0.336 C 
HETATM    8  O1  UNL     1      -0.043   1.963  -5.200  1.00  0.00    -0.246 OA
HETATM    9  N3  UNL     1       0.399   0.714  -7.056  1.00  0.00    -0.331 N 
HETATM   10  C3  UNL     1      -0.297   1.636  -7.936  1.00  0.00     0.143 C 
HETATM   11  C4  UNL     1      -0.511   1.177  -9.313  1.00  0.00     0.123 C 
HETATM   12  N4  UNL     1       0.453   0.194  -9.787  1.00  0.00    -0.247 NA
HETATM   13 BR1  UNL     1       0.028  -0.327 -11.512  1.00  0.00     0.012 Br
HETATM   14  C5  UNL     1       0.461  -0.922  -8.811  1.00  0.00     0.123 C 
HETATM   15  C6  UNL     1       1.184  -0.371  -7.609  1.00  0.00     0.143 C 
HETATM   16  N5  UNL     1       0.649  -1.458  -2.906  1.00  0.00    -0.062 N 
ATOM     17  H5  UNL     1      -0.095  -2.140  -2.758  1.00  0.00     0.221 HD
ENDROOT
BRANCH  16  18
HETATM   18  N6  UNL     1       1.787  -1.753  -2.391  1.00  0.00    -0.271 NA
HETATM   19  C7  UNL     1       3.027  -2.071  -1.835  1.00  0.00     0.323 C 
HETATM   20  O2  UNL     1       4.138  -1.824  -2.420  1.00  0.00    -0.254 OA
BRANCH  19  21
HETATM   21  C8  UNL     1       3.126  -2.733  -0.492  1.00  0.00     0.206 C 
HETATM   22 BR2  UNL     1       4.979  -2.473   0.052  1.00  0.00    -0.085 Br
ENDBRANCH  19  21
ENDBRANCH  16  18
TORSDOF 2
ENDMDL
MODEL 3
REMARK VINA RESULT: -4.365929350      1.198      1.266
REMARK  2 active torsions:
REMARK  status: ('A' for Active; 'I' for Inactive)
REMARK       I    between atoms: N1_1  and  C1_4 
REMARK       I    between atoms: C1_4  and  N5_16 
REMARK       I    between atoms: N2_5  and  C2_7 
REMARK       I    between atoms: C2_7  and  N3_9 
REMARK    1  A    between atoms: N5_16  and  N6_18 
REMARK       I    between atoms: N6_18  and  C7_19 
REMARK    2  A    between atoms: C7_19  and  C8_21 
ROOT
HETATM    1  N1  UNL     1       0.230  -1.921  -3.823  1.00  0.00    -0.232 N 
ATOM      2  H11 UNL     1       0.661  -2.157  -2.929  1.00  0.00     0.174 HD
ATOM      3  H12 UNL     1       0.032  -2.693  -4.459  1.00  0.00     0.174 HD
HETATM    4  C1  UNL     1      -0.233  -0.669  -4.145  1.00  0.00     0.705 C 
HETATM    5  N2  UNL     1      -0.772  -0.372  -5.266  1.00  0.00    -0.140 N 
ATOM      6  H2  UNL     1      -1.105   0.574  -5.450  1.00  0.00     0.189 HD
HETATM    7  C2  UNL     1      -0.899  -1.385  -6.244  1.00  0.00     0.336 C 
HETATM    8  O1  UNL     1      -1.084  -2.561  -5.919  1.00  0.00    -0.246 OA
HETATM    9  N3  UNL     1      -0.800  -1.052  -7.606  1.00  0.00    -0.331 N 
HETATM   10  C3  UNL     1      -0.665  -2.089  -8.614  1.00  0.00     0.143 C 
HETATM   11  C4  UNL     1      -0.230  -1.644  -9.942  1.00  0.00     0.123 C 
HETATM   12  N4  UNL     1      -0.547  -0.258 -10.258  1.00  0.00    -0.247 NA
HETATM   13 BR1  UNL     1       0.106   0.172 -11.936  1.00  0.00     0.012 Br
HETATM   14  C5  UNL     1       0.007   0.581  -9.169  1.00  0.00     0.123 C 
HETATM   15  C6  UNL     1      -0.911   0.338  -7.997  1.00  0.00     0.143 C 
HETATM   16  N5  UNL     1       0.050   0.433  -3.238  1.00  0.00    -0.062 N 
ATOM     17  H5  UNL     1       1.037   0.616  -3.056  1.00  0.00     0.221 HD
ENDROOT
BRANCH  16  18
HETATM   18  N6  UNL     1      -0.782   1.205  -2.637  1.00  0.00    -0.271 NA
HETATM   19  C7  UNL     1      -1.683   2.044  -1.982  1.00  0.00     0.323 C 
HETATM   20  O2  UNL     1      -1.417   2.620  -0.871  1.00  0.00    -0.254 OA
BRANCH  19  21
HETATM   21  C8  UNL     1      -3.039   2.325  -2.558  1.00  0.00     0.206 C 
HETATM   22 BR2  UNL     1      -4.239   2.329  -1.022  1.00  0.00    -0.085 Br
ENDBRANCH  19  21
ENDBRANCH  16  18
TORSDOF 2
ENDMDL
MODEL 4
REMARK VINA RESULT: -4.331276560      3.633      4.490
REMARK  2 active torsions:
REMARK  status: ('A' for Active; 'I' for Inactive)
REMARK       I    between atoms: N1_1  and  C1_4 
REMARK       I    between atoms: C1_4  and  N5_16 
REMARK       I    between atoms: N2_5  and  C2_7 
REMARK       I    between atoms: C2_7  and  N3_9 
REMARK    1  A    between atoms: N5_16  and  N6_18 
REMARK       I    between atoms: N6_18  and  C7_19 
REMARK    2  A    between atoms: C7_19  and  C8_21 
ROOT
HETATM    1  N1  UNL     1      -0.239   1.905  -3.797  1.00  0.00    -0.232 N 
ATOM      2  H11 UNL     1      -0.672   2.138  -2.903  1.00  0.00     0.174 HD
ATOM      3  H12 UNL     1      -0.042   2.678  -4.431  1.00  0.00     0.174 HD
HETATM    4  C1  UNL     1       0.227   0.654  -4.120  1.00  0.00     0.705 C 
HETATM    5  N2  UNL     1       0.770   0.361  -5.240  1.00  0.00    -0.140 N 
ATOM      6  H2  UNL     1       1.105  -0.585  -5.426  1.00  0.00     0.189 HD
HETATM    7  C2  UNL     1       0.896   1.375  -6.217  1.00  0.00     0.336 C 
HETATM    8  O1  UNL     1       1.077   2.552  -5.890  1.00  0.00    -0.246 OA
HETATM    9  N3  UNL     1       0.800   1.045  -7.579  1.00  0.00    -0.331 N 
HETATM   10  C3  UNL     1       0.665   2.083  -8.586  1.00  0.00     0.143 C 
HETATM   11  C4  UNL     1       0.232   1.639  -9.916  1.00  0.00     0.123 C 
HETATM   12  N4  UNL     1       0.553   0.255 -10.233  1.00  0.00    -0.247 NA
HETATM   13 BR1  UNL     1      -0.095  -0.174 -11.913  1.00  0.00     0.012 Br
HETATM   14  C5  UNL     1      -0.001  -0.587  -9.146  1.00  0.00     0.123 C 
HETATM   15  C6  UNL     1       0.914  -0.344  -7.973  1.00  0.00     0.143 C 
HETATM   16  N5  UNL     1      -0.055  -0.450  -3.215  1.00  0.00    -0.062 N 
ATOM     17  H5  UNL     1      -1.041  -0.636  -3.035  1.00  0.00     0.221 HD
ENDROOT
BRANCH  16  18
HETATM   18  N6  UNL     1       0.778  -1.221  -2.615  1.00  0.00    -0.271 NA
HETATM   19  C7  UNL     1       1.680  -2.059  -1.959  1.00  0.00     0.323 C 
HETATM   20  O2  UNL     1       1.423  -2.618  -0.837  1.00  0.00    -0.254 OA
BRANCH  19  21
HETATM   21  C8  UNL     1       3.027  -2.359  -2.547  1.00  0.00     0.206 C 
HETATM   22 BR2  UNL     1       4.251  -2.315  -1.032  1.00  0.00    -0.085 Br
ENDBRANCH  19  21
ENDBRANCH  16  18
TORSDOF 2
ENDMDL
MODEL 5
REMARK VINA RESULT: -4.258774606      7.193      8.808
REMARK  2 active torsions:
REMARK  status: ('A' for Active; 'I' for Inactive)
REMARK       I    between atoms: N1_1  and  C1_4 
REMARK       I    between atoms: C1_4  and  N5_16 
REMARK       I    between atoms: N2_5  and  C2_7 
REMARK       I    between atoms: C2_7  and  N3_9 
REMARK    1  A    between atoms: N5_16  and  N6_18 
REMARK       I    between atoms: N6_18  and  C7_19 
REMARK    2  A    between atoms: C7_19  and  C8_21 
ROOT
HETATM    1  N1  UNL     1      -0.073  -0.415   4.042  1.00  0.00    -0.232 N 
ATOM      2  H11 UNL     1      -0.623   0.208   4.633  1.00  0.00     0.174 HD
ATOM      3  H12 UNL     1       0.073  -1.366   4.382  1.00  0.00     0.174 HD
HETATM    4  C1  UNL     1       0.339  -0.102   2.770  1.00  0.00     0.705 C 
HETATM    5  N2  UNL     1       1.029  -0.884   2.029  1.00  0.00    -0.140 N 
ATOM      6  H2  UNL     1       1.303  -0.602   1.087  1.00  0.00     0.189 HD
HETATM    7  C2  UNL     1       1.404  -2.146   2.542  1.00  0.00     0.336 C 
HETATM    8  O1  UNL     1       0.671  -2.754   3.329  1.00  0.00    -0.246 OA
HETATM    9  N3  UNL     1       2.632  -2.715   2.164  1.00  0.00    -0.331 N 
HETATM   10  C3  UNL     1       3.160  -3.872   2.864  1.00  0.00     0.143 C 
HETATM   11  C4  UNL     1       4.577  -4.175   2.633  1.00  0.00     0.123 C 
HETATM   12  N4  UNL     1       5.104  -3.701   1.361  1.00  0.00    -0.247 NA
HETATM   13 BR1  UNL     1       6.905  -4.109   1.232  1.00  0.00     0.012 Br
HETATM   14  C5  UNL     1       4.813  -2.250   1.275  1.00  0.00     0.123 C 
HETATM   15  C6  UNL     1       3.329  -2.175   1.015  1.00  0.00     0.143 C 
HETATM   16  N5  UNL     1       0.133   1.254   2.284  1.00  0.00    -0.062 N 
ATOM     17  H5  UNL     1       0.571   1.994   2.833  1.00  0.00     0.221 HD
ENDROOT
BRANCH  16  18
HETATM   18  N6  UNL     1      -0.530   1.639   1.254  1.00  0.00    -0.271 NA
HETATM   19  C7  UNL     1      -1.247   2.056   0.133  1.00  0.00     0.323 C 
HETATM   20  O2  UNL     1      -0.869   1.814  -1.066  1.00  0.00    -0.254 OA
BRANCH  19  21
HETATM   21  C8  UNL     1      -2.528   2.824   0.273  1.00  0.00     0.206 C 
HETATM   22 BR2  UNL     1      -3.455   1.974   1.762  1.00  0.00    -0.085 Br
ENDBRANCH  19  21
ENDBRANCH  16  18
TORSDOF 2
ENDMDL
