MODEL 1
REMARK VINA RESULT: -5.251899724      0.000      0.000
REMARK  1 active torsions:
REMARK  status: ('A' for Active; 'I' for Inactive)
REMARK    1  A    between atoms: C1_2  and  C2_4 
REMARK       I    between atoms: N2_10  and  C8_11 
REMARK       I    between atoms: C8_11  and  N3_13 
REMARK       I    between atoms: N4_16  and  C9_17 
REMARK       I    between atoms: C9_17  and  N5_19 
ROOT
HETATM    1  C2  UNL     1       4.433  -3.089   1.409  1.00  0.00     0.201 C 
HETATM    2  C3  UNL     1       3.150  -2.722   2.078  1.00  0.00     0.121 C 
HETATM    3  C4  UNL     1       2.728  -3.900   2.952  1.00  0.00     0.030 C 
HETATM    4  C5  UNL     1       3.687  -3.750   4.112  1.00  0.00     0.029 C 
HETATM    5  C6  UNL     1       4.182  -2.317   4.077  1.00  0.00     0.107 C 
HETATM    6  C7  UNL     1       5.568  -2.230   3.467  1.00  0.00     0.154 C 
HETATM    7  N2  UNL     1       5.602  -2.998   2.242  1.00  0.00    -0.315 N 
HETATM    8  C8  UNL     1       6.795  -3.664   1.859  1.00  0.00     0.346 C 
HETATM    9  O2  UNL     1       7.813  -3.567   2.626  1.00  0.00    -0.245 OA
HETATM   10  N3  UNL     1       6.937  -4.429   0.687  1.00  0.00    -0.173 N 
ATOM     11  H3  UNL     1       6.140  -4.523   0.057  1.00  0.00     0.204 HD
HETATM   12  F1  UNL     1       8.093  -5.039   0.373  1.00  0.00    -0.097 F 
HETATM   13  N4  UNL     1       3.303  -1.690   3.085  1.00  0.00    -0.320 N 
HETATM   14  C9  UNL     1       2.759  -0.388   3.135  1.00  0.00     0.337 C 
HETATM   15  O3  UNL     1       3.030   0.344   4.117  1.00  0.00    -0.246 OA
HETATM   16  N5  UNL     1       1.926   0.121   2.133  1.00  0.00    -0.141 N 
ATOM     17  H5  UNL     1       2.236   0.117   1.161  1.00  0.00     0.189 HD
HETATM   18  C10 UNL     1       0.771   0.594   2.434  1.00  0.00     0.686 A 
HETATM   19  N6  UNL     1      -0.066   1.098   1.483  1.00  0.00    -0.193 N 
ATOM     20  H6  UNL     1       0.120   1.154   0.481  1.00  0.00     0.184 HD
HETATM   21  C11 UNL     1      -1.183   1.509   2.109  1.00  0.00     0.049 A 
HETATM   22  C12 UNL     1      -1.070   1.270   3.460  1.00  0.00     0.049 A 
HETATM   23  N7  UNL     1       0.148   0.707   3.615  1.00  0.00    -0.193 N 
ATOM     24  H7  UNL     1       0.540   0.409   4.508  1.00  0.00     0.184 HD
HETATM   25  C13 UNL     1      -2.309   1.730   4.122  1.00  0.00     0.060 C 
HETATM   26  C14 UNL     1      -3.330   1.684   3.010  1.00  0.00     0.012 C 
HETATM   27  C15 UNL     1      -2.506   2.137   1.815  1.00  0.00     0.060 C 
ENDROOT
BRANCH   1  28
HETATM   28  C1  UNL     1       4.606  -2.283   0.166  1.00  0.00     0.256 C 
HETATM   29  N1  UNL     1       4.708  -0.868   0.192  1.00  0.00    -0.060 NA
HETATM   30  O1  UNL     1       4.660  -2.888  -0.918  1.00  0.00    -0.274 OA
ENDBRANCH   1  28
TORSDOF 1
ENDMDL
MODEL 2
REMARK VINA RESULT: -4.490000084      5.567     10.128
REMARK  1 active torsions:
REMARK  status: ('A' for Active; 'I' for Inactive)
REMARK    1  A    between atoms: C1_2  and  C2_4 
REMARK       I    between atoms: N2_10  and  C8_11 
REMARK       I    between atoms: C8_11  and  N3_13 
REMARK       I    between atoms: N4_16  and  C9_17 
REMARK       I    between atoms: C9_17  and  N5_19 
ROOT
HETATM    1  C2  UNL     1      -4.526   3.311   3.344  1.00  0.00     0.201 C 
HETATM    2  C3  UNL     1      -3.705   2.065   3.289  1.00  0.00     0.121 C 
HETATM    3  C4  UNL     1      -4.662   0.877   3.323  1.00  0.00     0.030 C 
HETATM    4  C5  UNL     1      -5.201   0.906   1.909  1.00  0.00     0.029 C 
HETATM    5  C6  UNL     1      -4.207   1.704   1.088  1.00  0.00     0.107 C 
HETATM    6  C7  UNL     1      -4.699   3.120   0.856  1.00  0.00     0.154 C 
HETATM    7  N2  UNL     1      -5.160   3.679   2.107  1.00  0.00    -0.315 N 
HETATM    8  C8  UNL     1      -6.243   4.595   2.115  1.00  0.00     0.346 C 
HETATM    9  O2  UNL     1      -6.787   4.896   0.998  1.00  0.00    -0.245 OA
HETATM   10  N3  UNL     1      -6.763   5.202   3.272  1.00  0.00    -0.173 N 
ATOM     11  H3  UNL     1      -6.348   4.980   4.178  1.00  0.00     0.204 HD
HETATM   12  F1  UNL     1      -7.792   6.065   3.221  1.00  0.00    -0.097 F 
HETATM   13  N4  UNL     1      -3.070   1.854   2.002  1.00  0.00    -0.320 N 
HETATM   14  C9  UNL     1      -1.700   1.801   1.668  1.00  0.00     0.337 C 
HETATM   15  O3  UNL     1      -1.375   1.606   0.473  1.00  0.00    -0.246 OA
HETATM   16  N5  UNL     1      -0.684   1.957   2.619  1.00  0.00    -0.141 N 
ATOM     17  H5  UNL     1      -0.670   2.783   3.218  1.00  0.00     0.189 HD
HETATM   18  C10 UNL     1       0.229   1.063   2.738  1.00  0.00     0.686 A 
HETATM   19  N6  UNL     1       1.232   1.182   3.654  1.00  0.00    -0.193 N 
ATOM     20  H6  UNL     1       1.364   1.953   4.310  1.00  0.00     0.184 HD
HETATM   21  C11 UNL     1       2.017   0.097   3.532  1.00  0.00     0.049 A 
HETATM   22  C12 UNL     1       1.523  -0.722   2.543  1.00  0.00     0.049 A 
HETATM   23  N7  UNL     1       0.422  -0.089   2.082  1.00  0.00    -0.193 N 
ATOM     24  H7  UNL     1      -0.179  -0.440   1.336  1.00  0.00     0.184 HD
HETATM   25  C13 UNL     1       2.402  -1.905   2.431  1.00  0.00     0.060 C 
HETATM   26  C14 UNL     1       3.052  -1.980   3.793  1.00  0.00     0.012 C 
HETATM   27  C15 UNL     1       3.249  -0.507   4.122  1.00  0.00     0.060 C 
ENDROOT
BRANCH   1  28
HETATM   28  C1  UNL     1      -3.703   4.438   3.872  1.00  0.00     0.256 C 
HETATM   29  N1  UNL     1      -4.253   5.722   4.122  1.00  0.00    -0.060 NA
HETATM   30  O1  UNL     1      -2.499   4.226   4.094  1.00  0.00    -0.274 OA
ENDBRANCH   1  28
TORSDOF 1
ENDMDL
MODEL 3
REMARK VINA RESULT: -4.458426307      2.050      2.998
REMARK  1 active torsions:
REMARK  status: ('A' for Active; 'I' for Inactive)
REMARK    1  A    between atoms: C1_2  and  C2_4 
REMARK       I    between atoms: N2_10  and  C8_11 
REMARK       I    between atoms: C8_11  and  N3_13 
REMARK       I    between atoms: N4_16  and  C9_17 
REMARK       I    between atoms: C9_17  and  N5_19 
ROOT
HETATM    1  C2  UNL     1       4.593  -3.284   3.323  1.00  0.00     0.201 C 
HETATM    2  C3  UNL     1       3.774  -2.038   3.259  1.00  0.00     0.121 C 
HETATM    3  C4  UNL     1       4.733  -0.850   3.271  1.00  0.00     0.030 C 
HETATM    4  C5  UNL     1       5.259  -0.897   1.854  1.00  0.00     0.029 C 
HETATM    5  C6  UNL     1       4.257  -1.703   1.050  1.00  0.00     0.107 C 
HETATM    6  C7  UNL     1       4.745  -3.123   0.831  1.00  0.00     0.154 C 
HETATM    7  N2  UNL     1       5.217  -3.667   2.084  1.00  0.00    -0.315 N 
HETATM    8  C8  UNL     1       6.298  -4.585   2.093  1.00  0.00     0.346 C 
HETATM    9  O2  UNL     1       6.832  -4.899   0.975  1.00  0.00    -0.245 OA
HETATM   10  N3  UNL     1       6.827  -5.179   3.254  1.00  0.00    -0.173 N 
ATOM     11  H3  UNL     1       6.420  -4.946   4.160  1.00  0.00     0.204 HD
HETATM   12  F1  UNL     1       7.854  -6.044   3.204  1.00  0.00    -0.097 F 
HETATM   13  N4  UNL     1       3.128  -1.841   1.976  1.00  0.00    -0.320 N 
HETATM   14  C9  UNL     1       1.755  -1.790   1.653  1.00  0.00     0.337 C 
HETATM   15  O3  UNL     1       1.420  -1.608   0.458  1.00  0.00    -0.246 OA
HETATM   16  N5  UNL     1       0.747  -1.934   2.614  1.00  0.00    -0.141 N 
ATOM     17  H5  UNL     1       0.737  -2.752   3.222  1.00  0.00     0.189 HD
HETATM   18  C10 UNL     1      -0.163  -1.037   2.731  1.00  0.00     0.686 A 
HETATM   19  N6  UNL     1      -1.159  -1.144   3.656  1.00  0.00    -0.193 N 
ATOM     20  H6  UNL     1      -1.286  -1.907   4.322  1.00  0.00     0.184 HD
HETATM   21  C11 UNL     1      -1.943  -0.059   3.528  1.00  0.00     0.049 A 
HETATM   22  C12 UNL     1      -1.457   0.748   2.525  1.00  0.00     0.049 A 
HETATM   23  N7  UNL     1      -0.361   0.108   2.063  1.00  0.00    -0.193 N 
ATOM     24  H7  UNL     1       0.235   0.449   1.307  1.00  0.00     0.184 HD
HETATM   25  C13 UNL     1      -2.336   1.930   2.407  1.00  0.00     0.060 C 
HETATM   26  C14 UNL     1      -2.974   2.022   3.774  1.00  0.00     0.012 C 
HETATM   27  C15 UNL     1      -3.170   0.554   4.122  1.00  0.00     0.060 C 
ENDROOT
BRANCH   1  28
HETATM   28  C1  UNL     1       3.773  -4.403   3.871  1.00  0.00     0.256 C 
HETATM   29  N1  UNL     1       4.322  -5.689   4.120  1.00  0.00    -0.060 NA
HETATM   30  O1  UNL     1       2.574  -4.184   4.111  1.00  0.00    -0.274 OA
ENDBRANCH   1  28
TORSDOF 1
ENDMDL
MODEL 4
REMARK VINA RESULT: -4.294031125      7.194      9.845
REMARK  1 active torsions:
REMARK  status: ('A' for Active; 'I' for Inactive)
REMARK    1  A    between atoms: C1_2  and  C2_4 
REMARK       I    between atoms: N2_10  and  C8_11 
REMARK       I    between atoms: C8_11  and  N3_13 
REMARK       I    between atoms: N4_16  and  C9_17 
REMARK       I    between atoms: C9_17  and  N5_19 
ROOT
HETATM    1  C2  UNL     1       0.333   0.795  -6.405  1.00  0.00     0.201 C 
HETATM    2  C3  UNL     1       0.539   0.514  -4.953  1.00  0.00     0.121 C 
HETATM    3  C4  UNL     1      -0.561   1.235  -4.180  1.00  0.00     0.030 C 
HETATM    4  C5  UNL     1      -1.743   0.334  -4.462  1.00  0.00     0.029 C 
HETATM    5  C6  UNL     1      -1.171  -1.002  -4.894  1.00  0.00     0.107 C 
HETATM    6  C7  UNL     1      -1.226  -1.162  -6.401  1.00  0.00     0.154 C 
HETATM    7  N2  UNL     1      -0.718   0.038  -7.029  1.00  0.00    -0.315 N 
HETATM    8  C8  UNL     1      -1.258   0.469  -8.268  1.00  0.00     0.346 C 
HETATM    9  O2  UNL     1      -2.195  -0.225  -8.792  1.00  0.00    -0.245 OA
HETATM   10  N3  UNL     1      -0.831   1.614  -8.966  1.00  0.00    -0.173 N 
ATOM     11  H3  UNL     1      -0.085   2.186  -8.570  1.00  0.00     0.204 HD
HETATM   12  F1  UNL     1      -1.379   1.976 -10.138  1.00  0.00    -0.097 F 
HETATM   13  N4  UNL     1       0.257  -0.862  -4.590  1.00  0.00    -0.320 N 
HETATM   14  C9  UNL     1       1.116  -1.854  -4.071  1.00  0.00     0.337 C 
HETATM   15  O3  UNL     1       0.649  -2.993  -3.828  1.00  0.00    -0.246 OA
HETATM   16  N5  UNL     1       2.472  -1.620  -3.814  1.00  0.00    -0.141 N 
ATOM     17  H5  UNL     1       3.075  -1.259  -4.553  1.00  0.00     0.189 HD
HETATM   18  C10 UNL     1       2.958  -1.860  -2.650  1.00  0.00     0.686 A 
HETATM   19  N6  UNL     1       4.273  -1.643  -2.365  1.00  0.00    -0.193 N 
ATOM     20  H6  UNL     1       4.981  -1.287  -3.009  1.00  0.00     0.184 HD
HETATM   21  C11 UNL     1       4.466  -1.986  -1.080  1.00  0.00     0.049 A 
HETATM   22  C12 UNL     1       3.280  -2.422  -0.534  1.00  0.00     0.049 A 
HETATM   23  N7  UNL     1       2.379  -2.327  -1.536  1.00  0.00    -0.193 N 
ATOM     24  H7  UNL     1       1.393  -2.577  -1.455  1.00  0.00     0.184 HD
HETATM   25  C13 UNL     1       3.521  -2.791   0.877  1.00  0.00     0.060 C 
HETATM   26  C14 UNL     1       4.747  -1.984   1.239  1.00  0.00     0.012 C 
HETATM   27  C15 UNL     1       5.549  -2.046  -0.052  1.00  0.00     0.060 C 
ENDROOT
BRANCH   1  28
HETATM   28  C1  UNL     1       1.619   0.623  -7.142  1.00  0.00     0.256 C 
HETATM   29  N1  UNL     1       2.281   1.712  -7.767  1.00  0.00    -0.060 NA
HETATM   30  O1  UNL     1       2.110  -0.516  -7.200  1.00  0.00    -0.274 OA
ENDBRANCH   1  28
TORSDOF 1
ENDMDL
MODEL 5
REMARK VINA RESULT: -4.271529155      7.668      8.886
REMARK  1 active torsions:
REMARK  status: ('A' for Active; 'I' for Inactive)
REMARK    1  A    between atoms: C1_2  and  C2_4 
REMARK       I    between atoms: N2_10  and  C8_11 
REMARK       I    between atoms: C8_11  and  N3_13 
REMARK       I    between atoms: N4_16  and  C9_17 
REMARK       I    between atoms: C9_17  and  N5_19 
ROOT
HETATM    1  C2  UNL     1      -0.339  -0.793  -6.388  1.00  0.00     0.201 C 
HETATM    2  C3  UNL     1      -0.550  -0.515  -4.936  1.00  0.00     0.121 C 
HETATM    3  C4  UNL     1       0.549  -1.238  -4.161  1.00  0.00     0.030 C 
HETATM    4  C5  UNL     1       1.731  -0.335  -4.438  1.00  0.00     0.029 C 
HETATM    5  C6  UNL     1       1.159   1.002  -4.868  1.00  0.00     0.107 C 
HETATM    6  C7  UNL     1       1.219   1.165  -6.375  1.00  0.00     0.154 C 
HETATM    7  N2  UNL     1       0.714  -0.034  -7.007  1.00  0.00    -0.315 N 
HETATM    8  C8  UNL     1       1.257  -0.461  -8.245  1.00  0.00     0.346 C 
HETATM    9  O2  UNL     1       2.195   0.234  -8.765  1.00  0.00    -0.245 OA
HETATM   10  N3  UNL     1       0.834  -1.604  -8.947  1.00  0.00    -0.173 N 
ATOM     11  H3  UNL     1       0.087  -2.178  -8.555  1.00  0.00     0.204 HD
HETATM   12  F1  UNL     1       1.385  -1.963 -10.119  1.00  0.00    -0.097 F 
HETATM   13  N4  UNL     1      -0.269   0.859  -4.569  1.00  0.00    -0.320 N 
HETATM   14  C9  UNL     1      -1.131   1.850  -4.050  1.00  0.00     0.337 C 
HETATM   15  O3  UNL     1      -0.666   2.988  -3.803  1.00  0.00    -0.246 OA
HETATM   16  N5  UNL     1      -2.487   1.614  -3.798  1.00  0.00    -0.141 N 
ATOM     17  H5  UNL     1      -3.088   1.254  -4.539  1.00  0.00     0.189 HD
HETATM   18  C10 UNL     1      -2.977   1.850  -2.635  1.00  0.00     0.686 A 
HETATM   19  N6  UNL     1      -4.293   1.632  -2.354  1.00  0.00    -0.193 N 
ATOM     20  H6  UNL     1      -4.999   1.277  -3.000  1.00  0.00     0.184 HD
HETATM   21  C11 UNL     1      -4.490   1.971  -1.068  1.00  0.00     0.049 A 
HETATM   22  C12 UNL     1      -3.306   2.407  -0.518  1.00  0.00     0.049 A 
HETATM   23  N7  UNL     1      -2.402   2.315  -1.517  1.00  0.00    -0.193 N 
ATOM     24  H7  UNL     1      -1.417   2.566  -1.433  1.00  0.00     0.184 HD
HETATM   25  C13 UNL     1      -3.552   2.772   0.893  1.00  0.00     0.060 C 
HETATM   26  C14 UNL     1      -4.778   1.964   1.249  1.00  0.00     0.012 C 
HETATM   27  C15 UNL     1      -5.576   2.028  -0.044  1.00  0.00     0.060 C 
ENDROOT
BRANCH   1  28
HETATM   28  C1  UNL     1      -1.623  -0.621  -7.128  1.00  0.00     0.256 C 
HETATM   29  N1  UNL     1      -2.286  -1.710  -7.752  1.00  0.00    -0.060 NA
HETATM   30  O1  UNL     1      -2.111   0.520  -7.191  1.00  0.00    -0.274 OA
ENDBRANCH   1  28
TORSDOF 1
ENDMDL
