MODEL 1
REMARK VINA RESULT: -6.552339639      0.000      0.000
REMARK  2 active torsions:
REMARK  status: ('A' for Active; 'I' for Inactive)
REMARK       I    between atoms: C2_4  and  N2_5 
REMARK       I    between atoms: C2_4  and  N6_16 
REMARK    1  A    between atoms: N2_5  and  C3_7 
REMARK    2  A    between atoms: N6_16  and  C6_18 
ROOT
HETATM    1  C1  UNL     1       0.740  -1.738  -3.644  1.00  0.00     0.165 C 
HETATM    2  N1  UNL     1       0.186  -0.423  -3.730  1.00  0.00    -0.230 N 
ATOM      3  H1  UNL     1       0.357   0.207  -2.946  1.00  0.00     0.177 HD
HETATM    4  C2  UNL     1      -0.506   0.034  -4.708  1.00  0.00     0.688 C 
HETATM    5  N2  UNL     1      -0.975   1.385  -4.607  1.00  0.00    -0.021 N 
ATOM      6  H2  UNL     1      -0.841   2.042  -5.375  1.00  0.00     0.203 HD
HETATM    7  N6  UNL     1      -0.839  -0.689  -5.872  1.00  0.00    -0.213 N 
ATOM      8  H6  UNL     1      -1.310  -1.592  -5.806  1.00  0.00     0.178 HD
ENDROOT
BRANCH   5   9
HETATM    9  C3  UNL     1      -1.574   1.751  -3.522  1.00  0.00     0.712 A 
HETATM   10  N3  UNL     1      -2.888   1.601  -3.209  1.00  0.00    -0.178 N 
HETATM   11  C4  UNL     1      -3.121   2.111  -1.988  1.00  0.00     0.108 A 
ATOM     12  H3  UNL     1      -3.591   1.169  -3.808  1.00  0.00     0.185 HD
HETATM   13  C5  UNL     1      -4.412   2.159  -1.255  1.00  0.00     0.091 C 
HETATM   14  N4  UNL     1      -1.938   2.578  -1.547  1.00  0.00    -0.275 N 
HETATM   15  N5  UNL     1      -1.002   2.357  -2.481  1.00  0.00    -0.130 N 
ATOM     16  H4  UNL     1      -1.779   3.027  -0.645  1.00  0.00     0.189 HD
ATOM     17  H5  UNL     1      -0.017   2.610  -2.407  1.00  0.00     0.205 HD
ENDBRANCH   5   9
BRANCH   7  18
HETATM   18  C6  UNL     1      -0.503  -0.131  -7.158  1.00  0.00     0.207 C 
HETATM   19  C7  UNL     1       1.013  -0.168  -7.283  1.00  0.00     0.034 C 
HETATM   20  C8  UNL     1       1.368  -1.614  -7.631  1.00  0.00     0.036 C 
HETATM   21  C12 UNL     1       1.446   0.660  -8.492  1.00  0.00     0.090 C 
HETATM   22  C9  UNL     1       0.861  -1.941  -9.017  1.00  0.00     0.245 C 
HETATM   23  N7  UNL     1      -0.147  -0.974  -9.373  1.00  0.00    -0.002 N 
HETATM   24  C10 UNL     1      -0.869  -1.334 -10.580  1.00  0.00     0.280 C 
HETATM   25  C11 UNL     1       0.464   0.326  -9.601  1.00  0.00     0.260 C 
HETATM   26  C13 UNL     1      -1.120  -0.897  -8.297  1.00  0.00     0.428 C 
HETATM   27  F1  UNL     1      -2.238  -0.209  -8.733  1.00  0.00    -0.172 F 
HETATM   28  F2  UNL     1      -1.506  -2.158  -7.936  1.00  0.00    -0.172 F 
HETATM   29 BR1  UNL     1       1.492   2.535  -8.096  1.00  0.00    -0.089 Br
ENDBRANCH   7  18
TORSDOF 2
ENDMDL
MODEL 2
REMARK VINA RESULT: -6.538855992      2.624      4.563
REMARK  2 active torsions:
REMARK  status: ('A' for Active; 'I' for Inactive)
REMARK       I    between atoms: C2_4  and  N2_5 
REMARK       I    between atoms: C2_4  and  N6_16 
REMARK    1  A    between atoms: N2_5  and  C3_7 
REMARK    2  A    between atoms: N6_16  and  C6_18 
ROOT
HETATM    1  C1  UNL     1      -0.851   1.664  -3.644  1.00  0.00     0.165 C 
HETATM    2  N1  UNL     1      -0.245   0.373  -3.754  1.00  0.00    -0.230 N 
ATOM      3  H1  UNL     1      -0.411  -0.285  -2.993  1.00  0.00     0.177 HD
HETATM    4  C2  UNL     1       0.488  -0.028  -4.726  1.00  0.00     0.688 C 
HETATM    5  N2  UNL     1       1.006  -1.363  -4.652  1.00  0.00    -0.021 N 
ATOM      6  H2  UNL     1       0.915  -2.002  -5.442  1.00  0.00     0.203 HD
HETATM    7  N6  UNL     1       0.822   0.741  -5.860  1.00  0.00    -0.213 N 
ATOM      8  H6  UNL     1       1.256   1.659  -5.756  1.00  0.00     0.178 HD
ENDROOT
BRANCH   5   9
HETATM    9  C3  UNL     1       1.591  -1.738  -3.562  1.00  0.00     0.712 A 
HETATM   10  N3  UNL     1       2.898  -1.580  -3.226  1.00  0.00    -0.178 N 
HETATM   11  C4  UNL     1       3.117  -2.104  -2.009  1.00  0.00     0.108 A 
ATOM     12  H3  UNL     1       3.605  -1.131  -3.808  1.00  0.00     0.185 HD
HETATM   13  C5  UNL     1       4.397  -2.150  -1.256  1.00  0.00     0.091 C 
HETATM   14  N4  UNL     1       1.932  -2.590  -1.594  1.00  0.00    -0.275 N 
HETATM   15  N5  UNL     1       1.009  -2.365  -2.539  1.00  0.00    -0.130 N 
ATOM     16  H4  UNL     1       1.764  -3.055  -0.701  1.00  0.00     0.189 HD
ATOM     17  H5  UNL     1       0.025  -2.630  -2.486  1.00  0.00     0.205 HD
ENDBRANCH   5   9
BRANCH   7  18
HETATM   18  C6  UNL     1       0.539   0.209  -7.170  1.00  0.00     0.207 C 
HETATM   19  C7  UNL     1      -0.974   0.169  -7.323  1.00  0.00     0.034 C 
HETATM   20  C8  UNL     1      -1.400   1.605  -7.630  1.00  0.00     0.036 C 
HETATM   21  C12 UNL     1      -1.340  -0.640  -8.566  1.00  0.00     0.090 C 
HETATM   22  C9  UNL     1      -0.887   2.004  -8.995  1.00  0.00     0.245 C 
HETATM   23  N7  UNL     1       0.177   1.106  -9.362  1.00  0.00    -0.002 N 
HETATM   24  C10 UNL     1       0.900   1.544 -10.543  1.00  0.00     0.280 C 
HETATM   25  C11 UNL     1      -0.358  -0.217  -9.644  1.00  0.00     0.260 C 
HETATM   26  C13 UNL     1       1.134   1.045  -8.271  1.00  0.00     0.428 C 
HETATM   27  F1  UNL     1       2.295   0.432  -8.707  1.00  0.00    -0.172 F 
HETATM   28  F2  UNL     1       1.445   2.312  -7.861  1.00  0.00    -0.172 F 
HETATM   29 BR1  UNL     1      -1.292  -2.527  -8.232  1.00  0.00    -0.089 Br
ENDBRANCH   7  18
TORSDOF 2
ENDMDL
MODEL 3
REMARK VINA RESULT: -5.985807528      2.645      4.326
REMARK  2 active torsions:
REMARK  status: ('A' for Active; 'I' for Inactive)
REMARK       I    between atoms: C2_4  and  N2_5 
REMARK       I    between atoms: C2_4  and  N6_16 
REMARK    1  A    between atoms: N2_5  and  C3_7 
REMARK    2  A    between atoms: N6_16  and  C6_18 
ROOT
HETATM    1  C1  UNL     1      -1.338   1.306  -3.971  1.00  0.00     0.165 C 
HETATM    2  N1  UNL     1      -0.537   0.126  -4.081  1.00  0.00    -0.230 N 
ATOM      3  H1  UNL     1      -0.673  -0.596  -3.374  1.00  0.00     0.177 HD
HETATM    4  C2  UNL     1       0.336  -0.102  -4.991  1.00  0.00     0.688 C 
HETATM    5  N2  UNL     1       1.039  -1.349  -4.931  1.00  0.00    -0.021 N 
ATOM      6  H2  UNL     1       1.120  -1.943  -5.756  1.00  0.00     0.203 HD
HETATM    7  N6  UNL     1       0.655   0.779  -6.047  1.00  0.00    -0.213 N 
ATOM      8  H6  UNL     1       0.934   1.741  -5.854  1.00  0.00     0.178 HD
ENDROOT
BRANCH   5   9
HETATM    9  C3  UNL     1       1.569  -1.704  -3.807  1.00  0.00     0.712 A 
HETATM   10  N3  UNL     1       0.927  -2.042  -2.657  1.00  0.00    -0.178 N 
HETATM   11  C4  UNL     1       1.830  -2.350  -1.711  1.00  0.00     0.108 A 
ATOM     12  H3  UNL     1      -0.085  -2.060  -2.532  1.00  0.00     0.185 HD
HETATM   13  C5  UNL     1       1.569  -2.773  -0.311  1.00  0.00     0.091 C 
HETATM   14  N4  UNL     1       3.038  -2.199  -2.285  1.00  0.00    -0.275 N 
HETATM   15  N5  UNL     1       2.875  -1.807  -3.557  1.00  0.00    -0.130 N 
ATOM     16  H4  UNL     1       3.934  -2.359  -1.825  1.00  0.00     0.189 HD
ATOM     17  H5  UNL     1       3.625  -1.620  -4.222  1.00  0.00     0.205 HD
ENDBRANCH   5   9
BRANCH   7  18
HETATM   18  C6  UNL     1       0.579   0.295  -7.403  1.00  0.00     0.207 C 
HETATM   19  C7  UNL     1      -0.881  -0.025  -7.687  1.00  0.00     0.034 C 
HETATM   20  C8  UNL     1      -1.559   1.320  -7.950  1.00  0.00     0.036 C 
HETATM   21  C12 UNL     1      -0.989  -0.799  -8.999  1.00  0.00     0.090 C 
HETATM   22  C9  UNL     1      -1.037   1.906  -9.242  1.00  0.00     0.245 C 
HETATM   23  N7  UNL     1       0.208   1.257  -9.566  1.00  0.00    -0.002 N 
HETATM   24  C10 UNL     1       0.914   1.908 -10.655  1.00  0.00     0.280 C 
HETATM   25  C11 UNL     1      -0.034  -0.121  -9.965  1.00  0.00     0.260 C 
HETATM   26  C13 UNL     1       1.075   1.305  -8.402  1.00  0.00     0.428 C 
HETATM   27  F1  UNL     1       2.363   0.960  -8.771  1.00  0.00    -0.172 F 
HETATM   28  F2  UNL     1       1.099   2.576  -7.899  1.00  0.00    -0.172 F 
HETATM   29 BR1  UNL     1      -0.593  -2.661  -8.765  1.00  0.00    -0.089 Br
ENDBRANCH   7  18
TORSDOF 2
ENDMDL
MODEL 4
REMARK VINA RESULT: -4.814039286      8.421     10.704
REMARK  2 active torsions:
REMARK  status: ('A' for Active; 'I' for Inactive)
REMARK       I    between atoms: C2_4  and  N2_5 
REMARK       I    between atoms: C2_4  and  N6_16 
REMARK    1  A    between atoms: N2_5  and  C3_7 
REMARK    2  A    between atoms: N6_16  and  C6_18 
ROOT
HETATM    1  C1  UNL     1       2.561  -2.885  -0.744  1.00  0.00     0.165 C 
HETATM    2  N1  UNL     1       2.218  -2.466   0.580  1.00  0.00    -0.230 N 
ATOM      3  H1  UNL     1       1.273  -2.672   0.903  1.00  0.00     0.177 HD
HETATM    4  C2  UNL     1       2.996  -1.855   1.395  1.00  0.00     0.688 C 
HETATM    5  N2  UNL     1       2.465  -1.518   2.683  1.00  0.00    -0.021 N 
ATOM      6  H2  UNL     1       2.980  -1.742   3.535  1.00  0.00     0.203 HD
HETATM    7  N6  UNL     1       4.331  -1.490   1.122  1.00  0.00    -0.213 N 
ATOM      8  H6  UNL     1       4.559  -0.931   0.300  1.00  0.00     0.178 HD
ENDROOT
BRANCH   5   9
HETATM    9  C3  UNL     1       1.319  -0.923   2.741  1.00  0.00     0.712 A 
HETATM   10  N3  UNL     1       1.078   0.415   2.744  1.00  0.00    -0.178 N 
HETATM   11  C4  UNL     1      -0.245   0.634   2.815  1.00  0.00     0.108 A 
ATOM     12  H3  UNL     1       1.792   1.141   2.698  1.00  0.00     0.185 HD
HETATM   13  C5  UNL     1      -0.949   1.942   2.842  1.00  0.00     0.091 C 
HETATM   14  N4  UNL     1      -0.823  -0.581   2.857  1.00  0.00    -0.275 N 
HETATM   15  N5  UNL     1       0.130  -1.523   2.812  1.00  0.00    -0.130 N 
ATOM     16  H4  UNL     1      -1.826  -0.757   2.913  1.00  0.00     0.189 HD
ATOM     17  H5  UNL     1      -0.028  -2.531   2.829  1.00  0.00     0.205 HD
ENDBRANCH   5   9
BRANCH   7  18
HETATM   18  C6  UNL     1       5.369  -1.922   2.025  1.00  0.00     0.207 C 
HETATM   19  C7  UNL     1       6.492  -2.501   1.178  1.00  0.00     0.034 C 
HETATM   20  C8  UNL     1       7.251  -1.299   0.615  1.00  0.00     0.036 C 
HETATM   21  C12 UNL     1       7.490  -3.226   2.080  1.00  0.00     0.090 C 
HETATM   22  C9  UNL     1       7.953  -0.572   1.737  1.00  0.00     0.245 C 
HETATM   23  N7  UNL     1       7.342  -0.958   2.984  1.00  0.00    -0.002 N 
HETATM   24  C10 UNL     1       7.778  -0.140   4.101  1.00  0.00     0.280 C 
HETATM   25  C11 UNL     1       7.675  -2.339   3.298  1.00  0.00     0.260 C 
HETATM   26  C13 UNL     1       5.903  -0.796   2.868  1.00  0.00     0.428 C 
HETATM   27  F1  UNL     1       5.326  -0.875   4.122  1.00  0.00    -0.172 F 
HETATM   28  F2  UNL     1       5.621   0.435   2.342  1.00  0.00    -0.172 F 
HETATM   29 BR1  UNL     1       6.888  -4.987   2.541  1.00  0.00    -0.089 Br
ENDBRANCH   7  18
TORSDOF 2
ENDMDL
MODEL 5
REMARK VINA RESULT: -4.808238389      7.876     10.500
REMARK  2 active torsions:
REMARK  status: ('A' for Active; 'I' for Inactive)
REMARK       I    between atoms: C2_4  and  N2_5 
REMARK       I    between atoms: C2_4  and  N6_16 
REMARK    1  A    between atoms: N2_5  and  C3_7 
REMARK    2  A    between atoms: N6_16  and  C6_18 
ROOT
HETATM    1  C1  UNL     1      -1.514   2.508  -0.421  1.00  0.00     0.165 C 
HETATM    2  N1  UNL     1      -1.237   2.421   0.979  1.00  0.00    -0.230 N 
ATOM      3  H1  UNL     1      -0.340   2.785   1.299  1.00  0.00     0.177 HD
HETATM    4  C2  UNL     1      -2.019   1.925   1.865  1.00  0.00     0.688 C 
HETATM    5  N2  UNL     1      -1.560   1.928   3.223  1.00  0.00    -0.021 N 
ATOM      6  H2  UNL     1      -2.154   2.277   3.974  1.00  0.00     0.203 HD
HETATM    7  N6  UNL     1      -3.294   1.379   1.607  1.00  0.00    -0.213 N 
ATOM      8  H6  UNL     1      -3.411   0.637   0.918  1.00  0.00     0.178 HD
ENDROOT
BRANCH   5   9
HETATM    9  C3  UNL     1      -0.375   1.476   3.474  1.00  0.00     0.712 A 
HETATM   10  N3  UNL     1       0.101   0.223   3.246  1.00  0.00    -0.178 N 
HETATM   11  C4  UNL     1       1.382   0.149   3.644  1.00  0.00     0.108 A 
ATOM     12  H3  UNL     1      -0.432  -0.542   2.834  1.00  0.00     0.185 HD
HETATM   13  C5  UNL     1       2.286  -1.028   3.579  1.00  0.00     0.091 C 
HETATM   14  N4  UNL     1       1.695   1.367   4.122  1.00  0.00    -0.275 N 
HETATM   15  N5  UNL     1       0.627   2.169   4.017  1.00  0.00    -0.130 N 
ATOM     16  H4  UNL     1       2.602   1.637   4.503  1.00  0.00     0.189 HD
ATOM     17  H5  UNL     1       0.586   3.148   4.304  1.00  0.00     0.205 HD
ENDBRANCH   5   9
BRANCH   7  18
HETATM   18  C6  UNL     1      -4.429   1.890   2.334  1.00  0.00     0.207 C 
HETATM   19  C7  UNL     1      -4.904   3.140   1.609  1.00  0.00     0.034 C 
HETATM   20  C8  UNL     1      -5.692   2.644   0.396  1.00  0.00     0.036 C 
HETATM   21  C12 UNL     1      -5.919   3.881   2.478  1.00  0.00     0.090 C 
HETATM   22  C9  UNL     1      -6.960   1.965   0.858  1.00  0.00     0.245 C 
HETATM   23  N7  UNL     1      -6.808   1.614   2.248  1.00  0.00    -0.002 N 
HETATM   24  C10 UNL     1      -7.868   0.746   2.727  1.00  0.00     0.280 C 
HETATM   25  C11 UNL     1      -6.820   2.813   3.071  1.00  0.00     0.260 C 
HETATM   26  C13 UNL     1      -5.556   0.896   2.413  1.00  0.00     0.428 C 
HETATM   27  F1  UNL     1      -5.527   0.299   3.660  1.00  0.00    -0.172 F 
HETATM   28  F2  UNL     1      -5.461  -0.085   1.465  1.00  0.00    -0.172 F 
HETATM   29 BR1  UNL     1      -5.064   4.947   3.823  1.00  0.00    -0.089 Br
ENDBRANCH   7  18
TORSDOF 2
ENDMDL
