MODEL 1
REMARK VINA RESULT: -4.449948793      0.000      0.000
REMARK  3 active torsions:
REMARK  status: ('A' for Active; 'I' for Inactive)
REMARK       I    between atoms: C2_4  and  N2_5 
REMARK       I    between atoms: C2_4  and  N7_25 
REMARK       I    between atoms: C3_7  and  N4_9 
REMARK    1  A    between atoms: N5_12  and  C6_13 
REMARK    2  A    between atoms: C6_13  and  N6_15 
REMARK       I    between atoms: N6_15  and  C7_17 
REMARK    3  A    between atoms: C7_17  and  C8_19 
ROOT
HETATM    1  C1  UNL     1       1.587   0.352   4.083  1.00  0.00     0.165 C 
HETATM    2  N1  UNL     1       1.533  -0.801   3.236  1.00  0.00    -0.231 N 
ATOM      3  H1  UNL     1       2.391  -1.339   3.113  1.00  0.00     0.177 HD
HETATM    4  C2  UNL     1       0.477  -1.207   2.616  1.00  0.00     0.675 C 
HETATM    5  N2  UNL     1      -0.782  -0.580   2.678  1.00  0.00    -0.164 N 
ATOM      6  H2  UNL     1      -1.503  -1.041   3.233  1.00  0.00     0.187 HD
HETATM    7  C3  UNL     1      -1.100   0.513   2.103  1.00  0.00     0.205 C 
HETATM    8  N3  UNL     1      -0.125   1.189   1.317  1.00  0.00    -0.063 NA
HETATM    9  N4  UNL     1      -2.421   1.007   2.272  1.00  0.00    -0.352 N 
HETATM   10  C4  UNL     1      -3.271   0.520   3.316  1.00  0.00     0.145 C 
HETATM   11  C5  UNL     1      -3.919   1.638   4.122  1.00  0.00     0.145 C 
HETATM   12  N5  UNL     1      -4.355   2.656   3.156  1.00  0.00    -0.355 N 
HETATM   13  C10 UNL     1      -3.338   3.189   2.308  1.00  0.00     0.145 C 
HETATM   14  C11 UNL     1      -2.938   2.035   1.370  1.00  0.00     0.145 C 
HETATM   15  N7  UNL     1       0.607  -2.376   1.815  1.00  0.00    -0.231 N 
ATOM     16  H7  UNL     1       0.715  -3.292   2.249  1.00  0.00     0.177 HD
HETATM   17  C12 UNL     1       0.582  -2.244   0.375  1.00  0.00     0.165 C 
ENDROOT
BRANCH  12  18
HETATM   18  C6  UNL     1      -5.700   3.064   3.090  1.00  0.00     0.176 C 
HETATM   19  S1  UNL     1      -6.841   2.035   2.453  1.00  0.00    -0.041 SA
BRANCH  18  20
HETATM   20  N6  UNL     1      -6.106   4.321   3.554  1.00  0.00    -0.300 N 
HETATM   21  C7  UNL     1      -6.298   5.405   2.666  1.00  0.00     0.249 C 
HETATM   22  O1  UNL     1      -6.109   5.256   1.451  1.00  0.00    -0.268 OA
ATOM     23  H6  UNL     1      -6.266   4.458   4.552  1.00  0.00     0.171 HD
BRANCH  21  24
HETATM   24  C8  UNL     1      -6.725   6.725   3.145  1.00  0.00     0.110 C 
HETATM   25  C9  UNL     1      -5.873   7.627   3.563  1.00  0.00     0.108 C 
HETATM   26 CL1  UNL     1      -6.476   9.172   4.116  1.00  0.00    -0.071 Cl
HETATM   27 CL2  UNL     1      -4.145   7.357   3.593  1.00  0.00    -0.071 Cl
ENDBRANCH  21  24
ENDBRANCH  18  20
ENDBRANCH  12  18
TORSDOF 3
ENDMDL
MODEL 2
REMARK VINA RESULT: -3.985694419      3.240      4.438
REMARK  3 active torsions:
REMARK  status: ('A' for Active; 'I' for Inactive)
REMARK       I    between atoms: C2_4  and  N2_5 
REMARK       I    between atoms: C2_4  and  N7_25 
REMARK       I    between atoms: C3_7  and  N4_9 
REMARK    1  A    between atoms: N5_12  and  C6_13 
REMARK    2  A    between atoms: C6_13  and  N6_15 
REMARK       I    between atoms: N6_15  and  C7_17 
REMARK    3  A    between atoms: C7_17  and  C8_19 
ROOT
HETATM    1  C1  UNL     1       5.175  -0.146   2.509  1.00  0.00     0.165 C 
HETATM    2  N1  UNL     1       5.015  -1.457   3.060  1.00  0.00    -0.231 N 
ATOM      3  H1  UNL     1       5.829  -2.073   3.060  1.00  0.00     0.177 HD
HETATM    4  C2  UNL     1       3.918  -1.915   3.557  1.00  0.00     0.675 C 
HETATM    5  N2  UNL     1       2.709  -1.197   3.633  1.00  0.00    -0.164 N 
ATOM      6  H2  UNL     1       2.430  -0.853   4.552  1.00  0.00     0.187 HD
HETATM    7  C3  UNL     1       1.932  -0.938   2.655  1.00  0.00     0.205 C 
HETATM    8  N3  UNL     1       2.281  -1.400   1.355  1.00  0.00    -0.063 NA
HETATM    9  N4  UNL     1       0.747  -0.198   2.909  1.00  0.00    -0.352 N 
HETATM   10  C4  UNL     1       0.577   0.543   4.122  1.00  0.00     0.145 C 
HETATM   11  C5  UNL     1       0.116   1.976   3.882  1.00  0.00     0.145 C 
HETATM   12  N5  UNL     1      -0.918   1.916   2.839  1.00  0.00    -0.355 N 
HETATM   13  C10 UNL     1      -0.527   1.312   1.606  1.00  0.00     0.145 C 
HETATM   14  C11 UNL     1      -0.332  -0.182   1.922  1.00  0.00     0.145 C 
HETATM   15  N7  UNL     1       3.941  -3.245   4.062  1.00  0.00    -0.231 N 
ATOM     16  H7  UNL     1       4.433  -3.461   4.929  1.00  0.00     0.177 HD
HETATM   17  C12 UNL     1       3.257  -4.286   3.328  1.00  0.00     0.165 C 
ENDROOT
BRANCH  12  18
HETATM   18  C6  UNL     1      -2.207   2.428   3.067  1.00  0.00     0.176 C 
HETATM   19  S1  UNL     1      -2.404   3.751   4.055  1.00  0.00    -0.041 SA
BRANCH  18  20
HETATM   20  N6  UNL     1      -3.338   1.851   2.477  1.00  0.00    -0.300 N 
HETATM   21  C7  UNL     1      -3.932   2.412   1.322  1.00  0.00     0.249 C 
HETATM   22  O1  UNL     1      -3.455   3.434   0.810  1.00  0.00    -0.268 OA
ATOM     23  H6  UNL     1      -3.742   1.010   2.888  1.00  0.00     0.171 HD
BRANCH  21  24
HETATM   24  C8  UNL     1      -5.117   1.812   0.698  1.00  0.00     0.110 C 
HETATM   25  C9  UNL     1      -6.318   1.948   1.201  1.00  0.00     0.108 C 
HETATM   26 CL1  UNL     1      -7.670   1.195   0.386  1.00  0.00    -0.071 Cl
HETATM   27 CL2  UNL     1      -6.636   2.855   2.662  1.00  0.00    -0.071 Cl
ENDBRANCH  21  24
ENDBRANCH  18  20
ENDBRANCH  12  18
TORSDOF 3
ENDMDL
MODEL 3
REMARK VINA RESULT: -3.983696614      6.316      9.525
REMARK  3 active torsions:
REMARK  status: ('A' for Active; 'I' for Inactive)
REMARK       I    between atoms: C2_4  and  N2_5 
REMARK       I    between atoms: C2_4  and  N7_25 
REMARK       I    between atoms: C3_7  and  N4_9 
REMARK    1  A    between atoms: N5_12  and  C6_13 
REMARK    2  A    between atoms: C6_13  and  N6_15 
REMARK       I    between atoms: N6_15  and  C7_17 
REMARK    3  A    between atoms: C7_17  and  C8_19 
ROOT
HETATM    1  C1  UNL     1      -5.161   0.264   2.515  1.00  0.00     0.165 C 
HETATM    2  N1  UNL     1      -4.973   1.581   3.045  1.00  0.00    -0.231 N 
ATOM      3  H1  UNL     1      -5.773   2.213   3.038  1.00  0.00     0.177 HD
HETATM    4  C2  UNL     1      -3.864   2.025   3.530  1.00  0.00     0.675 C 
HETATM    5  N2  UNL     1      -2.670   1.284   3.613  1.00  0.00    -0.164 N 
ATOM      6  H2  UNL     1      -2.394   0.949   4.536  1.00  0.00     0.187 HD
HETATM    7  C3  UNL     1      -1.902   0.993   2.636  1.00  0.00     0.205 C 
HETATM    8  N3  UNL     1      -2.247   1.441   1.330  1.00  0.00    -0.063 NA
HETATM    9  N4  UNL     1      -0.731   0.234   2.898  1.00  0.00    -0.352 N 
HETATM   10  C4  UNL     1      -0.571  -0.491   4.122  1.00  0.00     0.145 C 
HETATM   11  C5  UNL     1      -0.141  -1.937   3.903  1.00  0.00     0.145 C 
HETATM   12  N5  UNL     1       0.890  -1.914   2.855  1.00  0.00    -0.355 N 
HETATM   13  C10 UNL     1       0.507  -1.323   1.614  1.00  0.00     0.145 C 
HETATM   14  C11 UNL     1       0.343   0.180   1.907  1.00  0.00     0.145 C 
HETATM   15  N7  UNL     1      -3.858   3.363   4.014  1.00  0.00    -0.231 N 
ATOM     16  H7  UNL     1      -4.342   3.603   4.878  1.00  0.00     0.177 HD
HETATM   17  C12 UNL     1      -3.156   4.378   3.260  1.00  0.00     0.165 C 
ENDROOT
BRANCH  12  18
HETATM   18  C6  UNL     1       2.170  -2.449   3.087  1.00  0.00     0.176 C 
HETATM   19  S1  UNL     1       2.333  -3.824   4.009  1.00  0.00    -0.041 SA
BRANCH  18  20
HETATM   20  N6  UNL     1       3.319  -1.852   2.555  1.00  0.00    -0.300 N 
HETATM   21  C7  UNL     1       3.899  -2.317   1.351  1.00  0.00     0.249 C 
HETATM   22  O1  UNL     1       3.392  -3.270   0.743  1.00  0.00    -0.268 OA
ATOM     23  H6  UNL     1       3.747  -1.066   3.044  1.00  0.00     0.171 HD
BRANCH  21  24
HETATM   24  C8  UNL     1       5.102  -1.695   0.787  1.00  0.00     0.110 C 
HETATM   25  C9  UNL     1       6.308  -2.019   1.181  1.00  0.00     0.108 C 
HETATM   26 CL1  UNL     1       7.683  -1.223   0.450  1.00  0.00    -0.071 Cl
HETATM   27 CL2  UNL     1       6.611  -3.223   2.413  1.00  0.00    -0.071 Cl
ENDBRANCH  21  24
ENDBRANCH  18  20
ENDBRANCH  12  18
TORSDOF 3
ENDMDL
MODEL 4
REMARK VINA RESULT: -3.930400171      2.375      3.313
REMARK  3 active torsions:
REMARK  status: ('A' for Active; 'I' for Inactive)
REMARK       I    between atoms: C2_4  and  N2_5 
REMARK       I    between atoms: C2_4  and  N7_25 
REMARK       I    between atoms: C3_7  and  N4_9 
REMARK    1  A    between atoms: N5_12  and  C6_13 
REMARK    2  A    between atoms: C6_13  and  N6_15 
REMARK       I    between atoms: N6_15  and  C7_17 
REMARK    3  A    between atoms: C7_17  and  C8_19 
ROOT
HETATM    1  C1  UNL     1       4.674   0.527   1.553  1.00  0.00     0.165 C 
HETATM    2  N1  UNL     1       4.854  -0.616   2.397  1.00  0.00    -0.231 N 
ATOM      3  H1  UNL     1       5.732  -1.130   2.317  1.00  0.00     0.177 HD
HETATM    4  C2  UNL     1       3.986  -1.043   3.249  1.00  0.00     0.675 C 
HETATM    5  N2  UNL     1       2.730  -0.451   3.481  1.00  0.00    -0.164 N 
ATOM      6  H2  UNL     1       2.619   0.081   4.344  1.00  0.00     0.187 HD
HETATM    7  C3  UNL     1       1.718  -0.521   2.707  1.00  0.00     0.205 C 
HETATM    8  N3  UNL     1       1.827  -1.253   1.492  1.00  0.00    -0.063 NA
HETATM    9  N4  UNL     1       0.522   0.139   3.096  1.00  0.00    -0.352 N 
HETATM   10  C4  UNL     1       0.521   1.137   4.122  1.00  0.00     0.145 C 
HETATM   11  C5  UNL     1      -0.202   2.412   3.707  1.00  0.00     0.145 C 
HETATM   12  N5  UNL     1      -1.426   1.994   3.008  1.00  0.00    -0.355 N 
HETATM   13  C10 UNL     1      -1.239   1.146   1.875  1.00  0.00     0.145 C 
HETATM   14  C11 UNL     1      -0.744  -0.197   2.444  1.00  0.00     0.145 C 
HETATM   15  N7  UNL     1       4.334  -2.197   4.005  1.00  0.00    -0.231 N 
ATOM     16  H7  UNL     1       5.040  -2.142   4.739  1.00  0.00     0.177 HD
HETATM   17  C12 UNL     1       3.672  -3.450   3.716  1.00  0.00     0.165 C 
ENDROOT
BRANCH  12  18
HETATM   18  C6  UNL     1      -2.693   2.418   3.448  1.00  0.00     0.176 C 
HETATM   19  S1  UNL     1      -3.918   1.306   3.623  1.00  0.00    -0.041 SA
BRANCH  18  20
HETATM   20  N6  UNL     1      -2.950   3.761   3.749  1.00  0.00    -0.300 N 
HETATM   21  C7  UNL     1      -3.402   4.663   2.758  1.00  0.00     0.249 C 
HETATM   22  O1  UNL     1      -3.579   4.273   1.595  1.00  0.00    -0.268 OA
ATOM     23  H6  UNL     1      -2.809   4.095   4.702  1.00  0.00     0.171 HD
BRANCH  21  24
HETATM   24  C8  UNL     1      -3.674   6.071   3.067  1.00  0.00     0.110 C 
HETATM   25  C9  UNL     1      -4.890   6.534   3.212  1.00  0.00     0.108 C 
HETATM   26 CL1  UNL     1      -5.116   8.228   3.578  1.00  0.00    -0.071 Cl
HETATM   27 CL2  UNL     1      -6.312   5.527   3.055  1.00  0.00    -0.071 Cl
ENDBRANCH  21  24
ENDBRANCH  18  20
ENDBRANCH  12  18
TORSDOF 3
ENDMDL
MODEL 5
REMARK VINA RESULT: -3.802573045      3.079      4.522
REMARK  3 active torsions:
REMARK  status: ('A' for Active; 'I' for Inactive)
REMARK       I    between atoms: C2_4  and  N2_5 
REMARK       I    between atoms: C2_4  and  N7_25 
REMARK       I    between atoms: C3_7  and  N4_9 
REMARK    1  A    between atoms: N5_12  and  C6_13 
REMARK    2  A    between atoms: C6_13  and  N6_15 
REMARK       I    between atoms: N6_15  and  C7_17 
REMARK    3  A    between atoms: C7_17  and  C8_19 
ROOT
HETATM    1  C1  UNL     1       5.799   0.098   1.662  1.00  0.00     0.165 C 
HETATM    2  N1  UNL     1       6.020  -1.219   2.180  1.00  0.00    -0.231 N 
ATOM      3  H1  UNL     1       6.930  -1.648   2.009  1.00  0.00     0.177 HD
HETATM    4  C2  UNL     1       5.153  -1.900   2.846  1.00  0.00     0.675 C 
HETATM    5  N2  UNL     1       3.855  -1.455   3.166  1.00  0.00    -0.164 N 
ATOM      6  H2  UNL     1       3.684  -1.180   4.133  1.00  0.00     0.187 HD
HETATM    7  C3  UNL     1       2.876  -1.366   2.354  1.00  0.00     0.205 C 
HETATM    8  N3  UNL     1       3.069  -1.741   0.995  1.00  0.00    -0.063 NA
HETATM    9  N4  UNL     1       1.630  -0.895   2.846  1.00  0.00    -0.352 N 
HETATM   10  C4  UNL     1       1.534  -0.208   4.099  1.00  0.00     0.145 C 
HETATM   11  C5  UNL     1       0.749   1.094   4.002  1.00  0.00     0.145 C 
HETATM   12  N5  UNL     1      -0.424   0.817   3.160  1.00  0.00    -0.355 N 
HETATM   13  C10 UNL     1      -0.149   0.312   1.853  1.00  0.00     0.145 C 
HETATM   14  C11 UNL     1       0.409  -1.107   2.069  1.00  0.00     0.145 C 
HETATM   15  N7  UNL     1       5.545  -3.196   3.285  1.00  0.00    -0.231 N 
ATOM     16  H7  UNL     1       6.222  -3.303   4.040  1.00  0.00     0.177 HD
HETATM   17  C12 UNL     1       4.970  -4.357   2.644  1.00  0.00     0.165 C 
ENDROOT
BRANCH  12  18
HETATM   18  C6  UNL     1      -1.727   1.043   3.635  1.00  0.00     0.176 C 
HETATM   19  S1  UNL     1      -2.662  -0.244   4.121  1.00  0.00    -0.041 SA
BRANCH  18  20
HETATM   20  N6  UNL     1      -2.262   2.335   3.714  1.00  0.00    -0.300 N 
HETATM   21  C7  UNL     1      -2.972   2.904   2.631  1.00  0.00     0.249 C 
HETATM   22  O1  UNL     1      -3.134   2.260   1.585  1.00  0.00    -0.268 OA
ATOM     23  H6  UNL     1      -2.137   2.876   4.569  1.00  0.00     0.171 HD
BRANCH  21  24
HETATM   24  C8  UNL     1      -3.536   4.257   2.707  1.00  0.00     0.110 C 
HETATM   25  C9  UNL     1      -4.808   4.474   2.924  1.00  0.00     0.108 C 
HETATM   26 CL1  UNL     1      -5.388   6.122   2.997  1.00  0.00    -0.071 Cl
HETATM   27 CL2  UNL     1      -5.966   3.182   3.147  1.00  0.00    -0.071 Cl
ENDBRANCH  21  24
ENDBRANCH  18  20
ENDBRANCH  12  18
TORSDOF 3
ENDMDL
