MODEL 1
REMARK VINA RESULT: -6.455275704      0.000      0.000
REMARK  6 active torsions:
REMARK  status: ('A' for Active; 'I' for Inactive)
REMARK    1  A    between atoms: N1_2  and  C2_4 
REMARK    2  A    between atoms: C2_4  and  C3_5 
REMARK    3  A    between atoms: C3_5  and  C4_6 
REMARK    4  A    between atoms: C4_6  and  C5_7 
REMARK    5  A    between atoms: C5_7  and  C6_8 
REMARK    6  A    between atoms: C6_8  and  N2_9 
ROOT
HETATM    1  C5  UNL     1      -0.557  -0.946  -6.795  1.00  0.00    -0.017 C 
HETATM    2  C7  UNL     1      -1.221   0.343  -7.159  1.00  0.00     0.011 C 
HETATM    3  C8  UNL     1      -1.683   0.455  -8.569  1.00  0.00     0.001 C 
HETATM    4  C9  UNL     1      -0.933   1.559  -9.322  1.00  0.00     0.000 C 
HETATM    5  C10 UNL     1       0.096   0.999 -10.250  1.00  0.00     0.000 C 
HETATM    6  C11 UNL     1       0.751  -0.275  -9.747  1.00  0.00     0.000 C 
HETATM    7  C12 UNL     1       1.272  -0.134  -8.335  1.00  0.00     0.001 C 
HETATM    8  C13 UNL     1       0.766  -1.191  -7.402  1.00  0.00     0.011 C 
ENDROOT
BRANCH   1   9
HETATM    9  C4  UNL     1      -0.538  -1.108  -5.275  1.00  0.00     0.012 C 
BRANCH   9  10
HETATM   10  C3  UNL     1       0.739  -0.776  -4.647  1.00  0.00     0.017 C 
BRANCH  10  11
HETATM   11  C2  UNL     1       0.895  -1.014  -3.180  1.00  0.00     0.107 C 
BRANCH  11  12
HETATM   12  N1  UNL     1       1.573  -2.164  -2.743  1.00  0.00    -0.232 NA
HETATM   13  C1  UNL     1       1.734  -2.267  -1.336  1.00  0.00     0.130 C 
HETATM   14 CL1  UNL     1       3.099  -2.349  -3.559  1.00  0.00    -0.022 Cl
ENDBRANCH  11  12
ENDBRANCH  10  11
ENDBRANCH   9  10
ENDBRANCH   1   9
BRANCH   1  15
HETATM   15  C6  UNL     1      -1.480  -2.081  -7.252  1.00  0.00     0.239 C 
BRANCH  15  16
HETATM   16  N2  UNL     1      -1.902  -2.911  -6.169  1.00  0.00    -0.079 N 
ATOM     17  H23 UNL     1      -1.512  -3.850  -6.252  1.00  0.00     0.274 HD
ATOM     18  H22 UNL     1      -1.460  -2.627  -5.295  1.00  0.00     0.274 HD
ATOM     19  H21 UNL     1      -2.918  -2.943  -6.075  1.00  0.00     0.274 HD
ENDBRANCH  15  16
ENDBRANCH   1  15
TORSDOF 6
ENDMDL
MODEL 2
REMARK VINA RESULT: -6.450714504      3.369      4.132
REMARK  6 active torsions:
REMARK  status: ('A' for Active; 'I' for Inactive)
REMARK    1  A    between atoms: N1_2  and  C2_4 
REMARK    2  A    between atoms: C2_4  and  C3_5 
REMARK    3  A    between atoms: C3_5  and  C4_6 
REMARK    4  A    between atoms: C4_6  and  C5_7 
REMARK    5  A    between atoms: C5_7  and  C6_8 
REMARK    6  A    between atoms: C6_8  and  N2_9 
ROOT
HETATM    1  C5  UNL     1       0.552   0.958  -6.772  1.00  0.00    -0.017 C 
HETATM    2  C7  UNL     1       1.226  -0.327  -7.135  1.00  0.00     0.011 C 
HETATM    3  C8  UNL     1       1.694  -0.434  -8.544  1.00  0.00     0.001 C 
HETATM    4  C9  UNL     1       0.954  -1.543  -9.301  1.00  0.00     0.000 C 
HETATM    5  C10 UNL     1      -0.075  -0.988 -10.232  1.00  0.00     0.000 C 
HETATM    6  C11 UNL     1      -0.740   0.281  -9.730  1.00  0.00     0.000 C 
HETATM    7  C12 UNL     1      -1.266   0.135  -8.320  1.00  0.00     0.001 C 
HETATM    8  C13 UNL     1      -0.770   1.194  -7.384  1.00  0.00     0.011 C 
ENDROOT
BRANCH   1   9
HETATM    9  C4  UNL     1       0.527   1.117  -5.252  1.00  0.00     0.012 C 
BRANCH   9  10
HETATM   10  C3  UNL     1      -0.752   0.781  -4.630  1.00  0.00     0.017 C 
BRANCH  10  11
HETATM   11  C2  UNL     1      -0.917   1.023  -3.165  1.00  0.00     0.107 C 
BRANCH  11  12
HETATM   12  N1  UNL     1      -1.570   2.190  -2.735  1.00  0.00    -0.232 NA
HETATM   13  C1  UNL     1      -1.716   2.313  -1.327  1.00  0.00     0.130 C 
HETATM   14 CL1  UNL     1      -3.100   2.395  -3.538  1.00  0.00    -0.022 Cl
ENDBRANCH  11  12
ENDBRANCH  10  11
ENDBRANCH   9  10
ENDBRANCH   1   9
BRANCH   1  15
HETATM   15  C6  UNL     1       1.469   2.099  -7.224  1.00  0.00     0.239 C 
BRANCH  15  16
HETATM   16  N2  UNL     1       1.909   2.911  -6.135  1.00  0.00    -0.079 N 
ATOM     17  H23 UNL     1       1.117   3.319  -5.638  1.00  0.00     0.274 HD
ATOM     18  H22 UNL     1       2.296   2.339  -5.384  1.00  0.00     0.274 HD
ATOM     19  H21 UNL     1       2.569   3.632  -6.427  1.00  0.00     0.274 HD
ENDBRANCH  15  16
ENDBRANCH   1  15
TORSDOF 6
ENDMDL
MODEL 3
REMARK VINA RESULT: -6.447734996      1.995      2.985
REMARK  6 active torsions:
REMARK  status: ('A' for Active; 'I' for Inactive)
REMARK    1  A    between atoms: N1_2  and  C2_4 
REMARK    2  A    between atoms: C2_4  and  C3_5 
REMARK    3  A    between atoms: C3_5  and  C4_6 
REMARK    4  A    between atoms: C4_6  and  C5_7 
REMARK    5  A    between atoms: C5_7  and  C6_8 
REMARK    6  A    between atoms: C6_8  and  N2_9 
ROOT
HETATM    1  C5  UNL     1       0.545   0.891  -6.827  1.00  0.00    -0.017 C 
HETATM    2  C7  UNL     1       1.221  -0.388  -7.205  1.00  0.00     0.011 C 
HETATM    3  C8  UNL     1       1.697  -0.476  -8.612  1.00  0.00     0.001 C 
HETATM    4  C9  UNL     1       0.961  -1.572  -9.389  1.00  0.00     0.000 C 
HETATM    5  C10 UNL     1      -0.063  -1.003 -10.318  1.00  0.00     0.000 C 
HETATM    6  C11 UNL     1      -0.730   0.259  -9.801  1.00  0.00     0.000 C 
HETATM    7  C12 UNL     1      -1.264   0.092  -8.397  1.00  0.00     0.001 C 
HETATM    8  C13 UNL     1      -0.773   1.137  -7.443  1.00  0.00     0.011 C 
ENDROOT
BRANCH   1   9
HETATM    9  C4  UNL     1       0.511   1.028  -5.305  1.00  0.00     0.012 C 
BRANCH   9  10
HETATM   10  C3  UNL     1       0.466  -0.242  -4.583  1.00  0.00     0.017 C 
BRANCH  10  11
HETATM   11  C2  UNL     1       1.390  -0.437  -3.425  1.00  0.00     0.107 C 
BRANCH  11  12
HETATM   12  N1  UNL     1       2.112  -1.638  -3.322  1.00  0.00    -0.232 NA
HETATM   13  C1  UNL     1       1.418  -2.703  -2.690  1.00  0.00     0.130 C 
HETATM   14 CL1  UNL     1       3.666  -1.381  -2.580  1.00  0.00    -0.022 Cl
ENDBRANCH  11  12
ENDBRANCH  10  11
ENDBRANCH   9  10
ENDBRANCH   1   9
BRANCH   1  15
HETATM   15  C6  UNL     1       1.465   2.038  -7.257  1.00  0.00     0.239 C 
BRANCH  15  16
HETATM   16  N2  UNL     1       1.868   2.857  -6.158  1.00  0.00    -0.079 N 
ATOM     17  H23 UNL     1       2.868   2.763  -5.977  1.00  0.00     0.274 HD
ATOM     18  H22 UNL     1       1.839   3.845  -6.407  1.00  0.00     0.274 HD
ATOM     19  H21 UNL     1       1.324   2.673  -5.314  1.00  0.00     0.274 HD
ENDBRANCH  15  16
ENDBRANCH   1  15
TORSDOF 6
ENDMDL
MODEL 4
REMARK VINA RESULT: -6.332654326      2.277      3.198
REMARK  6 active torsions:
REMARK  status: ('A' for Active; 'I' for Inactive)
REMARK    1  A    between atoms: N1_2  and  C2_4 
REMARK    2  A    between atoms: C2_4  and  C3_5 
REMARK    3  A    between atoms: C3_5  and  C4_6 
REMARK    4  A    between atoms: C4_6  and  C5_7 
REMARK    5  A    between atoms: C5_7  and  C6_8 
REMARK    6  A    between atoms: C6_8  and  N2_9 
ROOT
HETATM    1  C5  UNL     1       0.559   0.937  -6.831  1.00  0.00    -0.017 C 
HETATM    2  C7  UNL     1       1.241  -0.339  -7.206  1.00  0.00     0.011 C 
HETATM    3  C8  UNL     1       1.704  -0.433  -8.617  1.00  0.00     0.001 C 
HETATM    4  C9  UNL     1       0.969  -1.542  -9.379  1.00  0.00     0.000 C 
HETATM    5  C10 UNL     1      -0.069  -0.988 -10.302  1.00  0.00     0.000 C 
HETATM    6  C11 UNL     1      -0.741   0.272  -9.788  1.00  0.00     0.000 C 
HETATM    7  C12 UNL     1      -1.260   0.112  -8.377  1.00  0.00     0.001 C 
HETATM    8  C13 UNL     1      -0.768   1.168  -7.436  1.00  0.00     0.011 C 
ENDROOT
BRANCH   1   9
HETATM    9  C4  UNL     1       0.539   1.086  -5.310  1.00  0.00     0.012 C 
BRANCH   9  10
HETATM   10  C3  UNL     1      -0.543   0.361  -4.645  1.00  0.00     0.017 C 
BRANCH  10  11
HETATM   11  C2  UNL     1      -0.220  -0.923  -3.953  1.00  0.00     0.107 C 
BRANCH  11  12
HETATM   12  N1  UNL     1       0.816  -0.946  -3.005  1.00  0.00    -0.232 NA
HETATM   13  C1  UNL     1       1.440  -2.210  -2.830  1.00  0.00     0.130 C 
HETATM   14 CL1  UNL     1       0.295  -0.293  -1.478  1.00  0.00    -0.022 Cl
ENDBRANCH  11  12
ENDBRANCH  10  11
ENDBRANCH   9  10
ENDBRANCH   1   9
BRANCH   1  15
HETATM   15  C6  UNL     1       1.465   2.088  -7.279  1.00  0.00     0.239 C 
BRANCH  15  16
HETATM   16  N2  UNL     1       1.908   2.893  -6.185  1.00  0.00    -0.079 N 
ATOM     17  H23 UNL     1       1.369   2.694  -5.342  1.00  0.00     0.274 HD
ATOM     18  H22 UNL     1       2.830   2.599  -5.863  1.00  0.00     0.274 HD
ATOM     19  H21 UNL     1       1.895   3.889  -6.403  1.00  0.00     0.274 HD
ENDBRANCH  15  16
ENDBRANCH   1  15
TORSDOF 6
ENDMDL
MODEL 5
REMARK VINA RESULT: -6.298785212      2.450      3.374
REMARK  6 active torsions:
REMARK  status: ('A' for Active; 'I' for Inactive)
REMARK    1  A    between atoms: N1_2  and  C2_4 
REMARK    2  A    between atoms: C2_4  and  C3_5 
REMARK    3  A    between atoms: C3_5  and  C4_6 
REMARK    4  A    between atoms: C4_6  and  C5_7 
REMARK    5  A    between atoms: C5_7  and  C6_8 
REMARK    6  A    between atoms: C6_8  and  N2_9 
ROOT
HETATM    1  C5  UNL     1       0.665   1.064  -6.743  1.00  0.00    -0.017 C 
HETATM    2  C7  UNL     1       1.368  -0.211  -7.084  1.00  0.00     0.011 C 
HETATM    3  C8  UNL     1       1.719  -0.392  -8.518  1.00  0.00     0.001 C 
HETATM    4  C9  UNL     1       0.972  -1.580  -9.136  1.00  0.00     0.000 C 
HETATM    5  C10 UNL     1      -0.160  -1.133 -10.005  1.00  0.00     0.000 C 
HETATM    6  C11 UNL     1      -0.841   0.136  -9.527  1.00  0.00     0.000 C 
HETATM    7  C12 UNL     1      -1.236   0.061  -8.070  1.00  0.00     0.001 C 
HETATM    8  C13 UNL     1      -0.715   1.201  -7.250  1.00  0.00     0.011 C 
ENDROOT
BRANCH   1   9
HETATM    9  C4  UNL     1       0.762   1.323  -5.240  1.00  0.00     0.012 C 
BRANCH   9  10
HETATM   10  C3  UNL     1      -0.455   1.010  -4.492  1.00  0.00     0.017 C 
BRANCH  10  11
HETATM   11  C2  UNL     1      -0.345   0.131  -3.289  1.00  0.00     0.107 C 
BRANCH  11  12
HETATM   12  N1  UNL     1      -0.187  -1.253  -3.466  1.00  0.00    -0.232 NA
HETATM   13  C1  UNL     1       1.157  -1.712  -3.437  1.00  0.00     0.130 C 
HETATM   14 CL1  UNL     1      -1.002  -1.807  -4.901  1.00  0.00    -0.022 Cl
ENDBRANCH  11  12
ENDBRANCH  10  11
ENDBRANCH   9  10
ENDBRANCH   1   9
BRANCH   1  15
HETATM   15  C6  UNL     1       1.482   2.211  -7.345  1.00  0.00     0.239 C 
BRANCH  15  16
HETATM   16  N2  UNL     1       2.090   3.032  -6.347  1.00  0.00    -0.079 N 
ATOM     17  H23 UNL     1       3.039   2.719  -6.142  1.00  0.00     0.274 HD
ATOM     18  H22 UNL     1       2.299   3.961  -6.713  1.00  0.00     0.274 HD
ATOM     19  H21 UNL     1       1.531   3.089  -5.495  1.00  0.00     0.274 HD
ENDBRANCH  15  16
ENDBRANCH   1  15
TORSDOF 6
ENDMDL
