MODEL 1
REMARK VINA RESULT: -6.543427967      0.000      0.000
REMARK  6 active torsions:
REMARK  status: ('A' for Active; 'I' for Inactive)
REMARK    1  A    between atoms: C5_6  and  O1_7 
REMARK    2  A    between atoms: O1_7  and  C6_8 
REMARK    3  A    between atoms: C6_8  and  C7_9 
REMARK    4  A    between atoms: C7_9  and  C8_10 
REMARK    5  A    between atoms: C8_10  and  C9_11 
REMARK    6  A    between atoms: C9_11  and  N1_12 
ROOT
HETATM    1  C7  UNL     1      -0.746   0.104  -8.158  1.00  0.00    -0.017 C 
HETATM    2  C10 UNL     1       0.788  -0.028  -8.124  1.00  0.00     0.012 C 
HETATM    3  C11 UNL     1       1.027  -1.487  -8.309  1.00  0.00     0.001 C 
HETATM    4  C12 UNL     1      -0.225  -2.100  -8.885  1.00  0.00     0.001 C 
HETATM    5  C13 UNL     1      -1.282  -1.262  -8.180  1.00  0.00     0.012 C 
ENDROOT
BRANCH   1   6
HETATM    6  C6  UNL     1      -1.087   0.848  -6.897  1.00  0.00     0.177 C 
BRANCH   6   7
HETATM    7  O1  UNL     1      -0.330   0.659  -5.834  1.00  0.00    -0.385 OA
BRANCH   7   8
HETATM    8  C5  UNL     1      -0.709   0.201  -4.652  1.00  0.00     0.128 C 
HETATM    9  C2  UNL     1       0.421   0.237  -3.626  1.00  0.00     0.029 C 
HETATM   10  C1  UNL     1      -0.045   0.139  -2.197  1.00  0.00     0.014 C 
HETATM   11  C3  UNL     1       0.839  -1.126  -4.166  1.00  0.00     0.091 C 
HETATM   12 CL1  UNL     1       1.278  -2.254  -2.871  1.00  0.00    -0.124 Cl
HETATM   13  C4  UNL     1      -0.578  -1.358  -4.651  1.00  0.00     0.053 C 
ENDBRANCH   7   8
ENDBRANCH   6   7
ENDBRANCH   1   6
BRANCH   1  14
HETATM   14  C8  UNL     1      -1.160   0.948  -9.317  1.00  0.00     0.039 C 
BRANCH  14  15
HETATM   15  C9  UNL     1      -0.092   1.696 -10.027  1.00  0.00     0.230 C 
BRANCH  15  16
HETATM   16  N1  UNL     1      -0.319   3.121  -9.734  1.00  0.00    -0.079 N 
ATOM     17  H13 UNL     1      -0.011   3.743 -10.482  1.00  0.00     0.274 HD
ATOM     18  H12 UNL     1      -1.304   3.387  -9.749  1.00  0.00     0.274 HD
ATOM     19  H11 UNL     1       0.137   3.307  -8.840  1.00  0.00     0.274 HD
ENDBRANCH  15  16
ENDBRANCH  14  15
ENDBRANCH   1  14
TORSDOF 6
ENDMDL
MODEL 2
REMARK VINA RESULT: -6.539601746      2.298      3.218
REMARK  6 active torsions:
REMARK  status: ('A' for Active; 'I' for Inactive)
REMARK    1  A    between atoms: C5_6  and  O1_7 
REMARK    2  A    between atoms: O1_7  and  C6_8 
REMARK    3  A    between atoms: C6_8  and  C7_9 
REMARK    4  A    between atoms: C7_9  and  C8_10 
REMARK    5  A    between atoms: C8_10  and  C9_11 
REMARK    6  A    between atoms: C9_11  and  N1_12 
ROOT
HETATM    1  C7  UNL     1       0.765  -0.141  -8.154  1.00  0.00    -0.017 C 
HETATM    2  C10 UNL     1      -0.767   0.017  -8.133  1.00  0.00     0.012 C 
HETATM    3  C11 UNL     1      -0.980   1.480  -8.323  1.00  0.00     0.001 C 
HETATM    4  C12 UNL     1       0.288   2.070  -8.890  1.00  0.00     0.001 C 
HETATM    5  C13 UNL     1       1.324   1.215  -8.174  1.00  0.00     0.012 C 
ENDROOT
BRANCH   1   6
HETATM    6  C6  UNL     1       1.082  -0.889  -6.889  1.00  0.00     0.177 C 
BRANCH   6   7
HETATM    7  O1  UNL     1       0.324  -0.678  -5.831  1.00  0.00    -0.385 OA
BRANCH   7   8
HETATM    8  C5  UNL     1       0.706  -0.216  -4.651  1.00  0.00     0.128 C 
HETATM    9  C2  UNL     1      -0.426  -0.234  -3.627  1.00  0.00     0.029 C 
HETATM   10  C1  UNL     1       0.039  -0.132  -2.198  1.00  0.00     0.014 C 
HETATM   11  C3  UNL     1      -0.829   1.129  -4.175  1.00  0.00     0.091 C 
HETATM   12 CL1  UNL     1      -1.259   2.270  -2.889  1.00  0.00    -0.124 Cl
HETATM   13  C4  UNL     1       0.590   1.344  -4.660  1.00  0.00     0.053 C 
ENDBRANCH   7   8
ENDBRANCH   6   7
ENDBRANCH   1   6
BRANCH   1  14
HETATM   14  C8  UNL     1       1.174  -0.994  -9.308  1.00  0.00     0.039 C 
BRANCH  14  15
HETATM   15  C9  UNL     1       0.100  -1.733 -10.020  1.00  0.00     0.230 C 
BRANCH  15  16
HETATM   16  N1  UNL     1       0.341  -3.163  -9.765  1.00  0.00    -0.079 N 
ATOM     17  H13 UNL     1       1.149  -3.337  -9.166  1.00  0.00     0.274 HD
ATOM     18  H12 UNL     1      -0.359  -3.590  -9.158  1.00  0.00     0.274 HD
ATOM     19  H11 UNL     1       0.411  -3.610 -10.680  1.00  0.00     0.274 HD
ENDBRANCH  15  16
ENDBRANCH  14  15
ENDBRANCH   1  14
TORSDOF 6
ENDMDL
MODEL 3
REMARK VINA RESULT: -6.420763260      2.037      2.914
REMARK  6 active torsions:
REMARK  status: ('A' for Active; 'I' for Inactive)
REMARK    1  A    between atoms: C5_6  and  O1_7 
REMARK    2  A    between atoms: O1_7  and  C6_8 
REMARK    3  A    between atoms: C6_8  and  C7_9 
REMARK    4  A    between atoms: C7_9  and  C8_10 
REMARK    5  A    between atoms: C8_10  and  C9_11 
REMARK    6  A    between atoms: C9_11  and  N1_12 
ROOT
HETATM    1  C7  UNL     1       0.447   0.034  -8.297  1.00  0.00    -0.017 C 
HETATM    2  C10 UNL     1      -1.053   0.177  -8.618  1.00  0.00     0.012 C 
HETATM    3  C11 UNL     1      -1.206   1.613  -8.986  1.00  0.00     0.001 C 
HETATM    4  C12 UNL     1       0.158   2.161  -9.323  1.00  0.00     0.001 C 
HETATM    5  C13 UNL     1       1.010   1.389  -8.325  1.00  0.00     0.012 C 
ENDROOT
BRANCH   1   6
HETATM    6  C6  UNL     1       0.481  -0.588  -6.929  1.00  0.00     0.177 C 
BRANCH   6   7
HETATM    7  O1  UNL     1       0.459   0.208  -5.879  1.00  0.00    -0.385 OA
BRANCH   7   8
HETATM    8  C5  UNL     1      -0.542   0.390  -5.032  1.00  0.00     0.128 C 
HETATM    9  C2  UNL     1      -0.160   1.303  -3.870  1.00  0.00     0.029 C 
HETATM   10  C1  UNL     1      -1.339   1.879  -3.130  1.00  0.00     0.014 C 
HETATM   11  C3  UNL     1       0.372   0.055  -3.176  1.00  0.00     0.091 C 
HETATM   12 CL1  UNL     1      -0.063   0.004  -1.459  1.00  0.00    -0.124 Cl
HETATM   13  C4  UNL     1      -0.560  -0.797  -4.013  1.00  0.00     0.053 C 
ENDBRANCH   7   8
ENDBRANCH   6   7
ENDBRANCH   1   6
BRANCH   1  14
HETATM   14  C8  UNL     1       1.085  -0.919  -9.253  1.00  0.00     0.039 C 
BRANCH  14  15
HETATM   15  C9  UNL     1       0.180  -1.734 -10.103  1.00  0.00     0.230 C 
BRANCH  15  16
HETATM   16  N1  UNL     1       0.395  -3.138  -9.712  1.00  0.00    -0.079 N 
ATOM     17  H13 UNL     1       1.238  -3.546 -10.116  1.00  0.00     0.274 HD
ATOM     18  H12 UNL     1       0.660  -3.249  -8.733  1.00  0.00     0.274 HD
ATOM     19  H11 UNL     1      -0.458  -3.639  -9.961  1.00  0.00     0.274 HD
ENDBRANCH  15  16
ENDBRANCH  14  15
ENDBRANCH   1  14
TORSDOF 6
ENDMDL
MODEL 4
REMARK VINA RESULT: -6.383726072      1.104      1.474
REMARK  6 active torsions:
REMARK  status: ('A' for Active; 'I' for Inactive)
REMARK    1  A    between atoms: C5_6  and  O1_7 
REMARK    2  A    between atoms: O1_7  and  C6_8 
REMARK    3  A    between atoms: C6_8  and  C7_9 
REMARK    4  A    between atoms: C7_9  and  C8_10 
REMARK    5  A    between atoms: C8_10  and  C9_11 
REMARK    6  A    between atoms: C9_11  and  N1_12 
ROOT
HETATM    1  C7  UNL     1      -0.334  -0.194  -8.368  1.00  0.00    -0.017 C 
HETATM    2  C10 UNL     1       1.151  -0.377  -8.731  1.00  0.00     0.012 C 
HETATM    3  C11 UNL     1       1.250  -1.810  -9.127  1.00  0.00     0.001 C 
HETATM    4  C12 UNL     1      -0.139  -2.310  -9.436  1.00  0.00     0.001 C 
HETATM    5  C13 UNL     1      -0.940  -1.530  -8.404  1.00  0.00     0.012 C 
ENDROOT
BRANCH   1   6
HETATM    6  C6  UNL     1      -0.312   0.405  -6.990  1.00  0.00     0.177 C 
BRANCH   6   7
HETATM    7  O1  UNL     1      -0.298  -0.410  -5.954  1.00  0.00    -0.385 OA
BRANCH   7   8
HETATM    8  C5  UNL     1       0.645  -0.515  -5.031  1.00  0.00     0.128 C 
HETATM    9  C2  UNL     1       0.189  -1.338  -3.828  1.00  0.00     0.029 C 
HETATM   10  C1  UNL     1       1.318  -1.844  -2.968  1.00  0.00     0.014 C 
HETATM   11  C3  UNL     1      -0.393  -0.045  -3.271  1.00  0.00     0.091 C 
HETATM   12 CL1  UNL     1      -0.073   0.144  -1.538  1.00  0.00    -0.124 Cl
HETATM   13  C4  UNL     1       0.591   0.747  -4.109  1.00  0.00     0.053 C 
ENDBRANCH   7   8
ENDBRANCH   6   7
ENDBRANCH   1   6
BRANCH   1  14
HETATM   14  C8  UNL     1      -0.967   0.795  -9.290  1.00  0.00     0.039 C 
BRANCH  14  15
HETATM   15  C9  UNL     1      -0.058   1.671 -10.073  1.00  0.00     0.230 C 
BRANCH  15  16
HETATM   16  N1  UNL     1      -0.416   3.057  -9.726  1.00  0.00    -0.079 N 
ATOM     17  H13 UNL     1      -1.072   3.482 -10.382  1.00  0.00     0.274 HD
ATOM     18  H12 UNL     1      -1.006   3.127  -8.896  1.00  0.00     0.274 HD
ATOM     19  H11 UNL     1       0.463   3.569  -9.643  1.00  0.00     0.274 HD
ENDBRANCH  15  16
ENDBRANCH  14  15
ENDBRANCH   1  14
TORSDOF 6
ENDMDL
MODEL 5
REMARK VINA RESULT: -6.232142219      2.389      3.240
REMARK  6 active torsions:
REMARK  status: ('A' for Active; 'I' for Inactive)
REMARK    1  A    between atoms: C5_6  and  O1_7 
REMARK    2  A    between atoms: O1_7  and  C6_8 
REMARK    3  A    between atoms: C6_8  and  C7_9 
REMARK    4  A    between atoms: C7_9  and  C8_10 
REMARK    5  A    between atoms: C8_10  and  C9_11 
REMARK    6  A    between atoms: C9_11  and  N1_12 
ROOT
HETATM    1  C7  UNL     1       0.077  -0.601  -8.209  1.00  0.00    -0.017 C 
HETATM    2  C10 UNL     1      -0.947   0.534  -8.025  1.00  0.00     0.012 C 
HETATM    3  C11 UNL     1      -0.866   1.301  -9.300  1.00  0.00     0.001 C 
HETATM    4  C12 UNL     1      -0.209   0.424 -10.336  1.00  0.00     0.001 C 
HETATM    5  C13 UNL     1       0.788  -0.322  -9.461  1.00  0.00     0.012 C 
ENDROOT
BRANCH   1   6
HETATM    6  C6  UNL     1       0.962  -0.508  -6.997  1.00  0.00     0.177 C 
BRANCH   6   7
HETATM    7  O1  UNL     1       0.442  -0.792  -5.819  1.00  0.00    -0.385 OA
BRANCH   7   8
HETATM    8  C5  UNL     1       0.794  -0.291  -4.646  1.00  0.00     0.128 C 
HETATM    9  C2  UNL     1      -0.352  -0.318  -3.637  1.00  0.00     0.029 C 
HETATM   10  C1  UNL     1       0.090  -0.168  -2.204  1.00  0.00     0.014 C 
HETATM   11  C3  UNL     1      -0.786   1.020  -4.223  1.00  0.00     0.091 C 
HETATM   12 CL1  UNL     1      -1.266   2.179  -2.971  1.00  0.00    -0.124 Cl
HETATM   13  C4  UNL     1       0.634   1.264  -4.694  1.00  0.00     0.053 C 
ENDBRANCH   7   8
ENDBRANCH   6   7
ENDBRANCH   1   6
BRANCH   1  14
HETATM   14  C8  UNL     1      -0.615  -1.923  -8.173  1.00  0.00     0.039 C 
BRANCH  14  15
HETATM   15  C9  UNL     1      -1.972  -1.962  -7.571  1.00  0.00     0.230 C 
BRANCH  15  16
HETATM   16  N1  UNL     1      -1.873  -2.822  -6.380  1.00  0.00    -0.079 N 
ATOM     17  H13 UNL     1      -1.692  -3.802  -6.601  1.00  0.00     0.274 HD
ATOM     18  H12 UNL     1      -1.027  -2.660  -5.832  1.00  0.00     0.274 HD
ATOM     19  H11 UNL     1      -2.733  -2.679  -5.849  1.00  0.00     0.274 HD
ENDBRANCH  15  16
ENDBRANCH  14  15
ENDBRANCH   1  14
TORSDOF 6
ENDMDL
