MODEL 1
REMARK VINA RESULT: -5.037442681      0.000      0.000
REMARK  5 active torsions:
REMARK  status: ('A' for Active; 'I' for Inactive)
REMARK    1  A    between atoms: C2_2  and  C3_3 
REMARK    2  A    between atoms: C3_3  and  S1_4 
REMARK    3  A    between atoms: C3_3  and  C6_10 
REMARK    4  A    between atoms: S1_4  and  C4_5 
REMARK       I    between atoms: C4_5  and  N1_7 
REMARK    5  A    between atoms: C6_10  and  C7_12 
ROOT
HETATM    1  C3  UNL     1       0.285   0.608  -8.165  1.00  0.00     0.093 C 
ENDROOT
BRANCH   1   2
HETATM    2  C2  UNL     1       0.419   1.968  -8.697  1.00  0.00    -0.020 C 
HETATM    3  C1  UNL     1      -0.543   2.528  -9.420  1.00  0.00     0.008 C 
ENDBRANCH   1   2
BRANCH   1   4
HETATM    4  S1  UNL     1      -0.621   0.616  -6.577  1.00  0.00    -0.059 SA
BRANCH   4   5
HETATM    5  C4  UNL     1       0.462   0.460  -5.185  1.00  0.00     0.280 C 
HETATM    6  O1  UNL     1       1.056   1.467  -4.753  1.00  0.00    -0.260 OA
HETATM    7  N1  UNL     1       0.652  -0.794  -4.574  1.00  0.00    -0.356 N 
HETATM    8  C5  UNL     1       1.533  -0.987  -3.427  1.00  0.00     0.150 C 
ATOM      9  H1  UNL     1       0.152  -1.601  -4.949  1.00  0.00     0.162 HD
ENDBRANCH   4   5
ENDBRANCH   1   4
BRANCH   1  10
HETATM   10  C6  UNL     1      -0.482  -0.306  -9.080  1.00  0.00     0.075 C 
HETATM   11 BR1  UNL     1      -1.346  -1.609  -7.891  1.00  0.00    -0.090 Br
BRANCH  10  12
HETATM   12  C7  UNL     1       0.327  -1.095 -10.044  1.00  0.00     0.013 C 
HETATM   13  C8  UNL     1       0.445  -2.554  -9.795  1.00  0.00     0.006 C 
ENDBRANCH  10  12
ENDBRANCH   1  10
TORSDOF 5
ENDMDL
MODEL 2
REMARK VINA RESULT: -5.032938996      2.121      3.305
REMARK  5 active torsions:
REMARK  status: ('A' for Active; 'I' for Inactive)
REMARK    1  A    between atoms: C2_2  and  C3_3 
REMARK    2  A    between atoms: C3_3  and  S1_4 
REMARK    3  A    between atoms: C3_3  and  C6_10 
REMARK    4  A    between atoms: S1_4  and  C4_5 
REMARK       I    between atoms: C4_5  and  N1_7 
REMARK    5  A    between atoms: C6_10  and  C7_12 
ROOT
HETATM    1  C3  UNL     1      -0.272  -0.636  -8.157  1.00  0.00     0.093 C 
ENDROOT
BRANCH   1   2
HETATM    2  C2  UNL     1      -0.397  -1.993  -8.697  1.00  0.00    -0.020 C 
HETATM    3  C1  UNL     1       0.565  -2.541  -9.428  1.00  0.00     0.008 C 
ENDBRANCH   1   2
BRANCH   1   4
HETATM    4  S1  UNL     1       0.632  -0.648  -6.567  1.00  0.00    -0.059 SA
BRANCH   4   5
HETATM    5  C4  UNL     1      -0.453  -0.479  -5.177  1.00  0.00     0.280 C 
HETATM    6  O1  UNL     1      -1.048  -1.481  -4.737  1.00  0.00    -0.260 OA
HETATM    7  N1  UNL     1      -0.641   0.781  -4.577  1.00  0.00    -0.356 N 
HETATM    8  C5  UNL     1      -1.523   0.984  -3.433  1.00  0.00     0.150 C 
ATOM      9  H1  UNL     1      -0.140   1.583  -4.958  1.00  0.00     0.162 HD
ENDBRANCH   4   5
ENDBRANCH   1   4
BRANCH   1  10
HETATM   10  C6  UNL     1       0.492   0.287  -9.065  1.00  0.00     0.075 C 
HETATM   11 BR1  UNL     1       1.343   1.591  -7.867  1.00  0.00    -0.090 Br
BRANCH  10  12
HETATM   12  C7  UNL     1      -0.318   1.075 -10.029  1.00  0.00     0.013 C 
HETATM   13  C8  UNL     1      -0.388   2.543  -9.815  1.00  0.00     0.006 C 
ENDBRANCH  10  12
ENDBRANCH   1  10
TORSDOF 5
ENDMDL
MODEL 3
REMARK VINA RESULT: -5.003465377      1.107      1.117
REMARK  5 active torsions:
REMARK  status: ('A' for Active; 'I' for Inactive)
REMARK    1  A    between atoms: C2_2  and  C3_3 
REMARK    2  A    between atoms: C3_3  and  S1_4 
REMARK    3  A    between atoms: C3_3  and  C6_10 
REMARK    4  A    between atoms: S1_4  and  C4_5 
REMARK       I    between atoms: C4_5  and  N1_7 
REMARK    5  A    between atoms: C6_10  and  C7_12 
ROOT
HETATM    1  C3  UNL     1       0.587  -0.197  -7.619  1.00  0.00     0.093 C 
ENDROOT
BRANCH   1   2
HETATM    2  C2  UNL     1       1.460   0.843  -8.172  1.00  0.00    -0.020 C 
HETATM    3  C1  UNL     1       1.530   2.051  -7.628  1.00  0.00     0.008 C 
ENDBRANCH   1   2
BRANCH   1   4
HETATM    4  S1  UNL     1      -0.323   0.423  -6.160  1.00  0.00    -0.059 SA
BRANCH   4   5
HETATM    5  C4  UNL     1       0.525   0.079  -4.644  1.00  0.00     0.280 C 
HETATM    6  O1  UNL     1       1.168   0.985  -4.080  1.00  0.00    -0.260 OA
HETATM    7  N1  UNL     1       0.473  -1.211  -4.082  1.00  0.00    -0.356 N 
HETATM    8  C5  UNL     1       1.153  -1.557  -2.838  1.00  0.00     0.150 C 
ATOM      9  H1  UNL     1      -0.062  -1.933  -4.565  1.00  0.00     0.162 HD
ENDBRANCH   4   5
ENDBRANCH   1   4
BRANCH   1  10
HETATM   10  C6  UNL     1      -0.457  -0.665  -8.595  1.00  0.00     0.075 C 
HETATM   11 BR1  UNL     1      -1.495  -2.020  -7.622  1.00  0.00    -0.090 Br
BRANCH  10  12
HETATM   12  C7  UNL     1       0.047  -1.331  -9.823  1.00  0.00     0.013 C 
HETATM   13  C8  UNL     1       0.537  -2.726  -9.686  1.00  0.00     0.006 C 
ENDBRANCH  10  12
ENDBRANCH   1  10
TORSDOF 5
ENDMDL
MODEL 4
REMARK VINA RESULT: -4.983184995      2.154      3.188
REMARK  5 active torsions:
REMARK  status: ('A' for Active; 'I' for Inactive)
REMARK    1  A    between atoms: C2_2  and  C3_3 
REMARK    2  A    between atoms: C3_3  and  S1_4 
REMARK    3  A    between atoms: C3_3  and  C6_10 
REMARK    4  A    between atoms: S1_4  and  C4_5 
REMARK       I    between atoms: C4_5  and  N1_7 
REMARK    5  A    between atoms: C6_10  and  C7_12 
ROOT
HETATM    1  C3  UNL     1      -0.609   0.248  -7.541  1.00  0.00     0.093 C 
ENDROOT
BRANCH   1   2
HETATM    2  C2  UNL     1      -1.588  -0.709  -8.067  1.00  0.00    -0.020 C 
HETATM    3  C1  UNL     1      -1.605  -1.974  -7.668  1.00  0.00     0.008 C 
ENDBRANCH   1   2
BRANCH   1   4
HETATM    4  S1  UNL     1       0.333  -0.480  -6.154  1.00  0.00    -0.059 SA
BRANCH   4   5
HETATM    5  C4  UNL     1       0.144   0.446  -4.656  1.00  0.00     0.280 C 
HETATM    6  O1  UNL     1       1.127   0.612  -3.908  1.00  0.00    -0.260 OA
HETATM    7  N1  UNL     1      -1.110   0.987  -4.314  1.00  0.00    -0.356 N 
HETATM    8  C5  UNL     1      -1.329   1.755  -3.092  1.00  0.00     0.150 C 
ATOM      9  H1  UNL     1      -1.896   0.836  -4.945  1.00  0.00     0.162 HD
ENDBRANCH   4   5
ENDBRANCH   1   4
BRANCH   1  10
HETATM   10  C6  UNL     1       0.409   0.666  -8.565  1.00  0.00     0.075 C 
HETATM   11 BR1  UNL     1       1.513   2.019  -7.663  1.00  0.00    -0.090 Br
BRANCH  10  12
HETATM   12  C7  UNL     1      -0.124   1.315  -9.791  1.00  0.00     0.013 C 
HETATM   13  C8  UNL     1      -0.603   2.714  -9.664  1.00  0.00     0.006 C 
ENDBRANCH  10  12
ENDBRANCH   1  10
TORSDOF 5
ENDMDL
MODEL 5
REMARK VINA RESULT: -4.945511170      1.811      3.105
REMARK  5 active torsions:
REMARK  status: ('A' for Active; 'I' for Inactive)
REMARK    1  A    between atoms: C2_2  and  C3_3 
REMARK    2  A    between atoms: C3_3  and  S1_4 
REMARK    3  A    between atoms: C3_3  and  C6_10 
REMARK    4  A    between atoms: S1_4  and  C4_5 
REMARK       I    between atoms: C4_5  and  N1_7 
REMARK    5  A    between atoms: C6_10  and  C7_12 
ROOT
HETATM    1  C3  UNL     1      -1.078  -0.246  -7.778  1.00  0.00     0.093 C 
ENDROOT
BRANCH   1   2
HETATM    2  C2  UNL     1      -1.551  -1.634  -7.790  1.00  0.00    -0.020 C 
HETATM    3  C1  UNL     1      -1.568  -2.370  -6.687  1.00  0.00     0.008 C 
ENDBRANCH   1   2
BRANCH   1   4
HETATM    4  S1  UNL     1       0.477  -0.095  -6.828  1.00  0.00    -0.059 SA
BRANCH   4   5
HETATM    5  C4  UNL     1       0.265   0.833  -5.335  1.00  0.00     0.280 C 
HETATM    6  O1  UNL     1       1.111   1.691  -5.020  1.00  0.00    -0.260 OA
HETATM    7  N1  UNL     1      -0.853   0.600  -4.512  1.00  0.00    -0.356 N 
HETATM    8  C5  UNL     1      -1.082   1.330  -3.269  1.00  0.00     0.150 C 
ATOM      9  H1  UNL     1      -1.530  -0.107  -4.795  1.00  0.00     0.162 HD
ENDBRANCH   4   5
ENDBRANCH   1   4
BRANCH   1  10
HETATM   10  C6  UNL     1      -0.782   0.284  -9.153  1.00  0.00     0.075 C 
HETATM   11 BR1  UNL     1       0.202  -1.159 -10.054  1.00  0.00    -0.090 Br
BRANCH  10  12
HETATM   12  C7  UNL     1       0.091   1.484  -9.218  1.00  0.00     0.013 C 
HETATM   13  C8  UNL     1      -0.534   2.753  -9.670  1.00  0.00     0.006 C 
ENDBRANCH  10  12
ENDBRANCH   1  10
TORSDOF 5
ENDMDL
