MODEL 1
REMARK VINA RESULT: -6.058615847      0.000      0.000
REMARK  6 active torsions:
REMARK  status: ('A' for Active; 'I' for Inactive)
REMARK    1  A    between atoms: C1_4  and  C2_5 
REMARK    2  A    between atoms: C1_4  and  N2_13 
REMARK    3  A    between atoms: C2_5  and  S1_6 
REMARK    4  A    between atoms: S1_6  and  C3_7 
REMARK    5  A    between atoms: C3_7  and  C4_8 
REMARK    6  A    between atoms: N2_13  and  C9_15 
ROOT
HETATM    1  F1  UNL     1      -1.482  -2.093  -5.368  1.00  0.00    -0.100 F 
HETATM    2  N1  UNL     1      -1.109  -1.523  -6.525  1.00  0.00    -0.212 N 
ATOM      3  H1  UNL     1      -1.652  -1.676  -7.374  1.00  0.00     0.201 HD
HETATM    4  C1  UNL     1      -0.061  -0.782  -6.552  1.00  0.00     0.112 C 
ENDROOT
BRANCH   4   5
HETATM    5  C2  UNL     1       0.695  -0.590  -5.284  1.00  0.00     0.151 C 
BRANCH   5   6
HETATM    6  S1  UNL     1       0.273   0.976  -4.488  1.00  0.00    -0.161 SA
BRANCH   6   7
HETATM    7  C3  UNL     1      -1.240   0.762  -3.547  1.00  0.00     0.078 C 
BRANCH   7   8
HETATM    8  C4  UNL     1      -1.645   1.999  -2.781  1.00  0.00    -0.005 C 
HETATM    9  C5  UNL     1      -1.705   1.779  -1.296  1.00  0.00     0.005 C 
HETATM   10  C6  UNL     1      -3.153   1.983  -0.885  1.00  0.00     0.000 C 
HETATM   11  C7  UNL     1      -3.877   1.553  -2.152  1.00  0.00     0.000 C 
HETATM   12  C8  UNL     1      -3.086   2.306  -3.210  1.00  0.00     0.005 C 
ENDBRANCH   7   8
ENDBRANCH   6   7
ENDBRANCH   5   6
ENDBRANCH   4   5
BRANCH   4  13
HETATM   13  N2  UNL     1       0.367  -0.160  -7.761  1.00  0.00    -0.373 N 
ATOM     14  H2  UNL     1       1.149  -0.558  -8.281  1.00  0.00     0.161 HD
BRANCH  13  15
HETATM   15  C9  UNL     1      -0.280   1.010  -8.256  1.00  0.00     0.082 C 
HETATM   16  C10 UNL     1      -0.472   1.044  -9.776  1.00  0.00     0.025 C 
HETATM   17  C11 UNL     1      -0.201   2.546  -9.686  1.00  0.00     0.004 C 
HETATM   18  C12 UNL     1       0.582   2.235  -8.404  1.00  0.00     0.025 C 
ENDBRANCH  13  15
ENDBRANCH   4  13
TORSDOF 6
ENDMDL
MODEL 2
REMARK VINA RESULT: -6.025381908      3.202      4.746
REMARK  6 active torsions:
REMARK  status: ('A' for Active; 'I' for Inactive)
REMARK    1  A    between atoms: C1_4  and  C2_5 
REMARK    2  A    between atoms: C1_4  and  N2_13 
REMARK    3  A    between atoms: C2_5  and  S1_6 
REMARK    4  A    between atoms: S1_6  and  C3_7 
REMARK    5  A    between atoms: C3_7  and  C4_8 
REMARK    6  A    between atoms: N2_13  and  C9_15 
ROOT
HETATM    1  F1  UNL     1       1.443   2.131  -5.536  1.00  0.00    -0.100 F 
HETATM    2  N1  UNL     1       0.969   1.460  -6.597  1.00  0.00    -0.212 N 
ATOM      3  H1  UNL     1       1.404   1.569  -7.512  1.00  0.00     0.201 HD
HETATM    4  C1  UNL     1      -0.039   0.679  -6.449  1.00  0.00     0.112 C 
ENDROOT
BRANCH   4   5
HETATM    5  C2  UNL     1      -0.636   0.555  -5.091  1.00  0.00     0.151 C 
BRANCH   5   6
HETATM    6  S1  UNL     1      -0.203  -1.017  -4.314  1.00  0.00    -0.161 SA
BRANCH   6   7
HETATM    7  C3  UNL     1       1.406  -0.858  -3.535  1.00  0.00     0.078 C 
BRANCH   7   8
HETATM    8  C4  UNL     1       1.836  -2.102  -2.794  1.00  0.00    -0.005 C 
HETATM    9  C5  UNL     1       1.810  -1.936  -1.301  1.00  0.00     0.005 C 
HETATM   10  C6  UNL     1       3.245  -2.085  -0.823  1.00  0.00     0.000 C 
HETATM   11  C7  UNL     1       4.008  -1.571  -2.035  1.00  0.00     0.000 C 
HETATM   12  C8  UNL     1       3.310  -2.321  -3.159  1.00  0.00     0.005 C 
ENDBRANCH   7   8
ENDBRANCH   6   7
ENDBRANCH   5   6
ENDBRANCH   4   5
BRANCH   4  13
HETATM   13  N2  UNL     1      -0.571  -0.051  -7.552  1.00  0.00    -0.373 N 
ATOM     14  H2  UNL     1      -1.535   0.113  -7.843  1.00  0.00     0.161 HD
BRANCH  13  15
HETATM   15  C9  UNL     1       0.221  -1.004  -8.255  1.00  0.00     0.082 C 
HETATM   16  C10 UNL     1       0.312  -0.774  -9.768  1.00  0.00     0.025 C 
HETATM   17  C11 UNL     1       0.295  -2.296  -9.909  1.00  0.00     0.004 C 
HETATM   18  C12 UNL     1      -0.439  -2.321  -8.563  1.00  0.00     0.025 C 
ENDBRANCH  13  15
ENDBRANCH   4  13
TORSDOF 6
ENDMDL
MODEL 3
REMARK VINA RESULT: -6.020885345      2.141      2.501
REMARK  6 active torsions:
REMARK  status: ('A' for Active; 'I' for Inactive)
REMARK    1  A    between atoms: C1_4  and  C2_5 
REMARK    2  A    between atoms: C1_4  and  N2_13 
REMARK    3  A    between atoms: C2_5  and  S1_6 
REMARK    4  A    between atoms: S1_6  and  C3_7 
REMARK    5  A    between atoms: C3_7  and  C4_8 
REMARK    6  A    between atoms: N2_13  and  C9_15 
ROOT
HETATM    1  F1  UNL     1       2.295   3.324  -5.958  1.00  0.00    -0.100 F 
HETATM    2  N1  UNL     1       1.711   2.501  -6.842  1.00  0.00    -0.212 N 
ATOM      3  H1  UNL     1       1.819   2.660  -7.844  1.00  0.00     0.201 HD
HETATM    4  C1  UNL     1       1.015   1.510  -6.416  1.00  0.00     0.112 C 
ENDROOT
BRANCH   4   5
HETATM    5  C2  UNL     1       0.892   1.322  -4.945  1.00  0.00     0.151 C 
BRANCH   5   6
HETATM    6  S1  UNL     1      -0.752   0.730  -4.485  1.00  0.00    -0.161 SA
BRANCH   6   7
HETATM    7  C3  UNL     1      -0.931   0.839  -2.702  1.00  0.00     0.078 C 
BRANCH   7   8
HETATM    8  C4  UNL     1      -1.639   2.095  -2.250  1.00  0.00    -0.005 C 
HETATM    9  C5  UNL     1      -2.097   2.030  -0.821  1.00  0.00     0.005 C 
HETATM   10  C6  UNL     1      -3.615   2.105  -0.849  1.00  0.00     0.000 C 
HETATM   11  C7  UNL     1      -3.912   1.458  -2.193  1.00  0.00     0.000 C 
HETATM   12  C8  UNL     1      -2.920   2.181  -3.090  1.00  0.00     0.005 C 
ENDBRANCH   7   8
ENDBRANCH   6   7
ENDBRANCH   5   6
ENDBRANCH   4   5
BRANCH   4  13
HETATM   13  N2  UNL     1       0.380   0.614  -7.325  1.00  0.00    -0.373 N 
ATOM     14  H2  UNL     1      -0.317  -0.044  -6.975  1.00  0.00     0.161 HD
BRANCH  13  15
HETATM   15  C9  UNL     1       0.701   0.623  -8.713  1.00  0.00     0.082 C 
HETATM   16  C10 UNL     1      -0.406   1.160  -9.626  1.00  0.00     0.025 C 
HETATM   17  C11 UNL     1       0.038   0.103 -10.637  1.00  0.00     0.004 C 
HETATM   18  C12 UNL     1       0.567  -0.691  -9.436  1.00  0.00     0.025 C 
ENDBRANCH  13  15
ENDBRANCH   4  13
TORSDOF 6
ENDMDL
MODEL 4
REMARK VINA RESULT: -5.999498618      2.880      4.254
REMARK  6 active torsions:
REMARK  status: ('A' for Active; 'I' for Inactive)
REMARK    1  A    between atoms: C1_4  and  C2_5 
REMARK    2  A    between atoms: C1_4  and  N2_13 
REMARK    3  A    between atoms: C2_5  and  S1_6 
REMARK    4  A    between atoms: S1_6  and  C3_7 
REMARK    5  A    between atoms: C3_7  and  C4_8 
REMARK    6  A    between atoms: N2_13  and  C9_15 
ROOT
HETATM    1  F1  UNL     1      -2.207  -3.274  -5.959  1.00  0.00    -0.100 F 
HETATM    2  N1  UNL     1      -1.643  -2.452  -6.859  1.00  0.00    -0.212 N 
ATOM      3  H1  UNL     1      -1.727  -2.645  -7.857  1.00  0.00     0.201 HD
HETATM    4  C1  UNL     1      -0.996  -1.422  -6.451  1.00  0.00     0.112 C 
ENDROOT
BRANCH   4   5
HETATM    5  C2  UNL     1      -0.905  -1.186  -4.985  1.00  0.00     0.151 C 
BRANCH   5   6
HETATM    6  S1  UNL     1       0.785  -0.800  -4.475  1.00  0.00    -0.161 SA
BRANCH   6   7
HETATM    7  C3  UNL     1       0.908  -0.969  -2.692  1.00  0.00     0.078 C 
BRANCH   7   8
HETATM    8  C4  UNL     1       1.686  -2.189  -2.262  1.00  0.00    -0.005 C 
HETATM    9  C5  UNL     1       2.103  -2.143  -0.820  1.00  0.00     0.005 C 
HETATM   10  C6  UNL     1       3.623  -2.117  -0.807  1.00  0.00     0.000 C 
HETATM   11  C7  UNL     1       3.910  -1.406  -2.121  1.00  0.00     0.000 C 
HETATM   12  C8  UNL     1       2.991  -2.162  -3.069  1.00  0.00     0.005 C 
ENDBRANCH   7   8
ENDBRANCH   6   7
ENDBRANCH   5   6
ENDBRANCH   4   5
BRANCH   4  13
HETATM   13  N2  UNL     1      -0.383  -0.527  -7.376  1.00  0.00    -0.373 N 
ATOM     14  H2  UNL     1       0.313   0.141  -7.042  1.00  0.00     0.161 HD
BRANCH  13  15
HETATM   15  C9  UNL     1      -0.725  -0.549  -8.759  1.00  0.00     0.082 C 
HETATM   16  C10 UNL     1       0.346  -1.149  -9.677  1.00  0.00     0.025 C 
HETATM   17  C11 UNL     1      -0.070  -0.093 -10.702  1.00  0.00     0.004 C 
HETATM   18  C12 UNL     1      -0.548   0.744  -9.509  1.00  0.00     0.025 C 
ENDBRANCH  13  15
ENDBRANCH   4  13
TORSDOF 6
ENDMDL
MODEL 5
REMARK VINA RESULT: -5.993397183      1.055      1.320
REMARK  6 active torsions:
REMARK  status: ('A' for Active; 'I' for Inactive)
REMARK    1  A    between atoms: C1_4  and  C2_5 
REMARK    2  A    between atoms: C1_4  and  N2_13 
REMARK    3  A    between atoms: C2_5  and  S1_6 
REMARK    4  A    between atoms: S1_6  and  C3_7 
REMARK    5  A    between atoms: C3_7  and  C4_8 
REMARK    6  A    between atoms: N2_13  and  C9_15 
ROOT
HETATM    1  F1  UNL     1      -1.990  -3.084  -6.028  1.00  0.00    -0.100 F 
HETATM    2  N1  UNL     1      -1.550  -2.204  -6.941  1.00  0.00    -0.212 N 
ATOM      3  H1  UNL     1      -1.759  -2.340  -7.930  1.00  0.00     0.201 HD
HETATM    4  C1  UNL     1      -0.862  -1.190  -6.558  1.00  0.00     0.112 C 
ENDROOT
BRANCH   4   5
HETATM    5  C2  UNL     1      -0.587  -1.039  -5.103  1.00  0.00     0.151 C 
BRANCH   5   6
HETATM    6  S1  UNL     1      -0.597   0.696  -4.600  1.00  0.00    -0.161 SA
BRANCH   6   7
HETATM    7  C3  UNL     1      -0.850   0.786  -2.825  1.00  0.00     0.078 C 
BRANCH   7   8
HETATM    8  C4  UNL     1      -1.540   2.055  -2.385  1.00  0.00    -0.005 C 
HETATM    9  C5  UNL     1      -1.963   2.025  -0.944  1.00  0.00     0.005 C 
HETATM   10  C6  UNL     1      -3.480   2.107  -0.935  1.00  0.00     0.000 C 
HETATM   11  C7  UNL     1      -3.814   1.431  -2.256  1.00  0.00     0.000 C 
HETATM   12  C8  UNL     1      -2.842   2.128  -3.195  1.00  0.00     0.005 C 
ENDBRANCH   7   8
ENDBRANCH   6   7
ENDBRANCH   5   6
ENDBRANCH   4   5
BRANCH   4  13
HETATM   13  N2  UNL     1      -0.377  -0.235  -7.498  1.00  0.00    -0.373 N 
ATOM     14  H2  UNL     1       0.194   0.545  -7.171  1.00  0.00     0.161 HD
BRANCH  13  15
HETATM   15  C9  UNL     1      -0.674  -0.351  -8.887  1.00  0.00     0.082 C 
HETATM   16  C10 UNL     1       0.439  -0.977  -9.733  1.00  0.00     0.025 C 
HETATM   17  C11 UNL     1       0.029   0.001 -10.834  1.00  0.00     0.004 C 
HETATM   18  C12 UNL     1      -0.507   0.897  -9.711  1.00  0.00     0.025 C 
ENDBRANCH  13  15
ENDBRANCH   4  13
TORSDOF 6
ENDMDL
