MODEL 1
REMARK VINA RESULT: -7.267123346      0.000      0.000
REMARK  6 active torsions:
REMARK  status: ('A' for Active; 'I' for Inactive)
REMARK    1  A    between atoms: C2_2  and  O1_3 
REMARK    2  A    between atoms: C2_2  and  C11_17 
REMARK    3  A    between atoms: O1_3  and  C3_4 
REMARK    4  A    between atoms: C3_4  and  C4_5 
REMARK    5  A    between atoms: C7_8  and  C8_9 
REMARK    6  A    between atoms: C8_9  and  N1_10 
ROOT
HETATM    1  C4  UNL     1       0.046   0.579  -6.289  1.00  0.00     0.012 C 
HETATM    2  C5  UNL     1       0.943   1.239  -7.301  1.00  0.00     0.007 C 
HETATM    3  C6  UNL     1       1.468   0.254  -8.321  1.00  0.00     0.009 C 
HETATM    4  C7  UNL     1       0.319  -0.304  -9.134  1.00  0.00     0.045 C 
HETATM    5  C9  UNL     1      -0.800  -0.625  -8.233  1.00  0.00     0.176 C 
HETATM    6  F1  UNL     1      -1.781   0.325  -8.139  1.00  0.00    -0.249 F 
HETATM    7  C10 UNL     1      -0.256  -0.820  -6.823  1.00  0.00     0.044 C 
ENDROOT
BRANCH   1   8
HETATM    8  C3  UNL     1       0.662   0.457  -4.934  1.00  0.00     0.172 C 
BRANCH   8   9
HETATM    9  O1  UNL     1       1.008  -0.809  -4.553  1.00  0.00    -0.386 OA
BRANCH   9  10
HETATM   10  C2  UNL     1       0.591  -1.215  -3.317  1.00  0.00     0.121 C 
HETATM   11  C1  UNL     1       0.031  -0.084  -2.465  1.00  0.00     0.040 C 
BRANCH  10  12
HETATM   12  C11 UNL     1       1.665  -1.892  -2.503  1.00  0.00     0.014 C 
HETATM   13  C12 UNL     1       3.053  -1.441  -2.890  1.00  0.00     0.007 C 
HETATM   14  C13 UNL     1       3.880  -2.012  -1.756  1.00  0.00     0.000 C 
HETATM   15  C14 UNL     1       2.955  -2.088  -0.554  1.00  0.00     0.000 C 
HETATM   16  C15 UNL     1       1.612  -1.568  -1.046  1.00  0.00     0.007 C 
ENDBRANCH  10  12
ENDBRANCH   9  10
ENDBRANCH   8   9
ENDBRANCH   1   8
BRANCH   4  17
HETATM   17  C8  UNL     1       0.003   0.586 -10.293  1.00  0.00     0.237 C 
BRANCH  17  18
HETATM   18  N1  UNL     1       0.017  -0.033 -11.566  1.00  0.00    -0.079 N 
ATOM     19  H13 UNL     1      -0.813  -0.615 -11.679  1.00  0.00     0.274 HD
ATOM     20  H12 UNL     1      -0.147   0.662 -12.293  1.00  0.00     0.274 HD
ATOM     21  H11 UNL     1       0.854  -0.574 -11.787  1.00  0.00     0.274 HD
ENDBRANCH  17  18
ENDBRANCH   4  17
TORSDOF 6
ENDMDL
MODEL 2
REMARK VINA RESULT: -7.264831929      2.272      3.927
REMARK  6 active torsions:
REMARK  status: ('A' for Active; 'I' for Inactive)
REMARK    1  A    between atoms: C2_2  and  O1_3 
REMARK    2  A    between atoms: C2_2  and  C11_17 
REMARK    3  A    between atoms: O1_3  and  C3_4 
REMARK    4  A    between atoms: C3_4  and  C4_5 
REMARK    5  A    between atoms: C7_8  and  C8_9 
REMARK    6  A    between atoms: C8_9  and  N1_10 
ROOT
HETATM    1  C4  UNL     1      -0.027  -0.602  -6.308  1.00  0.00     0.012 C 
HETATM    2  C5  UNL     1      -0.958  -1.228  -7.310  1.00  0.00     0.007 C 
HETATM    3  C6  UNL     1      -1.468  -0.222  -8.317  1.00  0.00     0.009 C 
HETATM    4  C7  UNL     1      -0.314   0.306  -9.144  1.00  0.00     0.045 C 
HETATM    5  C9  UNL     1       0.827   0.587  -8.258  1.00  0.00     0.176 C 
HETATM    6  F1  UNL     1       1.779  -0.393  -8.184  1.00  0.00    -0.249 F 
HETATM    7  C10 UNL     1       0.310   0.790  -6.838  1.00  0.00     0.044 C 
ENDROOT
BRANCH   1   8
HETATM    8  C3  UNL     1      -0.619  -0.469  -4.943  1.00  0.00     0.172 C 
BRANCH   8   9
HETATM    9  O1  UNL     1      -0.964   0.799  -4.569  1.00  0.00    -0.386 OA
BRANCH   9  10
HETATM   10  C2  UNL     1      -0.563   1.205  -3.327  1.00  0.00     0.121 C 
HETATM   11  C1  UNL     1      -0.015   0.073  -2.468  1.00  0.00     0.040 C 
BRANCH  10  12
HETATM   12  C11 UNL     1      -1.646   1.884  -2.528  1.00  0.00     0.014 C 
HETATM   13  C12 UNL     1      -3.028   1.424  -2.922  1.00  0.00     0.007 C 
HETATM   14  C13 UNL     1      -3.866   2.001  -1.800  1.00  0.00     0.000 C 
HETATM   15  C14 UNL     1      -2.951   2.092  -0.591  1.00  0.00     0.000 C 
HETATM   16  C15 UNL     1      -1.602   1.574  -1.068  1.00  0.00     0.007 C 
ENDBRANCH  10  12
ENDBRANCH   9  10
ENDBRANCH   8   9
ENDBRANCH   1   8
BRANCH   4  17
HETATM   17  C8  UNL     1      -0.043  -0.586 -10.313  1.00  0.00     0.237 C 
BRANCH  17  18
HETATM   18  N1  UNL     1       0.003   0.051 -11.575  1.00  0.00    -0.079 N 
ATOM     19  H13 UNL     1      -0.290  -0.600 -12.304  1.00  0.00     0.274 HD
ATOM     20  H12 UNL     1      -0.741   0.745 -11.642  1.00  0.00     0.274 HD
ATOM     21  H11 UNL     1       0.897   0.475 -11.826  1.00  0.00     0.274 HD
ENDBRANCH  17  18
ENDBRANCH   4  17
TORSDOF 6
ENDMDL
MODEL 3
REMARK VINA RESULT: -7.101801921      2.304      3.846
REMARK  6 active torsions:
REMARK  status: ('A' for Active; 'I' for Inactive)
REMARK    1  A    between atoms: C2_2  and  O1_3 
REMARK    2  A    between atoms: C2_2  and  C11_17 
REMARK    3  A    between atoms: O1_3  and  C3_4 
REMARK    4  A    between atoms: C3_4  and  C4_5 
REMARK    5  A    between atoms: C7_8  and  C8_9 
REMARK    6  A    between atoms: C8_9  and  N1_10 
ROOT
HETATM    1  C4  UNL     1      -0.659   0.615  -6.525  1.00  0.00     0.012 C 
HETATM    2  C5  UNL     1       0.429   1.300  -7.307  1.00  0.00     0.007 C 
HETATM    3  C6  UNL     1       1.235   0.323  -8.134  1.00  0.00     0.009 C 
HETATM    4  C7  UNL     1       0.349  -0.312  -9.185  1.00  0.00     0.045 C 
HETATM    5  C9  UNL     1      -0.941  -0.672  -8.577  1.00  0.00     0.176 C 
HETATM    6  F1  UNL     1      -1.957   0.227  -8.759  1.00  0.00    -0.249 F 
HETATM    7  C10 UNL     1      -0.755  -0.809  -7.070  1.00  0.00     0.044 C 
ENDROOT
BRANCH   1   8
HETATM    8  C3  UNL     1      -0.392   0.554  -5.057  1.00  0.00     0.172 C 
BRANCH   8   9
HETATM    9  O1  UNL     1      -1.335   1.137  -4.259  1.00  0.00    -0.386 OA
BRANCH   9  10
HETATM   10  C2  UNL     1      -0.943   1.488  -2.998  1.00  0.00     0.121 C 
HETATM   11  C1  UNL     1      -0.344   0.333  -2.207  1.00  0.00     0.040 C 
BRANCH  10  12
HETATM   12  C11 UNL     1      -2.049   2.074  -2.157  1.00  0.00     0.014 C 
HETATM   13  C12 UNL     1      -3.403   1.510  -2.508  1.00  0.00     0.007 C 
HETATM   14  C13 UNL     1      -4.246   2.011  -1.354  1.00  0.00     0.000 C 
HETATM   15  C14 UNL     1      -3.300   2.165  -0.175  1.00  0.00     0.000 C 
HETATM   16  C15 UNL     1      -1.931   1.758  -0.702  1.00  0.00     0.007 C 
ENDBRANCH  10  12
ENDBRANCH   9  10
ENDBRANCH   8   9
ENDBRANCH   1   8
BRANCH   4  17
HETATM   17  C8  UNL     1       0.289   0.536 -10.415  1.00  0.00     0.237 C 
BRANCH  17  18
HETATM   18  N1  UNL     1      -0.090  -0.132 -11.604  1.00  0.00    -0.079 N 
ATOM     19  H13 UNL     1       0.309   0.345 -12.413  1.00  0.00     0.274 HD
ATOM     20  H12 UNL     1       0.390  -1.030 -11.667  1.00  0.00     0.274 HD
ATOM     21  H11 UNL     1      -1.093  -0.264 -11.738  1.00  0.00     0.274 HD
ENDBRANCH  17  18
ENDBRANCH   4  17
TORSDOF 6
ENDMDL
MODEL 4
REMARK VINA RESULT: -7.080667873      1.115      1.595
REMARK  6 active torsions:
REMARK  status: ('A' for Active; 'I' for Inactive)
REMARK    1  A    between atoms: C2_2  and  O1_3 
REMARK    2  A    between atoms: C2_2  and  C11_17 
REMARK    3  A    between atoms: O1_3  and  C3_4 
REMARK    4  A    between atoms: C3_4  and  C4_5 
REMARK    5  A    between atoms: C7_8  and  C8_9 
REMARK    6  A    between atoms: C8_9  and  N1_10 
ROOT
HETATM    1  C4  UNL     1       0.700  -0.525  -6.534  1.00  0.00     0.012 C 
HETATM    2  C5  UNL     1      -0.370  -1.278  -7.277  1.00  0.00     0.007 C 
HETATM    3  C6  UNL     1      -1.249  -0.358  -8.095  1.00  0.00     0.009 C 
HETATM    4  C7  UNL     1      -0.426   0.308  -9.179  1.00  0.00     0.045 C 
HETATM    5  C9  UNL     1       0.859   0.745  -8.610  1.00  0.00     0.176 C 
HETATM    6  F1  UNL     1       1.917  -0.101  -8.807  1.00  0.00    -0.249 F 
HETATM    7  C10 UNL     1       0.705   0.894  -7.101  1.00  0.00     0.044 C 
ENDROOT
BRANCH   1   8
HETATM    8  C3  UNL     1       0.468  -0.456  -5.060  1.00  0.00     0.172 C 
BRANCH   8   9
HETATM    9  O1  UNL     1       1.332  -1.184  -4.291  1.00  0.00    -0.386 OA
BRANCH   9  10
HETATM   10  C2  UNL     1       0.915  -1.502  -3.030  1.00  0.00     0.121 C 
HETATM   11  C1  UNL     1       0.304  -0.327  -2.279  1.00  0.00     0.040 C 
BRANCH  10  12
HETATM   12  C11 UNL     1       2.001  -2.071  -2.154  1.00  0.00     0.014 C 
HETATM   13  C12 UNL     1       3.372  -1.567  -2.532  1.00  0.00     0.007 C 
HETATM   14  C13 UNL     1       4.198  -2.025  -1.348  1.00  0.00     0.000 C 
HETATM   15  C14 UNL     1       3.246  -2.085  -0.166  1.00  0.00     0.000 C 
HETATM   16  C15 UNL     1       1.890  -1.670  -0.719  1.00  0.00     0.007 C 
ENDBRANCH  10  12
ENDBRANCH   9  10
ENDBRANCH   8   9
ENDBRANCH   1   8
BRANCH   4  17
HETATM   17  C8  UNL     1      -0.353  -0.554 -10.398  1.00  0.00     0.237 C 
BRANCH  17  18
HETATM   18  N1  UNL     1       0.116   0.082 -11.573  1.00  0.00    -0.079 N 
ATOM     19  H13 UNL     1       0.654   0.913 -11.328  1.00  0.00     0.274 HD
ATOM     20  H12 UNL     1       0.843  -0.485 -12.008  1.00  0.00     0.274 HD
ATOM     21  H11 UNL     1      -0.598   0.321 -12.262  1.00  0.00     0.274 HD
ENDBRANCH  17  18
ENDBRANCH   4  17
TORSDOF 6
ENDMDL
MODEL 5
REMARK VINA RESULT: -7.009205669      1.921      3.615
REMARK  6 active torsions:
REMARK  status: ('A' for Active; 'I' for Inactive)
REMARK    1  A    between atoms: C2_2  and  O1_3 
REMARK    2  A    between atoms: C2_2  and  C11_17 
REMARK    3  A    between atoms: O1_3  and  C3_4 
REMARK    4  A    between atoms: C3_4  and  C4_5 
REMARK    5  A    between atoms: C7_8  and  C8_9 
REMARK    6  A    between atoms: C8_9  and  N1_10 
ROOT
HETATM    1  C4  UNL     1      -0.029   0.653  -6.408  1.00  0.00     0.012 C 
HETATM    2  C5  UNL     1       0.919   1.237  -7.421  1.00  0.00     0.007 C 
HETATM    3  C6  UNL     1       1.397   0.201  -8.414  1.00  0.00     0.009 C 
HETATM    4  C7  UNL     1       0.227  -0.305  -9.231  1.00  0.00     0.045 C 
HETATM    5  C9  UNL     1      -0.920  -0.539  -8.339  1.00  0.00     0.176 C 
HETATM    6  F1  UNL     1      -1.843   0.469  -8.279  1.00  0.00    -0.249 F 
HETATM    7  C10 UNL     1      -0.407  -0.736  -6.918  1.00  0.00     0.044 C 
ENDROOT
BRANCH   1   8
HETATM    8  C3  UNL     1       0.562   0.523  -5.042  1.00  0.00     0.172 C 
BRANCH   8   9
HETATM    9  O1  UNL     1       0.133   1.439  -4.123  1.00  0.00    -0.386 OA
BRANCH   9  10
HETATM   10  C2  UNL     1      -0.152   0.968  -2.872  1.00  0.00     0.121 C 
HETATM   11  C1  UNL     1       0.292  -0.472  -2.652  1.00  0.00     0.040 C 
BRANCH  10  12
HETATM   12  C11 UNL     1      -1.614   1.041  -2.512  1.00  0.00     0.014 C 
HETATM   13  C12 UNL     1      -1.841   1.611  -1.133  1.00  0.00     0.007 C 
HETATM   14  C13 UNL     1      -3.335   1.857  -1.152  1.00  0.00     0.000 C 
HETATM   15  C14 UNL     1      -3.706   2.097  -2.605  1.00  0.00     0.000 C 
HETATM   16  C15 UNL     1      -2.403   1.965  -3.381  1.00  0.00     0.007 C 
ENDBRANCH  10  12
ENDBRANCH   9  10
ENDBRANCH   8   9
ENDBRANCH   1   8
BRANCH   4  17
HETATM   17  C8  UNL     1      -0.020   0.578 -10.412  1.00  0.00     0.237 C 
BRANCH  17  18
HETATM   18  N1  UNL     1      -0.019  -0.067 -11.672  1.00  0.00    -0.079 N 
ATOM     19  H13 UNL     1       0.493  -0.947 -11.612  1.00  0.00     0.274 HD
ATOM     20  H12 UNL     1      -0.953  -0.414 -11.887  1.00  0.00     0.274 HD
ATOM     21  H11 UNL     1       0.333   0.487 -12.454  1.00  0.00     0.274 HD
ENDBRANCH  17  18
ENDBRANCH   4  17
TORSDOF 6
ENDMDL
