MODEL 1
REMARK VINA RESULT: -7.223410752      0.000      0.000
REMARK  7 active torsions:
REMARK  status: ('A' for Active; 'I' for Inactive)
REMARK    1  A    between atoms: C2_2  and  C3_3 
REMARK    2  A    between atoms: N1_9  and  C8_10 
REMARK    3  A    between atoms: C8_10  and  C9_11 
REMARK    4  A    between atoms: C9_11  and  O1_12 
REMARK    5  A    between atoms: O1_12  and  N2_13 
REMARK    6  A    between atoms: C10_15  and  C11_16 
REMARK    7  A    between atoms: C14_21  and  N4_22 
ROOT
HETATM    1  N2  UNL     1      16.788   4.768  10.308  1.00  0.00    -0.277 N 
ATOM      2  H2  UNL     1      16.259   4.173   9.671  1.00  0.00     0.193 HD
HETATM    3  C10 UNL     1      17.547   4.171  11.102  1.00  0.00     0.133 C 
ENDROOT
BRANCH   1   4
HETATM    4  O1  UNL     1      16.574   6.089  10.183  1.00  0.00    -0.276 OA
BRANCH   4   5
HETATM    5  C9  UNL     1      16.043   6.943  11.154  1.00  0.00     0.245 C 
BRANCH   5   6
HETATM    6  C8  UNL     1      17.072   7.523  12.063  1.00  0.00     0.092 C 
BRANCH   6   7
HETATM    7  N1  UNL     1      17.208   6.786  13.254  1.00  0.00    -0.364 N 
HETATM    8  C3  UNL     1      18.411   6.814  13.969  1.00  0.00     0.088 C 
HETATM    9  C4  UNL     1      18.688   5.522  14.642  1.00  0.00     0.029 C 
HETATM   10  C5  UNL     1      17.527   4.816  15.229  1.00  0.00     0.044 C 
HETATM   11  C6  UNL     1      16.233   4.997  14.519  1.00  0.00     0.208 C 
HETATM   12  F1  UNL     1      15.217   4.861  15.478  1.00  0.00    -0.244 F 
HETATM   13  C7  UNL     1      16.029   6.299  13.846  1.00  0.00     0.100 C 
BRANCH   8  14
HETATM   14  C2  UNL     1      18.648   8.021  14.842  1.00  0.00     0.021 C 
HETATM   15  C1  UNL     1      19.763   8.909  14.445  1.00  0.00     0.007 C 
ENDBRANCH   8  14
ENDBRANCH   6   7
ENDBRANCH   5   6
ENDBRANCH   4   5
ENDBRANCH   1   4
BRANCH   3  16
HETATM   16  C11 UNL     1      17.696   2.738  11.147  1.00  0.00     0.072 A 
HETATM   17  C12 UNL     1      18.924   2.149  11.113  1.00  0.00     0.040 A 
HETATM   18  C13 UNL     1      20.190   2.914  11.029  1.00  0.00     0.070 C 
HETATM   19  N3  UNL     1      19.018   0.784  11.156  1.00  0.00    -0.195 N 
HETATM   20  C14 UNL     1      17.899   0.047  11.233  1.00  0.00     0.679 A 
ATOM     21  H3  UNL     1      19.932   0.330  11.131  1.00  0.00     0.184 HD
HETATM   22  N5  UNL     1      16.684   0.616  11.268  1.00  0.00    -0.156 N 
HETATM   23  C15 UNL     1      16.536   1.932  11.229  1.00  0.00     0.273 A 
ATOM     24  H5  UNL     1      15.856   0.022  11.326  1.00  0.00     0.187 HD
HETATM   25  O2  UNL     1      15.427   2.519  11.259  1.00  0.00    -0.267 OA
BRANCH  20  26
HETATM   26  N4  UNL     1      17.958  -1.240  11.275  1.00  0.00    -0.234 N 
ATOM     27  H42 UNL     1      18.799  -1.663  11.668  1.00  0.00     0.174 HD
ATOM     28  H41 UNL     1      17.187  -1.809  10.926  1.00  0.00     0.174 HD
ENDBRANCH  20  26
ENDBRANCH   3  16
TORSDOF 7
ENDMDL
MODEL 2
REMARK VINA RESULT: -7.194331888      3.561      5.835
REMARK  7 active torsions:
REMARK  status: ('A' for Active; 'I' for Inactive)
REMARK    1  A    between atoms: C2_2  and  C3_3 
REMARK    2  A    between atoms: N1_9  and  C8_10 
REMARK    3  A    between atoms: C8_10  and  C9_11 
REMARK    4  A    between atoms: C9_11  and  O1_12 
REMARK    5  A    between atoms: O1_12  and  N2_13 
REMARK    6  A    between atoms: C10_15  and  C11_16 
REMARK    7  A    between atoms: C14_21  and  N4_22 
ROOT
HETATM    1  N2  UNL     1      18.310   4.382  14.537  1.00  0.00    -0.277 N 
ATOM      2  H2  UNL     1      18.043   3.506  14.089  1.00  0.00     0.193 HD
HETATM    3  C10 UNL     1      17.597   4.736  15.501  1.00  0.00     0.133 C 
ENDROOT
BRANCH   1   4
HETATM    4  O1  UNL     1      19.380   5.003  14.013  1.00  0.00    -0.276 OA
BRANCH   4   5
HETATM    5  C9  UNL     1      19.602   5.284  12.662  1.00  0.00     0.245 C 
BRANCH   5   6
HETATM    6  C8  UNL     1      20.025   4.095  11.869  1.00  0.00     0.092 C 
BRANCH   6   7
HETATM    7  N1  UNL     1      18.928   3.368  11.370  1.00  0.00    -0.364 N 
HETATM    8  C3  UNL     1      17.698   4.003  11.156  1.00  0.00     0.088 C 
HETATM    9  C4  UNL     1      16.553   3.094  11.407  1.00  0.00     0.029 C 
HETATM   10  C5  UNL     1      16.713   1.688  10.974  1.00  0.00     0.044 C 
HETATM   11  C6  UNL     1      18.094   1.143  11.044  1.00  0.00     0.208 C 
HETATM   12  F1  UNL     1      18.195   0.152  10.055  1.00  0.00    -0.244 F 
HETATM   13  C7  UNL     1      19.194   2.107  10.810  1.00  0.00     0.100 C 
BRANCH   8  14
HETATM   14  C2  UNL     1      17.570   4.815   9.892  1.00  0.00     0.021 C 
HETATM   15  C1  UNL     1      17.038   6.187  10.045  1.00  0.00     0.007 C 
ENDBRANCH   8  14
ENDBRANCH   6   7
ENDBRANCH   5   6
ENDBRANCH   4   5
ENDBRANCH   1   4
BRANCH   3  16
HETATM   16  C11 UNL     1      16.463   3.984  15.980  1.00  0.00     0.072 A 
HETATM   17  C12 UNL     1      15.202   4.499  15.944  1.00  0.00     0.040 A 
HETATM   18  C13 UNL     1      14.891   5.849  15.418  1.00  0.00     0.070 C 
HETATM   19  N3  UNL     1      14.155   3.751  16.412  1.00  0.00    -0.195 N 
HETATM   20  C14 UNL     1      14.388   2.522  16.898  1.00  0.00     0.679 A 
ATOM     21  H3  UNL     1      13.206   4.125  16.391  1.00  0.00     0.184 HD
HETATM   22  N5  UNL     1      15.626   2.004  16.938  1.00  0.00    -0.156 N 
HETATM   23  C15 UNL     1      16.674   2.685  16.499  1.00  0.00     0.273 A 
ATOM     24  H5  UNL     1      15.763   1.066  17.316  1.00  0.00     0.187 HD
HETATM   25  O2  UNL     1      17.852   2.253  16.511  1.00  0.00    -0.267 OA
BRANCH  20  26
HETATM   26  N4  UNL     1      13.422   1.795  17.346  1.00  0.00    -0.234 N 
ATOM     27  H42 UNL     1      12.843   1.305  16.663  1.00  0.00     0.174 HD
ATOM     28  H41 UNL     1      13.247   1.718  18.348  1.00  0.00     0.174 HD
ENDBRANCH  20  26
ENDBRANCH   3  16
TORSDOF 7
ENDMDL
MODEL 3
REMARK VINA RESULT: -6.973252121      2.806      4.821
REMARK  7 active torsions:
REMARK  status: ('A' for Active; 'I' for Inactive)
REMARK    1  A    between atoms: C2_2  and  C3_3 
REMARK    2  A    between atoms: N1_9  and  C8_10 
REMARK    3  A    between atoms: C8_10  and  C9_11 
REMARK    4  A    between atoms: C9_11  and  O1_12 
REMARK    5  A    between atoms: O1_12  and  N2_13 
REMARK    6  A    between atoms: C10_15  and  C11_16 
REMARK    7  A    between atoms: C14_21  and  N4_22 
ROOT
HETATM    1  N2  UNL     1      17.480   1.664  13.170  1.00  0.00    -0.277 N 
ATOM      2  H2  UNL     1      18.477   1.617  13.379  1.00  0.00     0.193 HD
HETATM    3  C10 UNL     1      17.169   2.333  12.161  1.00  0.00     0.133 C 
ENDROOT
BRANCH   1   4
HETATM    4  O1  UNL     1      16.675   0.998  14.017  1.00  0.00    -0.276 OA
BRANCH   4   5
HETATM    5  C9  UNL     1      16.800   0.934  15.407  1.00  0.00     0.245 C 
BRANCH   5   6
HETATM    6  C8  UNL     1      15.748   1.699  16.134  1.00  0.00     0.092 C 
BRANCH   6   7
HETATM    7  N1  UNL     1      15.915   3.090  16.006  1.00  0.00    -0.364 N 
HETATM    8  C3  UNL     1      14.833   3.954  16.210  1.00  0.00     0.088 C 
HETATM    9  C4  UNL     1      14.906   5.153  15.339  1.00  0.00     0.029 C 
HETATM   10  C5  UNL     1      16.249   5.734  15.120  1.00  0.00     0.044 C 
HETATM   11  C6  UNL     1      17.379   4.768  15.113  1.00  0.00     0.208 C 
HETATM   12  F1  UNL     1      18.517   5.465  15.549  1.00  0.00    -0.244 F 
HETATM   13  C7  UNL     1      17.233   3.580  15.985  1.00  0.00     0.100 C 
BRANCH   8  14
HETATM   14  C2  UNL     1      14.476   4.261  17.644  1.00  0.00     0.021 C 
HETATM   15  C1  UNL     1      14.758   3.196  18.632  1.00  0.00     0.007 C 
ENDBRANCH   8  14
ENDBRANCH   6   7
ENDBRANCH   5   6
ENDBRANCH   4   5
ENDBRANCH   1   4
BRANCH   3  16
HETATM   16  C11 UNL     1      18.125   3.011  11.320  1.00  0.00     0.072 A 
HETATM   17  C12 UNL     1      17.995   4.333  11.018  1.00  0.00     0.040 A 
HETATM   18  C13 UNL     1      16.883   5.175  11.519  1.00  0.00     0.070 C 
HETATM   19  N3  UNL     1      18.925   4.935  10.214  1.00  0.00    -0.195 N 
HETATM   20  C14 UNL     1      19.951   4.213   9.736  1.00  0.00     0.679 A 
ATOM     21  H3  UNL     1      18.839   5.924   9.980  1.00  0.00     0.184 HD
HETATM   22  N5  UNL     1      20.089   2.910  10.027  1.00  0.00    -0.156 N 
HETATM   23  C15 UNL     1      19.218   2.279  10.801  1.00  0.00     0.273 A 
ATOM     24  H5  UNL     1      20.882   2.394   9.645  1.00  0.00     0.187 HD
HETATM   25  O2  UNL     1      19.297   1.064  11.106  1.00  0.00    -0.267 OA
BRANCH  20  26
HETATM   26  N4  UNL     1      20.841   4.753   8.976  1.00  0.00    -0.234 N 
ATOM     27  H42 UNL     1      21.819   4.649   9.246  1.00  0.00     0.174 HD
ATOM     28  H41 UNL     1      20.569   5.265   8.137  1.00  0.00     0.174 HD
ENDBRANCH  20  26
ENDBRANCH   3  16
TORSDOF 7
ENDMDL
MODEL 4
REMARK VINA RESULT: -6.961385064      3.616      5.498
REMARK  7 active torsions:
REMARK  status: ('A' for Active; 'I' for Inactive)
REMARK    1  A    between atoms: C2_2  and  C3_3 
REMARK    2  A    between atoms: N1_9  and  C8_10 
REMARK    3  A    between atoms: C8_10  and  C9_11 
REMARK    4  A    between atoms: C9_11  and  O1_12 
REMARK    5  A    between atoms: O1_12  and  N2_13 
REMARK    6  A    between atoms: C10_15  and  C11_16 
REMARK    7  A    between atoms: C14_21  and  N4_22 
ROOT
HETATM    1  N2  UNL     1      17.068   2.334  13.841  1.00  0.00    -0.277 N 
ATOM      2  H2  UNL     1      17.706   1.947  14.536  1.00  0.00     0.193 HD
HETATM    3  C10 UNL     1      16.007   2.817  14.290  1.00  0.00     0.133 C 
ENDROOT
BRANCH   1   4
HETATM    4  O1  UNL     1      17.482   2.257  12.564  1.00  0.00    -0.276 OA
BRANCH   4   5
HETATM    5  C9  UNL     1      17.006   3.011  11.488  1.00  0.00     0.245 C 
BRANCH   5   6
HETATM    6  C8  UNL     1      17.992   4.002  10.974  1.00  0.00     0.092 C 
BRANCH   6   7
HETATM    7  N1  UNL     1      17.566   5.329  11.169  1.00  0.00    -0.364 N 
HETATM    8  C3  UNL     1      17.327   5.812  12.462  1.00  0.00     0.088 C 
HETATM    9  C4  UNL     1      16.225   6.804  12.490  1.00  0.00     0.029 C 
HETATM   10  C5  UNL     1      16.152   7.748  11.352  1.00  0.00     0.044 C 
HETATM   11  C6  UNL     1      16.612   7.219  10.042  1.00  0.00     0.208 C 
HETATM   12  F1  UNL     1      17.090   8.313   9.303  1.00  0.00    -0.244 F 
HETATM   13  C7  UNL     1      17.698   6.213  10.084  1.00  0.00     0.100 C 
BRANCH   8  14
HETATM   14  C2  UNL     1      18.538   6.221  13.263  1.00  0.00     0.021 C 
HETATM   15  C1  UNL     1      18.717   5.548  14.569  1.00  0.00     0.007 C 
ENDBRANCH   8  14
ENDBRANCH   6   7
ENDBRANCH   5   6
ENDBRANCH   4   5
ENDBRANCH   1   4
BRANCH   3  16
HETATM   16  C11 UNL     1      15.666   2.844  15.691  1.00  0.00     0.072 A 
HETATM   17  C12 UNL     1      15.269   3.995  16.305  1.00  0.00     0.040 A 
HETATM   18  C13 UNL     1      15.155   5.293  15.600  1.00  0.00     0.070 C 
HETATM   19  N3  UNL     1      14.957   3.975  17.637  1.00  0.00    -0.195 N 
HETATM   20  C14 UNL     1      15.046   2.822  18.319  1.00  0.00     0.679 A 
ATOM     21  H3  UNL     1      14.660   4.830  18.108  1.00  0.00     0.184 HD
HETATM   22  N5  UNL     1      15.435   1.683  17.725  1.00  0.00    -0.156 N 
HETATM   23  C15 UNL     1      15.748   1.646  16.439  1.00  0.00     0.273 A 
ATOM     24  H5  UNL     1      15.490   0.826  18.277  1.00  0.00     0.187 HD
HETATM   25  O2  UNL     1      16.117   0.612  15.832  1.00  0.00    -0.267 OA
BRANCH  20  26
HETATM   26  N4  UNL     1      14.759   2.774  19.574  1.00  0.00    -0.234 N 
ATOM     27  H42 UNL     1      13.773   2.737  19.833  1.00  0.00     0.174 HD
ATOM     28  H41 UNL     1      15.496   2.775  20.279  1.00  0.00     0.174 HD
ENDBRANCH  20  26
ENDBRANCH   3  16
TORSDOF 7
ENDMDL
MODEL 5
REMARK VINA RESULT: -6.934815471      3.486      5.281
REMARK  7 active torsions:
REMARK  status: ('A' for Active; 'I' for Inactive)
REMARK    1  A    between atoms: C2_2  and  C3_3 
REMARK    2  A    between atoms: N1_9  and  C8_10 
REMARK    3  A    between atoms: C8_10  and  C9_11 
REMARK    4  A    between atoms: C9_11  and  O1_12 
REMARK    5  A    between atoms: O1_12  and  N2_13 
REMARK    6  A    between atoms: C10_15  and  C11_16 
REMARK    7  A    between atoms: C14_21  and  N4_22 
ROOT
HETATM    1  N2  UNL     1      17.073   2.234  13.823  1.00  0.00    -0.277 N 
ATOM      2  H2  UNL     1      17.687   1.821  14.525  1.00  0.00     0.193 HD
HETATM    3  C10 UNL     1      16.033   2.770  14.262  1.00  0.00     0.133 C 
ENDROOT
BRANCH   1   4
HETATM    4  O1  UNL     1      17.489   2.127  12.549  1.00  0.00    -0.276 OA
BRANCH   4   5
HETATM    5  C9  UNL     1      16.943   2.775  11.438  1.00  0.00     0.245 C 
BRANCH   5   6
HETATM    6  C8  UNL     1      17.858   3.780  10.826  1.00  0.00     0.092 C 
BRANCH   6   7
HETATM    7  N1  UNL     1      17.945   4.957  11.592  1.00  0.00    -0.364 N 
HETATM    8  C3  UNL     1      19.051   5.182  12.420  1.00  0.00     0.088 C 
HETATM    9  C4  UNL     1      18.685   5.934  13.645  1.00  0.00     0.029 C 
HETATM   10  C5  UNL     1      17.682   7.011  13.489  1.00  0.00     0.044 C 
HETATM   11  C6  UNL     1      16.648   6.786  12.445  1.00  0.00     0.208 C 
HETATM   12  F1  UNL     1      16.245   8.050  11.988  1.00  0.00    -0.244 F 
HETATM   13  C7  UNL     1      17.070   6.006  11.259  1.00  0.00     0.100 C 
BRANCH   8  14
HETATM   14  C2  UNL     1      20.306   5.682  11.748  1.00  0.00     0.021 C 
HETATM   15  C1  UNL     1      21.313   4.657  11.395  1.00  0.00     0.007 C 
ENDBRANCH   8  14
ENDBRANCH   6   7
ENDBRANCH   5   6
ENDBRANCH   4   5
ENDBRANCH   1   4
BRANCH   3  16
HETATM   16  C11 UNL     1      15.686   2.825  15.661  1.00  0.00     0.072 A 
HETATM   17  C12 UNL     1      15.297   3.990  16.252  1.00  0.00     0.040 A 
HETATM   18  C13 UNL     1      15.197   5.276  15.524  1.00  0.00     0.070 C 
HETATM   19  N3  UNL     1      14.979   3.996  17.583  1.00  0.00    -0.195 N 
HETATM   20  C14 UNL     1      15.054   2.854  18.286  1.00  0.00     0.679 A 
ATOM     21  H3  UNL     1      14.687   4.861  18.038  1.00  0.00     0.184 HD
HETATM   22  N5  UNL     1      15.436   1.701  17.714  1.00  0.00    -0.156 N 
HETATM   23  C15 UNL     1      15.755   1.640  16.429  1.00  0.00     0.273 A 
ATOM     24  H5  UNL     1      15.481   0.854  18.280  1.00  0.00     0.187 HD
HETATM   25  O2  UNL     1      16.118   0.591  15.842  1.00  0.00    -0.267 OA
BRANCH  20  26
HETATM   26  N4  UNL     1      14.761   2.831  19.540  1.00  0.00    -0.234 N 
ATOM     27  H42 UNL     1      14.144   2.088  19.868  1.00  0.00     0.174 HD
ATOM     28  H41 UNL     1      15.137   3.533  20.177  1.00  0.00     0.174 HD
ENDBRANCH  20  26
ENDBRANCH   3  16
TORSDOF 7
ENDMDL
