MODEL 1
REMARK VINA RESULT: -6.978876935      0.000      0.000
REMARK  9 active torsions:
REMARK  status: ('A' for Active; 'I' for Inactive)
REMARK    1  A    between atoms: N1_2  and  C3_4 
REMARK    2  A    between atoms: C3_4  and  C4_5 
REMARK    3  A    between atoms: C4_5  and  O1_6 
REMARK    4  A    between atoms: O1_6  and  N2_7 
REMARK    5  A    between atoms: C5_9  and  C6_10 
REMARK    6  A    between atoms: C5_9  and  C13_28 
REMARK    7  A    between atoms: C7_13  and  N4_14 
REMARK    8  A    between atoms: C8_19  and  N6_20 
REMARK    9  A    between atoms: N6_20  and  C9_22 
ROOT
HETATM    1  C6  UNL     1      16.941   3.184  13.166  1.00  0.00     0.161 A 
HETATM    2  N3  UNL     1      17.886   4.126  13.383  1.00  0.00    -0.174 N 
ATOM      3  H3  UNL     1      18.359   4.532  12.576  1.00  0.00     0.186 HD
HETATM    4  C7  UNL     1      18.229   4.551  14.598  1.00  0.00     0.692 A 
HETATM    5  N5  UNL     1      17.627   4.038  15.685  1.00  0.00    -0.023 N 
ATOM      6  H5  UNL     1      17.884   4.358  16.619  1.00  0.00     0.203 HD
HETATM    7  C8  UNL     1      16.686   3.101  15.525  1.00  0.00     0.695 A 
HETATM    8  N7  UNL     1      16.362   2.693  14.266  1.00  0.00    -0.174 N 
ATOM      9  H7  UNL     1      15.642   1.979  14.157  1.00  0.00     0.186 HD
ENDROOT
BRANCH   1  10
HETATM   10  C5  UNL     1      16.590   2.749  11.824  1.00  0.00     0.081 C 
HETATM   11  N2  UNL     1      16.310   3.610  10.930  1.00  0.00    -0.267 N 
ATOM     12  H2  UNL     1      16.065   3.295   9.992  1.00  0.00     0.194 HD
BRANCH  11  13
HETATM   13  O1  UNL     1      16.330   4.942  11.206  1.00  0.00    -0.278 OA
BRANCH  13  14
HETATM   14  C4  UNL     1      16.887   5.908  10.329  1.00  0.00     0.231 C 
BRANCH  14  15
HETATM   15  C3  UNL     1      16.479   7.308  10.722  1.00  0.00     0.299 C 
BRANCH  15  16
HETATM   16  N1  UNL     1      15.052   7.433  10.616  1.00  0.00     0.082 N 
HETATM   17  C1  UNL     1      14.569   7.414   9.271  1.00  0.00     0.309 C 
HETATM   18  C2  UNL     1      14.511   8.533  11.361  1.00  0.00     0.309 C 
ENDBRANCH  15  16
ENDBRANCH  14  15
ENDBRANCH  13  14
ENDBRANCH  11  13
BRANCH  10  19
HETATM   19  C13 UNL     1      16.561   1.331  11.473  1.00  0.00     0.041 A 
HETATM   20  C14 UNL     1      17.269   0.268  12.181  1.00  0.00     0.011 A 
HETATM   21  C15 UNL     1      17.826   0.745  10.884  1.00  0.00     0.011 A 
ENDBRANCH  10  19
ENDBRANCH   1  10
BRANCH   4  22
HETATM   22  N4  UNL     1      19.135   5.454  14.788  1.00  0.00    -0.234 N 
ATOM     23  H42 UNL     1      19.603   5.832  13.964  1.00  0.00     0.174 HD
ATOM     24  H41 UNL     1      19.389   5.790  15.717  1.00  0.00     0.174 HD
ENDBRANCH   4  22
BRANCH   7  25
HETATM   25  N6  UNL     1      16.078   2.575  16.517  1.00  0.00    -0.217 N 
ATOM     26  H6  UNL     1      16.522   1.739  16.897  1.00  0.00     0.178 HD
BRANCH  25  27
HETATM   27  C9  UNL     1      14.887   2.966  17.172  1.00  0.00     0.036 C 
HETATM   28  C10 UNL     1      15.135   2.912  18.680  1.00  0.00     0.038 C 
HETATM   29  C11 UNL     1      14.439   4.382  16.872  1.00  0.00     0.038 C 
HETATM   30  C12 UNL     1      13.738   2.039  16.901  1.00  0.00     0.038 C 
ENDBRANCH  25  27
ENDBRANCH   7  25
TORSDOF 9
ENDMDL
MODEL 2
REMARK VINA RESULT: -6.933813190      1.411      2.172
REMARK  9 active torsions:
REMARK  status: ('A' for Active; 'I' for Inactive)
REMARK    1  A    between atoms: N1_2  and  C3_4 
REMARK    2  A    between atoms: C3_4  and  C4_5 
REMARK    3  A    between atoms: C4_5  and  O1_6 
REMARK    4  A    between atoms: O1_6  and  N2_7 
REMARK    5  A    between atoms: C5_9  and  C6_10 
REMARK    6  A    between atoms: C5_9  and  C13_28 
REMARK    7  A    between atoms: C7_13  and  N4_14 
REMARK    8  A    between atoms: C8_19  and  N6_20 
REMARK    9  A    between atoms: N6_20  and  C9_22 
ROOT
HETATM    1  C6  UNL     1      16.940   3.121  13.219  1.00  0.00     0.161 A 
HETATM    2  N3  UNL     1      17.881   4.060  13.462  1.00  0.00    -0.174 N 
ATOM      3  H3  UNL     1      18.368   4.474  12.667  1.00  0.00     0.186 HD
HETATM    4  C7  UNL     1      18.205   4.472  14.687  1.00  0.00     0.692 A 
HETATM    5  N5  UNL     1      17.584   3.948  15.758  1.00  0.00    -0.023 N 
ATOM      6  H5  UNL     1      17.825   4.259  16.699  1.00  0.00     0.203 HD
HETATM    7  C8  UNL     1      16.646   3.014  15.572  1.00  0.00     0.695 A 
HETATM    8  N7  UNL     1      16.342   2.620  14.304  1.00  0.00    -0.174 N 
ATOM      9  H7  UNL     1      15.624   1.907  14.176  1.00  0.00     0.186 HD
ENDROOT
BRANCH   1  10
HETATM   10  C5  UNL     1      16.612   2.701  11.867  1.00  0.00     0.081 C 
HETATM   11  N2  UNL     1      16.350   3.570  10.977  1.00  0.00    -0.267 N 
ATOM     12  H2  UNL     1      16.121   3.266  10.031  1.00  0.00     0.194 HD
BRANCH  11  13
HETATM   13  O1  UNL     1      16.370   4.900  11.266  1.00  0.00    -0.278 OA
BRANCH  13  14
HETATM   14  C4  UNL     1      17.179   5.834  10.570  1.00  0.00     0.231 C 
BRANCH  14  15
HETATM   15  C3  UNL     1      18.072   5.148   9.564  1.00  0.00     0.299 C 
BRANCH  15  16
HETATM   16  N1  UNL     1      19.424   5.151  10.049  1.00  0.00     0.082 N 
HETATM   17  C1  UNL     1      19.918   3.853  10.389  1.00  0.00     0.309 C 
HETATM   18  C2  UNL     1      19.660   6.102  11.096  1.00  0.00     0.309 C 
ENDBRANCH  15  16
ENDBRANCH  14  15
ENDBRANCH  13  14
ENDBRANCH  11  13
BRANCH  10  19
HETATM   19  C13 UNL     1      16.585   1.286  11.502  1.00  0.00     0.041 A 
HETATM   20  C14 UNL     1      17.285   0.215  12.206  1.00  0.00     0.011 A 
HETATM   21  C15 UNL     1      17.854   0.704  10.919  1.00  0.00     0.011 A 
ENDBRANCH  10  19
ENDBRANCH   1  10
BRANCH   4  22
HETATM   22  N4  UNL     1      19.108   5.373  14.901  1.00  0.00    -0.234 N 
ATOM     23  H42 UNL     1      19.883   5.126  15.516  1.00  0.00     0.174 HD
ATOM     24  H41 UNL     1      19.067   6.301  14.481  1.00  0.00     0.174 HD
ENDBRANCH   4  22
BRANCH   7  25
HETATM   25  N6  UNL     1      16.021   2.478  16.548  1.00  0.00    -0.217 N 
ATOM     26  H6  UNL     1      16.435   1.614  16.899  1.00  0.00     0.178 HD
BRANCH  25  27
HETATM   27  C9  UNL     1      14.846   2.890  17.220  1.00  0.00     0.036 C 
HETATM   28  C10 UNL     1      15.112   2.822  18.725  1.00  0.00     0.038 C 
HETATM   29  C11 UNL     1      14.425   4.318  16.934  1.00  0.00     0.038 C 
HETATM   30  C12 UNL     1      13.674   1.990  16.958  1.00  0.00     0.038 C 
ENDBRANCH  25  27
ENDBRANCH   7  25
TORSDOF 9
ENDMDL
MODEL 3
REMARK VINA RESULT: -6.907001405      1.822      5.888
REMARK  9 active torsions:
REMARK  status: ('A' for Active; 'I' for Inactive)
REMARK    1  A    between atoms: N1_2  and  C3_4 
REMARK    2  A    between atoms: C3_4  and  C4_5 
REMARK    3  A    between atoms: C4_5  and  O1_6 
REMARK    4  A    between atoms: O1_6  and  N2_7 
REMARK    5  A    between atoms: C5_9  and  C6_10 
REMARK    6  A    between atoms: C5_9  and  C13_28 
REMARK    7  A    between atoms: C7_13  and  N4_14 
REMARK    8  A    between atoms: C8_19  and  N6_20 
REMARK    9  A    between atoms: N6_20  and  C9_22 
ROOT
HETATM    1  C6  UNL     1      16.498   3.884  15.312  1.00  0.00     0.161 A 
HETATM    2  N3  UNL     1      17.826   3.994  15.532  1.00  0.00    -0.174 N 
ATOM      3  H3  UNL     1      18.277   3.303  16.131  1.00  0.00     0.186 HD
HETATM    4  C7  UNL     1      18.577   4.961  15.006  1.00  0.00     0.692 A 
HETATM    5  N5  UNL     1      18.017   5.890  14.212  1.00  0.00    -0.023 N 
ATOM      6  H5  UNL     1      18.585   6.632  13.804  1.00  0.00     0.203 HD
HETATM    7  C8  UNL     1      16.705   5.826  13.963  1.00  0.00     0.695 A 
HETATM    8  N7  UNL     1      15.971   4.821  14.519  1.00  0.00    -0.174 N 
ATOM      9  H7  UNL     1      14.971   4.784  14.321  1.00  0.00     0.186 HD
ENDROOT
BRANCH   1  10
HETATM   10  C5  UNL     1      15.713   2.811  15.901  1.00  0.00     0.081 C 
HETATM   11  N2  UNL     1      16.020   1.598  15.672  1.00  0.00    -0.267 N 
ATOM     12  H2  UNL     1      15.464   0.853  16.090  1.00  0.00     0.194 HD
BRANCH  11  13
HETATM   13  O1  UNL     1      17.078   1.279  14.878  1.00  0.00    -0.278 OA
BRANCH  13  14
HETATM   14  C4  UNL     1      16.944   0.603  13.639  1.00  0.00     0.231 C 
BRANCH  14  15
HETATM   15  C3  UNL     1      17.075   1.554  12.474  1.00  0.00     0.299 C 
BRANCH  15  16
HETATM   16  N1  UNL     1      17.661   0.862  11.360  1.00  0.00     0.082 N 
HETATM   17  C1  UNL     1      17.649  -0.561  11.494  1.00  0.00     0.309 C 
HETATM   18  C2  UNL     1      18.957   1.352  10.990  1.00  0.00     0.309 C 
ENDBRANCH  15  16
ENDBRANCH  14  15
ENDBRANCH  13  14
ENDBRANCH  11  13
BRANCH  10  19
HETATM   19  C13 UNL     1      14.572   3.099  16.768  1.00  0.00     0.041 A 
HETATM   20  C14 UNL     1      14.339   4.356  17.474  1.00  0.00     0.011 A 
HETATM   21  C15 UNL     1      14.846   3.190  18.253  1.00  0.00     0.011 A 
ENDBRANCH  10  19
ENDBRANCH   1  10
BRANCH   4  22
HETATM   22  N4  UNL     1      19.848   5.051  15.226  1.00  0.00    -0.234 N 
ATOM     23  H42 UNL     1      20.403   4.200  15.139  1.00  0.00     0.174 HD
ATOM     24  H41 UNL     1      20.299   5.930  15.480  1.00  0.00     0.174 HD
ENDBRANCH   4  22
BRANCH   7  25
HETATM   25  N6  UNL     1      16.114   6.678  13.218  1.00  0.00    -0.217 N 
ATOM     26  H6  UNL     1      15.304   7.129  13.642  1.00  0.00     0.178 HD
BRANCH  25  27
HETATM   27  C9  UNL     1      16.404   7.096  11.897  1.00  0.00     0.036 C 
HETATM   28  C10 UNL     1      15.166   7.800  11.341  1.00  0.00     0.038 C 
HETATM   29  C11 UNL     1      17.538   8.095  11.788  1.00  0.00     0.038 C 
HETATM   30  C12 UNL     1      16.690   5.951  10.970  1.00  0.00     0.038 C 
ENDBRANCH  25  27
ENDBRANCH   7  25
TORSDOF 9
ENDMDL
MODEL 4
REMARK VINA RESULT: -6.819570210      1.372      1.953
REMARK  9 active torsions:
REMARK  status: ('A' for Active; 'I' for Inactive)
REMARK    1  A    between atoms: N1_2  and  C3_4 
REMARK    2  A    between atoms: C3_4  and  C4_5 
REMARK    3  A    between atoms: C4_5  and  O1_6 
REMARK    4  A    between atoms: O1_6  and  N2_7 
REMARK    5  A    between atoms: C5_9  and  C6_10 
REMARK    6  A    between atoms: C5_9  and  C13_28 
REMARK    7  A    between atoms: C7_13  and  N4_14 
REMARK    8  A    between atoms: C8_19  and  N6_20 
REMARK    9  A    between atoms: N6_20  and  C9_22 
ROOT
HETATM    1  C6  UNL     1      16.958   3.142  13.183  1.00  0.00     0.161 A 
HETATM    2  N3  UNL     1      17.901   4.085  13.400  1.00  0.00    -0.174 N 
ATOM      3  H3  UNL     1      18.379   4.487  12.593  1.00  0.00     0.186 HD
HETATM    4  C7  UNL     1      18.237   4.518  14.614  1.00  0.00     0.692 A 
HETATM    5  N5  UNL     1      17.629   4.011  15.701  1.00  0.00    -0.023 N 
ATOM      6  H5  UNL     1      17.880   4.338  16.634  1.00  0.00     0.203 HD
HETATM    7  C8  UNL     1      16.689   3.074  15.541  1.00  0.00     0.695 A 
HETATM    8  N7  UNL     1      16.372   2.658  14.282  1.00  0.00    -0.174 N 
ATOM      9  H7  UNL     1      15.654   1.942  14.174  1.00  0.00     0.186 HD
ENDROOT
BRANCH   1  10
HETATM   10  C5  UNL     1      16.616   2.698  11.842  1.00  0.00     0.081 C 
HETATM   11  N2  UNL     1      16.338   3.553  10.942  1.00  0.00    -0.267 N 
ATOM     12  H2  UNL     1      16.099   3.233  10.003  1.00  0.00     0.194 HD
BRANCH  11  13
HETATM   13  O1  UNL     1      16.353   4.887  11.210  1.00  0.00    -0.278 OA
BRANCH  13  14
HETATM   14  C4  UNL     1      16.983   5.841  10.370  1.00  0.00     0.231 C 
BRANCH  14  15
HETATM   15  C3  UNL     1      18.267   5.298   9.786  1.00  0.00     0.299 C 
BRANCH  15  16
HETATM   16  N1  UNL     1      18.533   5.954   8.537  1.00  0.00     0.082 N 
HETATM   17  C1  UNL     1      17.388   6.065   7.687  1.00  0.00     0.309 C 
HETATM   18  C2  UNL     1      19.667   5.425   7.836  1.00  0.00     0.309 C 
ENDBRANCH  15  16
ENDBRANCH  14  15
ENDBRANCH  13  14
ENDBRANCH  11  13
BRANCH  10  19
HETATM   19  C13 UNL     1      16.592   1.278  11.499  1.00  0.00     0.041 A 
HETATM   20  C14 UNL     1      17.266   0.215  12.241  1.00  0.00     0.011 A 
HETATM   21  C15 UNL     1      17.876   0.681  10.963  1.00  0.00     0.011 A 
ENDBRANCH  10  19
ENDBRANCH   1  10
BRANCH   4  22
HETATM   22  N4  UNL     1      19.141   5.423  14.804  1.00  0.00    -0.234 N 
ATOM     23  H42 UNL     1      19.126   5.926  15.691  1.00  0.00     0.174 HD
ATOM     24  H41 UNL     1      19.853   5.641  14.106  1.00  0.00     0.174 HD
ENDBRANCH   4  22
BRANCH   7  25
HETATM   25  N6  UNL     1      16.075   2.553  16.532  1.00  0.00    -0.217 N 
ATOM     26  H6  UNL     1      16.515   1.717  16.917  1.00  0.00     0.178 HD
BRANCH  25  27
HETATM   27  C9  UNL     1      14.883   2.951  17.182  1.00  0.00     0.036 C 
HETATM   28  C10 UNL     1      15.130   2.916  18.690  1.00  0.00     0.038 C 
HETATM   29  C11 UNL     1      14.433   4.363  16.863  1.00  0.00     0.038 C 
HETATM   30  C12 UNL     1      13.735   2.019  16.921  1.00  0.00     0.038 C 
ENDBRANCH  25  27
ENDBRANCH   7  25
TORSDOF 9
ENDMDL
MODEL 5
REMARK VINA RESULT: -6.806456105      1.804      5.732
REMARK  9 active torsions:
REMARK  status: ('A' for Active; 'I' for Inactive)
REMARK    1  A    between atoms: N1_2  and  C3_4 
REMARK    2  A    between atoms: C3_4  and  C4_5 
REMARK    3  A    between atoms: C4_5  and  O1_6 
REMARK    4  A    between atoms: O1_6  and  N2_7 
REMARK    5  A    between atoms: C5_9  and  C6_10 
REMARK    6  A    between atoms: C5_9  and  C13_28 
REMARK    7  A    between atoms: C7_13  and  N4_14 
REMARK    8  A    between atoms: C8_19  and  N6_20 
REMARK    9  A    between atoms: N6_20  and  C9_22 
ROOT
HETATM    1  C6  UNL     1      17.611   3.578  12.523  1.00  0.00     0.161 A 
HETATM    2  N3  UNL     1      18.925   3.891  12.567  1.00  0.00    -0.174 N 
ATOM      3  H3  UNL     1      19.602   3.130  12.614  1.00  0.00     0.186 HD
HETATM    4  C7  UNL     1      19.379   5.143  12.553  1.00  0.00     0.692 A 
HETATM    5  N5  UNL     1      18.515   6.171  12.492  1.00  0.00    -0.023 N 
ATOM      6  H5  UNL     1      18.855   7.133  12.479  1.00  0.00     0.203 HD
HETATM    7  C8  UNL     1      17.204   5.916  12.447  1.00  0.00     0.695 A 
HETATM    8  N7  UNL     1      16.778   4.621  12.463  1.00  0.00    -0.174 N 
ATOM      9  H7  UNL     1      15.775   4.440  12.427  1.00  0.00     0.186 HD
ENDROOT
BRANCH   1  10
HETATM   10  C5  UNL     1      17.153   2.198  12.536  1.00  0.00     0.081 C 
HETATM   11  N2  UNL     1      16.901   1.622  13.641  1.00  0.00    -0.267 N 
ATOM     12  H2  UNL     1      16.581   0.654  13.640  1.00  0.00     0.194 HD
BRANCH  11  13
HETATM   13  O1  UNL     1      17.053   2.276  14.825  1.00  0.00    -0.278 OA
BRANCH  13  14
HETATM   14  C4  UNL     1      16.306   1.959  15.989  1.00  0.00     0.231 C 
BRANCH  14  15
HETATM   15  C3  UNL     1      16.032   3.190  16.820  1.00  0.00     0.299 C 
BRANCH  15  16
HETATM   16  N1  UNL     1      14.784   3.026  17.512  1.00  0.00     0.082 N 
HETATM   17  C1  UNL     1      14.913   3.006  18.936  1.00  0.00     0.309 C 
HETATM   18  C2  UNL     1      13.996   1.928  17.033  1.00  0.00     0.309 C 
ENDBRANCH  15  16
ENDBRANCH  14  15
ENDBRANCH  13  14
ENDBRANCH  11  13
BRANCH  10  19
HETATM   19  C13 UNL     1      16.966   1.453  11.293  1.00  0.00     0.041 A 
HETATM   20  C14 UNL     1      17.017  -0.001  11.160  1.00  0.00     0.011 A 
HETATM   21  C15 UNL     1      18.191   0.792  10.699  1.00  0.00     0.011 A 
ENDBRANCH  10  19
ENDBRANCH   1  10
BRANCH   4  22
HETATM   22  N4  UNL     1      20.640   5.425  12.596  1.00  0.00    -0.234 N 
ATOM     23  H42 UNL     1      21.266   4.876  12.006  1.00  0.00     0.174 HD
ATOM     24  H41 UNL     1      21.018   6.163  13.189  1.00  0.00     0.174 HD
ENDBRANCH   4  22
BRANCH   7  25
HETATM   25  N6  UNL     1      16.333   6.848  12.389  1.00  0.00    -0.217 N 
ATOM     26  H6  UNL     1      15.854   7.042  13.268  1.00  0.00     0.178 HD
BRANCH  25  27
HETATM   27  C9  UNL     1      15.926   7.654  11.299  1.00  0.00     0.036 C 
HETATM   28  C10 UNL     1      14.519   8.174  11.593  1.00  0.00     0.038 C 
HETATM   29  C11 UNL     1      16.786   8.881  11.069  1.00  0.00     0.038 C 
HETATM   30  C12 UNL     1      15.834   6.892  10.009  1.00  0.00     0.038 C 
ENDBRANCH  25  27
ENDBRANCH   7  25
TORSDOF 9
ENDMDL
