MODEL 1
REMARK VINA RESULT: -7.080814606      0.000      0.000
REMARK  7 active torsions:
REMARK  status: ('A' for Active; 'I' for Inactive)
REMARK    1  A    between atoms: N1_2  and  C2_5 
REMARK    2  A    between atoms: C2_5  and  C3_6 
REMARK    3  A    between atoms: C3_6  and  C4_7 
REMARK    4  A    between atoms: N2_8  and  C5_10 
REMARK    5  A    between atoms: C6_13  and  C7_14 
REMARK    6  A    between atoms: C7_14  and  O1_16 
REMARK    7  A    between atoms: C7_14  and  C9_18 
ROOT
HETATM    1  C5  UNL     1      16.778   3.063  14.043  1.00  0.00     0.115 A 
HETATM    2  N3  UNL     1      16.877   1.982  13.182  1.00  0.00    -0.329 N 
ATOM      3  H3  UNL     1      16.687   1.054  13.560  1.00  0.00     0.168 HD
HETATM    4  C6  UNL     1      17.202   2.071  11.901  1.00  0.00     0.120 A 
HETATM    5  N4  UNL     1      17.462   3.291  11.377  1.00  0.00    -0.345 N 
ATOM      6  H4  UNL     1      17.719   3.389  10.395  1.00  0.00     0.167 HD
HETATM    7  C10 UNL     1      17.376   4.363  12.162  1.00  0.00     0.049 A 
HETATM    8  C11 UNL     1      17.033   4.297  13.494  1.00  0.00     0.016 A 
HETATM    9  C12 UNL     1      16.820   5.549  14.292  1.00  0.00     0.048 C 
HETATM   10  C13 UNL     1      15.318   5.699  14.524  1.00  0.00     0.017 C 
HETATM   11  C14 UNL     1      17.309   6.792  13.576  1.00  0.00     0.281 C 
HETATM   12  N5  UNL     1      18.220   6.567  12.529  1.00  0.00     0.090 N 
HETATM   13  C15 UNL     1      19.549   6.250  13.004  1.00  0.00     0.310 C 
HETATM   14  C16 UNL     1      17.726   5.650  11.532  1.00  0.00     0.329 C 
ENDROOT
BRANCH   1  15
HETATM   15  N2  UNL     1      16.535   2.797  15.234  1.00  0.00    -0.355 N 
HETATM   16  C4  UNL     1      16.789   3.019  16.545  1.00  0.00     0.064 C 
ATOM     17  H2  UNL     1      15.808   2.082  15.212  1.00  0.00     0.166 HD
BRANCH  16  18
HETATM   18  C3  UNL     1      15.666   3.593  17.358  1.00  0.00     0.072 C 
BRANCH  18  19
HETATM   19  C2  UNL     1      15.062   2.771  18.423  1.00  0.00     0.237 C 
BRANCH  19  20
HETATM   20  N1  UNL     1      14.517   1.521  17.886  1.00  0.00    -0.079 N 
HETATM   21  C1  UNL     1      13.453   1.836  16.965  1.00  0.00     0.267 C 
ATOM     22  H12 UNL     1      14.220   0.878  18.620  1.00  0.00     0.276 HD
ATOM     23  H11 UNL     1      15.235   0.932  17.464  1.00  0.00     0.276 HD
ENDBRANCH  19  20
ENDBRANCH  18  19
ENDBRANCH  16  18
ENDBRANCH   1  15
BRANCH   4  24
HETATM   24  C7  UNL     1      17.288   0.891  10.953  1.00  0.00     0.138 C 
HETATM   25  C8  UNL     1      17.077  -0.365  11.746  1.00  0.00     0.057 C 
BRANCH  24  26
HETATM   26  O1  UNL     1      16.347   1.053   9.969  1.00  0.00    -0.380 OA
ATOM     27  H1  UNL     1      15.486   0.934  10.352  1.00  0.00     0.211 HD
ENDBRANCH  24  26
BRANCH  24  28
HETATM   28  C9  UNL     1      18.663   0.863  10.295  1.00  0.00     0.267 C 
HETATM   29  F1  UNL     1      19.703   1.038  11.154  1.00  0.00    -0.252 F 
ENDBRANCH  24  28
ENDBRANCH   4  24
TORSDOF 7
ENDMDL
MODEL 2
REMARK VINA RESULT: -6.953664336      1.093      1.281
REMARK  7 active torsions:
REMARK  status: ('A' for Active; 'I' for Inactive)
REMARK    1  A    between atoms: N1_2  and  C2_5 
REMARK    2  A    between atoms: C2_5  and  C3_6 
REMARK    3  A    between atoms: C3_6  and  C4_7 
REMARK    4  A    between atoms: N2_8  and  C5_10 
REMARK    5  A    between atoms: C6_13  and  C7_14 
REMARK    6  A    between atoms: C7_14  and  O1_16 
REMARK    7  A    between atoms: C7_14  and  C9_18 
ROOT
HETATM    1  C5  UNL     1      17.074   3.947  13.400  1.00  0.00     0.115 A 
HETATM    2  N3  UNL     1      17.161   2.682  12.841  1.00  0.00    -0.329 N 
ATOM      3  H3  UNL     1      17.186   1.884  13.475  1.00  0.00     0.168 HD
HETATM    4  C6  UNL     1      17.215   2.438  11.541  1.00  0.00     0.120 A 
HETATM    5  N4  UNL     1      17.187   3.481  10.680  1.00  0.00    -0.345 N 
ATOM      6  H4  UNL     1      17.233   3.323   9.673  1.00  0.00     0.167 HD
HETATM    7  C10 UNL     1      17.100   4.717  11.165  1.00  0.00     0.049 A 
HETATM    8  C11 UNL     1      17.034   4.996  12.513  1.00  0.00     0.016 A 
HETATM    9  C12 UNL     1      16.800   6.397  12.993  1.00  0.00     0.048 C 
HETATM   10  C13 UNL     1      15.365   6.473  13.513  1.00  0.00     0.017 C 
HETATM   11  C14 UNL     1      16.953   7.429  11.894  1.00  0.00     0.281 C 
HETATM   12  N5  UNL     1      17.667   7.002  10.761  1.00  0.00     0.090 N 
HETATM   13  C15 UNL     1      19.095   6.949  10.987  1.00  0.00     0.310 C 
HETATM   14  C16 UNL     1      17.128   5.803  10.167  1.00  0.00     0.329 C 
ENDROOT
BRANCH   1  15
HETATM   15  N2  UNL     1      17.108   4.004  14.642  1.00  0.00    -0.355 N 
HETATM   16  C4  UNL     1      16.438   4.067  15.817  1.00  0.00     0.064 C 
ATOM     17  H2  UNL     1      18.098   4.002  14.889  1.00  0.00     0.166 HD
BRANCH  16  18
HETATM   18  C3  UNL     1      16.596   2.896  16.742  1.00  0.00     0.072 C 
BRANCH  18  19
HETATM   19  C2  UNL     1      16.062   1.584  16.331  1.00  0.00     0.237 C 
BRANCH  19  20
HETATM   20  N1  UNL     1      15.209   1.006  17.374  1.00  0.00    -0.079 N 
HETATM   21  C1  UNL     1      13.971   1.744  17.423  1.00  0.00     0.267 C 
ATOM     22  H12 UNL     1      15.675   0.966  18.280  1.00  0.00     0.276 HD
ATOM     23  H11 UNL     1      15.061   0.005  17.247  1.00  0.00     0.276 HD
ENDBRANCH  19  20
ENDBRANCH  18  19
ENDBRANCH  16  18
ENDBRANCH   1  15
BRANCH   4  24
HETATM   24  C7  UNL     1      17.288   1.052  10.929  1.00  0.00     0.138 C 
HETATM   25  C8  UNL     1      17.012   0.047  12.009  1.00  0.00     0.057 C 
BRANCH  24  26
HETATM   26  O1  UNL     1      16.381   0.982   9.902  1.00  0.00    -0.380 OA
ATOM     27  H1  UNL     1      15.615   0.511  10.209  1.00  0.00     0.211 HD
ENDBRANCH  24  26
BRANCH  24  28
HETATM   28  C9  UNL     1      18.679   0.822  10.350  1.00  0.00     0.267 C 
HETATM   29  F1  UNL     1      19.694   1.320  11.106  1.00  0.00    -0.252 F 
ENDBRANCH  24  28
ENDBRANCH   4  24
TORSDOF 7
ENDMDL
MODEL 3
REMARK VINA RESULT: -6.865922182      2.406      5.419
REMARK  7 active torsions:
REMARK  status: ('A' for Active; 'I' for Inactive)
REMARK    1  A    between atoms: N1_2  and  C2_5 
REMARK    2  A    between atoms: C2_5  and  C3_6 
REMARK    3  A    between atoms: C3_6  and  C4_7 
REMARK    4  A    between atoms: N2_8  and  C5_10 
REMARK    5  A    between atoms: C6_13  and  C7_14 
REMARK    6  A    between atoms: C7_14  and  O1_16 
REMARK    7  A    between atoms: C7_14  and  C9_18 
ROOT
HETATM    1  C5  UNL     1      16.979   4.987  11.150  1.00  0.00     0.115 A 
HETATM    2  N3  UNL     1      17.058   3.671  10.723  1.00  0.00    -0.329 N 
ATOM      3  H3  UNL     1      17.018   3.494   9.719  1.00  0.00     0.168 HD
HETATM    4  C6  UNL     1      17.181   2.627  11.528  1.00  0.00     0.120 A 
HETATM    5  N4  UNL     1      17.233   2.836  12.863  1.00  0.00    -0.345 N 
ATOM      6  H4  UNL     1      17.323   2.050  13.508  1.00  0.00     0.167 HD
HETATM    7  C10 UNL     1      17.165   4.083  13.325  1.00  0.00     0.049 A 
HETATM    8  C11 UNL     1      17.045   5.185  12.508  1.00  0.00     0.016 A 
HETATM    9  C12 UNL     1      17.111   6.570  13.078  1.00  0.00     0.048 C 
HETATM   10  C13 UNL     1      18.462   7.167  12.686  1.00  0.00     0.017 C 
HETATM   11  C14 UNL     1      17.013   6.589  14.590  1.00  0.00     0.281 C 
HETATM   12  N5  UNL     1      16.477   5.428  15.175  1.00  0.00     0.090 N 
HETATM   13  C15 UNL     1      15.041   5.341  15.027  1.00  0.00     0.310 C 
HETATM   14  C16 UNL     1      17.174   4.225  14.793  1.00  0.00     0.329 C 
ENDROOT
BRANCH   1  15
HETATM   15  N2  UNL     1      16.791   5.842  10.266  1.00  0.00    -0.355 N 
HETATM   16  C4  UNL     1      17.302   6.640   9.300  1.00  0.00     0.064 C 
ATOM     17  H2  UNL     1      15.787   6.026  10.273  1.00  0.00     0.166 HD
BRANCH  16  18
HETATM   18  C3  UNL     1      16.855   6.362   7.894  1.00  0.00     0.072 C 
BRANCH  18  19
HETATM   19  C2  UNL     1      15.788   7.193   7.305  1.00  0.00     0.237 C 
BRANCH  19  20
HETATM   20  N1  UNL     1      14.462   6.646   7.602  1.00  0.00    -0.079 N 
HETATM   21  C1  UNL     1      13.783   7.538   8.509  1.00  0.00     0.267 C 
ATOM     22  H12 UNL     1      14.505   5.689   7.955  1.00  0.00     0.276 HD
ATOM     23  H11 UNL     1      13.919   6.460   6.759  1.00  0.00     0.276 HD
ENDBRANCH  19  20
ENDBRANCH  18  19
ENDBRANCH  16  18
ENDBRANCH   1  15
BRANCH   4  24
HETATM   24  C7  UNL     1      17.290   1.189  11.059  1.00  0.00     0.138 C 
HETATM   25  C8  UNL     1      17.030   0.290  12.232  1.00  0.00     0.057 C 
BRANCH  24  26
HETATM   26  O1  UNL     1      16.392   0.994  10.040  1.00  0.00    -0.380 OA
ATOM     27  H1  UNL     1      16.244   1.826   9.607  1.00  0.00     0.211 HD
ENDBRANCH  24  26
BRANCH  24  28
HETATM   28  C9  UNL     1      18.690   0.934  10.512  1.00  0.00     0.267 C 
HETATM   29  F1  UNL     1      19.693   1.470  11.259  1.00  0.00    -0.252 F 
ENDBRANCH  24  28
ENDBRANCH   4  24
TORSDOF 7
ENDMDL
MODEL 4
REMARK VINA RESULT: -6.818170447      1.159      1.483
REMARK  7 active torsions:
REMARK  status: ('A' for Active; 'I' for Inactive)
REMARK    1  A    between atoms: N1_2  and  C2_5 
REMARK    2  A    between atoms: C2_5  and  C3_6 
REMARK    3  A    between atoms: C3_6  and  C4_7 
REMARK    4  A    between atoms: N2_8  and  C5_10 
REMARK    5  A    between atoms: C6_13  and  C7_14 
REMARK    6  A    between atoms: C7_14  and  O1_16 
REMARK    7  A    between atoms: C7_14  and  C9_18 
ROOT
HETATM    1  C5  UNL     1      17.435   4.039  13.412  1.00  0.00     0.115 A 
HETATM    2  N3  UNL     1      17.230   2.773  12.887  1.00  0.00    -0.329 N 
ATOM      3  H3  UNL     1      16.796   2.073  13.490  1.00  0.00     0.168 HD
HETATM    4  C6  UNL     1      17.558   2.408  11.657  1.00  0.00     0.120 A 
HETATM    5  N4  UNL     1      18.137   3.317  10.840  1.00  0.00    -0.345 N 
ATOM      6  H4  UNL     1      18.405   3.062   9.889  1.00  0.00     0.167 HD
HETATM    7  C10 UNL     1      18.353   4.549  11.294  1.00  0.00     0.049 A 
HETATM    8  C11 UNL     1      18.013   4.955  12.566  1.00  0.00     0.016 A 
HETATM    9  C12 UNL     1      18.156   6.390  12.974  1.00  0.00     0.048 C 
HETATM   10  C13 UNL     1      16.753   6.991  13.049  1.00  0.00     0.017 C 
HETATM   11  C14 UNL     1      18.961   7.207  11.982  1.00  0.00     0.281 C 
HETATM   12  N5  UNL     1      19.768   6.463  11.104  1.00  0.00     0.090 N 
HETATM   13  C15 UNL     1      20.964   5.955  11.740  1.00  0.00     0.310 C 
HETATM   14  C16 UNL     1      19.036   5.467  10.363  1.00  0.00     0.329 C 
ENDROOT
BRANCH   1  15
HETATM   15  N2  UNL     1      17.137   4.193  14.609  1.00  0.00    -0.355 N 
HETATM   16  C4  UNL     1      16.188   4.199  15.575  1.00  0.00     0.064 C 
ATOM     17  H2  UNL     1      18.012   4.421  15.082  1.00  0.00     0.166 HD
BRANCH  16  18
HETATM   18  C3  UNL     1      16.320   3.160  16.650  1.00  0.00     0.072 C 
BRANCH  18  19
HETATM   19  C2  UNL     1      16.167   1.738  16.291  1.00  0.00     0.237 C 
BRANCH  19  20
HETATM   20  N1  UNL     1      15.350   1.025  17.277  1.00  0.00    -0.079 N 
HETATM   21  C1  UNL     1      14.096   1.720  17.430  1.00  0.00     0.267 C 
ATOM     22  H12 UNL     1      15.835   0.895  18.165  1.00  0.00     0.276 HD
ATOM     23  H11 UNL     1      15.223   0.041  17.041  1.00  0.00     0.276 HD
ENDBRANCH  19  20
ENDBRANCH  18  19
ENDBRANCH  16  18
ENDBRANCH   1  15
BRANCH   4  24
HETATM   24  C7  UNL     1      17.312   1.028  11.076  1.00  0.00     0.138 C 
HETATM   25  C8  UNL     1      16.986   0.095  12.204  1.00  0.00     0.057 C 
BRANCH  24  26
HETATM   26  O1  UNL     1      16.296   1.118  10.159  1.00  0.00    -0.380 OA
ATOM     27  H1  UNL     1      15.514   0.734  10.537  1.00  0.00     0.211 HD
ENDBRANCH  24  26
BRANCH  24  28
HETATM   28  C9  UNL     1      18.564   0.548  10.352  1.00  0.00     0.267 C 
HETATM   29  F1  UNL     1      19.704   0.614  11.092  1.00  0.00    -0.252 F 
ENDBRANCH  24  28
ENDBRANCH   4  24
TORSDOF 7
ENDMDL
MODEL 5
REMARK VINA RESULT: -6.774049977      1.467      1.783
REMARK  7 active torsions:
REMARK  status: ('A' for Active; 'I' for Inactive)
REMARK    1  A    between atoms: N1_2  and  C2_5 
REMARK    2  A    between atoms: C2_5  and  C3_6 
REMARK    3  A    between atoms: C3_6  and  C4_7 
REMARK    4  A    between atoms: N2_8  and  C5_10 
REMARK    5  A    between atoms: C6_13  and  C7_14 
REMARK    6  A    between atoms: C7_14  and  O1_16 
REMARK    7  A    between atoms: C7_14  and  C9_18 
ROOT
HETATM    1  C5  UNL     1      16.893   4.229  13.592  1.00  0.00     0.115 A 
HETATM    2  N3  UNL     1      16.861   2.886  13.253  1.00  0.00    -0.329 N 
ATOM      3  H3  UNL     1      16.346   2.253  13.865  1.00  0.00     0.168 HD
HETATM    4  C6  UNL     1      17.454   2.367  12.188  1.00  0.00     0.120 A 
HETATM    5  N4  UNL     1      18.146   3.185  11.363  1.00  0.00    -0.345 N 
ATOM      6  H4  UNL     1      18.617   2.812  10.539  1.00  0.00     0.167 HD
HETATM    7  C10 UNL     1      18.204   4.485  11.642  1.00  0.00     0.049 A 
HETATM    8  C11 UNL     1      17.589   5.050  12.738  1.00  0.00     0.016 A 
HETATM    9  C12 UNL     1      17.576   6.538  12.925  1.00  0.00     0.048 C 
HETATM   10  C13 UNL     1      16.160   7.028  12.623  1.00  0.00     0.017 C 
HETATM   11  C14 UNL     1      18.529   7.257  11.990  1.00  0.00     0.281 C 
HETATM   12  N5  UNL     1      19.535   6.456  11.423  1.00  0.00     0.090 N 
HETATM   13  C15 UNL     1      20.595   6.147  12.357  1.00  0.00     0.310 C 
HETATM   14  C16 UNL     1      19.020   5.304  10.726  1.00  0.00     0.329 C 
ENDROOT
BRANCH   1  15
HETATM   15  N2  UNL     1      16.346   4.538  14.665  1.00  0.00    -0.355 N 
HETATM   16  C4  UNL     1      15.209   4.688  15.385  1.00  0.00     0.064 C 
ATOM     17  H2  UNL     1      17.105   4.800  15.294  1.00  0.00     0.166 HD
BRANCH  16  18
HETATM   18  C3  UNL     1      15.044   3.788  16.574  1.00  0.00     0.072 C 
BRANCH  18  19
HETATM   19  C2  UNL     1      16.085   2.782  16.858  1.00  0.00     0.237 C 
BRANCH  19  20
HETATM   20  N1  UNL     1      15.496   1.472  17.146  1.00  0.00    -0.079 N 
HETATM   21  C1  UNL     1      14.078   1.636  17.351  1.00  0.00     0.267 C 
ATOM     22  H12 UNL     1      15.952   1.003  17.929  1.00  0.00     0.276 HD
ATOM     23  H11 UNL     1      15.708   0.782  16.426  1.00  0.00     0.276 HD
ENDBRANCH  19  20
ENDBRANCH  18  19
ENDBRANCH  16  18
ENDBRANCH   1  15
BRANCH   4  24
HETATM   24  C7  UNL     1      17.400   0.900  11.805  1.00  0.00     0.138 C 
HETATM   25  C8  UNL     1      18.767   0.483  11.350  1.00  0.00     0.057 C 
BRANCH  24  26
HETATM   26  O1  UNL     1      16.968   0.183  12.892  1.00  0.00    -0.380 OA
ATOM     27  H1  UNL     1      16.036   0.334  13.001  1.00  0.00     0.211 HD
ENDBRANCH  24  26
BRANCH  24  28
HETATM   28  C9  UNL     1      16.395   0.704  10.676  1.00  0.00     0.267 C 
HETATM   29  F1  UNL     1      16.948   0.356   9.483  1.00  0.00    -0.252 F 
ENDBRANCH  24  28
ENDBRANCH   4  24
TORSDOF 7
ENDMDL
