MODEL 1
REMARK VINA RESULT: -6.147620351      0.000      0.000
REMARK  8 active torsions:
REMARK  status: ('A' for Active; 'I' for Inactive)
REMARK    1  A    between atoms: C2_2  and  C3_3 
REMARK    2  A    between atoms: C3_3  and  C4_4 
REMARK    3  A    between atoms: C4_4  and  N1_5 
REMARK    4  A    between atoms: N1_5  and  C5_7 
REMARK    5  A    between atoms: C6_10  and  S1_11 
REMARK    6  A    between atoms: S1_11  and  C7_12 
REMARK    7  A    between atoms: C7_12  and  C8_13 
REMARK    8  A    between atoms: C8_13  and  N3_14 
ROOT
HETATM    1  C5  UNL     1      16.700   1.856  15.044  1.00  0.00     0.681 A 
HETATM    2  N2  UNL     1      16.900   1.133  13.911  1.00  0.00    -0.184 N 
ATOM      3  H2  UNL     1      16.944   0.116  13.975  1.00  0.00     0.185 HD
HETATM    4  C6  UNL     1      17.042   1.724  12.691  1.00  0.00     0.109 A 
HETATM    5  C9  UNL     1      16.984   3.090  12.602  1.00  0.00     0.113 A 
HETATM    6 BR1  UNL     1      17.118   3.987  10.939  1.00  0.00    -0.042 Br
HETATM    7  C10 UNL     1      16.786   3.815  13.731  1.00  0.00     0.279 A 
HETATM    8  O1  UNL     1      16.727   5.068  13.689  1.00  0.00    -0.266 OA
HETATM    9  N4  UNL     1      16.650   3.192  14.910  1.00  0.00    -0.155 N 
ATOM     10  H4  UNL     1      16.502   3.760  15.745  1.00  0.00     0.187 HD
ENDROOT
BRANCH   4  11
HETATM   11  S1  UNL     1      17.265   0.764  11.218  1.00  0.00    -0.109 SA
BRANCH  11  12
HETATM   12  C7  UNL     1      17.235  -0.999  11.442  1.00  0.00     0.108 C 
BRANCH  12  13
HETATM   13  C8  UNL     1      18.540  -1.713  11.456  1.00  0.00     0.240 C 
BRANCH  13  14
HETATM   14  N3  UNL     1      18.462  -3.146  11.441  1.00  0.00    -0.079 N 
ATOM     15  H33 UNL     1      18.740  -3.521  12.349  1.00  0.00     0.274 HD
ATOM     16  H32 UNL     1      17.486  -3.443  11.415  1.00  0.00     0.274 HD
ATOM     17  H31 UNL     1      18.986  -3.608  10.698  1.00  0.00     0.274 HD
ENDBRANCH  13  14
ENDBRANCH  12  13
ENDBRANCH  11  12
ENDBRANCH   4  11
BRANCH   1  18
HETATM   18  N1  UNL     1      16.568   1.281  16.180  1.00  0.00    -0.226 N 
ATOM     19  H1  UNL     1      16.930   0.333  16.282  1.00  0.00     0.177 HD
BRANCH  18  20
HETATM   20  C4  UNL     1      15.947   1.883  17.306  1.00  0.00     0.138 C 
BRANCH  20  21
HETATM   21  C3  UNL     1      14.478   1.473  17.471  1.00  0.00     0.020 C 
BRANCH  21  22
HETATM   22  C2  UNL     1      13.667   2.708  17.078  1.00  0.00    -0.003 C 
HETATM   23  C1  UNL     1      14.401   3.980  17.499  1.00  0.00     0.005 C 
ENDBRANCH  21  22
ENDBRANCH  20  21
ENDBRANCH  18  20
ENDBRANCH   1  18
TORSDOF 8
ENDMDL
MODEL 2
REMARK VINA RESULT: -6.088639589      2.749      3.552
REMARK  8 active torsions:
REMARK  status: ('A' for Active; 'I' for Inactive)
REMARK    1  A    between atoms: C2_2  and  C3_3 
REMARK    2  A    between atoms: C3_3  and  C4_4 
REMARK    3  A    between atoms: C4_4  and  N1_5 
REMARK    4  A    between atoms: N1_5  and  C5_7 
REMARK    5  A    between atoms: C6_10  and  S1_11 
REMARK    6  A    between atoms: S1_11  and  C7_12 
REMARK    7  A    between atoms: C7_12  and  C8_13 
REMARK    8  A    between atoms: C8_13  and  N3_14 
ROOT
HETATM    1  C5  UNL     1      16.408   3.301  14.893  1.00  0.00     0.681 A 
HETATM    2  N2  UNL     1      16.640   3.805  13.652  1.00  0.00    -0.184 N 
ATOM      3  H2  UNL     1      16.591   4.814  13.511  1.00  0.00     0.185 HD
HETATM    4  C6  UNL     1      16.936   3.004  12.590  1.00  0.00     0.109 A 
HETATM    5  C9  UNL     1      17.002   1.648  12.776  1.00  0.00     0.113 A 
HETATM    6 BR1  UNL     1      17.461   0.470  11.366  1.00  0.00    -0.042 Br
HETATM    7  C10 UNL     1      16.770   1.142  14.013  1.00  0.00     0.279 A 
HETATM    8  O1  UNL     1      16.820  -0.095  14.221  1.00  0.00    -0.266 OA
HETATM    9  N4  UNL     1      16.482   1.967  15.030  1.00  0.00    -0.155 N 
ATOM     10  H4  UNL     1      16.311   1.561  15.950  1.00  0.00     0.187 HD
ENDROOT
BRANCH   4  11
HETATM   11  S1  UNL     1      17.273   3.681  10.986  1.00  0.00    -0.109 SA
BRANCH  11  12
HETATM   12  C7  UNL     1      18.965   4.135  10.688  1.00  0.00     0.108 C 
BRANCH  12  13
HETATM   13  C8  UNL     1      20.020   3.345  11.378  1.00  0.00     0.240 C 
BRANCH  13  14
HETATM   14  N3  UNL     1      20.660   3.999  12.484  1.00  0.00    -0.079 N 
ATOM     15  H33 UNL     1      21.588   3.604  12.634  1.00  0.00     0.274 HD
ATOM     16  H32 UNL     1      20.910   4.954  12.228  1.00  0.00     0.274 HD
ATOM     17  H31 UNL     1      20.135   3.999  13.359  1.00  0.00     0.274 HD
ENDBRANCH  13  14
ENDBRANCH  12  13
ENDBRANCH  11  12
ENDBRANCH   4  11
BRANCH   1  18
HETATM   18  N1  UNL     1      16.131   4.072  15.878  1.00  0.00    -0.226 N 
ATOM     19  H1  UNL     1      16.888   4.623  16.282  1.00  0.00     0.177 HD
BRANCH  18  20
HETATM   20  C4  UNL     1      14.835   4.205  16.440  1.00  0.00     0.138 C 
BRANCH  20  21
HETATM   21  C3  UNL     1      14.812   3.972  17.956  1.00  0.00     0.020 C 
BRANCH  21  22
HETATM   22  C2  UNL     1      14.802   2.454  18.133  1.00  0.00    -0.003 C 
HETATM   23  C1  UNL     1      13.698   1.830  17.280  1.00  0.00     0.005 C 
ENDBRANCH  21  22
ENDBRANCH  20  21
ENDBRANCH  18  20
ENDBRANCH   1  18
TORSDOF 8
ENDMDL
MODEL 3
REMARK VINA RESULT: -6.029843257      3.233      6.047
REMARK  8 active torsions:
REMARK  status: ('A' for Active; 'I' for Inactive)
REMARK    1  A    between atoms: C2_2  and  C3_3 
REMARK    2  A    between atoms: C3_3  and  C4_4 
REMARK    3  A    between atoms: C4_4  and  N1_5 
REMARK    4  A    between atoms: N1_5  and  C5_7 
REMARK    5  A    between atoms: C6_10  and  S1_11 
REMARK    6  A    between atoms: S1_11  and  C7_12 
REMARK    7  A    between atoms: C7_12  and  C8_13 
REMARK    8  A    between atoms: C8_13  and  N3_14 
ROOT
HETATM    1  C5  UNL     1      16.686   1.354  14.745  1.00  0.00     0.681 A 
HETATM    2  N2  UNL     1      16.467   2.682  14.557  1.00  0.00    -0.184 N 
ATOM      3  H2  UNL     1      16.719   3.103  13.662  1.00  0.00     0.185 HD
HETATM    4  C6  UNL     1      15.923   3.471  15.526  1.00  0.00     0.109 A 
HETATM    5  C9  UNL     1      15.585   2.909  16.729  1.00  0.00     0.113 A 
HETATM    6 BR1  UNL     1      14.773   3.922  18.108  1.00  0.00    -0.042 Br
HETATM    7  C10 UNL     1      15.803   1.584  16.921  1.00  0.00     0.279 A 
HETATM    8  O1  UNL     1      15.506   1.034  18.010  1.00  0.00    -0.266 OA
HETATM    9  N4  UNL     1      16.341   0.846  15.939  1.00  0.00    -0.155 N 
ATOM     10  H4  UNL     1      16.494  -0.148  16.108  1.00  0.00     0.187 HD
ENDROOT
BRANCH   4  11
HETATM   11  S1  UNL     1      15.610   5.194  15.250  1.00  0.00    -0.109 SA
BRANCH  11  12
HETATM   12  C7  UNL     1      17.054   6.220  15.114  1.00  0.00     0.108 C 
BRANCH  12  13
HETATM   13  C8  UNL     1      18.145   5.755  14.215  1.00  0.00     0.240 C 
BRANCH  13  14
HETATM   14  N3  UNL     1      19.221   5.055  14.858  1.00  0.00    -0.079 N 
ATOM     15  H33 UNL     1      19.330   5.387  15.817  1.00  0.00     0.274 HD
ATOM     16  H32 UNL     1      18.953   4.086  15.032  1.00  0.00     0.274 HD
ATOM     17  H31 UNL     1      20.119   5.087  14.374  1.00  0.00     0.274 HD
ENDBRANCH  13  14
ENDBRANCH  12  13
ENDBRANCH  11  12
ENDBRANCH   4  11
BRANCH   1  18
HETATM   18  N1  UNL     1      17.199   0.632  13.820  1.00  0.00    -0.226 N 
ATOM     19  H1  UNL     1      17.763  -0.172  14.097  1.00  0.00     0.177 HD
BRANCH  18  20
HETATM   20  C4  UNL     1      17.030   0.883  12.433  1.00  0.00     0.138 C 
BRANCH  20  21
HETATM   21  C3  UNL     1      17.539  -0.263  11.550  1.00  0.00     0.020 C 
BRANCH  21  22
HETATM   22  C2  UNL     1      18.271   0.413  10.391  1.00  0.00    -0.003 C 
HETATM   23  C1  UNL     1      19.200   1.505  10.917  1.00  0.00     0.005 C 
ENDBRANCH  21  22
ENDBRANCH  20  21
ENDBRANCH  18  20
ENDBRANCH   1  18
TORSDOF 8
ENDMDL
MODEL 4
REMARK VINA RESULT: -6.022039953      2.471      4.101
REMARK  8 active torsions:
REMARK  status: ('A' for Active; 'I' for Inactive)
REMARK    1  A    between atoms: C2_2  and  C3_3 
REMARK    2  A    between atoms: C3_3  and  C4_4 
REMARK    3  A    between atoms: C4_4  and  N1_5 
REMARK    4  A    between atoms: N1_5  and  C5_7 
REMARK    5  A    between atoms: C6_10  and  S1_11 
REMARK    6  A    between atoms: S1_11  and  C7_12 
REMARK    7  A    between atoms: C7_12  and  C8_13 
REMARK    8  A    between atoms: C8_13  and  N3_14 
ROOT
HETATM    1  C5  UNL     1      16.790   1.874  14.713  1.00  0.00     0.681 A 
HETATM    2  N2  UNL     1      16.731   3.232  14.701  1.00  0.00    -0.184 N 
ATOM      3  H2  UNL     1      16.569   3.727  15.577  1.00  0.00     0.185 HD
HETATM    4  C6  UNL     1      16.880   3.952  13.554  1.00  0.00     0.109 A 
HETATM    5  C9  UNL     1      17.097   3.289  12.374  1.00  0.00     0.113 A 
HETATM    6 BR1  UNL     1      17.369   4.217  10.745  1.00  0.00    -0.042 Br
HETATM    7  C10 UNL     1      17.156   1.934  12.383  1.00  0.00     0.279 A 
HETATM    8  O1  UNL     1      17.352   1.292  11.322  1.00  0.00    -0.266 OA
HETATM    9  N4  UNL     1      17.004   1.265  13.534  1.00  0.00    -0.155 N 
ATOM     10  H4  UNL     1      17.052   0.247  13.514  1.00  0.00     0.187 HD
ENDROOT
BRANCH   4  11
HETATM   11  S1  UNL     1      16.836   5.725  13.561  1.00  0.00    -0.109 SA
BRANCH  11  12
HETATM   12  C7  UNL     1      18.240   6.520  14.304  1.00  0.00     0.108 C 
BRANCH  12  13
HETATM   13  C8  UNL     1      19.564   5.857  14.157  1.00  0.00     0.240 C 
BRANCH  13  14
HETATM   14  N3  UNL     1      19.893   4.898  15.173  1.00  0.00    -0.079 N 
ATOM     15  H33 UNL     1      20.109   3.997  14.747  1.00  0.00     0.274 HD
ATOM     16  H32 UNL     1      20.798   5.124  15.587  1.00  0.00     0.274 HD
ATOM     17  H31 UNL     1      19.195   4.778  15.907  1.00  0.00     0.274 HD
ENDBRANCH  13  14
ENDBRANCH  12  13
ENDBRANCH  11  12
ENDBRANCH   4  11
BRANCH   1  18
HETATM   18  N1  UNL     1      16.648   1.216  15.803  1.00  0.00    -0.226 N 
ATOM     19  H1  UNL     1      16.860   0.219  15.792  1.00  0.00     0.177 HD
BRANCH  18  20
HETATM   20  C4  UNL     1      16.211   1.793  17.024  1.00  0.00     0.138 C 
BRANCH  20  21
HETATM   21  C3  UNL     1      14.881   1.213  17.519  1.00  0.00     0.020 C 
BRANCH  21  22
HETATM   22  C2  UNL     1      13.822   2.248  17.140  1.00  0.00    -0.003 C 
HETATM   23  C1  UNL     1      14.361   3.661  17.361  1.00  0.00     0.005 C 
ENDBRANCH  21  22
ENDBRANCH  20  21
ENDBRANCH  18  20
ENDBRANCH   1  18
TORSDOF 8
ENDMDL
MODEL 5
REMARK VINA RESULT: -6.013885703      1.735      2.102
REMARK  8 active torsions:
REMARK  status: ('A' for Active; 'I' for Inactive)
REMARK    1  A    between atoms: C2_2  and  C3_3 
REMARK    2  A    between atoms: C3_3  and  C4_4 
REMARK    3  A    between atoms: C4_4  and  N1_5 
REMARK    4  A    between atoms: N1_5  and  C5_7 
REMARK    5  A    between atoms: C6_10  and  S1_11 
REMARK    6  A    between atoms: S1_11  and  C7_12 
REMARK    7  A    between atoms: C7_12  and  C8_13 
REMARK    8  A    between atoms: C8_13  and  N3_14 
ROOT
HETATM    1  C5  UNL     1      16.615   3.921  13.883  1.00  0.00     0.681 A 
HETATM    2  N2  UNL     1      16.301   2.856  13.099  1.00  0.00    -0.184 N 
ATOM      3  H2  UNL     1      15.399   2.397  13.226  1.00  0.00     0.185 HD
HETATM    4  C6  UNL     1      17.155   2.380  12.150  1.00  0.00     0.109 A 
HETATM    5  C9  UNL     1      18.368   2.993  11.978  1.00  0.00     0.113 A 
HETATM    6 BR1  UNL     1      19.589   2.430  10.643  1.00  0.00    -0.042 Br
HETATM    7  C10 UNL     1      18.685   4.056  12.758  1.00  0.00     0.279 A 
HETATM    8  O1  UNL     1      19.787   4.643  12.630  1.00  0.00    -0.266 OA
HETATM    9  N4  UNL     1      17.814   4.491  13.681  1.00  0.00    -0.155 N 
ATOM     10  H4  UNL     1      18.076   5.292  14.256  1.00  0.00     0.187 HD
ENDROOT
BRANCH   4  11
HETATM   11  S1  UNL     1      16.715   1.012  11.111  1.00  0.00    -0.109 SA
BRANCH  11  12
HETATM   12  C7  UNL     1      17.114  -0.595  11.755  1.00  0.00     0.108 C 
BRANCH  12  13
HETATM   13  C8  UNL     1      18.399  -1.209  11.325  1.00  0.00     0.240 C 
BRANCH  13  14
HETATM   14  N3  UNL     1      18.479  -2.636  11.458  1.00  0.00    -0.079 N 
ATOM     15  H33 UNL     1      17.646  -2.990  11.930  1.00  0.00     0.274 HD
ATOM     16  H32 UNL     1      18.371  -3.079  10.545  1.00  0.00     0.274 HD
ATOM     17  H31 UNL     1      19.317  -2.989  11.920  1.00  0.00     0.274 HD
ENDBRANCH  13  14
ENDBRANCH  12  13
ENDBRANCH  11  12
ENDBRANCH   4  11
BRANCH   1  18
HETATM   18  N1  UNL     1      15.797   4.352  14.770  1.00  0.00    -0.226 N 
ATOM     19  H1  UNL     1      15.673   5.361  14.858  1.00  0.00     0.177 HD
BRANCH  18  20
HETATM   20  C4  UNL     1      15.054   3.510  15.638  1.00  0.00     0.138 C 
BRANCH  20  21
HETATM   21  C3  UNL     1      14.653   4.202  16.946  1.00  0.00     0.020 C 
BRANCH  21  22
HETATM   22  C2  UNL     1      14.670   3.102  18.008  1.00  0.00    -0.003 C 
HETATM   23  C1  UNL     1      14.033   1.827  17.459  1.00  0.00     0.005 C 
ENDBRANCH  21  22
ENDBRANCH  20  21
ENDBRANCH  18  20
ENDBRANCH   1  18
TORSDOF 8
ENDMDL
