MODEL 1
REMARK VINA RESULT: -6.898930545      0.000      0.000
REMARK  7 active torsions:
REMARK  status: ('A' for Active; 'I' for Inactive)
REMARK    1  A    between atoms: N1_1  and  C1_4 
REMARK    2  A    between atoms: C2_7  and  N3_8 
REMARK    3  A    between atoms: N3_8  and  C3_9 
REMARK    4  A    between atoms: N3_8  and  C9_17 
REMARK    5  A    between atoms: C3_9  and  C4_10 
REMARK    6  A    between atoms: C4_10  and  N4_11 
REMARK    7  A    between atoms: C9_17  and  C10_18 
ROOT
HETATM    1  C1  UNL     1      16.493   1.850  15.699  1.00  0.00     0.680 A 
HETATM    2  N2  UNL     1      17.086   2.747  14.864  1.00  0.00    -0.175 N 
ATOM      3  H2  UNL     1      17.848   2.452  14.254  1.00  0.00     0.186 HD
HETATM    4  C2  UNL     1      16.668   4.012  14.847  1.00  0.00     0.146 A 
HETATM    5  C13 UNL     1      15.643   4.375  15.679  1.00  0.00     0.146 A 
HETATM    6 CL1  UNL     1      15.016   6.023  15.727  1.00  0.00    -0.074 Cl
HETATM    7  C14 UNL     1      15.029   3.459  16.540  1.00  0.00     0.285 A 
HETATM    8  O2  UNL     1      14.073   3.814  17.308  1.00  0.00    -0.266 OA
HETATM    9  N5  UNL     1      15.482   2.206  16.521  1.00  0.00    -0.155 N 
ATOM     10  H5  UNL     1      15.060   1.509  17.135  1.00  0.00     0.187 HD
ENDROOT
BRANCH   4  11
HETATM   11  N3  UNL     1      17.223   5.040  13.988  1.00  0.00    -0.363 N 
BRANCH  11  12
HETATM   12  C3  UNL     1      16.736   5.068  12.651  1.00  0.00     0.143 C 
BRANCH  12  13
HETATM   13  C4  UNL     1      17.716   4.857  11.565  1.00  0.00     0.136 C 
BRANCH  13  14
HETATM   14  N4  UNL     1      18.619   3.765  11.810  1.00  0.00    -0.407 N 
HETATM   15  C5  UNL     1      18.184   2.458  11.576  1.00  0.00     0.143 C 
HETATM   16  C6  UNL     1      19.227   1.784  10.660  1.00  0.00     0.187 C 
HETATM   17  O1  UNL     1      19.815   2.686   9.791  1.00  0.00    -0.388 OA
HETATM   18  C7  UNL     1      20.612   3.637  10.400  1.00  0.00     0.187 C 
HETATM   19  C8  UNL     1      20.004   4.042  11.741  1.00  0.00     0.143 C 
ENDBRANCH  13  14
ENDBRANCH  12  13
ENDBRANCH  11  12
BRANCH  11  20
HETATM   20  C9  UNL     1      18.183   5.887  14.586  1.00  0.00     0.129 C 
BRANCH  20  21
HETATM   21  C10 UNL     1      18.115   7.355  14.421  1.00  0.00     0.004 A 
HETATM   22  C11 UNL     1      19.478   8.019  14.677  1.00  0.00     0.007 A 
HETATM   23  C12 UNL     1      18.845   8.072  13.310  1.00  0.00     0.007 A 
ENDBRANCH  20  21
ENDBRANCH  11  20
ENDBRANCH   4  11
BRANCH   1  24
HETATM   24  N1  UNL     1      16.911   0.636  15.700  1.00  0.00    -0.234 N 
ATOM     25  H12 UNL     1      16.326  -0.096  15.296  1.00  0.00     0.174 HD
ATOM     26  H11 UNL     1      17.823   0.431  16.106  1.00  0.00     0.174 HD
ENDBRANCH   1  24
TORSDOF 7
ENDMDL
MODEL 2
REMARK VINA RESULT: -6.823227498      2.745      4.944
REMARK  7 active torsions:
REMARK  status: ('A' for Active; 'I' for Inactive)
REMARK    1  A    between atoms: N1_1  and  C1_4 
REMARK    2  A    between atoms: C2_7  and  N3_8 
REMARK    3  A    between atoms: N3_8  and  C3_9 
REMARK    4  A    between atoms: N3_8  and  C9_17 
REMARK    5  A    between atoms: C3_9  and  C4_10 
REMARK    6  A    between atoms: C4_10  and  N4_11 
REMARK    7  A    between atoms: C9_17  and  C10_18 
ROOT
HETATM    1  C1  UNL     1      16.914   3.346  11.270  1.00  0.00     0.680 A 
HETATM    2  N2  UNL     1      16.647   3.990  12.439  1.00  0.00    -0.175 N 
ATOM      3  H2  UNL     1      16.495   4.998  12.445  1.00  0.00     0.186 HD
HETATM    4  C2  UNL     1      16.586   3.298  13.577  1.00  0.00     0.146 A 
HETATM    5  C13 UNL     1      16.796   1.946  13.534  1.00  0.00     0.146 A 
HETATM    6 CL1  UNL     1      16.732   0.943  14.983  1.00  0.00    -0.074 Cl
HETATM    7  C14 UNL     1      17.071   1.278  12.336  1.00  0.00     0.285 A 
HETATM    8  O2  UNL     1      17.263   0.016  12.314  1.00  0.00    -0.266 OA
HETATM    9  N5  UNL     1      17.123   2.011  11.226  1.00  0.00    -0.155 N 
ATOM     10  H5  UNL     1      17.321   1.561  10.332  1.00  0.00     0.187 HD
ENDROOT
BRANCH   4  11
HETATM   11  N3  UNL     1      16.296   3.886  14.870  1.00  0.00    -0.363 N 
BRANCH  11  12
HETATM   12  C3  UNL     1      17.346   4.645  15.461  1.00  0.00     0.143 C 
BRANCH  12  13
HETATM   13  C4  UNL     1      17.376   6.096  15.181  1.00  0.00     0.136 C 
BRANCH  13  14
HETATM   14  N4  UNL     1      18.559   6.522  14.483  1.00  0.00    -0.407 N 
HETATM   15  C5  UNL     1      19.542   5.580  14.175  1.00  0.00     0.143 C 
HETATM   16  C6  UNL     1      19.836   5.699  12.665  1.00  0.00     0.187 C 
HETATM   17  O1  UNL     1      18.713   6.067  11.945  1.00  0.00    -0.388 OA
HETATM   18  C7  UNL     1      18.261   7.348  12.201  1.00  0.00     0.187 C 
HETATM   19  C8  UNL     1      18.453   7.681  13.679  1.00  0.00     0.143 C 
ENDBRANCH  13  14
ENDBRANCH  12  13
ENDBRANCH  11  12
BRANCH  11  20
HETATM   20  C9  UNL     1      15.006   3.630  15.386  1.00  0.00     0.129 C 
BRANCH  20  21
HETATM   21  C10 UNL     1      14.748   3.644  16.842  1.00  0.00     0.004 A 
HETATM   22  C11 UNL     1      13.922   2.425  17.284  1.00  0.00     0.007 A 
HETATM   23  C12 UNL     1      15.337   2.609  17.771  1.00  0.00     0.007 A 
ENDBRANCH  20  21
ENDBRANCH  11  20
ENDBRANCH   4  11
BRANCH   1  24
HETATM   24  N1  UNL     1      16.969   4.031  10.185  1.00  0.00    -0.234 N 
ATOM     25  H12 UNL     1      17.844   4.075   9.663  1.00  0.00     0.174 HD
ATOM     26  H11 UNL     1      16.130   4.517   9.869  1.00  0.00     0.174 HD
ENDBRANCH   1  24
TORSDOF 7
ENDMDL
MODEL 3
REMARK VINA RESULT: -6.768384827      1.090      1.580
REMARK  7 active torsions:
REMARK  status: ('A' for Active; 'I' for Inactive)
REMARK    1  A    between atoms: N1_1  and  C1_4 
REMARK    2  A    between atoms: C2_7  and  N3_8 
REMARK    3  A    between atoms: N3_8  and  C3_9 
REMARK    4  A    between atoms: N3_8  and  C9_17 
REMARK    5  A    between atoms: C3_9  and  C4_10 
REMARK    6  A    between atoms: C4_10  and  N4_11 
REMARK    7  A    between atoms: C9_17  and  C10_18 
ROOT
HETATM    1  C1  UNL     1      16.483   1.834  15.508  1.00  0.00     0.680 A 
HETATM    2  N2  UNL     1      17.099   2.781  14.748  1.00  0.00    -0.175 N 
ATOM      3  H2  UNL     1      17.882   2.524  14.147  1.00  0.00     0.186 HD
HETATM    4  C2  UNL     1      16.678   4.044  14.794  1.00  0.00     0.146 A 
HETATM    5  C13 UNL     1      15.625   4.354  15.613  1.00  0.00     0.146 A 
HETATM    6 CL1  UNL     1      14.991   5.994  15.740  1.00  0.00    -0.074 Cl
HETATM    7  C14 UNL     1      14.987   3.386  16.396  1.00  0.00     0.285 A 
HETATM    8  O2  UNL     1      14.005   3.692  17.153  1.00  0.00    -0.266 OA
HETATM    9  N5  UNL     1      15.444   2.138  16.317  1.00  0.00    -0.155 N 
ATOM     10  H5  UNL     1      15.006   1.404  16.873  1.00  0.00     0.187 HD
ENDROOT
BRANCH   4  11
HETATM   11  N3  UNL     1      17.257   5.123  14.017  1.00  0.00    -0.363 N 
BRANCH  11  12
HETATM   12  C3  UNL     1      17.230   4.960  12.604  1.00  0.00     0.143 C 
BRANCH  12  13
HETATM   13  C4  UNL     1      18.459   4.457  11.954  1.00  0.00     0.136 C 
BRANCH  13  14
HETATM   14  N4  UNL     1      18.232   3.330  11.090  1.00  0.00    -0.407 N 
HETATM   15  C5  UNL     1      19.221   2.350  10.977  1.00  0.00     0.143 C 
HETATM   16  C6  UNL     1      18.552   0.987  11.251  1.00  0.00     0.187 C 
HETATM   17  O1  UNL     1      17.516   1.091  12.162  1.00  0.00    -0.388 OA
HETATM   18  C7  UNL     1      16.422   1.807  11.710  1.00  0.00     0.187 C 
HETATM   19  C8  UNL     1      16.888   2.970  10.837  1.00  0.00     0.143 C 
ENDBRANCH  13  14
ENDBRANCH  12  13
ENDBRANCH  11  12
BRANCH  11  20
HETATM   20  C9  UNL     1      17.778   6.204  14.763  1.00  0.00     0.129 C 
BRANCH  20  21
HETATM   21  C10 UNL     1      18.234   7.443  14.096  1.00  0.00     0.004 A 
HETATM   22  C11 UNL     1      18.999   8.360  15.064  1.00  0.00     0.007 A 
HETATM   23  C12 UNL     1      19.697   7.744  13.878  1.00  0.00     0.007 A 
ENDBRANCH  20  21
ENDBRANCH  11  20
ENDBRANCH   4  11
BRANCH   1  24
HETATM   24  N1  UNL     1      16.905   0.623  15.449  1.00  0.00    -0.234 N 
ATOM     25  H12 UNL     1      17.552   0.352  14.707  1.00  0.00     0.174 HD
ATOM     26  H11 UNL     1      16.582  -0.045  16.149  1.00  0.00     0.174 HD
ENDBRANCH   1  24
TORSDOF 7
ENDMDL
MODEL 4
REMARK VINA RESULT: -6.620844205      2.365      5.432
REMARK  7 active torsions:
REMARK  status: ('A' for Active; 'I' for Inactive)
REMARK    1  A    between atoms: N1_1  and  C1_4 
REMARK    2  A    between atoms: C2_7  and  N3_8 
REMARK    3  A    between atoms: N3_8  and  C3_9 
REMARK    4  A    between atoms: N3_8  and  C9_17 
REMARK    5  A    between atoms: C3_9  and  C4_10 
REMARK    6  A    between atoms: C4_10  and  N4_11 
REMARK    7  A    between atoms: C9_17  and  C10_18 
ROOT
HETATM    1  C1  UNL     1      17.526   1.148  11.914  1.00  0.00     0.680 A 
HETATM    2  N2  UNL     1      16.925   2.237  12.467  1.00  0.00    -0.175 N 
ATOM      3  H2  UNL     1      16.052   2.132  12.985  1.00  0.00     0.186 HD
HETATM    4  C2  UNL     1      17.478   3.441  12.328  1.00  0.00     0.146 A 
HETATM    5  C13 UNL     1      18.649   3.547  11.625  1.00  0.00     0.146 A 
HETATM    6 CL1  UNL     1      19.462   5.094  11.390  1.00  0.00    -0.074 Cl
HETATM    7  C14 UNL     1      19.272   2.433  11.054  1.00  0.00     0.285 A 
HETATM    8  O2  UNL     1      20.365   2.549  10.403  1.00  0.00    -0.266 OA
HETATM    9  N5  UNL     1      18.681   1.251  11.219  1.00  0.00    -0.155 N 
ATOM     10  H5  UNL     1      19.104   0.414  10.817  1.00  0.00     0.187 HD
ENDROOT
BRANCH   4  11
HETATM   11  N3  UNL     1      16.926   4.660  12.887  1.00  0.00    -0.363 N 
BRANCH  11  12
HETATM   12  C3  UNL     1      16.810   4.700  14.305  1.00  0.00     0.143 C 
BRANCH  12  13
HETATM   13  C4  UNL     1      15.510   4.313  14.893  1.00  0.00     0.136 C 
BRANCH  13  14
HETATM   14  N4  UNL     1      15.631   3.612  16.143  1.00  0.00    -0.407 N 
HETATM   15  C5  UNL     1      14.480   3.351  16.890  1.00  0.00     0.143 C 
HETATM   16  C6  UNL     1      14.470   1.841  17.206  1.00  0.00     0.187 C 
HETATM   17  O1  UNL     1      15.053   1.095  16.196  1.00  0.00    -0.388 OA
HETATM   18  C7  UNL     1      16.412   1.297  16.043  1.00  0.00     0.187 C 
HETATM   19  C8  UNL     1      16.751   2.764  16.303  1.00  0.00     0.143 C 
ENDBRANCH  13  14
ENDBRANCH  12  13
ENDBRANCH  11  12
BRANCH  11  20
HETATM   20  C9  UNL     1      16.568   5.657  11.952  1.00  0.00     0.129 C 
BRANCH  20  21
HETATM   21  C10 UNL     1      16.218   7.025  12.390  1.00  0.00     0.004 A 
HETATM   22  C11 UNL     1      16.651   8.080  11.360  1.00  0.00     0.007 A 
HETATM   23  C12 UNL     1      15.191   7.861  11.664  1.00  0.00     0.007 A 
ENDBRANCH  20  21
ENDBRANCH  11  20
ENDBRANCH   4  11
BRANCH   1  24
HETATM   24  N1  UNL     1      16.975  -0.002  12.059  1.00  0.00    -0.234 N 
ATOM     25  H12 UNL     1      16.062  -0.178  11.640  1.00  0.00     0.174 HD
ATOM     26  H11 UNL     1      17.467  -0.718  12.594  1.00  0.00     0.174 HD
ENDBRANCH   1  24
TORSDOF 7
ENDMDL
MODEL 5
REMARK VINA RESULT: -6.529651338      2.322      6.273
REMARK  7 active torsions:
REMARK  status: ('A' for Active; 'I' for Inactive)
REMARK    1  A    between atoms: N1_1  and  C1_4 
REMARK    2  A    between atoms: C2_7  and  N3_8 
REMARK    3  A    between atoms: N3_8  and  C3_9 
REMARK    4  A    between atoms: N3_8  and  C9_17 
REMARK    5  A    between atoms: C3_9  and  C4_10 
REMARK    6  A    between atoms: C4_10  and  N4_11 
REMARK    7  A    between atoms: C9_17  and  C10_18 
ROOT
HETATM    1  C1  UNL     1      20.483   5.114  11.919  1.00  0.00     0.680 A 
HETATM    2  N2  UNL     1      19.544   4.383  12.578  1.00  0.00    -0.175 N 
ATOM      3  H2  UNL     1      19.800   3.498  13.017  1.00  0.00     0.186 HD
HETATM    4  C2  UNL     1      18.289   4.825  12.650  1.00  0.00     0.146 A 
HETATM    5  C13 UNL     1      17.980   6.016  12.049  1.00  0.00     0.146 A 
HETATM    6 CL1  UNL     1      16.350   6.689  12.090  1.00  0.00    -0.074 Cl
HETATM    7  C14 UNL     1      18.939   6.774  11.369  1.00  0.00     0.285 A 
HETATM    8  O2  UNL     1      18.634   7.883  10.816  1.00  0.00    -0.266 OA
HETATM    9  N5  UNL     1      20.179   6.290  11.325  1.00  0.00    -0.155 N 
ATOM     10  H5  UNL     1      20.908   6.812  10.838  1.00  0.00     0.187 HD
ENDROOT
BRANCH   4  11
HETATM   11  N3  UNL     1      17.219   4.129  13.338  1.00  0.00    -0.363 N 
BRANCH  11  12
HETATM   12  C3  UNL     1      16.978   4.527  14.683  1.00  0.00     0.143 C 
BRANCH  12  13
HETATM   13  C4  UNL     1      15.609   4.350  15.209  1.00  0.00     0.136 C 
BRANCH  13  14
HETATM   14  N4  UNL     1      15.558   3.609  16.440  1.00  0.00    -0.407 N 
HETATM   15  C5  UNL     1      14.339   3.491  17.113  1.00  0.00     0.143 C 
HETATM   16  C6  UNL     1      14.105   1.989  17.378  1.00  0.00     0.187 C 
HETATM   17  O1  UNL     1      14.640   1.195  16.380  1.00  0.00    -0.388 OA
HETATM   18  C7  UNL     1      16.020   1.212  16.309  1.00  0.00     0.187 C 
HETATM   19  C8  UNL     1      16.540   2.610  16.635  1.00  0.00     0.143 C 
ENDBRANCH  13  14
ENDBRANCH  12  13
ENDBRANCH  11  12
BRANCH  11  20
HETATM   20  C9  UNL     1      16.548   3.139  12.585  1.00  0.00     0.129 C 
BRANCH  20  21
HETATM   21  C10 UNL     1      17.041   1.745  12.545  1.00  0.00     0.004 A 
HETATM   22  C11 UNL     1      16.591   1.020  11.267  1.00  0.00     0.007 A 
HETATM   23  C12 UNL     1      18.053   1.281  11.526  1.00  0.00     0.007 A 
ENDBRANCH  20  21
ENDBRANCH  11  20
ENDBRANCH   4  11
BRANCH   1  24
HETATM   24  N1  UNL     1      21.686   4.670  11.862  1.00  0.00    -0.234 N 
ATOM     25  H12 UNL     1      22.002   3.988  12.552  1.00  0.00     0.174 HD
ATOM     26  H11 UNL     1      22.302   5.011  11.124  1.00  0.00     0.174 HD
ENDBRANCH   1  24
TORSDOF 7
ENDMDL
