MODEL 1
REMARK VINA RESULT: -6.467622049      0.000      0.000
REMARK  2 active torsions:
REMARK  status: ('A' for Active; 'I' for Inactive)
REMARK    1  A    between atoms: C2_2  and  C3_3 
REMARK    2  A    between atoms: C3_3  and  N1_4 
ROOT
HETATM    1  N1  UNL     1      -3.287   4.054  13.701  1.00  0.00    -0.350 N 
HETATM    2  C4  UNL     1      -3.644   3.479  12.507  1.00  0.00     0.068 C 
HETATM    3  C5  UNL     1      -4.474   2.230  12.563  1.00  0.00     0.046 C 
HETATM    4  C6  UNL     1      -4.536   1.617  13.940  1.00  0.00     0.020 C 
HETATM    5  C7  UNL     1      -4.761   2.605  15.032  1.00  0.00    -0.007 C 
HETATM    6  C8  UNL     1      -4.634   1.904  16.367  1.00  0.00     0.015 C 
HETATM    7  C9  UNL     1      -5.903   1.127  16.644  1.00  0.00     0.001 C 
HETATM    8  C10 UNL     1      -7.009   2.091  17.003  1.00  0.00     0.000 C 
HETATM    9  C11 UNL     1      -6.725   3.415  16.378  1.00  0.00     0.001 C 
HETATM   10  C12 UNL     1      -6.095   3.276  14.999  1.00  0.00     0.015 C 
HETATM   11  C13 UNL     1      -3.649   3.640  14.960  1.00  0.00     0.078 C 
ENDROOT
BRANCH   1  12
HETATM   12  C3  UNL     1      -2.519   5.229  13.609  1.00  0.00     0.094 C 
BRANCH  12  13
HETATM   13  C2  UNL     1      -3.148   6.396  14.308  1.00  0.00     0.007 C 
HETATM   14  C1  UNL     1      -2.397   7.460  14.527  1.00  0.00     0.012 C 
ENDBRANCH  12  13
ENDBRANCH   1  12
TORSDOF 2
ENDMDL
MODEL 2
REMARK VINA RESULT: -6.129905241      1.517      4.714
REMARK  2 active torsions:
REMARK  status: ('A' for Active; 'I' for Inactive)
REMARK    1  A    between atoms: C2_2  and  C3_3 
REMARK    2  A    between atoms: C3_3  and  N1_4 
ROOT
HETATM    1  N1  UNL     1      -4.920   1.933  15.397  1.00  0.00    -0.350 N 
HETATM    2  C4  UNL     1      -4.469   1.007  14.487  1.00  0.00     0.068 C 
HETATM    3  C5  UNL     1      -4.257   1.473  13.077  1.00  0.00     0.046 C 
HETATM    4  C6  UNL     1      -4.865   2.824  12.797  1.00  0.00     0.020 C 
HETATM    5  C7  UNL     1      -4.616   3.832  13.866  1.00  0.00    -0.007 C 
HETATM    6  C8  UNL     1      -5.410   5.084  13.560  1.00  0.00     0.015 C 
HETATM    7  C9  UNL     1      -4.699   5.873  12.481  1.00  0.00     0.001 C 
HETATM    8  C10 UNL     1      -3.472   6.527  13.070  1.00  0.00     0.000 C 
HETATM    9  C11 UNL     1      -3.007   5.728  14.242  1.00  0.00     0.001 C 
HETATM   10  C12 UNL     1      -3.186   4.231  14.023  1.00  0.00     0.015 C 
HETATM   11  C13 UNL     1      -5.153   3.268  15.172  1.00  0.00     0.078 C 
ENDROOT
BRANCH   1  12
HETATM   12  C3  UNL     1      -5.096   1.463  16.711  1.00  0.00     0.094 C 
BRANCH  12  13
HETATM   13  C2  UNL     1      -6.348   1.979  17.354  1.00  0.00     0.007 C 
HETATM   14  C1  UNL     1      -7.471   1.323  17.128  1.00  0.00     0.012 C 
ENDBRANCH  12  13
ENDBRANCH   1  12
TORSDOF 2
ENDMDL
MODEL 3
REMARK VINA RESULT: -6.076332657      1.326      3.506
REMARK  2 active torsions:
REMARK  status: ('A' for Active; 'I' for Inactive)
REMARK    1  A    between atoms: C2_2  and  C3_3 
REMARK    2  A    between atoms: C3_3  and  N1_4 
ROOT
HETATM    1  N1  UNL     1      -4.260   3.315  12.766  1.00  0.00    -0.350 N 
HETATM    2  C4  UNL     1      -3.284   4.211  13.125  1.00  0.00     0.068 C 
HETATM    3  C5  UNL     1      -3.406   4.863  14.471  1.00  0.00     0.046 C 
HETATM    4  C6  UNL     1      -4.758   4.663  15.109  1.00  0.00     0.020 C 
HETATM    5  C7  UNL     1      -5.277   3.270  15.004  1.00  0.00    -0.007 C 
HETATM    6  C8  UNL     1      -6.699   3.231  15.521  1.00  0.00     0.015 C 
HETATM    7  C9  UNL     1      -6.677   3.238  17.034  1.00  0.00     0.001 C 
HETATM    8  C10 UNL     1      -6.223   1.886  17.532  1.00  0.00     0.000 C 
HETATM    9  C11 UNL     1      -5.370   1.244  16.490  1.00  0.00     0.001 C 
HETATM   10  C12 UNL     1      -4.491   2.254  15.765  1.00  0.00     0.015 C 
HETATM   11  C13 UNL     1      -5.325   2.902  13.528  1.00  0.00     0.078 C 
ENDROOT
BRANCH   1  12
HETATM   12  C3  UNL     1      -4.106   2.717  11.502  1.00  0.00     0.094 C 
BRANCH  12  13
HETATM   13  C2  UNL     1      -5.195   1.738  11.180  1.00  0.00     0.007 C 
HETATM   14  C1  UNL     1      -4.844   0.494  10.914  1.00  0.00     0.012 C 
ENDBRANCH  12  13
ENDBRANCH   1  12
TORSDOF 2
ENDMDL
MODEL 4
REMARK VINA RESULT: -6.027713969      1.471      5.084
REMARK  2 active torsions:
REMARK  status: ('A' for Active; 'I' for Inactive)
REMARK    1  A    between atoms: C2_2  and  C3_3 
REMARK    2  A    between atoms: C3_3  and  N1_4 
ROOT
HETATM    1  N1  UNL     1      -5.236   2.884  15.513  1.00  0.00    -0.350 N 
HETATM    2  C4  UNL     1      -6.296   3.729  15.292  1.00  0.00     0.068 C 
HETATM    3  C5  UNL     1      -5.996   5.063  14.674  1.00  0.00     0.046 C 
HETATM    4  C6  UNL     1      -4.526   5.401  14.669  1.00  0.00     0.020 C 
HETATM    5  C7  UNL     1      -3.648   4.272  14.252  1.00  0.00    -0.007 C 
HETATM    6  C8  UNL     1      -2.201   4.672  14.449  1.00  0.00     0.015 C 
HETATM    7  C9  UNL     1      -1.778   5.581  13.315  1.00  0.00     0.001 C 
HETATM    8  C10 UNL     1      -1.612   4.762  12.056  1.00  0.00     0.000 C 
HETATM    9  C11 UNL     1      -2.484   3.554  12.142  1.00  0.00     0.001 C 
HETATM   10  C12 UNL     1      -3.810   3.850  12.829  1.00  0.00     0.015 C 
HETATM   11  C13 UNL     1      -3.921   3.102  15.184  1.00  0.00     0.078 C 
ENDROOT
BRANCH   1  12
HETATM   12  C3  UNL     1      -5.557   1.638  16.083  1.00  0.00     0.094 C 
BRANCH  12  13
HETATM   13  C2  UNL     1      -6.699   1.714  17.052  1.00  0.00     0.007 C 
HETATM   14  C1  UNL     1      -6.412   1.909  18.326  1.00  0.00     0.012 C 
ENDBRANCH  12  13
ENDBRANCH   1  12
TORSDOF 2
ENDMDL
MODEL 5
REMARK VINA RESULT: -6.025839193      0.747      1.051
REMARK  2 active torsions:
REMARK  status: ('A' for Active; 'I' for Inactive)
REMARK    1  A    between atoms: C2_2  and  C3_3 
REMARK    2  A    between atoms: C3_3  and  N1_4 
ROOT
HETATM    1  N1  UNL     1      -3.433   4.053  13.794  1.00  0.00    -0.350 N 
HETATM    2  C4  UNL     1      -3.784   3.480  12.596  1.00  0.00     0.068 C 
HETATM    3  C5  UNL     1      -4.558   2.196  12.646  1.00  0.00     0.046 C 
HETATM    4  C6  UNL     1      -4.572   1.562  14.014  1.00  0.00     0.020 C 
HETATM    5  C7  UNL     1      -4.823   2.523  15.124  1.00  0.00    -0.007 C 
HETATM    6  C8  UNL     1      -4.645   1.810  16.447  1.00  0.00     0.015 C 
HETATM    7  C9  UNL     1      -5.875   0.974  16.730  1.00  0.00     0.001 C 
HETATM    8  C10 UNL     1      -7.016   1.884  17.121  1.00  0.00     0.000 C 
HETATM    9  C11 UNL     1      -6.799   3.228  16.511  1.00  0.00     0.001 C 
HETATM   10  C12 UNL     1      -6.185   3.136  15.121  1.00  0.00     0.015 C 
HETATM   11  C13 UNL     1      -3.757   3.606  15.052  1.00  0.00     0.078 C 
ENDROOT
BRANCH   1  12
HETATM   12  C3  UNL     1      -2.718   5.262  13.708  1.00  0.00     0.094 C 
BRANCH  12  13
HETATM   13  C2  UNL     1      -1.317   5.079  13.207  1.00  0.00     0.007 C 
HETATM   14  C1  UNL     1      -0.795   6.044  12.473  1.00  0.00     0.012 C 
ENDBRANCH  12  13
ENDBRANCH   1  12
TORSDOF 2
ENDMDL
