MODEL 1
REMARK VINA RESULT: -5.820260833      0.000      0.000
REMARK  4 active torsions:
REMARK  status: ('A' for Active; 'I' for Inactive)
REMARK    1  A    between atoms: N1_1  and  C1_5 
REMARK    2  A    between atoms: C1_5  and  C2_6 
REMARK    3  A    between atoms: C8_12  and  C9_13 
REMARK    4  A    between atoms: C11_15  and  C12_16 
ROOT
HETATM    1  C2  UNL     1      -5.317   2.485  15.040  1.00  0.00     0.016 C 
HETATM    2  C3  UNL     1      -6.160   3.574  15.534  1.00  0.00     0.011 C 
HETATM    3  C4  UNL     1      -6.082   4.925  14.948  1.00  0.00    -0.009 C 
HETATM    4  C5  UNL     1      -4.875   5.631  15.496  1.00  0.00     0.010 C 
HETATM    5  C6  UNL     1      -3.871   5.310  14.369  1.00  0.00    -0.013 C 
HETATM    6  C7  UNL     1      -3.402   3.956  14.575  1.00  0.00     0.010 C 
HETATM    7  C8  UNL     1      -4.271   2.832  14.014  1.00  0.00    -0.004 C 
HETATM    8  C12 UNL     1      -5.984   4.957  13.414  1.00  0.00    -0.006 C 
HETATM    9  C13 UNL     1      -4.721   5.716  13.232  1.00  0.00     0.010 C 
ENDROOT
BRANCH   1  10
HETATM   10  C1  UNL     1      -4.638   1.759  16.219  1.00  0.00     0.234 C 
BRANCH  10  11
HETATM   11  N1  UNL     1      -4.077   0.490  15.795  1.00  0.00    -0.079 N 
ATOM     12  H13 UNL     1      -3.329   0.619  15.114  1.00  0.00     0.274 HD
ATOM     13  H12 UNL     1      -3.534   0.052  16.539  1.00  0.00     0.274 HD
ATOM     14  H11 UNL     1      -4.804  -0.132  15.442  1.00  0.00     0.274 HD
ENDBRANCH  10  11
ENDBRANCH   1  10
BRANCH   7  15
HETATM   15  C9  UNL     1      -4.696   3.160  12.676  1.00  0.00    -0.005 A 
HETATM   16  C10 UNL     1      -4.293   2.925  11.333  1.00  0.00     0.011 A 
HETATM   17  C11 UNL     1      -4.798   1.774  12.004  1.00  0.00    -0.005 A 
ENDBRANCH   7  15
TORSDOF 4
ENDMDL
MODEL 2
REMARK VINA RESULT: -5.402065148      1.680      3.437
REMARK  4 active torsions:
REMARK  status: ('A' for Active; 'I' for Inactive)
REMARK    1  A    between atoms: N1_1  and  C1_5 
REMARK    2  A    between atoms: C1_5  and  C2_6 
REMARK    3  A    between atoms: C8_12  and  C9_13 
REMARK    4  A    between atoms: C11_15  and  C12_16 
ROOT
HETATM    1  C2  UNL     1      -4.175   2.432  12.346  1.00  0.00     0.016 C 
HETATM    2  C3  UNL     1      -3.294   3.556  12.031  1.00  0.00     0.011 C 
HETATM    3  C4  UNL     1      -3.152   4.697  12.955  1.00  0.00    -0.009 C 
HETATM    4  C5  UNL     1      -4.338   5.605  12.802  1.00  0.00     0.010 C 
HETATM    5  C6  UNL     1      -5.216   5.055  13.946  1.00  0.00    -0.013 C 
HETATM    6  C7  UNL     1      -5.848   3.844  13.468  1.00  0.00     0.010 C 
HETATM    7  C8  UNL     1      -5.037   2.553  13.574  1.00  0.00    -0.004 C 
HETATM    8  C12 UNL     1      -3.046   4.314  14.440  1.00  0.00    -0.006 C 
HETATM    9  C13 UNL     1      -4.188   5.076  15.005  1.00  0.00     0.010 C 
ENDROOT
BRANCH   1  10
HETATM   10  C1  UNL     1      -5.074   2.105  11.136  1.00  0.00     0.234 C 
BRANCH  10  11
HETATM   11  N1  UNL     1      -5.081   0.679  10.864  1.00  0.00    -0.079 N 
ATOM     12  H13 UNL     1      -5.456   0.148  11.650  1.00  0.00     0.274 HD
ATOM     13  H12 UNL     1      -5.781   0.433  10.164  1.00  0.00     0.274 HD
ATOM     14  H11 UNL     1      -4.152   0.353  10.599  1.00  0.00     0.274 HD
ENDBRANCH  10  11
ENDBRANCH   1  10
BRANCH   7  15
HETATM   15  C9  UNL     1      -4.410   2.473  14.870  1.00  0.00    -0.005 A 
HETATM   16  C10 UNL     1      -4.684   1.956  16.166  1.00  0.00     0.011 A 
HETATM   17  C11 UNL     1      -4.453   0.960  15.174  1.00  0.00    -0.005 A 
ENDBRANCH   7  15
TORSDOF 4
ENDMDL
MODEL 3
REMARK VINA RESULT: -5.155509019      1.976      3.765
REMARK  4 active torsions:
REMARK  status: ('A' for Active; 'I' for Inactive)
REMARK    1  A    between atoms: N1_1  and  C1_5 
REMARK    2  A    between atoms: C1_5  and  C2_6 
REMARK    3  A    between atoms: C8_12  and  C9_13 
REMARK    4  A    between atoms: C11_15  and  C12_16 
ROOT
HETATM    1  C2  UNL     1      -4.011   3.346  12.406  1.00  0.00     0.016 C 
HETATM    2  C3  UNL     1      -2.573   3.566  12.563  1.00  0.00     0.011 C 
HETATM    3  C4  UNL     1      -2.055   4.741  13.287  1.00  0.00    -0.009 C 
HETATM    4  C5  UNL     1      -2.124   5.943  12.389  1.00  0.00     0.010 C 
HETATM    5  C6  UNL     1      -3.481   6.515  12.851  1.00  0.00    -0.013 C 
HETATM    6  C7  UNL     1      -4.522   5.745  12.207  1.00  0.00     0.010 C 
HETATM    7  C8  UNL     1      -4.932   4.437  12.884  1.00  0.00    -0.004 C 
HETATM    8  C12 UNL     1      -2.808   5.083  14.583  1.00  0.00    -0.006 C 
HETATM    9  C13 UNL     1      -3.219   6.482  14.304  1.00  0.00     0.010 C 
ENDROOT
BRANCH   1  10
HETATM   10  C1  UNL     1      -4.343   3.022  10.935  1.00  0.00     0.234 C 
BRANCH  10  11
HETATM   11  N1  UNL     1      -5.093   1.784  10.833  1.00  0.00    -0.079 N 
ATOM     12  H13 UNL     1      -6.037   1.883  11.206  1.00  0.00     0.274 HD
ATOM     13  H12 UNL     1      -5.332   1.568   9.865  1.00  0.00     0.274 HD
ATOM     14  H11 UNL     1      -4.592   1.015  11.277  1.00  0.00     0.274 HD
ENDBRANCH  10  11
ENDBRANCH   1  10
BRANCH   7  15
HETATM   15  C9  UNL     1      -5.081   4.645  14.303  1.00  0.00    -0.005 A 
HETATM   16  C10 UNL     1      -6.100   4.967  15.241  1.00  0.00     0.011 A 
HETATM   17  C11 UNL     1      -6.217   3.667  14.671  1.00  0.00    -0.005 A 
ENDBRANCH   7  15
TORSDOF 4
ENDMDL
MODEL 4
REMARK VINA RESULT: -5.049663790      1.039      1.045
REMARK  4 active torsions:
REMARK  status: ('A' for Active; 'I' for Inactive)
REMARK    1  A    between atoms: N1_1  and  C1_5 
REMARK    2  A    between atoms: C1_5  and  C2_6 
REMARK    3  A    between atoms: C8_12  and  C9_13 
REMARK    4  A    between atoms: C11_15  and  C12_16 
ROOT
HETATM    1  C2  UNL     1      -5.732   2.939  14.724  1.00  0.00     0.016 C 
HETATM    2  C3  UNL     1      -6.239   4.256  15.109  1.00  0.00     0.011 C 
HETATM    3  C4  UNL     1      -5.682   5.489  14.523  1.00  0.00    -0.009 C 
HETATM    4  C5  UNL     1      -4.379   5.810  15.198  1.00  0.00     0.010 C 
HETATM    5  C6  UNL     1      -3.414   5.145  14.195  1.00  0.00    -0.013 C 
HETATM    6  C7  UNL     1      -3.415   3.724  14.465  1.00  0.00     0.010 C 
HETATM    7  C8  UNL     1      -4.529   2.900  13.820  1.00  0.00    -0.004 C 
HETATM    8  C12 UNL     1      -5.420   5.422  13.010  1.00  0.00    -0.006 C 
HETATM    9  C13 UNL     1      -3.971   5.744  12.965  1.00  0.00     0.010 C 
ENDROOT
BRANCH   1  10
HETATM   10  C1  UNL     1      -5.441   2.092  15.980  1.00  0.00     0.234 C 
BRANCH  10  11
HETATM   11  N1  UNL     1      -6.487   2.256  16.971  1.00  0.00    -0.079 N 
ATOM     12  H13 UNL     1      -6.478   1.501  17.657  1.00  0.00     0.274 HD
ATOM     13  H12 UNL     1      -6.292   3.036  17.599  1.00  0.00     0.274 HD
ATOM     14  H11 UNL     1      -7.401   2.350  16.527  1.00  0.00     0.274 HD
ENDBRANCH  10  11
ENDBRANCH   1  10
BRANCH   7  15
HETATM   15  C9  UNL     1      -4.688   3.283  12.440  1.00  0.00    -0.005 A 
HETATM   16  C10 UNL     1      -4.112   2.996  11.172  1.00  0.00     0.011 A 
HETATM   17  C11 UNL     1      -4.868   1.925  11.729  1.00  0.00    -0.005 A 
ENDBRANCH   7  15
TORSDOF 4
ENDMDL
MODEL 5
REMARK VINA RESULT: -5.020977097      2.240      3.673
REMARK  4 active torsions:
REMARK  status: ('A' for Active; 'I' for Inactive)
REMARK    1  A    between atoms: N1_1  and  C1_5 
REMARK    2  A    between atoms: C1_5  and  C2_6 
REMARK    3  A    between atoms: C8_12  and  C9_13 
REMARK    4  A    between atoms: C11_15  and  C12_16 
ROOT
HETATM    1  C2  UNL     1      -2.875   4.336  11.800  1.00  0.00     0.016 C 
HETATM    2  C3  UNL     1      -3.218   3.173  12.619  1.00  0.00     0.011 C 
HETATM    3  C4  UNL     1      -4.203   3.273  13.712  1.00  0.00    -0.009 C 
HETATM    4  C5  UNL     1      -3.547   3.902  14.908  1.00  0.00     0.010 C 
HETATM    5  C6  UNL     1      -3.968   5.368  14.675  1.00  0.00    -0.013 C 
HETATM    6  C7  UNL     1      -3.085   5.920  13.670  1.00  0.00     0.010 C 
HETATM    7  C8  UNL     1      -3.455   5.664  12.210  1.00  0.00    -0.004 C 
HETATM    8  C12 UNL     1      -5.455   4.099  13.378  1.00  0.00    -0.006 C 
HETATM    9  C13 UNL     1      -5.407   5.123  14.453  1.00  0.00     0.010 C 
ENDROOT
BRANCH   1  10
HETATM   10  C1  UNL     1      -1.344   4.474  11.686  1.00  0.00     0.234 C 
BRANCH  10  11
HETATM   11  N1  UNL     1      -0.671   3.428  12.433  1.00  0.00    -0.079 N 
ATOM     12  H13 UNL     1      -1.310   2.946  13.065  1.00  0.00     0.274 HD
ATOM     13  H12 UNL     1      -0.421   2.640  11.836  1.00  0.00     0.274 HD
ATOM     14  H11 UNL     1       0.141   3.797  12.929  1.00  0.00     0.274 HD
ENDBRANCH  10  11
ENDBRANCH   1  10
BRANCH   7  15
HETATM   15  C9  UNL     1      -4.864   5.894  12.013  1.00  0.00    -0.005 A 
HETATM   16  C10 UNL     1      -5.729   6.909  11.518  1.00  0.00     0.011 A 
HETATM   17  C11 UNL     1      -4.940   6.271  10.518  1.00  0.00    -0.005 A 
ENDBRANCH   7  15
TORSDOF 4
ENDMDL
