MODEL 1
REMARK VINA RESULT: -6.179015870      0.000      0.000
REMARK  2 active torsions:
REMARK  status: ('A' for Active; 'I' for Inactive)
REMARK    1  A    between atoms: N1_2  and  C2_4 
REMARK    2  A    between atoms: C2_4  and  C3_5 
ROOT
HETATM    1  C2  UNL     1      -4.659   2.493  14.458  1.00  0.00     0.054 C 
HETATM    2  C8  UNL     1      -3.677   3.532  14.937  1.00  0.00     0.060 C 
HETATM    3  C9  UNL     1      -3.146   4.066  13.601  1.00  0.00     0.239 C 
HETATM    4  N2  UNL     1      -4.341   4.193  12.812  1.00  0.00    -0.072 N 
HETATM    5  C10 UNL     1      -4.103   4.177  11.389  1.00  0.00     0.272 C 
HETATM    6  C11 UNL     1      -4.862   5.543  13.096  1.00  0.00     0.272 C 
HETATM    7  C12 UNL     1      -5.255   3.173  13.256  1.00  0.00     0.267 C 
ENDROOT
BRANCH   1   8
HETATM    8  N1  UNL     1      -4.004   1.280  14.231  1.00  0.00    -0.415 N 
HETATM    9  C1  UNL     1      -4.217   0.470  13.134  1.00  0.00     0.140 C 
ATOM     10  H1  UNL     1      -3.322   0.971  14.924  1.00  0.00     0.153 HD
ENDBRANCH   1   8
BRANCH   1  11
HETATM   11  C3  UNL     1      -5.779   2.219  15.436  1.00  0.00     0.015 C 
HETATM   12  C4  UNL     1      -6.478   3.476  15.875  1.00  0.00     0.007 C 
HETATM   13  C5  UNL     1      -7.068   3.070  17.223  1.00  0.00     0.000 C 
HETATM   14  C6  UNL     1      -6.416   1.779  17.626  1.00  0.00     0.000 C 
HETATM   15  C7  UNL     1      -5.176   1.719  16.723  1.00  0.00     0.007 C 
ENDBRANCH   1  11
TORSDOF 2
ENDMDL
MODEL 2
REMARK VINA RESULT: -5.664727073      0.541      1.180
REMARK  2 active torsions:
REMARK  status: ('A' for Active; 'I' for Inactive)
REMARK    1  A    between atoms: N1_2  and  C2_4 
REMARK    2  A    between atoms: C2_4  and  C3_5 
ROOT
HETATM    1  C2  UNL     1      -4.279   2.778  14.644  1.00  0.00     0.054 C 
HETATM    2  C8  UNL     1      -3.058   3.656  14.761  1.00  0.00     0.060 C 
HETATM    3  C9  UNL     1      -2.898   4.123  13.308  1.00  0.00     0.239 C 
HETATM    4  N2  UNL     1      -4.249   4.434  12.925  1.00  0.00    -0.072 N 
HETATM    5  C10 UNL     1      -4.470   4.402  11.499  1.00  0.00     0.272 C 
HETATM    6  C11 UNL     1      -4.455   5.843  13.310  1.00  0.00     0.272 C 
HETATM    7  C12 UNL     1      -5.116   3.554  13.663  1.00  0.00     0.267 C 
ENDROOT
BRANCH   1   8
HETATM    8  N1  UNL     1      -3.910   1.485  14.267  1.00  0.00    -0.415 N 
HETATM    9  C1  UNL     1      -4.254   0.892  13.070  1.00  0.00     0.140 C 
ATOM     10  H1  UNL     1      -3.346   0.942  14.921  1.00  0.00     0.153 HD
ENDBRANCH   1   8
BRANCH   1  11
HETATM   11  C3  UNL     1      -5.068   2.660  15.930  1.00  0.00     0.015 C 
HETATM   12  C4  UNL     1      -5.289   1.229  16.338  1.00  0.00     0.007 C 
HETATM   13  C5  UNL     1      -6.541   1.326  17.206  1.00  0.00     0.000 C 
HETATM   14  C6  UNL     1      -7.141   2.683  16.975  1.00  0.00     0.000 C 
HETATM   15  C7  UNL     1      -6.471   3.143  15.673  1.00  0.00     0.007 C 
ENDBRANCH   1  11
TORSDOF 2
ENDMDL
MODEL 3
REMARK VINA RESULT: -5.165699735      1.564      2.591
REMARK  2 active torsions:
REMARK  status: ('A' for Active; 'I' for Inactive)
REMARK    1  A    between atoms: N1_2  and  C2_4 
REMARK    2  A    between atoms: C2_4  and  C3_5 
ROOT
HETATM    1  C2  UNL     1      -5.034   3.584  14.644  1.00  0.00     0.054 C 
HETATM    2  C8  UNL     1      -4.328   2.796  13.570  1.00  0.00     0.060 C 
HETATM    3  C9  UNL     1      -3.782   3.929  12.692  1.00  0.00     0.239 C 
HETATM    4  N2  UNL     1      -3.277   4.865  13.659  1.00  0.00    -0.072 N 
HETATM    5  C10 UNL     1      -3.180   6.217  13.164  1.00  0.00     0.272 C 
HETATM    6  C11 UNL     1      -1.885   4.454  13.919  1.00  0.00     0.272 C 
HETATM    7  C12 UNL     1      -4.092   4.740  14.840  1.00  0.00     0.267 C 
ENDROOT
BRANCH   1   8
HETATM    8  N1  UNL     1      -6.333   3.896  14.237  1.00  0.00    -0.415 N 
HETATM    9  C1  UNL     1      -6.785   5.174  13.978  1.00  0.00     0.140 C 
ATOM     10  H1  UNL     1      -6.994   3.127  14.124  1.00  0.00     0.153 HD
ENDBRANCH   1   8
BRANCH   1  11
HETATM   11  C3  UNL     1      -5.144   2.851  15.963  1.00  0.00     0.015 C 
HETATM   12  C4  UNL     1      -4.776   1.397  15.844  1.00  0.00     0.007 C 
HETATM   13  C5  UNL     1      -5.521   0.773  17.022  1.00  0.00     0.000 C 
HETATM   14  C6  UNL     1      -6.505   1.792  17.518  1.00  0.00     0.000 C 
HETATM   15  C7  UNL     1      -6.598   2.785  16.351  1.00  0.00     0.007 C 
ENDBRANCH   1  11
TORSDOF 2
ENDMDL
MODEL 4
REMARK VINA RESULT: -5.157439676      1.875      3.391
REMARK  2 active torsions:
REMARK  status: ('A' for Active; 'I' for Inactive)
REMARK    1  A    between atoms: N1_2  and  C2_4 
REMARK    2  A    between atoms: C2_4  and  C3_5 
ROOT
HETATM    1  C2  UNL     1      -3.956   5.274  13.609  1.00  0.00     0.054 C 
HETATM    2  C8  UNL     1      -4.968   5.688  12.569  1.00  0.00     0.060 C 
HETATM    3  C9  UNL     1      -4.107   5.656  11.300  1.00  0.00     0.239 C 
HETATM    4  N2  UNL     1      -3.360   4.438  11.454  1.00  0.00    -0.072 N 
HETATM    5  C10 UNL     1      -2.133   4.409  10.695  1.00  0.00     0.272 C 
HETATM    6  C11 UNL     1      -4.200   3.380  10.860  1.00  0.00     0.272 C 
HETATM    7  C12 UNL     1      -3.171   4.228  12.865  1.00  0.00     0.267 C 
ENDROOT
BRANCH   1   8
HETATM    8  N1  UNL     1      -3.245   6.388  14.060  1.00  0.00    -0.415 N 
HETATM    9  C1  UNL     1      -1.870   6.494  14.051  1.00  0.00     0.140 C 
ATOM     10  H1  UNL     1      -3.780   7.179  14.422  1.00  0.00     0.153 HD
ENDBRANCH   1   8
BRANCH   1  11
HETATM   11  C3  UNL     1      -4.570   4.613  14.824  1.00  0.00     0.015 C 
HETATM   12  C4  UNL     1      -4.138   3.181  14.977  1.00  0.00     0.007 C 
HETATM   13  C5  UNL     1      -5.277   2.582  15.798  1.00  0.00     0.000 C 
HETATM   14  C6  UNL     1      -6.411   3.565  15.774  1.00  0.00     0.000 C 
HETATM   15  C7  UNL     1      -6.053   4.481  14.595  1.00  0.00     0.007 C 
ENDBRANCH   1  11
TORSDOF 2
ENDMDL
MODEL 5
REMARK VINA RESULT: -5.081783507      1.445      2.072
REMARK  2 active torsions:
REMARK  status: ('A' for Active; 'I' for Inactive)
REMARK    1  A    between atoms: N1_2  and  C2_4 
REMARK    2  A    between atoms: C2_4  and  C3_5 
ROOT
HETATM    1  C2  UNL     1      -4.323   3.723  12.975  1.00  0.00     0.054 C 
HETATM    2  C8  UNL     1      -2.855   3.771  13.318  1.00  0.00     0.060 C 
HETATM    3  C9  UNL     1      -2.422   5.033  12.562  1.00  0.00     0.239 C 
HETATM    4  N2  UNL     1      -3.487   5.956  12.850  1.00  0.00    -0.072 N 
HETATM    5  C10 UNL     1      -3.612   7.019  11.882  1.00  0.00     0.272 C 
HETATM    6  C11 UNL     1      -3.101   6.627  14.105  1.00  0.00     0.272 C 
HETATM    7  C12 UNL     1      -4.689   5.182  13.015  1.00  0.00     0.267 C 
ENDROOT
BRANCH   1   8
HETATM    8  N1  UNL     1      -4.512   3.062  11.759  1.00  0.00    -0.415 N 
HETATM    9  C1  UNL     1      -4.966   1.765  11.638  1.00  0.00     0.140 C 
ATOM     10  H1  UNL     1      -4.301   3.574  10.903  1.00  0.00     0.153 HD
ENDBRANCH   1   8
BRANCH   1  11
HETATM   11  C3  UNL     1      -5.165   3.008  14.008  1.00  0.00     0.015 C 
HETATM   12  C4  UNL     1      -6.204   3.905  14.623  1.00  0.00     0.007 C 
HETATM   13  C5  UNL     1      -6.466   3.230  15.967  1.00  0.00     0.000 C 
HETATM   14  C6  UNL     1      -5.366   2.232  16.188  1.00  0.00     0.000 C 
HETATM   15  C7  UNL     1      -4.289   2.673  15.187  1.00  0.00     0.007 C 
ENDBRANCH   1  11
TORSDOF 2
ENDMDL
