MODEL 1
REMARK VINA RESULT: -6.269318943      0.000      0.000
REMARK  1 active torsions:
REMARK  status: ('A' for Active; 'I' for Inactive)
REMARK    1  A    between atoms: C7_7  and  C8_8 
ROOT
HETATM    1  C8  UNL     1      -4.257   4.809  13.526  1.00  0.00     0.152 C 
HETATM    2  C9  UNL     1      -3.461   4.083  12.514  1.00  0.00     0.268 C 
HETATM    3  N1  UNL     1      -3.733   4.362  11.150  1.00  0.00    -0.070 N 
HETATM    4  C10 UNL     1      -4.344   3.182  10.510  1.00  0.00     0.272 C 
HETATM    5  C11 UNL     1      -2.465   4.537  10.420  1.00  0.00     0.272 C 
HETATM    6  C12 UNL     1      -4.548   5.475  10.852  1.00  0.00     0.273 C 
HETATM    7  C13 UNL     1      -4.968   6.307  12.033  1.00  0.00     0.078 C 
HETATM    8  C14 UNL     1      -3.849   7.198  12.438  1.00  0.00     0.047 C 
HETATM    9  C15 UNL     1      -6.118   7.201  11.551  1.00  0.00     0.047 C 
HETATM   10  O1  UNL     1      -5.393   5.433  13.023  1.00  0.00    -0.372 OA
ENDROOT
BRANCH   1  11
HETATM   11  C7  UNL     1      -4.611   3.892  14.665  1.00  0.00     0.017 C 
HETATM   12  C6  UNL     1      -4.410   2.427  14.375  1.00  0.00     0.011 C 
HETATM   13  C4  UNL     1      -4.413   1.757  15.757  1.00  0.00    -0.018 C 
HETATM   14  C3  UNL     1      -5.623   2.072  16.548  1.00  0.00     0.008 C 
HETATM   15  C5  UNL     1      -4.201   0.250  15.586  1.00  0.00     0.010 C 
HETATM   16  C2  UNL     1      -6.607   2.989  15.901  1.00  0.00    -0.018 C 
HETATM   17  C1  UNL     1      -7.457   3.588  17.007  1.00  0.00     0.010 C 
HETATM   18  C16 UNL     1      -6.058   4.067  15.068  1.00  0.00     0.011 C 
ENDBRANCH   1  11
TORSDOF 1
ENDMDL
MODEL 2
REMARK VINA RESULT: -6.199806027      1.276      1.595
REMARK  1 active torsions:
REMARK  status: ('A' for Active; 'I' for Inactive)
REMARK    1  A    between atoms: C7_7  and  C8_8 
ROOT
HETATM    1  C8  UNL     1      -3.830   4.980  13.608  1.00  0.00     0.152 C 
HETATM    2  C9  UNL     1      -2.353   4.989  13.557  1.00  0.00     0.268 C 
HETATM    3  N1  UNL     1      -1.748   5.138  12.282  1.00  0.00    -0.070 N 
HETATM    4  C10 UNL     1      -1.065   3.887  11.903  1.00  0.00     0.272 C 
HETATM    5  C11 UNL     1      -0.653   6.120  12.368  1.00  0.00     0.272 C 
HETATM    6  C12 UNL     1      -2.570   5.517  11.199  1.00  0.00     0.273 C 
HETATM    7  C13 UNL     1      -4.004   5.813  11.544  1.00  0.00     0.078 C 
HETATM    8  C14 UNL     1      -4.102   7.174  12.134  1.00  0.00     0.047 C 
HETATM    9  C15 UNL     1      -4.778   5.826  10.221  1.00  0.00     0.047 C 
HETATM   10  O1  UNL     1      -4.447   4.795  12.375  1.00  0.00    -0.372 OA
ENDROOT
BRANCH   1  11
HETATM   11  C7  UNL     1      -4.311   3.961  14.605  1.00  0.00     0.017 C 
HETATM   12  C6  UNL     1      -4.209   2.532  14.137  1.00  0.00     0.011 C 
HETATM   13  C4  UNL     1      -4.333   1.698  15.421  1.00  0.00    -0.018 C 
HETATM   14  C3  UNL     1      -5.553   2.010  16.196  1.00  0.00     0.008 C 
HETATM   15  C5  UNL     1      -4.231   0.211  15.065  1.00  0.00     0.010 C 
HETATM   16  C2  UNL     1      -6.430   3.080  15.635  1.00  0.00    -0.018 C 
HETATM   17  C1  UNL     1      -7.285   3.604  16.774  1.00  0.00     0.010 C 
HETATM   18  C16 UNL     1      -5.759   4.204  14.970  1.00  0.00     0.011 C 
ENDBRANCH   1  11
TORSDOF 1
ENDMDL
MODEL 3
REMARK VINA RESULT: -6.122536936      1.379      2.147
REMARK  1 active torsions:
REMARK  status: ('A' for Active; 'I' for Inactive)
REMARK    1  A    between atoms: C7_7  and  C8_8 
ROOT
HETATM    1  C8  UNL     1      -3.399   4.860  13.843  1.00  0.00     0.152 C 
HETATM    2  C9  UNL     1      -4.137   4.927  12.563  1.00  0.00     0.268 C 
HETATM    3  N1  UNL     1      -4.297   6.206  11.972  1.00  0.00    -0.070 N 
HETATM    4  C10 UNL     1      -5.718   6.603  12.016  1.00  0.00     0.272 C 
HETATM    5  C11 UNL     1      -4.003   6.124  10.531  1.00  0.00     0.272 C 
HETATM    6  C12 UNL     1      -3.543   7.278  12.496  1.00  0.00     0.273 C 
HETATM    7  C13 UNL     1      -2.568   6.915  13.583  1.00  0.00     0.078 C 
HETATM    8  C14 UNL     1      -1.350   6.313  12.978  1.00  0.00     0.047 C 
HETATM    9  C15 UNL     1      -2.149   8.229  14.252  1.00  0.00     0.047 C 
HETATM   10  O1  UNL     1      -3.234   6.087  14.475  1.00  0.00    -0.372 OA
ENDROOT
BRANCH   1  11
HETATM   11  C7  UNL     1      -4.049   3.866  14.766  1.00  0.00     0.017 C 
HETATM   12  C6  UNL     1      -4.007   2.440  14.281  1.00  0.00     0.011 C 
HETATM   13  C4  UNL     1      -4.317   1.600  15.529  1.00  0.00    -0.018 C 
HETATM   14  C3  UNL     1      -5.582   1.992  16.188  1.00  0.00     0.008 C 
HETATM   15  C5  UNL     1      -4.289   0.114  15.155  1.00  0.00     0.010 C 
HETATM   16  C2  UNL     1      -6.319   3.132  15.566  1.00  0.00    -0.018 C 
HETATM   17  C1  UNL     1      -7.242   3.703  16.627  1.00  0.00     0.010 C 
HETATM   18  C16 UNL     1      -5.505   4.211  14.993  1.00  0.00     0.011 C 
ENDBRANCH   1  11
TORSDOF 1
ENDMDL
MODEL 4
REMARK VINA RESULT: -6.088745303      1.348      2.836
REMARK  1 active torsions:
REMARK  status: ('A' for Active; 'I' for Inactive)
REMARK    1  A    between atoms: C7_7  and  C8_8 
ROOT
HETATM    1  C8  UNL     1      -5.195   5.033  13.495  1.00  0.00     0.152 C 
HETATM    2  C9  UNL     1      -4.035   5.705  14.117  1.00  0.00     0.268 C 
HETATM    3  N1  UNL     1      -3.002   6.150  13.253  1.00  0.00    -0.070 N 
HETATM    4  C10 UNL     1      -1.782   5.351  13.478  1.00  0.00     0.272 C 
HETATM    5  C11 UNL     1      -2.597   7.516  13.630  1.00  0.00     0.272 C 
HETATM    6  C12 UNL     1      -3.255   6.154  11.864  1.00  0.00     0.273 C 
HETATM    7  C13 UNL     1      -4.650   5.764  11.458  1.00  0.00     0.078 C 
HETATM    8  C14 UNL     1      -5.567   6.917  11.659  1.00  0.00     0.047 C 
HETATM    9  C15 UNL     1      -4.601   5.470   9.954  1.00  0.00     0.047 C 
HETATM   10  O1  UNL     1      -4.988   4.629  12.180  1.00  0.00    -0.372 OA
ENDROOT
BRANCH   1  11
HETATM   11  C7  UNL     1      -5.643   3.876  14.345  1.00  0.00     0.017 C 
HETATM   12  C6  UNL     1      -6.249   4.268  15.668  1.00  0.00     0.011 C 
HETATM   13  C4  UNL     1      -6.996   3.011  16.137  1.00  0.00    -0.018 C 
HETATM   14  C3  UNL     1      -6.131   1.811  16.184  1.00  0.00     0.008 C 
HETATM   15  C5  UNL     1      -7.670   3.299  17.483  1.00  0.00     0.010 C 
HETATM   16  C2  UNL     1      -4.716   2.006  15.750  1.00  0.00    -0.018 C 
HETATM   17  C1  UNL     1      -4.171   0.641  15.371  1.00  0.00     0.010 C 
HETATM   18  C16 UNL     1      -4.487   2.949  14.648  1.00  0.00     0.011 C 
ENDBRANCH   1  11
TORSDOF 1
ENDMDL
MODEL 5
REMARK VINA RESULT: -6.039928247      2.156      3.768
REMARK  1 active torsions:
REMARK  status: ('A' for Active; 'I' for Inactive)
REMARK    1  A    between atoms: C7_7  and  C8_8 
ROOT
HETATM    1  C8  UNL     1      -5.499   6.701  11.707  1.00  0.00     0.152 C 
HETATM    2  C9  UNL     1      -4.337   7.569  11.428  1.00  0.00     0.268 C 
HETATM    3  N1  UNL     1      -4.187   8.049  10.101  1.00  0.00    -0.070 N 
HETATM    4  C10 UNL     1      -3.001   7.433   9.477  1.00  0.00     0.272 C 
HETATM    5  C11 UNL     1      -3.859   9.485  10.129  1.00  0.00     0.272 C 
HETATM    6  C12 UNL     1      -5.269   7.881   9.210  1.00  0.00     0.273 C 
HETATM    7  C13 UNL     1      -6.514   7.284   9.806  1.00  0.00     0.078 C 
HETATM    8  C14 UNL     1      -7.257   8.330  10.559  1.00  0.00     0.047 C 
HETATM    9  C15 UNL     1      -7.396   6.848   8.630  1.00  0.00     0.047 C 
HETATM   10  O1  UNL     1      -6.124   6.195  10.572  1.00  0.00    -0.372 OA
ENDROOT
BRANCH   1  11
HETATM   11  C7  UNL     1      -5.106   5.589  12.641  1.00  0.00     0.017 C 
HETATM   12  C6  UNL     1      -6.064   5.362  13.781  1.00  0.00     0.011 C 
HETATM   13  C4  UNL     1      -5.705   3.966  14.313  1.00  0.00    -0.018 C 
HETATM   14  C3  UNL     1      -4.275   3.835  14.669  1.00  0.00     0.008 C 
HETATM   15  C5  UNL     1      -6.633   3.619  15.481  1.00  0.00     0.010 C 
HETATM   16  C2  UNL     1      -3.428   5.041  14.433  1.00  0.00    -0.018 C 
HETATM   17  C1  UNL     1      -1.988   4.570  14.349  1.00  0.00     0.010 C 
HETATM   18  C16 UNL     1      -3.748   5.852  13.252  1.00  0.00     0.011 C 
ENDBRANCH   1  11
TORSDOF 1
ENDMDL
