MODEL 1
REMARK VINA RESULT: -6.924642124      0.000      0.000
REMARK  2 active torsions:
REMARK  status: ('A' for Active; 'I' for Inactive)
REMARK    1  A    between atoms: C5_7  and  C6_8 
REMARK       I    between atoms: C6_8  and  N2_10 
REMARK    2  A    between atoms: N2_10  and  C7_12 
ROOT
HETATM    1  C6  UNL     1      -3.094   3.692  14.129  1.00  0.00     0.258 C 
HETATM    2  O1  UNL     1      -2.097   4.142  14.719  1.00  0.00    -0.267 OA
HETATM    3  N2  UNL     1      -2.951   3.225  12.804  1.00  0.00    -0.303 N 
ATOM      4  H2  UNL     1      -3.572   2.493  12.459  1.00  0.00     0.171 HD
ENDROOT
BRANCH   1   5
HETATM    5  C5  UNL     1      -4.406   3.629  14.751  1.00  0.00     0.041 A 
HETATM    6  C4  UNL     1      -5.302   4.687  14.623  1.00  0.00     0.034 A 
HETATM    7  C3  UNL     1      -6.535   4.637  15.202  1.00  0.00     0.089 A 
HETATM    8  N1  UNL     1      -6.914   3.558  15.911  1.00  0.00    -0.369 N 
HETATM    9  C2  UNL     1      -6.101   2.514  16.069  1.00  0.00     0.012 A 
ATOM     10  H1  UNL     1      -7.841   3.539  16.336  1.00  0.00     0.165 HD
HETATM   11  C1  UNL     1      -6.511   1.338  16.843  1.00  0.00     0.068 C 
HETATM   12  C12 UNL     1      -4.841   2.554  15.484  1.00  0.00    -0.024 A 
HETATM   13  C13 UNL     1      -3.964   1.390  15.673  1.00  0.00     0.051 C 
ENDBRANCH   1   5
BRANCH   3  14
HETATM   14  C7  UNL     1      -2.030   3.721  12.010  1.00  0.00     0.152 A 
HETATM   15  N3  UNL     1      -0.710   3.621  12.115  1.00  0.00    -0.339 N 
HETATM   16  C8  UNL     1       0.032   4.194  11.204  1.00  0.00     0.020 A 
ATOM     17  H3  UNL     1      -0.285   3.109  12.887  1.00  0.00     0.168 HD
HETATM   18  C9  UNL     1       1.558   4.142  11.228  1.00  0.00     0.069 C 
HETATM   19  C10 UNL     1      -0.600   4.867  10.194  1.00  0.00     0.004 A 
HETATM   20  C11 UNL     1       0.013   5.606   9.035  1.00  0.00     0.058 C 
HETATM   21  S1  UNL     1      -2.243   4.645  10.596  1.00  0.00    -0.057 SA
ENDBRANCH   3  14
TORSDOF 2
ENDMDL
MODEL 2
REMARK VINA RESULT: -6.625266848      3.453      4.260
REMARK  2 active torsions:
REMARK  status: ('A' for Active; 'I' for Inactive)
REMARK    1  A    between atoms: C5_7  and  C6_8 
REMARK       I    between atoms: C6_8  and  N2_10 
REMARK    2  A    between atoms: N2_10  and  C7_12 
ROOT
HETATM    1  C6  UNL     1      -5.862   3.899  14.010  1.00  0.00     0.258 C 
HETATM    2  O1  UNL     1      -7.039   4.158  13.711  1.00  0.00    -0.267 OA
HETATM    3  N2  UNL     1      -4.839   4.772  13.577  1.00  0.00    -0.303 N 
ATOM      4  H2  UNL     1      -3.982   4.853  14.125  1.00  0.00     0.171 HD
ENDROOT
BRANCH   1   5
HETATM    5  C5  UNL     1      -5.493   2.728  14.788  1.00  0.00     0.041 A 
HETATM    6  C4  UNL     1      -4.558   1.819  14.302  1.00  0.00     0.034 A 
HETATM    7  C3  UNL     1      -4.206   0.719  15.024  1.00  0.00     0.089 A 
HETATM    8  N1  UNL     1      -4.756   0.488  16.230  1.00  0.00    -0.369 N 
HETATM    9  C2  UNL     1      -5.657   1.321  16.750  1.00  0.00     0.012 A 
ATOM     10  H1  UNL     1      -4.479  -0.341  16.756  1.00  0.00     0.165 HD
HETATM   11  C1  UNL     1      -6.260   1.071  18.063  1.00  0.00     0.068 C 
HETATM   12  C12 UNL     1      -6.024   2.447  16.022  1.00  0.00    -0.024 A 
HETATM   13  C13 UNL     1      -7.019   3.349  16.617  1.00  0.00     0.051 C 
ENDBRANCH   1   5
BRANCH   3  14
HETATM   14  C7  UNL     1      -4.976   5.480  12.480  1.00  0.00     0.152 A 
HETATM   15  N3  UNL     1      -5.736   6.550  12.278  1.00  0.00    -0.339 N 
HETATM   16  C8  UNL     1      -5.723   7.109  11.097  1.00  0.00     0.020 A 
ATOM     17  H3  UNL     1      -6.316   6.926  13.027  1.00  0.00     0.168 HD
HETATM   18  C9  UNL     1      -6.557   8.341  10.755  1.00  0.00     0.069 C 
HETATM   19  C10 UNL     1      -4.922   6.554  10.134  1.00  0.00     0.004 A 
HETATM   20  C11 UNL     1      -4.726   6.998   8.710  1.00  0.00     0.058 C 
HETATM   21  S1  UNL     1      -4.218   5.246  10.973  1.00  0.00    -0.057 SA
ENDBRANCH   3  14
TORSDOF 2
ENDMDL
MODEL 3
REMARK VINA RESULT: -6.478353979      1.701      2.332
REMARK  2 active torsions:
REMARK  status: ('A' for Active; 'I' for Inactive)
REMARK    1  A    between atoms: C5_7  and  C6_8 
REMARK       I    between atoms: C6_8  and  N2_10 
REMARK    2  A    between atoms: N2_10  and  C7_12 
ROOT
HETATM    1  C6  UNL     1      -3.919   3.582  13.694  1.00  0.00     0.258 C 
HETATM    2  O1  UNL     1      -4.226   3.526  12.491  1.00  0.00    -0.267 OA
HETATM    3  N2  UNL     1      -2.928   4.500  14.103  1.00  0.00    -0.303 N 
ATOM      4  H2  UNL     1      -2.953   4.880  15.050  1.00  0.00     0.171 HD
ENDROOT
BRANCH   1   5
HETATM    5  C5  UNL     1      -4.541   2.736  14.699  1.00  0.00     0.041 A 
HETATM    6  C4  UNL     1      -3.968   1.519  15.053  1.00  0.00     0.034 A 
HETATM    7  C3  UNL     1      -4.543   0.719  15.996  1.00  0.00     0.089 A 
HETATM    8  N1  UNL     1      -5.682   1.092  16.606  1.00  0.00    -0.369 N 
HETATM    9  C2  UNL     1      -6.279   2.247  16.310  1.00  0.00     0.012 A 
ATOM     10  H1  UNL     1      -6.097   0.481  17.309  1.00  0.00     0.165 HD
HETATM   11  C1  UNL     1      -7.521   2.656  16.972  1.00  0.00     0.068 C 
HETATM   12  C12 UNL     1      -5.702   3.070  15.351  1.00  0.00    -0.024 A 
HETATM   13  C13 UNL     1      -6.379   4.337  15.042  1.00  0.00     0.051 C 
ENDBRANCH   1   5
BRANCH   3  14
HETATM   14  C7  UNL     1      -1.972   4.872  13.282  1.00  0.00     0.152 A 
HETATM   15  N3  UNL     1      -1.139   4.108  12.586  1.00  0.00    -0.339 N 
HETATM   16  C8  UNL     1      -0.255   4.689  11.819  1.00  0.00     0.020 A 
ATOM     17  H3  UNL     1      -1.188   3.092  12.648  1.00  0.00     0.168 HD
HETATM   18  C9  UNL     1       0.751   3.908  10.977  1.00  0.00     0.069 C 
HETATM   19  C10 UNL     1      -0.241   6.058  11.780  1.00  0.00     0.004 A 
HETATM   20  C11 UNL     1       0.664   6.962  10.989  1.00  0.00     0.058 C 
HETATM   21  S1  UNL     1      -1.508   6.453  12.852  1.00  0.00    -0.057 SA
ENDBRANCH   3  14
TORSDOF 2
ENDMDL
MODEL 4
REMARK VINA RESULT: -6.411662853      3.170      3.788
REMARK  2 active torsions:
REMARK  status: ('A' for Active; 'I' for Inactive)
REMARK    1  A    between atoms: C5_7  and  C6_8 
REMARK       I    between atoms: C6_8  and  N2_10 
REMARK    2  A    between atoms: N2_10  and  C7_12 
ROOT
HETATM    1  C6  UNL     1      -5.204   3.972  14.083  1.00  0.00     0.258 C 
HETATM    2  O1  UNL     1      -5.794   4.007  12.990  1.00  0.00    -0.267 OA
HETATM    3  N2  UNL     1      -4.526   5.128  14.530  1.00  0.00    -0.303 N 
ATOM      4  H2  UNL     1      -4.418   5.292  15.531  1.00  0.00     0.171 HD
ENDROOT
BRANCH   1   5
HETATM    5  C5  UNL     1      -5.182   2.786  14.921  1.00  0.00     0.041 A 
HETATM    6  C4  UNL     1      -4.234   1.788  14.713  1.00  0.00     0.034 A 
HETATM    7  C3  UNL     1      -4.205   0.672  15.494  1.00  0.00     0.089 A 
HETATM    8  N1  UNL     1      -5.096   0.510  16.489  1.00  0.00    -0.369 N 
HETATM    9  C2  UNL     1      -6.028   1.429  16.738  1.00  0.00     0.012 A 
ATOM     10  H1  UNL     1      -5.059  -0.332  17.063  1.00  0.00     0.165 HD
HETATM   11  C1  UNL     1      -7.003   1.255  17.820  1.00  0.00     0.068 C 
HETATM   12  C12 UNL     1      -6.068   2.572  15.947  1.00  0.00    -0.024 A 
HETATM   13  C13 UNL     1      -7.105   3.570  16.242  1.00  0.00     0.051 C 
ENDBRANCH   1   5
BRANCH   3  14
HETATM   14  C7  UNL     1      -4.032   5.994  13.675  1.00  0.00     0.152 A 
HETATM   15  N3  UNL     1      -4.615   6.521  12.605  1.00  0.00    -0.339 N 
HETATM   16  C8  UNL     1      -3.938   7.375  11.884  1.00  0.00     0.020 A 
ATOM     17  H3  UNL     1      -5.570   6.266  12.353  1.00  0.00     0.168 HD
HETATM   18  C9  UNL     1      -4.510   8.040  10.635  1.00  0.00     0.069 C 
HETATM   19  C10 UNL     1      -2.661   7.674  12.277  1.00  0.00     0.004 A 
HETATM   20  C11 UNL     1      -1.678   8.611  11.630  1.00  0.00     0.058 C 
HETATM   21  S1  UNL     1      -2.488   6.711  13.675  1.00  0.00    -0.057 SA
ENDBRANCH   3  14
TORSDOF 2
ENDMDL
MODEL 5
REMARK VINA RESULT: -6.270295454      1.853      2.728
REMARK  2 active torsions:
REMARK  status: ('A' for Active; 'I' for Inactive)
REMARK    1  A    between atoms: C5_7  and  C6_8 
REMARK       I    between atoms: C6_8  and  N2_10 
REMARK    2  A    between atoms: N2_10  and  C7_12 
ROOT
HETATM    1  C6  UNL     1      -4.477   3.273  12.782  1.00  0.00     0.258 C 
HETATM    2  O1  UNL     1      -5.057   3.073  11.702  1.00  0.00    -0.267 OA
HETATM    3  N2  UNL     1      -3.408   4.195  12.823  1.00  0.00    -0.303 N 
ATOM      4  H2  UNL     1      -3.208   4.695  13.689  1.00  0.00     0.171 HD
ENDROOT
BRANCH   1   5
HETATM    5  C5  UNL     1      -4.855   2.592  14.009  1.00  0.00     0.041 A 
HETATM    6  C4  UNL     1      -4.240   1.399  14.376  1.00  0.00     0.034 A 
HETATM    7  C3  UNL     1      -4.587   0.754  15.526  1.00  0.00     0.089 A 
HETATM    8  N1  UNL     1      -5.536   1.260  16.334  1.00  0.00    -0.369 N 
HETATM    9  C2  UNL     1      -6.161   2.399  16.038  1.00  0.00     0.012 A 
ATOM     10  H1  UNL     1      -5.781   0.763  17.190  1.00  0.00     0.165 HD
HETATM   11  C1  UNL     1      -7.196   2.953  16.916  1.00  0.00     0.068 C 
HETATM   12  C12 UNL     1      -5.815   3.066  14.868  1.00  0.00    -0.024 A 
HETATM   13  C13 UNL     1      -6.519   4.319  14.564  1.00  0.00     0.051 C 
ENDBRANCH   1   5
BRANCH   3  14
HETATM   14  C7  UNL     1      -2.667   4.416  11.761  1.00  0.00     0.152 A 
HETATM   15  N3  UNL     1      -3.055   4.800  10.550  1.00  0.00    -0.339 N 
HETATM   16  C8  UNL     1      -2.144   4.965   9.628  1.00  0.00     0.020 A 
ATOM     17  H3  UNL     1      -4.041   4.961  10.345  1.00  0.00     0.168 HD
HETATM   18  C9  UNL     1      -2.479   5.404   8.204  1.00  0.00     0.069 C 
HETATM   19  C10 UNL     1      -0.839   4.731   9.968  1.00  0.00     0.004 A 
HETATM   20  C11 UNL     1       0.388   4.846   9.105  1.00  0.00     0.058 C 
HETATM   21  S1  UNL     1      -0.977   4.282  11.608  1.00  0.00    -0.057 SA
ENDBRANCH   3  14
TORSDOF 2
ENDMDL
