MODEL 1
REMARK VINA RESULT: -7.426485166      0.000      0.000
REMARK  6 active torsions:
REMARK  status: ('A' for Active; 'I' for Inactive)
REMARK    1  A    between atoms: C2_2  and  C3_3 
REMARK    2  A    between atoms: C3_3  and  S1_4 
REMARK    3  A    between atoms: S1_4  and  C4_7 
REMARK    4  A    between atoms: C8_12  and  C9_13 
REMARK    5  A    between atoms: C9_13  and  C11_16 
REMARK    6  A    between atoms: C17_25  and  O3_26 
ROOT
HETATM    1  C9  UNL     1      26.685  51.484  -2.571  1.00  0.00     0.053 C 
HETATM    2  C10 UNL     1      26.982  50.397  -3.595  1.00  0.00     0.100 C 
HETATM    3  N1  UNL     1      27.217  49.565  -4.395  1.00  0.00    -0.191 NA
ENDROOT
BRANCH   1   4
HETATM    4  C8  UNL     1      26.776  51.069  -1.172  1.00  0.00     0.020 A 
HETATM    5  C7  UNL     1      27.957  51.271  -0.472  1.00  0.00     0.024 A 
HETATM    6  C6  UNL     1      29.052  51.879  -1.001  1.00  0.00     0.026 A 
HETATM    7  C16 UNL     1      28.027  50.867   0.888  1.00  0.00     0.079 A 
HETATM    8  C5  UNL     1      30.224  52.121  -0.257  1.00  0.00     0.046 A 
HETATM    9 BR1  UNL     1      29.082  52.411  -2.827  1.00  0.00    -0.050 Br
HETATM   10  C4  UNL     1      30.298  51.742   1.043  1.00  0.00     0.096 A 
HETATM   11  C17 UNL     1      29.180  51.110   1.607  1.00  0.00     0.115 A 
HETATM   12  N3  UNL     1      27.004  50.291   1.532  1.00  0.00    -0.361 N 
HETATM   13  C15 UNL     1      25.865  50.068   0.930  1.00  0.00     0.112 A 
ATOM     14  H3  UNL     1      27.115  50.020   2.510  1.00  0.00     0.165 HD
HETATM   15  C13 UNL     1      25.778  50.452  -0.390  1.00  0.00     0.072 A 
HETATM   16  C14 UNL     1      24.594  49.979  -1.127  1.00  0.00     0.102 C 
HETATM   17  N2  UNL     1      23.664  49.563  -1.704  1.00  0.00    -0.191 NA
BRANCH  10  18
HETATM   18  S1  UNL     1      31.649  52.098   2.063  1.00  0.00     0.178 S 
HETATM   19  O1  UNL     1      32.740  52.647   1.137  1.00  0.00    -0.223 OA
HETATM   20  O2  UNL     1      32.209  50.763   2.509  1.00  0.00    -0.223 OA
BRANCH  18  21
HETATM   21  C3  UNL     1      31.439  53.234   3.329  1.00  0.00     0.145 C 
BRANCH  21  22
HETATM   22  C2  UNL     1      30.325  54.189   3.344  1.00  0.00     0.011 C 
HETATM   23  C1  UNL     1      30.607  55.610   2.960  1.00  0.00     0.006 C 
ENDBRANCH  21  22
ENDBRANCH  18  21
ENDBRANCH  10  18
BRANCH  11  24
HETATM   24  O3  UNL     1      29.279  50.743   2.937  1.00  0.00    -0.357 OA
ATOM     25  H3  UNL     1      28.478  50.765   3.445  1.00  0.00     0.217 HD
ENDBRANCH  11  24
ENDBRANCH   1   4
BRANCH   1  26
HETATM   26  C11 UNL     1      25.891  52.629  -3.090  1.00  0.00    -0.007 C 
HETATM   27  C12 UNL     1      25.581  53.893  -2.368  1.00  0.00     0.037 C 
ENDBRANCH   1  26
TORSDOF 6
ENDMDL
MODEL 2
REMARK VINA RESULT: -7.189899308      0.946      1.094
REMARK  6 active torsions:
REMARK  status: ('A' for Active; 'I' for Inactive)
REMARK    1  A    between atoms: C2_2  and  C3_3 
REMARK    2  A    between atoms: C3_3  and  S1_4 
REMARK    3  A    between atoms: S1_4  and  C4_7 
REMARK    4  A    between atoms: C8_12  and  C9_13 
REMARK    5  A    between atoms: C9_13  and  C11_16 
REMARK    6  A    between atoms: C17_25  and  O3_26 
ROOT
HETATM    1  C9  UNL     1      26.641  51.475  -2.526  1.00  0.00     0.053 C 
HETATM    2  C10 UNL     1      26.981  50.406  -3.556  1.00  0.00     0.100 C 
HETATM    3  N1  UNL     1      27.248  49.587  -4.359  1.00  0.00    -0.191 NA
ENDROOT
BRANCH   1   4
HETATM    4  C8  UNL     1      26.732  51.051  -1.130  1.00  0.00     0.020 A 
HETATM    5  C7  UNL     1      27.912  51.251  -0.428  1.00  0.00     0.024 A 
HETATM    6  C6  UNL     1      29.006  51.864  -0.953  1.00  0.00     0.026 A 
HETATM    7  C16 UNL     1      27.982  50.839   0.930  1.00  0.00     0.079 A 
HETATM    8  C5  UNL     1      30.178  52.102  -0.206  1.00  0.00     0.046 A 
HETATM    9 BR1  UNL     1      29.037  52.406  -2.776  1.00  0.00    -0.050 Br
HETATM   10  C4  UNL     1      30.252  51.716   1.091  1.00  0.00     0.096 A 
HETATM   11  C17 UNL     1      29.134  51.079   1.651  1.00  0.00     0.115 A 
HETATM   12  N3  UNL     1      26.960  50.257   1.570  1.00  0.00    -0.361 N 
HETATM   13  C15 UNL     1      25.821  50.037   0.966  1.00  0.00     0.112 A 
ATOM     14  H3  UNL     1      27.070  49.981   2.546  1.00  0.00     0.165 HD
HETATM   15  C13 UNL     1      25.735  50.428  -0.351  1.00  0.00     0.072 A 
HETATM   16  C14 UNL     1      24.551  49.958  -1.092  1.00  0.00     0.102 C 
HETATM   17  N2  UNL     1      23.622  49.545  -1.672  1.00  0.00    -0.191 NA
BRANCH  10  18
HETATM   18  S1  UNL     1      31.602  52.068   2.114  1.00  0.00     0.178 S 
HETATM   19  O1  UNL     1      32.221  50.713   2.471  1.00  0.00    -0.223 OA
HETATM   20  O2  UNL     1      31.025  52.545   3.431  1.00  0.00    -0.223 OA
BRANCH  18  21
HETATM   21  C3  UNL     1      32.859  53.055   1.496  1.00  0.00     0.145 C 
BRANCH  21  22
HETATM   22  C2  UNL     1      32.938  54.491   1.785  1.00  0.00     0.011 C 
HETATM   23  C1  UNL     1      31.774  55.354   1.405  1.00  0.00     0.006 C 
ENDBRANCH  21  22
ENDBRANCH  18  21
ENDBRANCH  10  18
BRANCH  11  24
HETATM   24  O3  UNL     1      29.233  50.705   2.978  1.00  0.00    -0.357 OA
ATOM     25  H3  UNL     1      28.534  50.163   3.321  1.00  0.00     0.217 HD
ENDBRANCH  11  24
ENDBRANCH   1   4
BRANCH   1  26
HETATM   26  C11 UNL     1      25.818  52.599  -3.044  1.00  0.00    -0.007 C 
HETATM   27  C12 UNL     1      25.596  53.914  -2.383  1.00  0.00     0.037 C 
ENDBRANCH   1  26
TORSDOF 6
ENDMDL
MODEL 3
REMARK VINA RESULT: -7.153966911      1.359      1.750
REMARK  6 active torsions:
REMARK  status: ('A' for Active; 'I' for Inactive)
REMARK    1  A    between atoms: C2_2  and  C3_3 
REMARK    2  A    between atoms: C3_3  and  S1_4 
REMARK    3  A    between atoms: S1_4  and  C4_7 
REMARK    4  A    between atoms: C8_12  and  C9_13 
REMARK    5  A    between atoms: C9_13  and  C11_16 
REMARK    6  A    between atoms: C17_25  and  O3_26 
ROOT
HETATM    1  C9  UNL     1      26.710  51.504  -2.565  1.00  0.00     0.053 C 
HETATM    2  C10 UNL     1      27.014  50.422  -3.593  1.00  0.00     0.100 C 
HETATM    3  N1  UNL     1      27.254  49.593  -4.395  1.00  0.00    -0.191 NA
ENDROOT
BRANCH   1   4
HETATM    4  C8  UNL     1      26.792  51.082  -1.168  1.00  0.00     0.020 A 
HETATM    5  C7  UNL     1      27.971  51.272  -0.462  1.00  0.00     0.024 A 
HETATM    6  C6  UNL     1      29.073  51.874  -0.983  1.00  0.00     0.026 A 
HETATM    7  C16 UNL     1      28.032  50.861   0.897  1.00  0.00     0.079 A 
HETATM    8  C5  UNL     1      30.244  52.104  -0.233  1.00  0.00     0.046 A 
HETATM    9 BR1  UNL     1      29.115  52.413  -2.807  1.00  0.00    -0.050 Br
HETATM   10  C4  UNL     1      30.309  51.719   1.066  1.00  0.00     0.096 A 
HETATM   11  C17 UNL     1      29.183  51.092   1.622  1.00  0.00     0.115 A 
HETATM   12  N3  UNL     1      27.002  50.290   1.534  1.00  0.00    -0.361 N 
HETATM   13  C15 UNL     1      25.863  50.079   0.926  1.00  0.00     0.112 A 
ATOM     14  H3  UNL     1      27.106  50.014   2.511  1.00  0.00     0.165 HD
HETATM   15  C13 UNL     1      25.786  50.469  -0.392  1.00  0.00     0.072 A 
HETATM   16  C14 UNL     1      24.601  50.008  -1.137  1.00  0.00     0.102 C 
HETATM   17  N2  UNL     1      23.671  49.602  -1.720  1.00  0.00    -0.191 NA
BRANCH  10  18
HETATM   18  S1  UNL     1      31.658  52.061   2.093  1.00  0.00     0.178 S 
HETATM   19  O1  UNL     1      32.237  50.699   2.491  1.00  0.00    -0.223 OA
HETATM   20  O2  UNL     1      31.081  52.586   3.392  1.00  0.00    -0.223 OA
BRANCH  18  21
HETATM   21  C3  UNL     1      32.947  52.998   1.464  1.00  0.00     0.145 C 
BRANCH  21  22
HETATM   22  C2  UNL     1      34.214  52.393   1.036  1.00  0.00     0.011 C 
HETATM   23  C1  UNL     1      34.787  52.812  -0.284  1.00  0.00     0.006 C 
ENDBRANCH  21  22
ENDBRANCH  18  21
ENDBRANCH  10  18
BRANCH  11  24
HETATM   24  O3  UNL     1      29.274  50.720   2.950  1.00  0.00    -0.357 OA
ATOM     25  H3  UNL     1      28.681  50.038   3.243  1.00  0.00     0.217 HD
ENDBRANCH  11  24
ENDBRANCH   1   4
BRANCH   1  26
HETATM   26  C11 UNL     1      25.920  52.652  -3.084  1.00  0.00    -0.007 C 
HETATM   27  C12 UNL     1      25.618  53.918  -2.364  1.00  0.00     0.037 C 
ENDBRANCH   1  26
TORSDOF 6
ENDMDL
MODEL 4
REMARK VINA RESULT: -6.519538952      4.725      6.460
REMARK  6 active torsions:
REMARK  status: ('A' for Active; 'I' for Inactive)
REMARK    1  A    between atoms: C2_2  and  C3_3 
REMARK    2  A    between atoms: C3_3  and  S1_4 
REMARK    3  A    between atoms: S1_4  and  C4_7 
REMARK    4  A    between atoms: C8_12  and  C9_13 
REMARK    5  A    between atoms: C9_13  and  C11_16 
REMARK    6  A    between atoms: C17_25  and  O3_26 
ROOT
HETATM    1  C9  UNL     1      27.755  50.794  -5.354  1.00  0.00     0.053 C 
HETATM    2  C10 UNL     1      28.225  49.465  -5.932  1.00  0.00     0.100 C 
HETATM    3  N1  UNL     1      28.599  48.440  -6.374  1.00  0.00    -0.191 NA
ENDROOT
BRANCH   1   4
HETATM    4  C8  UNL     1      26.327  50.874  -5.052  1.00  0.00     0.020 A 
HETATM    5  C7  UNL     1      25.882  50.608  -3.765  1.00  0.00     0.024 A 
HETATM    6  C6  UNL     1      26.709  50.305  -2.730  1.00  0.00     0.026 A 
HETATM    7  C16 UNL     1      24.491  50.697  -3.487  1.00  0.00     0.079 A 
HETATM    8  C5  UNL     1      26.240  50.087  -1.418  1.00  0.00     0.046 A 
HETATM    9 BR1  UNL     1      28.581  50.108  -3.005  1.00  0.00    -0.050 Br
HETATM   10  C4  UNL     1      24.916  50.174  -1.143  1.00  0.00     0.096 A 
HETATM   11  C17 UNL     1      24.045  50.483  -2.199  1.00  0.00     0.115 A 
HETATM   12  N3  UNL     1      23.581  51.023  -4.413  1.00  0.00    -0.361 N 
HETATM   13  C15 UNL     1      23.933  51.283  -5.646  1.00  0.00     0.112 A 
ATOM     14  H3  UNL     1      22.595  51.069  -4.154  1.00  0.00     0.165 HD
HETATM   15  C13 UNL     1      25.276  51.200  -5.935  1.00  0.00     0.072 A 
HETATM   16  C14 UNL     1      25.638  51.248  -7.363  1.00  0.00     0.102 C 
HETATM   17  N2  UNL     1      25.900  51.252  -8.503  1.00  0.00    -0.191 NA
BRANCH  10  18
HETATM   18  S1  UNL     1      24.264  50.036   0.453  1.00  0.00     0.178 S 
HETATM   19  O1  UNL     1      23.359  51.258   0.644  1.00  0.00    -0.223 OA
HETATM   20  O2  UNL     1      25.412  50.302   1.406  1.00  0.00    -0.223 OA
BRANCH  18  21
HETATM   21  C3  UNL     1      23.333  48.649   0.838  1.00  0.00     0.145 C 
BRANCH  21  22
HETATM   22  C2  UNL     1      23.949  47.402   1.305  1.00  0.00     0.011 C 
HETATM   23  C1  UNL     1      23.204  46.579   2.311  1.00  0.00     0.006 C 
ENDBRANCH  21  22
ENDBRANCH  18  21
ENDBRANCH  10  18
BRANCH  11  24
HETATM   24  O3  UNL     1      22.701  50.575  -1.888  1.00  0.00    -0.357 OA
ATOM     25  H3  UNL     1      22.101  50.095  -2.445  1.00  0.00     0.217 HD
ENDBRANCH  11  24
ENDBRANCH   1   4
BRANCH   1  26
HETATM   26  C11 UNL     1      28.655  51.945  -5.626  1.00  0.00    -0.007 C 
HETATM   27  C12 UNL     1      28.382  53.375  -5.321  1.00  0.00     0.037 C 
ENDBRANCH   1  26
TORSDOF 6
ENDMDL
MODEL 5
REMARK VINA RESULT: -6.278531805      4.296      5.776
REMARK  6 active torsions:
REMARK  status: ('A' for Active; 'I' for Inactive)
REMARK    1  A    between atoms: C2_2  and  C3_3 
REMARK    2  A    between atoms: C3_3  and  S1_4 
REMARK    3  A    between atoms: S1_4  and  C4_7 
REMARK    4  A    between atoms: C8_12  and  C9_13 
REMARK    5  A    between atoms: C9_13  and  C11_16 
REMARK    6  A    between atoms: C17_25  and  O3_26 
ROOT
HETATM    1  C9  UNL     1      25.497  51.255  -6.033  1.00  0.00     0.053 C 
HETATM    2  C10 UNL     1      25.213  50.011  -6.864  1.00  0.00     0.100 C 
HETATM    3  N1  UNL     1      25.006  49.047  -7.509  1.00  0.00    -0.191 NA
ENDROOT
BRANCH   1   4
HETATM    4  C8  UNL     1      24.607  51.463  -4.892  1.00  0.00     0.020 A 
HETATM    5  C7  UNL     1      24.999  51.043  -3.630  1.00  0.00     0.024 A 
HETATM    6  C6  UNL     1      26.203  50.469  -3.368  1.00  0.00     0.026 A 
HETATM    7  C16 UNL     1      24.124  51.258  -2.531  1.00  0.00     0.079 A 
HETATM    8  C5  UNL     1      26.603  50.095  -2.068  1.00  0.00     0.046 A 
HETATM    9 BR1  UNL     1      27.426  50.087  -4.773  1.00  0.00    -0.050 Br
HETATM   10  C4  UNL     1      25.776  50.301  -1.014  1.00  0.00     0.096 A 
HETATM   11  C17 UNL     1      24.527  50.889  -1.264  1.00  0.00     0.115 A 
HETATM   12  N3  UNL     1      22.927  51.846  -2.655  1.00  0.00    -0.361 N 
HETATM   13  C15 UNL     1      22.496  52.262  -3.817  1.00  0.00     0.112 A 
ATOM     14  H3  UNL     1      22.342  51.971  -1.829  1.00  0.00     0.165 HD
HETATM   15  C13 UNL     1      23.329  52.061  -4.894  1.00  0.00     0.072 A 
HETATM   16  C14 UNL     1      22.742  52.302  -6.224  1.00  0.00     0.102 C 
HETATM   17  N2  UNL     1      22.246  52.464  -7.272  1.00  0.00    -0.191 NA
BRANCH  10  18
HETATM   18  S1  UNL     1      26.226  49.980   0.625  1.00  0.00     0.178 S 
HETATM   19  O1  UNL     1      25.653  51.137   1.451  1.00  0.00    -0.223 OA
HETATM   20  O2  UNL     1      27.722  50.202   0.707  1.00  0.00    -0.223 OA
BRANCH  18  21
HETATM   21  C3  UNL     1      25.687  48.523   1.350  1.00  0.00     0.145 C 
BRANCH  21  22
HETATM   22  C2  UNL     1      24.696  47.653   0.708  1.00  0.00     0.011 C 
HETATM   23  C1  UNL     1      23.270  47.754   1.156  1.00  0.00     0.006 C 
ENDBRANCH  21  22
ENDBRANCH  18  21
ENDBRANCH  10  18
BRANCH  11  24
HETATM   24  O3  UNL     1      23.708  51.096  -0.169  1.00  0.00    -0.357 OA
ATOM     25  H3  UNL     1      24.037  51.678   0.504  1.00  0.00     0.217 HD
ENDBRANCH  11  24
ENDBRANCH   1   4
BRANCH   1  26
HETATM   26  C11 UNL     1      26.274  52.310  -6.736  1.00  0.00    -0.007 C 
HETATM   27  C12 UNL     1      26.558  53.682  -6.238  1.00  0.00     0.037 C 
ENDBRANCH   1  26
TORSDOF 6
ENDMDL
