MODEL 1
REMARK VINA RESULT: -8.389259948      0.000      0.000
REMARK  6 active torsions:
REMARK  status: ('A' for Active; 'I' for Inactive)
REMARK    1  A    between atoms: C5_6  and  C6_7 
REMARK    2  A    between atoms: C9_12  and  C10_13 
REMARK    3  A    between atoms: C10_13  and  N3_14 
REMARK    4  A    between atoms: N3_14  and  C11_17 
REMARK    5  A    between atoms: C14_20  and  C15_21 
REMARK    6  A    between atoms: C15_21  and  C16_22 
ROOT
HETATM    1  N1  UNL     1      29.025  50.950   0.029  1.00  0.00    -0.191 NA
HETATM    2  C1  UNL     1      28.737  50.696  -1.094  1.00  0.00     0.101 C 
HETATM    3  C2  UNL     1      28.369  50.363  -2.448  1.00  0.00     0.069 A 
HETATM    4  C3  UNL     1      29.113  49.453  -3.177  1.00  0.00     0.027 A 
HETATM    5  C4  UNL     1      28.688  49.110  -4.430  1.00  0.00     0.027 A 
HETATM    6  C5  UNL     1      27.528  49.633  -5.021  1.00  0.00     0.013 A 
HETATM    7  N2  UNL     1      26.847  50.509  -4.276  1.00  0.00    -0.360 N 
ATOM      8  H2  UNL     1      25.996  50.917  -4.661  1.00  0.00     0.165 HD
HETATM    9  C9  UNL     1      27.230  50.875  -3.045  1.00  0.00     0.056 A 
ENDROOT
BRANCH   9  10
HETATM   10  C10 UNL     1      26.508  51.981  -2.347  1.00  0.00     0.294 C 
BRANCH  10  11
HETATM   11  N3  UNL     1      25.110  52.001  -2.659  1.00  0.00    -0.038 N 
ATOM     12  H32 UNL     1      24.763  52.954  -2.774  1.00  0.00     0.281 HD
ATOM     13  H31 UNL     1      24.928  51.657  -3.602  1.00  0.00     0.281 HD
BRANCH  11  14
HETATM   14  C11 UNL     1      24.363  51.282  -1.683  1.00  0.00     0.226 C 
HETATM   15  C12 UNL     1      22.964  51.755  -1.470  1.00  0.00     0.069 C 
HETATM   16  C13 UNL     1      22.194  50.587  -0.810  1.00  0.00     0.016 C 
HETATM   17  C14 UNL     1      23.257  49.901   0.068  1.00  0.00    -0.016 C 
HETATM   18  C22 UNL     1      24.146  50.950   0.690  1.00  0.00     0.016 C 
HETATM   19  C24 UNL     1      24.009  49.073  -0.973  1.00  0.00     0.180 C 
HETATM   20  C23 UNL     1      25.147  51.379  -0.363  1.00  0.00     0.069 C 
HETATM   21  O3  UNL     1      24.365  49.924  -2.018  1.00  0.00    -0.353 OA
BRANCH  17  22
HETATM   22  C15 UNL     1      22.638  49.104   1.133  1.00  0.00     0.050 C 
BRANCH  22  23
HETATM   23  C16 UNL     1      23.061  47.639   1.252  1.00  0.00     0.183 C 
HETATM   24  O1  UNL     1      22.060  47.111   2.169  1.00  0.00    -0.347 OA
HETATM   25  C17 UNL     1      22.450  46.075   2.940  1.00  0.00     0.290 A 
HETATM   26  O2  UNL     1      22.213  46.203   4.413  1.00  0.00    -0.348 OA
HETATM   27  C18 UNL     1      23.481  45.788   3.740  1.00  0.00     0.180 A 
HETATM   28  C19 UNL     1      24.706  46.534   4.086  1.00  0.00     0.043 C 
HETATM   29  C20 UNL     1      25.363  47.200   2.814  1.00  0.00     0.071 C 
HETATM   30  C21 UNL     1      24.296  47.479   1.954  1.00  0.00     0.100 C 
HETATM   31  F1  UNL     1      23.731  48.273   2.992  1.00  0.00    -0.213 F 
ENDBRANCH  22  23
ENDBRANCH  17  22
ENDBRANCH  11  14
ENDBRANCH  10  11
ENDBRANCH   9  10
BRANCH   6  32
HETATM   32  C6  UNL     1      27.184  49.232  -6.406  1.00  0.00     0.035 A 
HETATM   33  C7  UNL     1      26.004  49.825  -7.116  1.00  0.00     0.011 A 
HETATM   34  C8  UNL     1      27.406  50.204  -7.557  1.00  0.00     0.011 A 
ENDBRANCH   6  32
TORSDOF 6
ENDMDL
MODEL 2
REMARK VINA RESULT: -8.147960219      1.381      2.246
REMARK  6 active torsions:
REMARK  status: ('A' for Active; 'I' for Inactive)
REMARK    1  A    between atoms: C5_6  and  C6_7 
REMARK    2  A    between atoms: C9_12  and  C10_13 
REMARK    3  A    between atoms: C10_13  and  N3_14 
REMARK    4  A    between atoms: N3_14  and  C11_17 
REMARK    5  A    between atoms: C14_20  and  C15_21 
REMARK    6  A    between atoms: C15_21  and  C16_22 
ROOT
HETATM    1  N1  UNL     1      29.251  48.967  -4.002  1.00  0.00    -0.191 NA
HETATM    2  C1  UNL     1      28.279  49.329  -4.579  1.00  0.00     0.101 C 
HETATM    3  C2  UNL     1      27.082  49.741  -5.269  1.00  0.00     0.069 A 
HETATM    4  C3  UNL     1      26.868  49.379  -6.586  1.00  0.00     0.027 A 
HETATM    5  C4  UNL     1      25.688  49.728  -7.182  1.00  0.00     0.027 A 
HETATM    6  C5  UNL     1      24.673  50.438  -6.523  1.00  0.00     0.013 A 
HETATM    7  N2  UNL     1      24.931  50.765  -5.253  1.00  0.00    -0.360 N 
ATOM      8  H2  UNL     1      24.223  51.282  -4.731  1.00  0.00     0.165 HD
HETATM    9  C9  UNL     1      26.075  50.446  -4.633  1.00  0.00     0.056 A 
ENDROOT
BRANCH   9  10
HETATM   10  C10 UNL     1      26.352  50.992  -3.271  1.00  0.00     0.294 C 
BRANCH  10  11
HETATM   11  N3  UNL     1      25.304  51.850  -2.804  1.00  0.00    -0.038 N 
ATOM     12  H32 UNL     1      25.667  52.747  -2.479  1.00  0.00     0.281 HD
ATOM     13  H31 UNL     1      24.723  52.188  -3.571  1.00  0.00     0.281 HD
BRANCH  11  14
HETATM   14  C11 UNL     1      24.528  51.202  -1.801  1.00  0.00     0.226 C 
HETATM   15  C12 UNL     1      23.247  51.878  -1.445  1.00  0.00     0.069 C 
HETATM   16  C13 UNL     1      22.349  50.811  -0.776  1.00  0.00     0.016 C 
HETATM   17  C14 UNL     1      23.351  49.913  -0.027  1.00  0.00    -0.016 C 
HETATM   18  C22 UNL     1      24.446  50.767   0.564  1.00  0.00     0.016 C 
HETATM   19  C24 UNL     1      23.873  49.039  -1.167  1.00  0.00     0.180 C 
HETATM   20  C23 UNL     1      25.418  51.093  -0.551  1.00  0.00     0.069 C 
HETATM   21  O3  UNL     1      24.282  49.883  -2.198  1.00  0.00    -0.353 OA
BRANCH  17  22
HETATM   22  C15 UNL     1      22.695  49.161   1.050  1.00  0.00     0.050 C 
BRANCH  22  23
HETATM   23  C16 UNL     1      23.064  47.685   1.204  1.00  0.00     0.183 C 
HETATM   24  O1  UNL     1      22.052  47.220   2.143  1.00  0.00    -0.347 OA
HETATM   25  C17 UNL     1      22.410  46.190   2.937  1.00  0.00     0.290 A 
HETATM   26  O2  UNL     1      22.191  46.365   4.408  1.00  0.00    -0.348 OA
HETATM   27  C18 UNL     1      23.435  45.885   3.736  1.00  0.00     0.180 A 
HETATM   28  C19 UNL     1      24.691  46.592   4.053  1.00  0.00     0.043 C 
HETATM   29  C20 UNL     1      25.361  47.200   2.758  1.00  0.00     0.071 C 
HETATM   30  C21 UNL     1      24.298  47.497   1.900  1.00  0.00     0.100 C 
HETATM   31  F1  UNL     1      23.773  48.338   2.921  1.00  0.00    -0.213 F 
ENDBRANCH  22  23
ENDBRANCH  17  22
ENDBRANCH  11  14
ENDBRANCH  10  11
ENDBRANCH   9  10
BRANCH   6  32
HETATM   32  C6  UNL     1      23.451  50.810  -7.277  1.00  0.00     0.035 A 
HETATM   33  C7  UNL     1      22.339  51.575  -6.624  1.00  0.00     0.011 A 
HETATM   34  C8  UNL     1      23.208  52.264  -7.660  1.00  0.00     0.011 A 
ENDBRANCH   6  32
TORSDOF 6
ENDMDL
MODEL 3
REMARK VINA RESULT: -8.125753547      1.404      2.835
REMARK  6 active torsions:
REMARK  status: ('A' for Active; 'I' for Inactive)
REMARK    1  A    between atoms: C5_6  and  C6_7 
REMARK    2  A    between atoms: C9_12  and  C10_13 
REMARK    3  A    between atoms: C10_13  and  N3_14 
REMARK    4  A    between atoms: N3_14  and  C11_17 
REMARK    5  A    between atoms: C14_20  and  C15_21 
REMARK    6  A    between atoms: C15_21  and  C16_22 
ROOT
HETATM    1  N1  UNL     1      22.492  51.334  -6.763  1.00  0.00    -0.191 NA
HETATM    2  C1  UNL     1      23.583  50.974  -6.463  1.00  0.00     0.101 C 
HETATM    3  C2  UNL     1      24.920  50.563  -6.114  1.00  0.00     0.069 A 
HETATM    4  C3  UNL     1      25.640  49.726  -6.947  1.00  0.00     0.027 A 
HETATM    5  C4  UNL     1      26.931  49.419  -6.616  1.00  0.00     0.027 A 
HETATM    6  C5  UNL     1      27.570  49.913  -5.469  1.00  0.00     0.013 A 
HETATM    7  N2  UNL     1      26.830  50.715  -4.698  1.00  0.00    -0.360 N 
ATOM      8  H2  UNL     1      27.251  51.099  -3.852  1.00  0.00     0.165 HD
HETATM    9  C9  UNL     1      25.562  51.038  -4.983  1.00  0.00     0.056 A 
ENDROOT
BRANCH   9  10
HETATM   10  C10 UNL     1      24.754  51.802  -3.987  1.00  0.00     0.294 C 
BRANCH  10  11
HETATM   11  N3  UNL     1      25.388  51.866  -2.703  1.00  0.00    -0.038 N 
ATOM     12  H32 UNL     1      26.341  51.503  -2.735  1.00  0.00     0.281 HD
ATOM     13  H31 UNL     1      25.600  52.827  -2.434  1.00  0.00     0.281 HD
BRANCH  11  14
HETATM   14  C11 UNL     1      24.604  51.203  -1.717  1.00  0.00     0.226 C 
HETATM   15  C12 UNL     1      23.247  51.778  -1.485  1.00  0.00     0.069 C 
HETATM   16  C13 UNL     1      22.401  50.671  -0.814  1.00  0.00     0.016 C 
HETATM   17  C14 UNL     1      23.423  49.908   0.049  1.00  0.00    -0.016 C 
HETATM   18  C22 UNL     1      24.395  50.887   0.659  1.00  0.00     0.016 C 
HETATM   19  C24 UNL     1      24.097  49.026  -1.001  1.00  0.00     0.180 C 
HETATM   20  C23 UNL     1      25.411  51.241  -0.408  1.00  0.00     0.069 C 
HETATM   21  O3  UNL     1      24.501  49.849  -2.052  1.00  0.00    -0.353 OA
BRANCH  17  22
HETATM   22  C15 UNL     1      22.761  49.157   1.123  1.00  0.00     0.050 C 
BRANCH  22  23
HETATM   23  C16 UNL     1      23.118  47.678   1.271  1.00  0.00     0.183 C 
HETATM   24  O1  UNL     1      22.076  47.207   2.174  1.00  0.00    -0.347 OA
HETATM   25  C17 UNL     1      22.405  46.166   2.967  1.00  0.00     0.290 A 
HETATM   26  O2  UNL     1      22.142  46.325   4.432  1.00  0.00    -0.348 OA
HETATM   27  C18 UNL     1      23.404  45.847   3.793  1.00  0.00     0.180 A 
HETATM   28  C19 UNL     1      24.653  46.545   4.156  1.00  0.00     0.043 C 
HETATM   29  C20 UNL     1      25.365  47.164   2.889  1.00  0.00     0.071 C 
HETATM   30  C21 UNL     1      24.329  47.475   2.002  1.00  0.00     0.100 C 
HETATM   31  F1  UNL     1      23.778  48.308   3.017  1.00  0.00    -0.213 F 
ENDBRANCH  22  23
ENDBRANCH  17  22
ENDBRANCH  11  14
ENDBRANCH  10  11
ENDBRANCH   9  10
BRANCH   6  32
HETATM   32  C6  UNL     1      28.957  49.477  -5.176  1.00  0.00     0.035 A 
HETATM   33  C7  UNL     1      29.803  48.821  -6.226  1.00  0.00     0.011 A 
HETATM   34  C8  UNL     1      30.135  50.233  -5.778  1.00  0.00     0.011 A 
ENDBRANCH   6  32
TORSDOF 6
ENDMDL
MODEL 4
REMARK VINA RESULT: -8.071072196      2.087      4.186
REMARK  6 active torsions:
REMARK  status: ('A' for Active; 'I' for Inactive)
REMARK    1  A    between atoms: C5_6  and  C6_7 
REMARK    2  A    between atoms: C9_12  and  C10_13 
REMARK    3  A    between atoms: C10_13  and  N3_14 
REMARK    4  A    between atoms: N3_14  and  C11_17 
REMARK    5  A    between atoms: C14_20  and  C15_21 
REMARK    6  A    between atoms: C15_21  and  C16_22 
ROOT
HETATM    1  N1  UNL     1      29.829  52.953  -4.186  1.00  0.00    -0.191 NA
HETATM    2  C1  UNL     1      29.808  52.631  -3.044  1.00  0.00     0.101 C 
HETATM    3  C2  UNL     1      29.762  52.265  -1.650  1.00  0.00     0.069 A 
HETATM    4  C3  UNL     1      30.719  52.732  -0.768  1.00  0.00     0.027 A 
HETATM    5  C4  UNL     1      30.599  52.422   0.558  1.00  0.00     0.027 A 
HETATM    6  C5  UNL     1      29.548  51.652   1.077  1.00  0.00     0.013 A 
HETATM    7  N2  UNL     1      28.652  51.224   0.183  1.00  0.00    -0.360 N 
ATOM      8  H2  UNL     1      27.868  50.660   0.512  1.00  0.00     0.165 HD
HETATM    9  C9  UNL     1      28.733  51.502  -1.125  1.00  0.00     0.056 A 
ENDROOT
BRANCH   9  10
HETATM   10  C10 UNL     1      27.787  50.849  -2.078  1.00  0.00     0.294 C 
BRANCH  10  11
HETATM   11  N3  UNL     1      26.519  51.514  -2.129  1.00  0.00    -0.038 N 
ATOM     12  H32 UNL     1      26.590  52.486  -1.824  1.00  0.00     0.281 HD
ATOM     13  H31 UNL     1      26.215  51.676  -3.089  1.00  0.00     0.281 HD
BRANCH  11  14
HETATM   14  C11 UNL     1      25.541  50.797  -1.381  1.00  0.00     0.226 C 
HETATM   15  C12 UNL     1      24.352  50.338  -2.156  1.00  0.00     0.069 C 
HETATM   16  C13 UNL     1      23.707  49.189  -1.346  1.00  0.00     0.016 C 
HETATM   17  C14 UNL     1      23.964  49.591   0.119  1.00  0.00    -0.016 C 
HETATM   18  C22 UNL     1      23.810  51.084   0.264  1.00  0.00     0.016 C 
HETATM   19  C24 UNL     1      25.419  49.156   0.293  1.00  0.00     0.180 C 
HETATM   20  C23 UNL     1      25.087  51.724  -0.240  1.00  0.00     0.069 C 
HETATM   21  O3  UNL     1      26.156  49.708  -0.754  1.00  0.00    -0.353 OA
BRANCH  17  22
HETATM   22  C15 UNL     1      23.028  48.920   1.029  1.00  0.00     0.050 C 
BRANCH  22  23
HETATM   23  C16 UNL     1      23.276  47.442   1.331  1.00  0.00     0.183 C 
HETATM   24  O1  UNL     1      22.125  47.107   2.158  1.00  0.00    -0.347 OA
HETATM   25  C17 UNL     1      22.311  46.122   3.061  1.00  0.00     0.290 A 
HETATM   26  O2  UNL     1      21.920  46.421   4.475  1.00  0.00    -0.348 OA
HETATM   27  C18 UNL     1      23.205  45.821   4.007  1.00  0.00     0.180 A 
HETATM   28  C19 UNL     1      24.454  46.479   4.436  1.00  0.00     0.043 C 
HETATM   29  C20 UNL     1      25.321  46.947   3.202  1.00  0.00     0.071 C 
HETATM   30  C21 UNL     1      24.397  47.237   2.193  1.00  0.00     0.100 C 
HETATM   31  F1  UNL     1      23.804  48.183   3.077  1.00  0.00    -0.213 F 
ENDBRANCH  22  23
ENDBRANCH  17  22
ENDBRANCH  11  14
ENDBRANCH  10  11
ENDBRANCH   9  10
BRANCH   6  32
HETATM   32  C6  UNL     1      29.539  51.331   2.525  1.00  0.00     0.035 A 
HETATM   33  C7  UNL     1      29.561  52.415   3.561  1.00  0.00     0.011 A 
HETATM   34  C8  UNL     1      28.293  51.606   3.357  1.00  0.00     0.011 A 
ENDBRANCH   6  32
TORSDOF 6
ENDMDL
MODEL 5
REMARK VINA RESULT: -8.007541314      2.092      3.570
REMARK  6 active torsions:
REMARK  status: ('A' for Active; 'I' for Inactive)
REMARK    1  A    between atoms: C5_6  and  C6_7 
REMARK    2  A    between atoms: C9_12  and  C10_13 
REMARK    3  A    between atoms: C10_13  and  N3_14 
REMARK    4  A    between atoms: N3_14  and  C11_17 
REMARK    5  A    between atoms: C14_20  and  C15_21 
REMARK    6  A    between atoms: C15_21  and  C16_22 
ROOT
HETATM    1  N1  UNL     1      25.009  49.075  -7.632  1.00  0.00    -0.191 NA
HETATM    2  C1  UNL     1      25.897  49.614  -7.058  1.00  0.00     0.101 C 
HETATM    3  C2  UNL     1      26.986  50.281  -6.388  1.00  0.00     0.069 A 
HETATM    4  C3  UNL     1      28.206  49.651  -6.228  1.00  0.00     0.027 A 
HETATM    5  C4  UNL     1      29.234  50.345  -5.653  1.00  0.00     0.027 A 
HETATM    6  C5  UNL     1      29.119  51.673  -5.217  1.00  0.00     0.013 A 
HETATM    7  N2  UNL     1      27.919  52.235  -5.393  1.00  0.00    -0.360 N 
ATOM      8  H2  UNL     1      27.785  53.200  -5.092  1.00  0.00     0.165 HD
HETATM    9  C9  UNL     1      26.884  51.590  -5.948  1.00  0.00     0.056 A 
ENDROOT
BRANCH   9  10
HETATM   10  C10 UNL     1      25.535  52.231  -5.957  1.00  0.00     0.294 C 
BRANCH  10  11
HETATM   11  N3  UNL     1      25.371  53.170  -4.887  1.00  0.00    -0.038 N 
ATOM     12  H32 UNL     1      26.252  53.623  -4.643  1.00  0.00     0.281 HD
ATOM     13  H31 UNL     1      24.852  53.996  -5.187  1.00  0.00     0.281 HD
BRANCH  11  14
HETATM   14  C11 UNL     1      24.766  52.550  -3.757  1.00  0.00     0.226 C 
HETATM   15  C12 UNL     1      23.468  53.140  -3.320  1.00  0.00     0.069 C 
HETATM   16  C13 UNL     1      22.750  52.063  -2.473  1.00  0.00     0.016 C 
HETATM   17  C14 UNL     1      23.905  51.328  -1.767  1.00  0.00    -0.016 C 
HETATM   18  C22 UNL     1      24.965  52.325  -1.370  1.00  0.00     0.016 C 
HETATM   19  C24 UNL     1      24.392  50.404  -2.882  1.00  0.00     0.180 C 
HETATM   20  C23 UNL     1      25.784  52.633  -2.607  1.00  0.00     0.069 C 
HETATM   21  O3  UNL     1      24.610  51.184  -4.017  1.00  0.00    -0.353 OA
BRANCH  17  22
HETATM   22  C15 UNL     1      23.436  50.623  -0.568  1.00  0.00     0.050 C 
BRANCH  22  23
HETATM   23  C16 UNL     1      23.605  49.104  -0.535  1.00  0.00     0.183 C 
HETATM   24  O1  UNL     1      22.492  48.697   0.313  1.00  0.00    -0.347 OA
HETATM   25  C17 UNL     1      22.672  47.565   1.024  1.00  0.00     0.290 A 
HETATM   26  O2  UNL     1      22.398  47.640   2.494  1.00  0.00    -0.348 OA
HETATM   27  C18 UNL     1      23.606  47.060   1.835  1.00  0.00     0.180 A 
HETATM   28  C19 UNL     1      24.922  47.566   2.269  1.00  0.00     0.043 C 
HETATM   29  C20 UNL     1      25.733  48.188   1.065  1.00  0.00     0.071 C 
HETATM   30  C21 UNL     1      24.765  48.695   0.193  1.00  0.00     0.100 C 
HETATM   31  F1  UNL     1      24.297  49.508   1.264  1.00  0.00    -0.213 F 
ENDBRANCH  22  23
ENDBRANCH  17  22
ENDBRANCH  11  14
ENDBRANCH  10  11
ENDBRANCH   9  10
BRANCH   6  32
HETATM   32  C6  UNL     1      30.282  52.318  -4.560  1.00  0.00     0.035 A 
HETATM   33  C7  UNL     1      30.308  53.794  -4.301  1.00  0.00     0.011 A 
HETATM   34  C8  UNL     1      30.160  52.836  -3.134  1.00  0.00     0.011 A 
ENDBRANCH   6  32
TORSDOF 6
ENDMDL
