MODEL 1
REMARK VINA RESULT: -6.311274096      0.000      0.000
REMARK  5 active torsions:
REMARK  status: ('A' for Active; 'I' for Inactive)
REMARK    1  A    between atoms: C2_2  and  C4_4 
REMARK    2  A    between atoms: C4_4  and  C5_5 
REMARK    3  A    between atoms: C5_5  and  C7_10 
REMARK    4  A    between atoms: C10_16  and  S2_17 
REMARK    5  A    between atoms: S2_17  and  N4_20 
ROOT
HETATM    1  C5  UNL     1      26.865  51.188  -5.841  1.00  0.00     0.033 C 
HETATM    2  N1  UNL     1      25.887  51.114  -6.673  1.00  0.00    -0.297 N 
ATOM      3  H1  UNL     1      25.453  51.976  -7.003  1.00  0.00     0.178 HD
HETATM    4  C6  UNL     1      25.407  49.909  -7.131  1.00  0.00     0.182 C 
HETATM    5  N2  UNL     1      24.970  48.887  -7.521  1.00  0.00    -0.172 NA
ENDROOT
BRANCH   1   6
HETATM    6  C4  UNL     1      27.424  49.880  -5.430  1.00  0.00     0.062 C 
BRANCH   6   7
HETATM    7  C2  UNL     1      28.679  49.945  -4.637  1.00  0.00    -0.017 C 
HETATM    8  C1  UNL     1      28.717  49.493  -3.239  1.00  0.00     0.010 C 
HETATM    9  C3  UNL     1      29.755  49.118  -5.388  1.00  0.00     0.010 C 
ENDBRANCH   6   7
ENDBRANCH   1   6
BRANCH   1  10
HETATM   10  C7  UNL     1      27.499  52.495  -5.481  1.00  0.00     0.043 A 
HETATM   11  C8  UNL     1      28.577  52.991  -6.146  1.00  0.00     0.102 A 
HETATM   12  N3  UNL     1      29.471  52.409  -7.132  1.00  0.00    -0.093 NA
HETATM   13  S1  UNL     1      28.829  54.553  -5.489  1.00  0.00    -0.061 SA
HETATM   14  C9  UNL     1      27.559  54.548  -4.370  1.00  0.00     0.100 A 
HETATM   15 CL1  UNL     1      27.144  55.875  -3.238  1.00  0.00    -0.074 Cl
HETATM   16  C10 UNL     1      26.951  53.333  -4.519  1.00  0.00     0.117 A 
BRANCH  16  17
HETATM   17  S2  UNL     1      25.570  52.940  -3.455  1.00  0.00     0.246 S 
HETATM   18  O1  UNL     1      24.303  52.745  -4.231  1.00  0.00    -0.206 OA
HETATM   19  O2  UNL     1      25.399  53.951  -2.370  1.00  0.00    -0.206 OA
BRANCH  17  20
HETATM   20  N4  UNL     1      25.832  51.427  -2.669  1.00  0.00    -0.206 NA
HETATM   21  C11 UNL     1      26.231  51.570  -1.303  1.00  0.00     0.112 C 
HETATM   22  C12 UNL     1      26.161  50.238  -0.602  1.00  0.00    -0.004 C 
HETATM   23  C13 UNL     1      26.801  50.280   0.756  1.00  0.00     0.011 C 
HETATM   24  C14 UNL     1      24.704  49.899  -0.435  1.00  0.00     0.011 C 
HETATM   25  C15 UNL     1      23.942  50.189  -1.682  1.00  0.00    -0.004 C 
HETATM   26  C16 UNL     1      22.875  51.241  -1.452  1.00  0.00     0.011 C 
HETATM   27  C17 UNL     1      24.791  50.470  -2.889  1.00  0.00     0.112 C 
ENDBRANCH  17  20
ENDBRANCH  16  17
ENDBRANCH   1  10
TORSDOF 5
ENDMDL
MODEL 2
REMARK VINA RESULT: -5.961610397      3.410      6.147
REMARK  5 active torsions:
REMARK  status: ('A' for Active; 'I' for Inactive)
REMARK    1  A    between atoms: C2_2  and  C4_4 
REMARK    2  A    between atoms: C4_4  and  C5_5 
REMARK    3  A    between atoms: C5_5  and  C7_10 
REMARK    4  A    between atoms: C10_16  and  S2_17 
REMARK    5  A    between atoms: S2_17  and  N4_20 
ROOT
HETATM    1  C5  UNL     1      25.161  50.088   0.244  1.00  0.00     0.033 C 
HETATM    2  N1  UNL     1      24.139  50.846   0.049  1.00  0.00    -0.297 N 
ATOM      3  H1  UNL     1      24.270  51.857   0.035  1.00  0.00     0.178 HD
HETATM    4  C6  UNL     1      22.876  50.335  -0.142  1.00  0.00     0.182 C 
HETATM    5  N2  UNL     1      21.785  49.917  -0.289  1.00  0.00    -0.172 NA
ENDROOT
BRANCH   1   6
HETATM    6  C4  UNL     1      24.861  48.638   0.240  1.00  0.00     0.062 C 
BRANCH   6   7
HETATM    7  C2  UNL     1      24.411  48.078   1.542  1.00  0.00    -0.017 C 
HETATM    8  C1  UNL     1      23.271  47.153   1.615  1.00  0.00     0.010 C 
HETATM    9  C3  UNL     1      25.614  47.334   2.176  1.00  0.00     0.010 C 
ENDBRANCH   6   7
ENDBRANCH   1   6
BRANCH   1  10
HETATM   10  C7  UNL     1      26.554  50.633   0.275  1.00  0.00     0.043 A 
HETATM   11  C8  UNL     1      27.324  50.600   1.397  1.00  0.00     0.102 A 
HETATM   12  N3  UNL     1      27.024  50.277   2.781  1.00  0.00    -0.093 NA
HETATM   13  S1  UNL     1      28.859  51.178   0.901  1.00  0.00    -0.061 SA
HETATM   14  C9  UNL     1      28.494  51.459  -0.727  1.00  0.00     0.100 A 
HETATM   15 CL1  UNL     1      29.619  52.104  -1.965  1.00  0.00    -0.074 Cl
HETATM   16  C10 UNL     1      27.183  51.100  -0.871  1.00  0.00     0.117 A 
BRANCH  16  17
HETATM   17  S2  UNL     1      26.419  51.304  -2.473  1.00  0.00     0.246 S 
HETATM   18  O1  UNL     1      25.317  50.313  -2.698  1.00  0.00    -0.206 OA
HETATM   19  O2  UNL     1      27.423  51.268  -3.576  1.00  0.00    -0.206 OA
BRANCH  17  20
HETATM   20  N4  UNL     1      25.644  52.842  -2.575  1.00  0.00    -0.206 NA
HETATM   21  C11 UNL     1      26.451  53.831  -3.219  1.00  0.00     0.112 C 
HETATM   22  C12 UNL     1      25.623  55.049  -3.533  1.00  0.00    -0.004 C 
HETATM   23  C13 UNL     1      26.467  56.207  -3.982  1.00  0.00     0.011 C 
HETATM   24  C14 UNL     1      24.689  54.676  -4.654  1.00  0.00     0.011 C 
HETATM   25  C15 UNL     1      24.085  53.335  -4.420  1.00  0.00    -0.004 C 
HETATM   26  C16 UNL     1      24.462  52.353  -5.512  1.00  0.00     0.011 C 
HETATM   27  C17 UNL     1      24.292  52.781  -3.039  1.00  0.00     0.112 C 
ENDBRANCH  17  20
ENDBRANCH  16  17
ENDBRANCH   1  10
TORSDOF 5
ENDMDL
MODEL 3
REMARK VINA RESULT: -5.927573858      2.874      4.842
REMARK  5 active torsions:
REMARK  status: ('A' for Active; 'I' for Inactive)
REMARK    1  A    between atoms: C2_2  and  C4_4 
REMARK    2  A    between atoms: C4_4  and  C5_5 
REMARK    3  A    between atoms: C5_5  and  C7_10 
REMARK    4  A    between atoms: C10_16  and  S2_17 
REMARK    5  A    between atoms: S2_17  and  N4_20 
ROOT
HETATM    1  C5  UNL     1      24.385  51.203  -3.201  1.00  0.00     0.033 C 
HETATM    2  N1  UNL     1      23.758  50.365  -2.454  1.00  0.00    -0.297 N 
ATOM      3  H1  UNL     1      23.782  49.374  -2.695  1.00  0.00     0.178 HD
HETATM    4  C6  UNL     1      23.057  50.762  -1.338  1.00  0.00     0.182 C 
HETATM    5  N2  UNL     1      22.437  51.084  -0.390  1.00  0.00    -0.172 NA
ENDROOT
BRANCH   1   6
HETATM    6  C4  UNL     1      24.289  52.613  -2.759  1.00  0.00     0.062 C 
BRANCH   6   7
HETATM    7  C2  UNL     1      24.921  53.608  -3.664  1.00  0.00    -0.017 C 
HETATM    8  C1  UNL     1      24.122  54.352  -4.649  1.00  0.00     0.010 C 
HETATM    9  C3  UNL     1      25.619  54.673  -2.781  1.00  0.00     0.010 C 
ENDBRANCH   6   7
ENDBRANCH   1   6
BRANCH   1  10
HETATM   10  C7  UNL     1      25.287  50.754  -4.307  1.00  0.00     0.043 A 
HETATM   11  C8  UNL     1      24.842  50.560  -5.579  1.00  0.00     0.102 A 
HETATM   12  N3  UNL     1      23.507  50.516  -6.152  1.00  0.00    -0.093 NA
HETATM   13  S1  UNL     1      26.247  50.217  -6.497  1.00  0.00    -0.061 SA
HETATM   14  C9  UNL     1      27.381  50.321  -5.245  1.00  0.00     0.100 A 
HETATM   15 CL1  UNL     1      29.149  50.069  -5.399  1.00  0.00    -0.074 Cl
HETATM   16  C10 UNL     1      26.657  50.622  -4.125  1.00  0.00     0.117 A 
BRANCH  16  17
HETATM   17  S2  UNL     1      27.524  50.769  -2.570  1.00  0.00     0.246 S 
HETATM   18  O1  UNL     1      28.072  52.148  -2.363  1.00  0.00    -0.206 OA
HETATM   19  O2  UNL     1      28.584  49.728  -2.424  1.00  0.00    -0.206 OA
BRANCH  17  20
HETATM   20  N4  UNL     1      26.433  50.535  -1.253  1.00  0.00    -0.206 NA
HETATM   21  C11 UNL     1      26.420  49.189  -0.772  1.00  0.00     0.112 C 
HETATM   22  C12 UNL     1      25.684  49.116   0.540  1.00  0.00    -0.004 C 
HETATM   23  C13 UNL     1      25.426  47.699   0.965  1.00  0.00     0.011 C 
HETATM   24  C14 UNL     1      26.553  49.776   1.576  1.00  0.00     0.011 C 
HETATM   25  C15 UNL     1      27.136  51.043   1.054  1.00  0.00    -0.004 C 
HETATM   26  C16 UNL     1      28.651  50.987   1.014  1.00  0.00     0.011 C 
HETATM   27  C17 UNL     1      26.535  51.533  -0.232  1.00  0.00     0.112 C 
ENDBRANCH  17  20
ENDBRANCH  16  17
ENDBRANCH   1  10
TORSDOF 5
ENDMDL
MODEL 4
REMARK VINA RESULT: -5.815444621      3.279      4.214
REMARK  5 active torsions:
REMARK  status: ('A' for Active; 'I' for Inactive)
REMARK    1  A    between atoms: C2_2  and  C4_4 
REMARK    2  A    between atoms: C4_4  and  C5_5 
REMARK    3  A    between atoms: C5_5  and  C7_10 
REMARK    4  A    between atoms: C10_16  and  S2_17 
REMARK    5  A    between atoms: S2_17  and  N4_20 
ROOT
HETATM    1  C5  UNL     1      26.429  51.287  -2.978  1.00  0.00     0.033 C 
HETATM    2  N1  UNL     1      25.821  52.374  -3.299  1.00  0.00    -0.297 N 
ATOM      3  H1  UNL     1      25.890  53.180  -2.678  1.00  0.00     0.178 HD
HETATM    4  C6  UNL     1      25.081  52.484  -4.454  1.00  0.00     0.182 C 
HETATM    5  N2  UNL     1      24.428  52.592  -5.428  1.00  0.00    -0.172 NA
ENDROOT
BRANCH   1   6
HETATM    6  C4  UNL     1      26.267  50.181  -3.950  1.00  0.00     0.062 C 
BRANCH   6   7
HETATM    7  C2  UNL     1      27.423  49.957  -4.858  1.00  0.00    -0.017 C 
HETATM    8  C1  UNL     1      28.384  48.873  -4.606  1.00  0.00     0.010 C 
HETATM    9  C3  UNL     1      26.864  49.716  -6.283  1.00  0.00     0.010 C 
ENDBRANCH   6   7
ENDBRANCH   1   6
BRANCH   1  10
HETATM   10  C7  UNL     1      27.372  51.221  -1.819  1.00  0.00     0.043 A 
HETATM   11  C8  UNL     1      28.683  51.574  -1.924  1.00  0.00     0.102 A 
HETATM   12  N3  UNL     1      29.526  51.875  -3.068  1.00  0.00    -0.093 NA
HETATM   13  S1  UNL     1      29.298  51.488  -0.327  1.00  0.00    -0.061 SA
HETATM   14  C9  UNL     1      27.877  50.997   0.450  1.00  0.00     0.100 A 
HETATM   15 CL1  UNL     1      27.692  50.667   2.202  1.00  0.00    -0.074 Cl
HETATM   16  C10 UNL     1      26.937  50.906  -0.539  1.00  0.00     0.117 A 
BRANCH  16  17
HETATM   17  S2  UNL     1      25.294  50.362  -0.098  1.00  0.00     0.246 S 
HETATM   18  O1  UNL     1      24.387  50.296  -1.290  1.00  0.00    -0.206 OA
HETATM   19  O2  UNL     1      24.707  51.193   0.993  1.00  0.00    -0.206 OA
BRANCH  17  20
HETATM   20  N4  UNL     1      25.340  48.744   0.499  1.00  0.00    -0.206 NA
HETATM   21  C11 UNL     1      25.412  48.678   1.926  1.00  0.00     0.112 C 
HETATM   22  C12 UNL     1      25.157  47.268   2.391  1.00  0.00    -0.004 C 
HETATM   23  C13 UNL     1      25.463  47.091   3.851  1.00  0.00     0.011 C 
HETATM   24  C14 UNL     1      23.696  46.982   2.170  1.00  0.00     0.011 C 
HETATM   25  C15 UNL     1      23.251  47.479   0.838  1.00  0.00    -0.004 C 
HETATM   26  C16 UNL     1      22.177  48.541   0.967  1.00  0.00     0.011 C 
HETATM   27  C17 UNL     1      24.362  47.880  -0.090  1.00  0.00     0.112 C 
ENDBRANCH  17  20
ENDBRANCH  16  17
ENDBRANCH   1  10
TORSDOF 5
ENDMDL
MODEL 5
REMARK VINA RESULT: -5.807290054      3.276      4.729
REMARK  5 active torsions:
REMARK  status: ('A' for Active; 'I' for Inactive)
REMARK    1  A    between atoms: C2_2  and  C4_4 
REMARK    2  A    between atoms: C4_4  and  C5_5 
REMARK    3  A    between atoms: C5_5  and  C7_10 
REMARK    4  A    between atoms: C10_16  and  S2_17 
REMARK    5  A    between atoms: S2_17  and  N4_20 
ROOT
HETATM    1  C5  UNL     1      22.556  52.848  -5.625  1.00  0.00     0.033 C 
HETATM    2  N1  UNL     1      21.347  52.476  -5.394  1.00  0.00    -0.297 N 
ATOM      3  H1  UNL     1      21.106  51.490  -5.489  1.00  0.00     0.178 HD
HETATM    4  C6  UNL     1      20.367  53.368  -5.021  1.00  0.00     0.182 C 
HETATM    5  N2  UNL     1      19.511  54.119  -4.719  1.00  0.00    -0.172 NA
ENDROOT
BRANCH   1   6
HETATM    6  C4  UNL     1      22.798  54.298  -5.454  1.00  0.00     0.062 C 
BRANCH   6   7
HETATM    7  C2  UNL     1      24.102  54.791  -5.969  1.00  0.00    -0.017 C 
HETATM    8  C1  UNL     1      24.230  55.302  -7.342  1.00  0.00     0.010 C 
HETATM    9  C3  UNL     1      24.576  55.935  -5.037  1.00  0.00     0.010 C 
ENDBRANCH   6   7
ENDBRANCH   1   6
BRANCH   1  10
HETATM   10  C7  UNL     1      23.655  51.859  -5.857  1.00  0.00     0.043 A 
HETATM   11  C8  UNL     1      23.941  51.363  -7.092  1.00  0.00     0.102 A 
HETATM   12  N3  UNL     1      23.244  51.443  -8.364  1.00  0.00    -0.093 NA
HETATM   13  S1  UNL     1      25.353  50.416  -6.877  1.00  0.00    -0.061 SA
HETATM   14  C9  UNL     1      25.554  50.662  -5.215  1.00  0.00     0.100 A 
HETATM   15 CL1  UNL     1      26.854  49.968  -4.195  1.00  0.00    -0.074 Cl
HETATM   16  C10 UNL     1      24.523  51.479  -4.842  1.00  0.00     0.117 A 
BRANCH  16  17
HETATM   17  S2  UNL     1      24.377  51.928  -3.119  1.00  0.00     0.246 S 
HETATM   18  O1  UNL     1      22.946  52.055  -2.693  1.00  0.00    -0.206 OA
HETATM   19  O2  UNL     1      25.157  53.159  -2.798  1.00  0.00    -0.206 OA
BRANCH  17  20
HETATM   20  N4  UNL     1      25.016  50.676  -2.119  1.00  0.00    -0.206 NA
HETATM   21  C11 UNL     1      25.940  51.161  -1.141  1.00  0.00     0.112 C 
HETATM   22  C12 UNL     1      26.233  50.084  -0.128  1.00  0.00    -0.004 C 
HETATM   23  C13 UNL     1      27.376  50.452   0.773  1.00  0.00     0.011 C 
HETATM   24  C14 UNL     1      24.995  49.915   0.713  1.00  0.00     0.011 C 
HETATM   25  C15 UNL     1      23.771  49.905  -0.136  1.00  0.00    -0.004 C 
HETATM   26  C16 UNL     1      22.845  51.056   0.206  1.00  0.00     0.011 C 
HETATM   27  C17 UNL     1      24.026  49.776  -1.610  1.00  0.00     0.112 C 
ENDBRANCH  17  20
ENDBRANCH  16  17
ENDBRANCH   1  10
TORSDOF 5
ENDMDL
