MODEL 1
REMARK VINA RESULT: -5.598878648      0.000      0.000
REMARK  2 active torsions:
REMARK  status: ('A' for Active; 'I' for Inactive)
REMARK       I    between atoms: C1_4  and  N3_6 
REMARK    1  A    between atoms: N3_6  and  C2_8 
REMARK    2  A    between atoms: C3_12  and  C4_13 
ROOT
HETATM    1  C2  UNL     1      -2.932 -22.359  12.555  1.00  0.00     0.327 A 
HETATM    2  N4  UNL     1      -3.339 -21.885  11.232  1.00  0.00    -0.035 N 
ATOM      3  H41 UNL     1      -3.292 -20.980  10.764  1.00  0.00     0.280 HD
ATOM      4  H42 UNL     1      -4.244 -21.719  10.792  1.00  0.00     0.280 HD
HETATM    5  C3  UNL     1      -2.466 -23.008  11.289  1.00  0.00     0.326 A 
ENDROOT
BRANCH   1   6
HETATM    6  N3  UNL     1      -3.977 -22.847  13.387  1.00  0.00    -0.335 N 
HETATM    7  C1  UNL     1      -5.118 -22.035  13.561  1.00  0.00     0.183 C 
HETATM    8  N1  UNL     1      -6.123 -22.186  12.795  1.00  0.00    -0.374 N 
HETATM    9  N2  UNL     1      -5.143 -21.062  14.577  1.00  0.00    -0.064 NA
ATOM     10  H12 UNL     1      -6.949 -21.599  12.920  1.00  0.00     0.158 HD
ATOM     11  H11 UNL     1      -6.105 -22.891  12.057  1.00  0.00     0.158 HD
ATOM     12  H3  UNL     1      -3.904 -23.756  13.844  1.00  0.00     0.164 HD
ENDBRANCH   1   6
BRANCH   5  13
HETATM   13  C4  UNL     1      -2.918 -24.361  10.979  1.00  0.00     0.266 C 
HETATM   14  N5  UNL     1      -2.071 -25.294  10.331  1.00  0.00    -0.060 NA
HETATM   15  O1  UNL     1      -4.068 -24.735  11.279  1.00  0.00    -0.274 OA
ENDBRANCH   5  13
TORSDOF 2
ENDMDL
MODEL 2
REMARK VINA RESULT: -4.926353533      5.426      6.803
REMARK  2 active torsions:
REMARK  status: ('A' for Active; 'I' for Inactive)
REMARK       I    between atoms: C1_4  and  N3_6 
REMARK    1  A    between atoms: N3_6  and  C2_8 
REMARK    2  A    between atoms: C3_12  and  C4_13 
ROOT
HETATM    1  C2  UNL     1       0.691 -25.075   8.278  1.00  0.00     0.327 A 
HETATM    2  N4  UNL     1       0.634 -23.617   8.155  1.00  0.00    -0.035 N 
ATOM      3  H41 UNL     1       0.850 -22.849   8.790  1.00  0.00     0.280 HD
ATOM      4  H42 UNL     1      -0.133 -22.946   8.097  1.00  0.00     0.280 HD
HETATM    5  C3  UNL     1       1.390 -24.331   7.182  1.00  0.00     0.326 A 
ENDROOT
BRANCH   1   6
HETATM    6  N3  UNL     1      -0.548 -25.758   8.142  1.00  0.00    -0.335 N 
HETATM    7  C1  UNL     1      -1.133 -26.306   9.304  1.00  0.00     0.183 C 
HETATM    8  N1  UNL     1      -1.976 -25.623   9.969  1.00  0.00    -0.374 N 
HETATM    9  N2  UNL     1      -0.784 -27.603   9.723  1.00  0.00    -0.064 NA
ATOM     10  H12 UNL     1      -2.399 -26.019  10.808  1.00  0.00     0.158 HD
ATOM     11  H11 UNL     1      -2.228 -24.682   9.665  1.00  0.00     0.158 HD
ATOM     12  H3  UNL     1      -1.000 -25.849   7.232  1.00  0.00     0.164 HD
ENDBRANCH   1   6
BRANCH   5  13
HETATM   13  C4  UNL     1       0.928 -24.498   5.808  1.00  0.00     0.266 C 
HETATM   14  N5  UNL     1       0.931 -23.419   4.890  1.00  0.00    -0.060 NA
HETATM   15  O1  UNL     1       0.517 -25.603   5.402  1.00  0.00    -0.274 OA
ENDBRANCH   5  13
TORSDOF 2
ENDMDL
MODEL 3
REMARK VINA RESULT: -4.864037253      1.260      4.004
REMARK  2 active torsions:
REMARK  status: ('A' for Active; 'I' for Inactive)
REMARK       I    between atoms: C1_4  and  N3_6 
REMARK    1  A    between atoms: N3_6  and  C2_8 
REMARK    2  A    between atoms: C3_12  and  C4_13 
ROOT
HETATM    1  C2  UNL     1      -2.666 -22.383  12.289  1.00  0.00     0.327 A 
HETATM    2  N4  UNL     1      -2.926 -23.468  13.237  1.00  0.00    -0.035 N 
ATOM      3  H41 UNL     1      -2.375 -23.903  13.977  1.00  0.00     0.280 HD
ATOM      4  H42 UNL     1      -3.026 -24.478  13.140  1.00  0.00     0.280 HD
HETATM    5  C3  UNL     1      -3.848 -22.383  13.208  1.00  0.00     0.326 A 
ENDROOT
BRANCH   1   6
HETATM    6  N3  UNL     1      -2.700 -22.742  10.914  1.00  0.00    -0.335 N 
HETATM    7  C1  UNL     1      -2.426 -24.084  10.572  1.00  0.00     0.183 C 
HETATM    8  N1  UNL     1      -3.383 -24.914  10.458  1.00  0.00    -0.374 N 
HETATM    9  N2  UNL     1      -1.098 -24.499  10.359  1.00  0.00    -0.064 NA
ATOM     10  H12 UNL     1      -3.185 -25.884  10.211  1.00  0.00     0.158 HD
ATOM     11  H11 UNL     1      -4.345 -24.613  10.613  1.00  0.00     0.158 HD
ATOM     12  H3  UNL     1      -2.915 -22.050  10.195  1.00  0.00     0.164 HD
ENDBRANCH   1   6
BRANCH   5  13
HETATM   13  C4  UNL     1      -5.186 -22.515  12.639  1.00  0.00     0.266 C 
HETATM   14  N5  UNL     1      -6.214 -21.588  12.945  1.00  0.00    -0.060 NA
HETATM   15  O1  UNL     1      -5.462 -23.450  11.864  1.00  0.00    -0.274 OA
ENDBRANCH   5  13
TORSDOF 2
ENDMDL
MODEL 4
REMARK VINA RESULT: -4.470655464      1.795      4.331
REMARK  2 active torsions:
REMARK  status: ('A' for Active; 'I' for Inactive)
REMARK       I    between atoms: C1_4  and  N3_6 
REMARK    1  A    between atoms: N3_6  and  C2_8 
REMARK    2  A    between atoms: C3_12  and  C4_13 
ROOT
HETATM    1  C2  UNL     1      -4.744 -23.419  12.875  1.00  0.00     0.327 A 
HETATM    2  N4  UNL     1      -5.635 -22.691  11.970  1.00  0.00    -0.035 N 
ATOM      3  H41 UNL     1      -6.381 -22.977  11.336  1.00  0.00     0.280 HD
ATOM      4  H42 UNL     1      -5.492 -22.200  11.087  1.00  0.00     0.280 HD
HETATM    5  C3  UNL     1      -5.608 -22.285  13.334  1.00  0.00     0.326 A 
ENDROOT
BRANCH   1   6
HETATM    6  N3  UNL     1      -3.355 -23.324  12.587  1.00  0.00    -0.335 N 
HETATM    7  C1  UNL     1      -2.951 -23.426  11.238  1.00  0.00     0.183 C 
HETATM    8  N1  UNL     1      -2.818 -22.372  10.537  1.00  0.00    -0.374 N 
HETATM    9  N2  UNL     1      -2.697 -24.689  10.672  1.00  0.00    -0.064 NA
ATOM     10  H12 UNL     1      -2.525 -22.446   9.563  1.00  0.00     0.158 HD
ATOM     11  H11 UNL     1      -3.003 -21.456  10.948  1.00  0.00     0.158 HD
ATOM     12  H3  UNL     1      -2.672 -23.187  13.331  1.00  0.00     0.164 HD
ENDBRANCH   1   6
BRANCH   5  13
HETATM   13  C4  UNL     1      -4.973 -21.042  13.763  1.00  0.00     0.266 C 
HETATM   14  N5  UNL     1      -4.918 -20.673  15.130  1.00  0.00    -0.060 NA
HETATM   15  O1  UNL     1      -4.459 -20.267  12.933  1.00  0.00    -0.274 OA
ENDBRANCH   5  13
TORSDOF 2
ENDMDL
MODEL 5
REMARK VINA RESULT: -4.425848189      1.908      3.922
REMARK  2 active torsions:
REMARK  status: ('A' for Active; 'I' for Inactive)
REMARK       I    between atoms: C1_4  and  N3_6 
REMARK    1  A    between atoms: N3_6  and  C2_8 
REMARK    2  A    between atoms: C3_12  and  C4_13 
ROOT
HETATM    1  C2  UNL     1      -2.701 -22.494  12.610  1.00  0.00     0.327 A 
HETATM    2  N4  UNL     1      -3.526 -23.424  13.383  1.00  0.00    -0.035 N 
ATOM      3  H41 UNL     1      -3.314 -24.216  13.990  1.00  0.00     0.280 HD
ATOM      4  H42 UNL     1      -4.157 -24.184  13.128  1.00  0.00     0.280 HD
HETATM    5  C3  UNL     1      -3.710 -22.031  13.615  1.00  0.00     0.326 A 
ENDROOT
BRANCH   1   6
HETATM    6  N3  UNL     1      -2.899 -22.514  11.203  1.00  0.00    -0.335 N 
HETATM    7  C1  UNL     1      -3.764 -23.494  10.669  1.00  0.00     0.183 C 
HETATM    8  N1  UNL     1      -4.994 -23.220  10.492  1.00  0.00    -0.374 N 
HETATM    9  N2  UNL     1      -3.266 -24.767  10.336  1.00  0.00    -0.064 NA
ATOM     10  H12 UNL     1      -5.620 -23.928  10.107  1.00  0.00     0.158 HD
ATOM     11  H11 UNL     1      -5.355 -22.297  10.735  1.00  0.00     0.158 HD
ATOM     12  H3  UNL     1      -2.429 -21.841  10.597  1.00  0.00     0.164 HD
ENDBRANCH   1   6
BRANCH   5  13
HETATM   13  C4  UNL     1      -4.895 -21.315  13.150  1.00  0.00     0.266 C 
HETATM   14  N5  UNL     1      -6.161 -21.946  13.082  1.00  0.00    -0.060 NA
HETATM   15  O1  UNL     1      -4.823 -20.122  12.798  1.00  0.00    -0.274 OA
ENDBRANCH   5  13
TORSDOF 2
ENDMDL
