MODEL 1
REMARK VINA RESULT: -5.081186498      0.000      0.000
REMARK  3 active torsions:
REMARK  status: ('A' for Active; 'I' for Inactive)
REMARK    1  A    between atoms: C1_2  and  C2_4 
REMARK    2  A    between atoms: C2_4  and  N2_5 
REMARK    3  A    between atoms: C2_4  and  C3_9 
ROOT
HETATM    1  C3  UNL     1      -3.303 -22.358  12.278  1.00  0.00     0.425 A 
HETATM    2  N3  UNL     1      -3.554 -23.754  12.493  1.00  0.00    -0.020 N 
ATOM      3  H31 UNL     1      -4.422 -24.056  12.933  1.00  0.00     0.281 HD
ATOM      4  H32 UNL     1      -3.021 -24.268  13.196  1.00  0.00     0.281 HD
HETATM    5  C4  UNL     1      -3.328 -24.005  11.084  1.00  0.00     0.468 A 
HETATM    6  N4  UNL     1      -3.010 -22.613  10.859  1.00  0.00    -0.020 N 
ATOM      7  H41 UNL     1      -2.113 -22.343  10.456  1.00  0.00     0.281 HD
ATOM      8  H42 UNL     1      -3.482 -22.083  10.126  1.00  0.00     0.281 HD
ENDROOT
BRANCH   1   9
HETATM    9  C2  UNL     1      -4.520 -21.455  12.339  1.00  0.00     0.329 C 
BRANCH   9  10
HETATM   10  C1  UNL     1      -5.416 -21.797  13.453  1.00  0.00     0.265 C 
HETATM   11  N1  UNL     1      -5.209 -21.258  14.745  1.00  0.00    -0.060 NA
HETATM   12  O1  UNL     1      -6.376 -22.579  13.249  1.00  0.00    -0.274 OA
ENDBRANCH   9  10
BRANCH   9  13
HETATM   13  N2  UNL     1      -4.025 -20.111  12.565  1.00  0.00    -0.063 N 
ATOM     14  H23 UNL     1      -4.446 -19.424  11.940  1.00  0.00     0.275 HD
ATOM     15  H22 UNL     1      -4.351 -19.712  13.446  1.00  0.00     0.275 HD
ATOM     16  H21 UNL     1      -3.008 -20.138  12.495  1.00  0.00     0.275 HD
ENDBRANCH   9  13
ENDBRANCH   1   9
TORSDOF 3
ENDMDL
MODEL 2
REMARK VINA RESULT: -4.896854254      1.650      1.905
REMARK  3 active torsions:
REMARK  status: ('A' for Active; 'I' for Inactive)
REMARK    1  A    between atoms: C1_2  and  C2_4 
REMARK    2  A    between atoms: C2_4  and  N2_5 
REMARK    3  A    between atoms: C2_4  and  C3_9 
ROOT
HETATM    1  C3  UNL     1      -4.018 -22.562  11.435  1.00  0.00     0.425 A 
HETATM    2  N3  UNL     1      -2.838 -22.598  10.619  1.00  0.00    -0.020 N 
ATOM      3  H31 UNL     1      -2.033 -22.020  10.858  1.00  0.00     0.281 HD
ATOM      4  H32 UNL     1      -2.850 -22.189   9.684  1.00  0.00     0.281 HD
HETATM    5  C4  UNL     1      -2.775 -24.035  10.783  1.00  0.00     0.468 A 
HETATM    6  N4  UNL     1      -3.997 -24.029  11.554  1.00  0.00    -0.020 N 
ATOM      7  H41 UNL     1      -4.800 -24.586  11.262  1.00  0.00     0.281 HD
ATOM      8  H42 UNL     1      -4.037 -24.478  12.470  1.00  0.00     0.281 HD
ENDROOT
BRANCH   1   9
HETATM    9  C2  UNL     1      -3.836 -21.988  12.827  1.00  0.00     0.329 C 
BRANCH   9  10
HETATM   10  C1  UNL     1      -5.118 -21.736  13.501  1.00  0.00     0.265 C 
HETATM   11  N1  UNL     1      -6.326 -22.269  12.990  1.00  0.00    -0.060 NA
HETATM   12  O1  UNL     1      -5.136 -21.038  14.544  1.00  0.00    -0.274 OA
ENDBRANCH   9  10
BRANCH   9  13
HETATM   13  N2  UNL     1      -3.121 -22.988  13.595  1.00  0.00    -0.063 N 
ATOM     14  H23 UNL     1      -3.278 -22.903  14.599  1.00  0.00     0.275 HD
ATOM     15  H22 UNL     1      -3.505 -23.927  13.477  1.00  0.00     0.275 HD
ATOM     16  H21 UNL     1      -2.135 -22.929  13.342  1.00  0.00     0.275 HD
ENDBRANCH   9  13
ENDBRANCH   1   9
TORSDOF 3
ENDMDL
MODEL 3
REMARK VINA RESULT: -4.857679319      1.528      1.606
REMARK  3 active torsions:
REMARK  status: ('A' for Active; 'I' for Inactive)
REMARK    1  A    between atoms: C1_2  and  C2_4 
REMARK    2  A    between atoms: C2_4  and  N2_5 
REMARK    3  A    between atoms: C2_4  and  C3_9 
ROOT
HETATM    1  C3  UNL     1      -3.316 -23.799  11.882  1.00  0.00     0.425 A 
HETATM    2  N3  UNL     1      -3.221 -24.677  10.751  1.00  0.00    -0.020 N 
ATOM      3  H31 UNL     1      -3.936 -24.653  10.024  1.00  0.00     0.281 HD
ATOM      4  H32 UNL     1      -3.375 -25.679  10.867  1.00  0.00     0.281 HD
HETATM    5  C4  UNL     1      -1.891 -24.172  10.479  1.00  0.00     0.468 A 
HETATM    6  N4  UNL     1      -1.941 -23.328  11.650  1.00  0.00    -0.020 N 
ATOM      7  H41 UNL     1      -1.233 -23.407  12.380  1.00  0.00     0.281 HD
ATOM      8  H42 UNL     1      -1.737 -22.330  11.582  1.00  0.00     0.281 HD
ENDROOT
BRANCH   1   9
HETATM    9  C2  UNL     1      -4.241 -22.609  11.714  1.00  0.00     0.329 C 
BRANCH   9  10
HETATM   10  C1  UNL     1      -5.267 -22.545  12.765  1.00  0.00     0.265 C 
HETATM   11  N1  UNL     1      -6.192 -21.475  12.815  1.00  0.00    -0.060 NA
HETATM   12  O1  UNL     1      -5.319 -23.455  13.627  1.00  0.00    -0.274 OA
ENDBRANCH   9  10
BRANCH   9  13
HETATM   13  N2  UNL     1      -3.414 -21.424  11.831  1.00  0.00    -0.063 N 
ATOM     14  H23 UNL     1      -3.009 -21.135  10.940  1.00  0.00     0.275 HD
ATOM     15  H22 UNL     1      -3.956 -20.579  12.014  1.00  0.00     0.275 HD
ATOM     16  H21 UNL     1      -2.709 -21.606  12.545  1.00  0.00     0.275 HD
ENDBRANCH   9  13
ENDBRANCH   1   9
TORSDOF 3
ENDMDL
MODEL 4
REMARK VINA RESULT: -4.693774638      1.275      1.592
REMARK  3 active torsions:
REMARK  status: ('A' for Active; 'I' for Inactive)
REMARK    1  A    between atoms: C1_2  and  C2_4 
REMARK    2  A    between atoms: C2_4  and  N2_5 
REMARK    3  A    between atoms: C2_4  and  C3_9 
ROOT
HETATM    1  C3  UNL     1      -3.144 -22.223  12.092  1.00  0.00     0.425 A 
HETATM    2  N3  UNL     1      -1.916 -22.908  12.382  1.00  0.00    -0.020 N 
ATOM      3  H31 UNL     1      -1.882 -23.602  13.129  1.00  0.00     0.281 HD
ATOM      4  H32 UNL     1      -1.141 -22.406  12.816  1.00  0.00     0.281 HD
HETATM    5  C4  UNL     1      -1.829 -23.324  10.998  1.00  0.00     0.468 A 
HETATM    6  N4  UNL     1      -3.029 -22.589  10.672  1.00  0.00    -0.020 N 
ATOM      7  H41 UNL     1      -3.018 -21.870   9.948  1.00  0.00     0.281 HD
ATOM      8  H42 UNL     1      -3.803 -23.044  10.187  1.00  0.00     0.281 HD
ENDROOT
BRANCH   1   9
HETATM    9  C2  UNL     1      -4.403 -22.875  12.632  1.00  0.00     0.329 C 
BRANCH   9  10
HETATM   10  C1  UNL     1      -5.293 -21.911  13.294  1.00  0.00     0.265 C 
HETATM   11  N1  UNL     1      -4.876 -21.211  14.450  1.00  0.00    -0.060 NA
HETATM   12  O1  UNL     1      -6.439 -21.711  12.822  1.00  0.00    -0.274 OA
ENDBRANCH   9  10
BRANCH   9  13
HETATM   13  N2  UNL     1      -5.108 -23.417  11.487  1.00  0.00    -0.063 N 
ATOM     14  H23 UNL     1      -4.902 -24.403  11.326  1.00  0.00     0.275 HD
ATOM     15  H22 UNL     1      -6.111 -23.512  11.649  1.00  0.00     0.275 HD
ATOM     16  H21 UNL     1      -4.892 -22.830  10.681  1.00  0.00     0.275 HD
ENDBRANCH   9  13
ENDBRANCH   1   9
TORSDOF 3
ENDMDL
MODEL 5
REMARK VINA RESULT: -4.528504569      1.629      1.970
REMARK  3 active torsions:
REMARK  status: ('A' for Active; 'I' for Inactive)
REMARK    1  A    between atoms: C1_2  and  C2_4 
REMARK    2  A    between atoms: C2_4  and  N2_5 
REMARK    3  A    between atoms: C2_4  and  C3_9 
ROOT
HETATM    1  C3  UNL     1      -3.193 -22.151  12.051  1.00  0.00     0.425 A 
HETATM    2  N3  UNL     1      -1.886 -22.721  11.888  1.00  0.00    -0.020 N 
ATOM      3  H31 UNL     1      -1.395 -23.114  12.691  1.00  0.00     0.281 HD
ATOM      4  H32 UNL     1      -1.085 -22.119  11.695  1.00  0.00     0.281 HD
HETATM    5  C4  UNL     1      -2.403 -23.595  10.855  1.00  0.00     0.468 A 
HETATM    6  N4  UNL     1      -3.712 -22.990  10.959  1.00  0.00    -0.020 N 
ATOM      7  H41 UNL     1      -4.156 -22.567  10.144  1.00  0.00     0.281 HD
ATOM      8  H42 UNL     1      -4.542 -23.566  11.095  1.00  0.00     0.281 HD
ENDROOT
BRANCH   1   9
HETATM    9  C2  UNL     1      -3.927 -22.545  13.319  1.00  0.00     0.329 C 
BRANCH   9  10
HETATM   10  C1  UNL     1      -5.107 -21.703  13.567  1.00  0.00     0.265 C 
HETATM   11  N1  UNL     1      -6.219 -21.734  12.693  1.00  0.00    -0.060 NA
HETATM   12  O1  UNL     1      -5.121 -20.949  14.569  1.00  0.00    -0.274 OA
ENDBRANCH   9  10
BRANCH   9  13
HETATM   13  N2  UNL     1      -4.387 -23.905  13.121  1.00  0.00    -0.063 N 
ATOM     14  H23 UNL     1      -4.509 -24.413  13.998  1.00  0.00     0.275 HD
ATOM     15  H22 UNL     1      -5.355 -23.953  12.801  1.00  0.00     0.275 HD
ATOM     16  H21 UNL     1      -3.736 -24.365  12.485  1.00  0.00     0.275 HD
ENDBRANCH   9  13
ENDBRANCH   1   9
TORSDOF 3
ENDMDL
