MODEL 1
REMARK VINA RESULT: -5.861487489      0.000      0.000
REMARK  8 active torsions:
REMARK  status: ('A' for Active; 'I' for Inactive)
REMARK    1  A    between atoms: C2_2  and  C4_4 
REMARK    2  A    between atoms: C4_4  and  C5_5 
REMARK    3  A    between atoms: C4_4  and  N1_7 
REMARK    4  A    between atoms: N1_7  and  C6_9 
REMARK    5  A    between atoms: C6_9  and  C7_10 
REMARK    6  A    between atoms: C7_10  and  N2_11 
REMARK    7  A    between atoms: N2_11  and  N3_13 
REMARK    8  A    between atoms: C8_15  and  C9_16 
ROOT
HETATM    1  C6  UNL     1      -2.221  -2.270  19.755  1.00  0.00     0.135 C 
ENDROOT
BRANCH   1   2
HETATM    2  N1  UNL     1      -2.844  -3.439  20.151  1.00  0.00    -0.409 N 
ATOM      3  H1  UNL     1      -2.293  -4.297  20.193  1.00  0.00     0.154 HD
BRANCH   2   4
HETATM    4  C4  UNL     1      -4.210  -3.495  20.499  1.00  0.00     0.141 C 
BRANCH   4   5
HETATM    5  C2  UNL     1      -4.579  -3.143  21.922  1.00  0.00     0.006 C 
HETATM    6  C1  UNL     1      -5.131  -1.677  21.909  1.00  0.00     0.012 C 
HETATM    7  C3  UNL     1      -5.715  -3.910  22.503  1.00  0.00     0.012 C 
ENDBRANCH   4   5
BRANCH   4   8
HETATM    8  C5  UNL     1      -4.854  -2.424  19.600  1.00  0.00     0.256 C 
HETATM    9  O1  UNL     1      -5.119  -2.726  18.478  1.00  0.00    -0.305 OA
ENDBRANCH   4   8
ENDBRANCH   2   4
ENDBRANCH   1   2
BRANCH   1  10
HETATM   10  C7  UNL     1      -1.455  -2.391  18.429  1.00  0.00     0.158 C 
BRANCH  10  11
HETATM   11  N2  UNL     1      -1.904  -3.601  17.784  1.00  0.00    -0.336 N 
ATOM     12  H2  UNL     1      -1.638  -4.524  18.126  1.00  0.00     0.180 HD
BRANCH  11  13
HETATM   13  N3  UNL     1      -2.698  -3.445  16.699  1.00  0.00    -0.320 N 
HETATM   14  C8  UNL     1      -2.490  -4.014  15.603  1.00  0.00     0.084 C 
ATOM     15  H3  UNL     1      -3.510  -2.832  16.778  1.00  0.00     0.185 HD
BRANCH  14  16
HETATM   16  C9  UNL     1      -1.350  -4.917  15.383  1.00  0.00     0.025 A 
HETATM   17  C10 UNL     1      -0.917  -5.060  13.941  1.00  0.00     0.010 A 
HETATM   18  C11 UNL     1      -1.556  -6.205  14.668  1.00  0.00     0.010 A 
ENDBRANCH  14  16
ENDBRANCH  11  13
ENDBRANCH  10  11
ENDBRANCH   1  10
TORSDOF 8
ENDMDL
MODEL 2
REMARK VINA RESULT: -5.622039841      3.336      3.972
REMARK  8 active torsions:
REMARK  status: ('A' for Active; 'I' for Inactive)
REMARK    1  A    between atoms: C2_2  and  C4_4 
REMARK    2  A    between atoms: C4_4  and  C5_5 
REMARK    3  A    between atoms: C4_4  and  N1_7 
REMARK    4  A    between atoms: N1_7  and  C6_9 
REMARK    5  A    between atoms: C6_9  and  C7_10 
REMARK    6  A    between atoms: C7_10  and  N2_11 
REMARK    7  A    between atoms: N2_11  and  N3_13 
REMARK    8  A    between atoms: C8_15  and  C9_16 
ROOT
HETATM    1  C6  UNL     1      -2.935  -4.439  17.431  1.00  0.00     0.135 C 
ENDROOT
BRANCH   1   2
HETATM    2  N1  UNL     1      -3.487  -4.853  18.629  1.00  0.00    -0.409 N 
ATOM      3  H1  UNL     1      -3.391  -5.832  18.900  1.00  0.00     0.154 HD
BRANCH   2   4
HETATM    4  C4  UNL     1      -4.180  -3.977  19.491  1.00  0.00     0.141 C 
BRANCH   4   5
HETATM    5  C2  UNL     1      -3.489  -3.577  20.775  1.00  0.00     0.006 C 
HETATM    6  C1  UNL     1      -2.551  -2.367  20.438  1.00  0.00     0.012 C 
HETATM    7  C3  UNL     1      -4.370  -3.015  21.835  1.00  0.00     0.012 C 
ENDBRANCH   4   5
BRANCH   4   8
HETATM    8  C5  UNL     1      -4.333  -2.694  18.655  1.00  0.00     0.256 C 
HETATM    9  O1  UNL     1      -5.433  -2.272  18.480  1.00  0.00    -0.305 OA
ENDBRANCH   4   8
ENDBRANCH   2   4
ENDBRANCH   1   2
BRANCH   1  10
HETATM   10  C7  UNL     1      -2.412  -5.590  16.557  1.00  0.00     0.158 C 
BRANCH  10  11
HETATM   11  N2  UNL     1      -2.444  -6.787  17.361  1.00  0.00    -0.336 N 
ATOM     12  H2  UNL     1      -3.288  -7.082  17.853  1.00  0.00     0.180 HD
BRANCH  11  13
HETATM   13  N3  UNL     1      -1.296  -7.499  17.427  1.00  0.00    -0.320 N 
HETATM   14  C8  UNL     1      -1.164  -8.536  18.116  1.00  0.00     0.084 C 
ATOM     15  H3  UNL     1      -0.494  -7.174  16.886  1.00  0.00     0.185 HD
BRANCH  14  16
HETATM   16  C9  UNL     1      -2.256  -9.090  18.932  1.00  0.00     0.025 A 
HETATM   17  C10 UNL     1      -1.819 -10.035  20.028  1.00  0.00     0.010 A 
HETATM   18  C11 UNL     1      -2.584 -10.538  18.840  1.00  0.00     0.010 A 
ENDBRANCH  14  16
ENDBRANCH  11  13
ENDBRANCH  10  11
ENDBRANCH   1  10
TORSDOF 8
ENDMDL
MODEL 3
REMARK VINA RESULT: -5.401917266      1.314      1.599
REMARK  8 active torsions:
REMARK  status: ('A' for Active; 'I' for Inactive)
REMARK    1  A    between atoms: C2_2  and  C4_4 
REMARK    2  A    between atoms: C4_4  and  C5_5 
REMARK    3  A    between atoms: C4_4  and  N1_7 
REMARK    4  A    between atoms: N1_7  and  C6_9 
REMARK    5  A    between atoms: C6_9  and  C7_10 
REMARK    6  A    between atoms: C7_10  and  N2_11 
REMARK    7  A    between atoms: N2_11  and  N3_13 
REMARK    8  A    between atoms: C8_15  and  C9_16 
ROOT
HETATM    1  C6  UNL     1      -3.803  -3.423  18.522  1.00  0.00     0.135 C 
ENDROOT
BRANCH   1   2
HETATM    2  N1  UNL     1      -4.575  -3.026  19.597  1.00  0.00    -0.409 N 
ATOM      3  H1  UNL     1      -5.380  -2.423  19.426  1.00  0.00     0.154 HD
BRANCH   2   4
HETATM    4  C4  UNL     1      -4.294  -3.419  20.923  1.00  0.00     0.141 C 
BRANCH   4   5
HETATM    5  C2  UNL     1      -4.226  -2.331  21.970  1.00  0.00     0.006 C 
HETATM    6  C1  UNL     1      -3.291  -1.206  21.409  1.00  0.00     0.012 C 
HETATM    7  C3  UNL     1      -5.496  -1.597  22.224  1.00  0.00     0.012 C 
ENDBRANCH   4   5
BRANCH   4   8
HETATM    8  C5  UNL     1      -5.490  -4.312  21.295  1.00  0.00     0.256 C 
HETATM    9  O1  UNL     1      -5.872  -5.097  20.483  1.00  0.00    -0.305 OA
ENDBRANCH   4   8
ENDBRANCH   2   4
ENDBRANCH   1   2
BRANCH   1  10
HETATM   10  C7  UNL     1      -2.361  -2.892  18.560  1.00  0.00     0.158 C 
BRANCH  10  11
HETATM   11  N2  UNL     1      -1.820  -3.025  17.230  1.00  0.00    -0.336 N 
ATOM     12  H2  UNL     1      -0.823  -2.920  17.041  1.00  0.00     0.180 HD
BRANCH  11  13
HETATM   13  N3  UNL     1      -2.707  -3.298  16.244  1.00  0.00    -0.320 N 
HETATM   14  C8  UNL     1      -2.525  -4.181  15.376  1.00  0.00     0.084 C 
ATOM     15  H3  UNL     1      -3.569  -2.754  16.206  1.00  0.00     0.185 HD
BRANCH  14  16
HETATM   16  C9  UNL     1      -1.316  -5.020  15.340  1.00  0.00     0.025 A 
HETATM   17  C10 UNL     1      -0.734  -5.243  13.962  1.00  0.00     0.010 A 
HETATM   18  C11 UNL     1      -1.374  -6.370  14.717  1.00  0.00     0.010 A 
ENDBRANCH  14  16
ENDBRANCH  11  13
ENDBRANCH  10  11
ENDBRANCH   1  10
TORSDOF 8
ENDMDL
MODEL 4
REMARK VINA RESULT: -5.400586903      1.167      1.522
REMARK  8 active torsions:
REMARK  status: ('A' for Active; 'I' for Inactive)
REMARK    1  A    between atoms: C2_2  and  C4_4 
REMARK    2  A    between atoms: C4_4  and  C5_5 
REMARK    3  A    between atoms: C4_4  and  N1_7 
REMARK    4  A    between atoms: N1_7  and  C6_9 
REMARK    5  A    between atoms: C6_9  and  C7_10 
REMARK    6  A    between atoms: C7_10  and  N2_11 
REMARK    7  A    between atoms: N2_11  and  N3_13 
REMARK    8  A    between atoms: C8_15  and  C9_16 
ROOT
HETATM    1  C6  UNL     1      -2.098  -2.666  19.988  1.00  0.00     0.135 C 
ENDROOT
BRANCH   1   2
HETATM    2  N1  UNL     1      -3.208  -1.919  20.337  1.00  0.00    -0.409 N 
ATOM      3  H1  UNL     1      -3.099  -0.914  20.471  1.00  0.00     0.154 HD
BRANCH   2   4
HETATM    4  C4  UNL     1      -4.486  -2.491  20.515  1.00  0.00     0.141 C 
BRANCH   4   5
HETATM    5  C2  UNL     1      -4.544  -3.935  20.959  1.00  0.00     0.006 C 
HETATM    6  C1  UNL     1      -5.258  -3.962  22.354  1.00  0.00     0.012 C 
HETATM    7  C3  UNL     1      -5.406  -4.829  20.139  1.00  0.00     0.012 C 
ENDBRANCH   4   5
BRANCH   4   8
HETATM    8  C5  UNL     1      -5.098  -1.656  21.653  1.00  0.00     0.256 C 
HETATM    9  O1  UNL     1      -6.119  -1.081  21.434  1.00  0.00    -0.305 OA
ENDBRANCH   4   8
ENDBRANCH   2   4
ENDBRANCH   1   2
BRANCH   1  10
HETATM   10  C7  UNL     1      -1.552  -2.350  18.587  1.00  0.00     0.158 C 
BRANCH  10  11
HETATM   11  N2  UNL     1      -1.697  -3.545  17.792  1.00  0.00    -0.336 N 
ATOM     12  H2  UNL     1      -1.141  -4.382  17.971  1.00  0.00     0.180 HD
BRANCH  11  13
HETATM   13  N3  UNL     1      -2.610  -3.496  16.795  1.00  0.00    -0.320 N 
HETATM   14  C8  UNL     1      -2.484  -4.112  15.711  1.00  0.00     0.084 C 
ATOM     15  H3  UNL     1      -3.446  -2.928  16.932  1.00  0.00     0.185 HD
BRANCH  14  16
HETATM   16  C9  UNL     1      -1.318  -4.959  15.412  1.00  0.00     0.025 A 
HETATM   17  C10 UNL     1      -0.990  -5.097  13.943  1.00  0.00     0.010 A 
HETATM   18  C11 UNL     1      -1.512  -6.265  14.726  1.00  0.00     0.010 A 
ENDBRANCH  14  16
ENDBRANCH  11  13
ENDBRANCH  10  11
ENDBRANCH   1  10
TORSDOF 8
ENDMDL
MODEL 5
REMARK VINA RESULT: -5.396549910      5.030      6.575
REMARK  8 active torsions:
REMARK  status: ('A' for Active; 'I' for Inactive)
REMARK    1  A    between atoms: C2_2  and  C4_4 
REMARK    2  A    between atoms: C4_4  and  C5_5 
REMARK    3  A    between atoms: C4_4  and  N1_7 
REMARK    4  A    between atoms: N1_7  and  C6_9 
REMARK    5  A    between atoms: C6_9  and  C7_10 
REMARK    6  A    between atoms: C7_10  and  N2_11 
REMARK    7  A    between atoms: N2_11  and  N3_13 
REMARK    8  A    between atoms: C8_15  and  C9_16 
ROOT
HETATM    1  C6  UNL     1      -1.811  -7.723  17.820  1.00  0.00     0.135 C 
ENDROOT
BRANCH   1   2
HETATM    2  N1  UNL     1      -1.337  -6.641  17.103  1.00  0.00    -0.409 N 
ATOM      3  H1  UNL     1      -0.330  -6.488  17.057  1.00  0.00     0.154 HD
BRANCH   2   4
HETATM    4  C4  UNL     1      -2.191  -5.738  16.433  1.00  0.00     0.141 C 
BRANCH   4   5
HETATM    5  C2  UNL     1      -2.164  -4.295  16.883  1.00  0.00     0.006 C 
HETATM    6  C1  UNL     1      -2.296  -3.407  15.599  1.00  0.00     0.012 C 
HETATM    7  C3  UNL     1      -3.326  -3.852  17.702  1.00  0.00     0.012 C 
ENDBRANCH   4   5
BRANCH   4   8
HETATM    8  C5  UNL     1      -1.670  -5.757  14.986  1.00  0.00     0.256 C 
HETATM    9  O1  UNL     1      -1.637  -6.806  14.420  1.00  0.00    -0.305 OA
ENDBRANCH   4   8
ENDBRANCH   2   4
ENDBRANCH   1   2
BRANCH   1  10
HETATM   10  C7  UNL     1      -3.292  -7.607  18.217  1.00  0.00     0.158 C 
BRANCH  10  11
HETATM   11  N2  UNL     1      -3.854  -8.934  18.165  1.00  0.00    -0.336 N 
ATOM     12  H2  UNL     1      -3.822  -9.499  17.316  1.00  0.00     0.180 HD
BRANCH  11  13
HETATM   13  N3  UNL     1      -4.428  -9.389  19.302  1.00  0.00    -0.320 N 
HETATM   14  C8  UNL     1      -3.893 -10.235  20.055  1.00  0.00     0.084 C 
ATOM     15  H3  UNL     1      -5.345  -9.025  19.561  1.00  0.00     0.185 HD
BRANCH  14  16
HETATM   16  C9  UNL     1      -2.574 -10.824  19.774  1.00  0.00     0.025 A 
HETATM   17  C10 UNL     1      -1.967 -11.606  20.918  1.00  0.00     0.010 A 
HETATM   18  C11 UNL     1      -1.369 -10.303  20.476  1.00  0.00     0.010 A 
ENDBRANCH  14  16
ENDBRANCH  11  13
ENDBRANCH  10  11
ENDBRANCH   1  10
TORSDOF 8
ENDMDL
