MODEL 1
REMARK VINA RESULT: -5.128692886      0.000      0.000
REMARK  7 active torsions:
REMARK  status: ('A' for Active; 'I' for Inactive)
REMARK    1  A    between atoms: N1_2  and  C2_3 
REMARK    2  A    between atoms: N1_2  and  C8_14 
REMARK    3  A    between atoms: C2_3  and  C3_4 
REMARK    4  A    between atoms: C3_4  and  N2_5 
REMARK    5  A    between atoms: N2_5  and  C5_8 
REMARK    6  A    between atoms: C5_8  and  C6_9 
REMARK    7  A    between atoms: C8_14  and  C9_15 
ROOT
HETATM    1  N2  UNL     1      -2.121  -5.374  16.569  1.00  0.00     0.033 N 
HETATM    2  C4  UNL     1      -2.585  -6.441  17.402  1.00  0.00     0.362 C 
HETATM    3  O1  UNL     1      -0.765  -5.265  16.889  1.00  0.00    -0.061 OA
ENDROOT
BRANCH   1   4
HETATM    4  C3  UNL     1      -2.656  -4.080  16.999  1.00  0.00     0.347 C 
BRANCH   4   5
HETATM    5  C2  UNL     1      -3.460  -4.192  18.253  1.00  0.00     0.308 C 
BRANCH   5   6
HETATM    6  N1  UNL     1      -3.596  -2.886  18.866  1.00  0.00     0.086 N 
HETATM    7  C1  UNL     1      -2.390  -2.411  19.473  1.00  0.00     0.310 C 
BRANCH   6   8
HETATM    8  C8  UNL     1      -4.701  -2.902  19.809  1.00  0.00     0.276 C 
BRANCH   8   9
HETATM    9  C9  UNL     1      -4.267  -2.428  21.172  1.00  0.00     0.014 A 
HETATM   10  C10 UNL     1      -5.168  -1.578  21.983  1.00  0.00     0.007 A 
HETATM   11  C11 UNL     1      -5.030  -3.057  22.355  1.00  0.00     0.007 A 
ENDBRANCH   8   9
ENDBRANCH   6   8
ENDBRANCH   5   6
ENDBRANCH   4   5
ENDBRANCH   1   4
BRANCH   1  12
HETATM   12  C5  UNL     1      -2.186  -5.506  15.181  1.00  0.00     0.281 C 
BRANCH  12  13
HETATM   13  C6  UNL     1      -1.582  -4.546  14.255  1.00  0.00     0.266 A 
HETATM   14  C7  UNL     1      -0.686  -5.169  13.175  1.00  0.00     0.272 A 
HETATM   15  N3  UNL     1      -0.258  -4.144  14.066  1.00  0.00    -0.062 N 
ATOM     16  H32 UNL     1       0.154  -3.226  13.897  1.00  0.00     0.278 HD
ATOM     17  H31 UNL     1       0.533  -4.090  14.709  1.00  0.00     0.278 HD
ENDBRANCH  12  13
ENDBRANCH   1  12
TORSDOF 7
ENDMDL
MODEL 2
REMARK VINA RESULT: -5.038815688      1.765      6.711
REMARK  7 active torsions:
REMARK  status: ('A' for Active; 'I' for Inactive)
REMARK    1  A    between atoms: N1_2  and  C2_3 
REMARK    2  A    between atoms: N1_2  and  C8_14 
REMARK    3  A    between atoms: C2_3  and  C3_4 
REMARK    4  A    between atoms: C3_4  and  N2_5 
REMARK    5  A    between atoms: N2_5  and  C5_8 
REMARK    6  A    between atoms: C5_8  and  C6_9 
REMARK    7  A    between atoms: C8_14  and  C9_15 
ROOT
HETATM    1  N2  UNL     1      -3.971  -3.362  19.345  1.00  0.00     0.033 N 
HETATM    2  C4  UNL     1      -4.788  -2.513  18.533  1.00  0.00     0.362 C 
HETATM    3  O1  UNL     1      -2.749  -2.688  19.411  1.00  0.00    -0.061 OA
ENDROOT
BRANCH   1   4
HETATM    4  C3  UNL     1      -3.616  -4.600  18.647  1.00  0.00     0.347 C 
BRANCH   4   5
HETATM    5  C2  UNL     1      -2.916  -4.335  17.353  1.00  0.00     0.308 C 
BRANCH   5   6
HETATM    6  N1  UNL     1      -2.543  -5.590  16.733  1.00  0.00     0.086 N 
HETATM    7  C1  UNL     1      -2.843  -6.736  17.534  1.00  0.00     0.310 C 
BRANCH   6   8
HETATM    8  C8  UNL     1      -1.140  -5.551  16.357  1.00  0.00     0.276 C 
BRANCH   8   9
HETATM    9  C9  UNL     1      -0.932  -6.066  14.957  1.00  0.00     0.014 A 
HETATM   10  C10 UNL     1      -1.933  -5.778  13.904  1.00  0.00     0.007 A 
HETATM   11  C11 UNL     1      -0.623  -4.984  13.902  1.00  0.00     0.007 A 
ENDBRANCH   8   9
ENDBRANCH   6   8
ENDBRANCH   5   6
ENDBRANCH   4   5
ENDBRANCH   1   4
BRANCH   1  12
HETATM   12  C5  UNL     1      -4.347  -3.622  20.665  1.00  0.00     0.281 C 
BRANCH  12  13
HETATM   13  C6  UNL     1      -4.005  -2.741  21.783  1.00  0.00     0.266 A 
HETATM   14  C7  UNL     1      -5.138  -1.809  22.237  1.00  0.00     0.272 A 
HETATM   15  N3  UNL     1      -3.841  -1.357  21.860  1.00  0.00    -0.062 N 
ATOM     16  H32 UNL     1      -3.155  -0.781  22.348  1.00  0.00     0.278 HD
ATOM     17  H31 UNL     1      -3.537  -0.671  21.169  1.00  0.00     0.278 HD
ENDBRANCH  12  13
ENDBRANCH   1  12
TORSDOF 7
ENDMDL
MODEL 3
REMARK VINA RESULT: -4.908620934      1.994      6.819
REMARK  7 active torsions:
REMARK  status: ('A' for Active; 'I' for Inactive)
REMARK    1  A    between atoms: N1_2  and  C2_3 
REMARK    2  A    between atoms: N1_2  and  C8_14 
REMARK    3  A    between atoms: C2_3  and  C3_4 
REMARK    4  A    between atoms: C3_4  and  N2_5 
REMARK    5  A    between atoms: N2_5  and  C5_8 
REMARK    6  A    between atoms: C5_8  and  C6_9 
REMARK    7  A    between atoms: C8_14  and  C9_15 
ROOT
HETATM    1  N2  UNL     1      -4.324  -3.472  19.482  1.00  0.00     0.033 N 
HETATM    2  C4  UNL     1      -5.184  -4.591  19.712  1.00  0.00     0.362 C 
HETATM    3  O1  UNL     1      -5.009  -2.712  18.530  1.00  0.00    -0.061 OA
ENDROOT
BRANCH   1   4
HETATM    4  C3  UNL     1      -3.107  -3.862  18.765  1.00  0.00     0.347 C 
BRANCH   4   5
HETATM    5  C2  UNL     1      -3.302  -3.858  17.283  1.00  0.00     0.308 C 
BRANCH   5   6
HETATM    6  N1  UNL     1      -2.748  -5.069  16.713  1.00  0.00     0.086 N 
HETATM    7  C1  UNL     1      -2.899  -6.218  17.552  1.00  0.00     0.310 C 
BRANCH   6   8
HETATM    8  C8  UNL     1      -1.358  -4.847  16.353  1.00  0.00     0.276 C 
BRANCH   8   9
HETATM    9  C9  UNL     1      -0.945  -5.718  15.195  1.00  0.00     0.014 A 
HETATM   10  C10 UNL     1      -1.839  -5.868  14.024  1.00  0.00     0.007 A 
HETATM   11  C11 UNL     1      -0.613  -4.960  13.894  1.00  0.00     0.007 A 
ENDBRANCH   8   9
ENDBRANCH   6   8
ENDBRANCH   5   6
ENDBRANCH   4   5
ENDBRANCH   1   4
BRANCH   1  12
HETATM   12  C5  UNL     1      -4.027  -2.603  20.534  1.00  0.00     0.281 C 
BRANCH  12  13
HETATM   13  C6  UNL     1      -4.643  -2.709  21.859  1.00  0.00     0.266 A 
HETATM   14  C7  UNL     1      -5.483  -1.493  22.276  1.00  0.00     0.272 A 
HETATM   15  N3  UNL     1      -4.409  -2.020  23.050  1.00  0.00    -0.062 N 
ATOM     16  H32 UNL     1      -4.363  -2.336  24.018  1.00  0.00     0.278 HD
ATOM     17  H31 UNL     1      -3.568  -1.583  23.428  1.00  0.00     0.278 HD
ENDBRANCH  12  13
ENDBRANCH   1  12
TORSDOF 7
ENDMDL
MODEL 4
REMARK VINA RESULT: -4.703781160      1.539      2.085
REMARK  7 active torsions:
REMARK  status: ('A' for Active; 'I' for Inactive)
REMARK    1  A    between atoms: N1_2  and  C2_3 
REMARK    2  A    between atoms: N1_2  and  C8_14 
REMARK    3  A    between atoms: C2_3  and  C3_4 
REMARK    4  A    between atoms: C3_4  and  N2_5 
REMARK    5  A    between atoms: N2_5  and  C5_8 
REMARK    6  A    between atoms: C5_8  and  C6_9 
REMARK    7  A    between atoms: C8_14  and  C9_15 
ROOT
HETATM    1  N2  UNL     1      -2.532  -4.171  17.096  1.00  0.00     0.033 N 
HETATM    2  C4  UNL     1      -1.811  -3.067  17.652  1.00  0.00     0.362 C 
HETATM    3  O1  UNL     1      -3.519  -3.566  16.313  1.00  0.00    -0.061 OA
ENDROOT
BRANCH   1   4
HETATM    4  C3  UNL     1      -3.318  -4.872  18.115  1.00  0.00     0.347 C 
BRANCH   4   5
HETATM    5  C2  UNL     1      -4.032  -3.926  19.025  1.00  0.00     0.308 C 
BRANCH   5   6
HETATM    6  N1  UNL     1      -4.396  -4.606  20.251  1.00  0.00     0.086 N 
HETATM    7  C1  UNL     1      -5.705  -5.182  20.219  1.00  0.00     0.310 C 
BRANCH   6   8
HETATM    8  C8  UNL     1      -4.235  -3.702  21.377  1.00  0.00     0.276 C 
BRANCH   8   9
HETATM    9  C9  UNL     1      -4.804  -2.340  21.074  1.00  0.00     0.014 A 
HETATM   10  C10 UNL     1      -5.333  -1.497  22.171  1.00  0.00     0.007 A 
HETATM   11  C11 UNL     1      -3.961  -1.153  21.581  1.00  0.00     0.007 A 
ENDBRANCH   8   9
ENDBRANCH   6   8
ENDBRANCH   5   6
ENDBRANCH   4   5
ENDBRANCH   1   4
BRANCH   1  12
HETATM   12  C5  UNL     1      -1.872  -5.076  16.263  1.00  0.00     0.281 C 
BRANCH  12  13
HETATM   13  C6  UNL     1      -1.660  -4.842  14.833  1.00  0.00     0.266 A 
HETATM   14  C7  UNL     1      -0.599  -5.741  14.184  1.00  0.00     0.272 A 
HETATM   15  N3  UNL     1      -0.575  -4.319  14.128  1.00  0.00    -0.062 N 
ATOM     16  H32 UNL     1      -0.527  -3.672  13.341  1.00  0.00     0.278 HD
ATOM     17  H31 UNL     1       0.141  -3.641  14.390  1.00  0.00     0.278 HD
ENDBRANCH  12  13
ENDBRANCH   1  12
TORSDOF 7
ENDMDL
MODEL 5
REMARK VINA RESULT: -4.619854673      2.047      6.201
REMARK  7 active torsions:
REMARK  status: ('A' for Active; 'I' for Inactive)
REMARK    1  A    between atoms: N1_2  and  C2_3 
REMARK    2  A    between atoms: N1_2  and  C8_14 
REMARK    3  A    between atoms: C2_3  and  C3_4 
REMARK    4  A    between atoms: C3_4  and  N2_5 
REMARK    5  A    between atoms: N2_5  and  C5_8 
REMARK    6  A    between atoms: C5_8  and  C6_9 
REMARK    7  A    between atoms: C8_14  and  C9_15 
ROOT
HETATM    1  N2  UNL     1      -3.816  -3.229  19.235  1.00  0.00     0.033 N 
HETATM    2  C4  UNL     1      -4.442  -4.507  19.377  1.00  0.00     0.362 C 
HETATM    3  O1  UNL     1      -4.829  -2.415  18.720  1.00  0.00    -0.061 OA
ENDROOT
BRANCH   1   4
HETATM    4  C3  UNL     1      -2.826  -3.229  18.155  1.00  0.00     0.347 C 
BRANCH   4   5
HETATM    5  C2  UNL     1      -3.232  -4.110  17.019  1.00  0.00     0.308 C 
BRANCH   5   6
HETATM    6  N1  UNL     1      -2.056  -4.705  16.417  1.00  0.00     0.086 N 
HETATM    7  C1  UNL     1      -1.739  -4.168  15.129  1.00  0.00     0.310 C 
BRANCH   6   8
HETATM    8  C8  UNL     1      -2.207  -6.149  16.372  1.00  0.00     0.276 C 
BRANCH   8   9
HETATM    9  C9  UNL     1      -2.110  -6.754  17.749  1.00  0.00     0.014 A 
HETATM   10  C10 UNL     1      -2.981  -7.892  18.122  1.00  0.00     0.007 A 
HETATM   11  C11 UNL     1      -1.511  -8.174  17.797  1.00  0.00     0.007 A 
ENDBRANCH   8   9
ENDBRANCH   6   8
ENDBRANCH   5   6
ENDBRANCH   4   5
ENDBRANCH   1   4
BRANCH   1  12
HETATM   12  C5  UNL     1      -3.324  -2.573  20.365  1.00  0.00     0.281 C 
BRANCH  12  13
HETATM   13  C6  UNL     1      -3.650  -2.980  21.733  1.00  0.00     0.266 A 
HETATM   14  C7  UNL     1      -4.771  -2.167  22.397  1.00  0.00     0.272 A 
HETATM   15  N3  UNL     1      -3.474  -2.339  22.961  1.00  0.00    -0.062 N 
ATOM     16  H32 UNL     1      -3.171  -2.687  23.870  1.00  0.00     0.278 HD
ATOM     17  H31 UNL     1      -2.778  -1.664  23.280  1.00  0.00     0.278 HD
ENDBRANCH  12  13
ENDBRANCH   1  12
TORSDOF 7
ENDMDL
