MODEL 1
REMARK VINA RESULT: -5.937834220      0.000      0.000
REMARK  8 active torsions:
REMARK  status: ('A' for Active; 'I' for Inactive)
REMARK    1  A    between atoms: N1_2  and  C2_3 
REMARK    2  A    between atoms: N1_2  and  C3_7 
REMARK    3  A    between atoms: C3_7  and  S1_8 
REMARK    4  A    between atoms: S1_8  and  C4_9 
REMARK    5  A    between atoms: S1_8  and  C5_13 
REMARK    6  A    between atoms: C4_9  and  N3_10 
REMARK    7  A    between atoms: C5_13  and  C6_14 
REMARK    8  A    between atoms: C6_14  and  N4_15 
ROOT
HETATM    1  S1  UNL     1      -3.390  -3.284  18.374  1.00  0.00    -0.162 SA
ENDROOT
BRANCH   1   2
HETATM    2  C3  UNL     1      -2.968  -4.815  17.640  1.00  0.00     0.192 C 
BRANCH   2   3
HETATM    3  N1  UNL     1      -2.146  -4.600  16.507  1.00  0.00    -0.373 N 
HETATM    4  C1  UNL     1      -1.470  -5.714  15.952  1.00  0.00     0.151 C 
BRANCH   3   5
HETATM    5  C2  UNL     1      -2.561  -3.619  15.612  1.00  0.00     0.171 C 
HETATM    6  N2  UNL     1      -1.688  -2.727  15.248  1.00  0.00    -0.395 N 
ATOM      7  H22 UNL     1      -0.737  -2.759  15.616  1.00  0.00     0.156 HD
ATOM      8  H21 UNL     1      -1.992  -2.007  14.592  1.00  0.00     0.156 HD
ENDBRANCH   3   5
ENDBRANCH   2   3
ENDBRANCH   1   2
BRANCH   1   9
HETATM    9  C4  UNL     1      -2.133  -2.449  19.181  1.00  0.00     0.117 C 
BRANCH   9  10
HETATM   10  N3  UNL     1      -0.912  -2.618  18.756  1.00  0.00    -0.403 N 
ATOM     11  H32 UNL     1      -0.233  -3.106  19.338  1.00  0.00     0.155 HD
ATOM     12  H31 UNL     1      -0.669  -2.249  17.837  1.00  0.00     0.155 HD
ENDBRANCH   9  10
ENDBRANCH   1   9
BRANCH   1  13
HETATM   13  C5  UNL     1      -4.937  -3.269  19.185  1.00  0.00     0.092 C 
BRANCH  13  14
HETATM   14  C6  UNL     1      -4.985  -4.148  20.417  1.00  0.00     0.161 C 
BRANCH  14  15
HETATM   15  N4  UNL     1      -4.560  -3.328  21.535  1.00  0.00    -0.272 N 
HETATM   16  C7  UNL     1      -4.729  -2.031  21.922  1.00  0.00     0.219 A 
HETATM   17  N5  UNL     1      -3.998  -2.250  23.011  1.00  0.00    -0.280 N 
HETATM   18  N6  UNL     1      -3.839  -3.500  22.631  1.00  0.00    -0.239 N 
ATOM     19  H5  UNL     1      -3.690  -1.687  23.806  1.00  0.00     0.189 HD
ATOM     20  H6  UNL     1      -3.346  -4.299  23.030  1.00  0.00     0.208 HD
ENDBRANCH  14  15
ENDBRANCH  13  14
ENDBRANCH   1  13
TORSDOF 8
ENDMDL
MODEL 2
REMARK VINA RESULT: -5.839953137      1.165      5.957
REMARK  8 active torsions:
REMARK  status: ('A' for Active; 'I' for Inactive)
REMARK    1  A    between atoms: N1_2  and  C2_3 
REMARK    2  A    between atoms: N1_2  and  C3_7 
REMARK    3  A    between atoms: C3_7  and  S1_8 
REMARK    4  A    between atoms: S1_8  and  C4_9 
REMARK    5  A    between atoms: S1_8  and  C5_13 
REMARK    6  A    between atoms: C4_9  and  N3_10 
REMARK    7  A    between atoms: C5_13  and  C6_14 
REMARK    8  A    between atoms: C6_14  and  N4_15 
ROOT
HETATM    1  S1  UNL     1      -3.224  -3.362  18.578  1.00  0.00    -0.162 SA
ENDROOT
BRANCH   1   2
HETATM    2  C3  UNL     1      -4.783  -2.794  19.133  1.00  0.00     0.192 C 
BRANCH   2   3
HETATM    3  N1  UNL     1      -5.139  -3.450  20.336  1.00  0.00    -0.373 N 
HETATM    4  C1  UNL     1      -5.250  -4.862  20.319  1.00  0.00     0.151 C 
BRANCH   3   5
HETATM    5  C2  UNL     1      -4.676  -2.880  21.519  1.00  0.00     0.171 C 
HETATM    6  N2  UNL     1      -4.032  -3.649  22.346  1.00  0.00    -0.395 N 
ATOM      7  H22 UNL     1      -3.881  -4.632  22.122  1.00  0.00     0.156 HD
ATOM      8  H21 UNL     1      -3.693  -3.231  23.213  1.00  0.00     0.156 HD
ENDBRANCH   3   5
ENDBRANCH   2   3
ENDBRANCH   1   2
BRANCH   1   9
HETATM    9  C4  UNL     1      -1.849  -2.567  19.213  1.00  0.00     0.117 C 
BRANCH   9  10
HETATM   10  N3  UNL     1      -0.761  -2.553  18.495  1.00  0.00    -0.403 N 
ATOM     11  H32 UNL     1      -0.736  -3.038  17.599  1.00  0.00     0.155 HD
ATOM     12  H31 UNL     1       0.047  -2.046  18.856  1.00  0.00     0.155 HD
ENDBRANCH   9  10
ENDBRANCH   1   9
BRANCH   1  13
HETATM   13  C5  UNL     1      -3.151  -3.732  16.872  1.00  0.00     0.092 C 
BRANCH  13  14
HETATM   14  C6  UNL     1      -2.442  -5.035  16.564  1.00  0.00     0.161 C 
BRANCH  14  15
HETATM   15  N4  UNL     1      -1.605  -4.793  15.404  1.00  0.00    -0.272 N 
HETATM   16  C7  UNL     1      -0.894  -5.559  14.528  1.00  0.00     0.219 A 
HETATM   17  N5  UNL     1      -0.501  -4.469  13.877  1.00  0.00    -0.280 N 
HETATM   18  N6  UNL     1      -1.189  -3.735  14.727  1.00  0.00    -0.239 N 
ATOM     19  H5  UNL     1       0.085  -4.280  13.063  1.00  0.00     0.189 HD
ATOM     20  H6  UNL     1      -1.342  -2.732  14.826  1.00  0.00     0.208 HD
ENDBRANCH  14  15
ENDBRANCH  13  14
ENDBRANCH   1  13
TORSDOF 8
ENDMDL
MODEL 3
REMARK VINA RESULT: -5.709921732      0.753      1.407
REMARK  8 active torsions:
REMARK  status: ('A' for Active; 'I' for Inactive)
REMARK    1  A    between atoms: N1_2  and  C2_3 
REMARK    2  A    between atoms: N1_2  and  C3_7 
REMARK    3  A    between atoms: C3_7  and  S1_8 
REMARK    4  A    between atoms: S1_8  and  C4_9 
REMARK    5  A    between atoms: S1_8  and  C5_13 
REMARK    6  A    between atoms: C4_9  and  N3_10 
REMARK    7  A    between atoms: C5_13  and  C6_14 
REMARK    8  A    between atoms: C6_14  and  N4_15 
ROOT
HETATM    1  S1  UNL     1      -3.374  -3.387  18.410  1.00  0.00    -0.162 SA
ENDROOT
BRANCH   1   2
HETATM    2  C3  UNL     1      -3.008  -4.995  17.827  1.00  0.00     0.192 C 
BRANCH   2   3
HETATM    3  N1  UNL     1      -2.550  -4.934  16.488  1.00  0.00    -0.373 N 
HETATM    4  C1  UNL     1      -2.704  -3.714  15.785  1.00  0.00     0.151 C 
BRANCH   3   5
HETATM    5  C2  UNL     1      -1.422  -5.688  16.179  1.00  0.00     0.171 C 
HETATM    6  N2  UNL     1      -1.567  -6.674  15.344  1.00  0.00    -0.395 N 
ATOM      7  H22 UNL     1      -2.481  -6.875  14.939  1.00  0.00     0.156 HD
ATOM      8  H21 UNL     1      -0.740  -7.227  15.117  1.00  0.00     0.156 HD
ENDBRANCH   3   5
ENDBRANCH   2   3
ENDBRANCH   1   2
BRANCH   1   9
HETATM    9  C4  UNL     1      -2.089  -2.527  19.142  1.00  0.00     0.117 C 
BRANCH   9  10
HETATM   10  N3  UNL     1      -0.901  -2.634  18.616  1.00  0.00    -0.403 N 
ATOM     11  H32 UNL     1      -0.111  -2.918  19.195  1.00  0.00     0.155 HD
ATOM     12  H31 UNL     1      -0.795  -2.427  17.624  1.00  0.00     0.155 HD
ENDBRANCH   9  10
ENDBRANCH   1   9
BRANCH   1  13
HETATM   13  C5  UNL     1      -4.921  -3.238  19.206  1.00  0.00     0.092 C 
BRANCH  13  14
HETATM   14  C6  UNL     1      -5.053  -4.102  20.444  1.00  0.00     0.161 C 
BRANCH  14  15
HETATM   15  N4  UNL     1      -4.455  -3.361  21.538  1.00  0.00    -0.272 N 
HETATM   16  C7  UNL     1      -4.457  -2.066  21.966  1.00  0.00     0.219 A 
HETATM   17  N5  UNL     1      -3.664  -2.389  22.983  1.00  0.00    -0.280 N 
HETATM   18  N6  UNL     1      -3.665  -3.637  22.563  1.00  0.00    -0.239 N 
ATOM     19  H5  UNL     1      -3.235  -1.884  23.759  1.00  0.00     0.189 HD
ATOM     20  H6  UNL     1      -3.225  -4.493  22.901  1.00  0.00     0.208 HD
ENDBRANCH  14  15
ENDBRANCH  13  14
ENDBRANCH   1  13
TORSDOF 8
ENDMDL
MODEL 4
REMARK VINA RESULT: -5.589616931      1.136      6.117
REMARK  8 active torsions:
REMARK  status: ('A' for Active; 'I' for Inactive)
REMARK    1  A    between atoms: N1_2  and  C2_3 
REMARK    2  A    between atoms: N1_2  and  C3_7 
REMARK    3  A    between atoms: C3_7  and  S1_8 
REMARK    4  A    between atoms: S1_8  and  C4_9 
REMARK    5  A    between atoms: S1_8  and  C5_13 
REMARK    6  A    between atoms: C4_9  and  N3_10 
REMARK    7  A    between atoms: C5_13  and  C6_14 
REMARK    8  A    between atoms: C6_14  and  N4_15 
ROOT
HETATM    1  S1  UNL     1      -3.174  -3.421  18.672  1.00  0.00    -0.162 SA
ENDROOT
BRANCH   1   2
HETATM    2  C3  UNL     1      -4.708  -2.885  19.320  1.00  0.00     0.192 C 
BRANCH   2   3
HETATM    3  N1  UNL     1      -4.596  -2.665  20.714  1.00  0.00    -0.373 N 
HETATM    4  C1  UNL     1      -5.131  -1.466  21.245  1.00  0.00     0.151 C 
BRANCH   3   5
HETATM    5  C2  UNL     1      -4.666  -3.789  21.531  1.00  0.00     0.171 C 
HETATM    6  N2  UNL     1      -3.950  -3.791  22.616  1.00  0.00    -0.395 N 
ATOM      7  H22 UNL     1      -3.363  -2.990  22.845  1.00  0.00     0.156 HD
ATOM      8  H21 UNL     1      -4.001  -4.616  23.215  1.00  0.00     0.156 HD
ENDBRANCH   3   5
ENDBRANCH   2   3
ENDBRANCH   1   2
BRANCH   1   9
HETATM    9  C4  UNL     1      -1.780  -2.597  19.224  1.00  0.00     0.117 C 
BRANCH   9  10
HETATM   10  N3  UNL     1      -0.701  -2.658  18.494  1.00  0.00    -0.403 N 
ATOM     11  H32 UNL     1      -0.606  -3.385  17.786  1.00  0.00     0.155 HD
ATOM     12  H31 UNL     1       0.028  -1.964  18.656  1.00  0.00     0.155 HD
ENDBRANCH   9  10
ENDBRANCH   1   9
BRANCH   1  13
HETATM   13  C5  UNL     1      -3.196  -3.791  16.965  1.00  0.00     0.092 C 
BRANCH  13  14
HETATM   14  C6  UNL     1      -2.447  -5.059  16.609  1.00  0.00     0.161 C 
BRANCH  14  15
HETATM   15  N4  UNL     1      -1.661  -4.764  15.426  1.00  0.00    -0.272 N 
HETATM   16  C7  UNL     1      -0.955  -5.488  14.510  1.00  0.00     0.219 A 
HETATM   17  N5  UNL     1      -0.626  -4.371  13.866  1.00  0.00    -0.280 N 
HETATM   18  N6  UNL     1      -1.310  -3.680  14.754  1.00  0.00    -0.239 N 
ATOM     19  H5  UNL     1      -0.077  -4.146  13.036  1.00  0.00     0.189 HD
ATOM     20  H6  UNL     1      -1.497  -2.685  14.878  1.00  0.00     0.208 HD
ENDBRANCH  14  15
ENDBRANCH  13  14
ENDBRANCH   1  13
TORSDOF 8
ENDMDL
MODEL 5
REMARK VINA RESULT: -5.438612812      1.532      6.062
REMARK  8 active torsions:
REMARK  status: ('A' for Active; 'I' for Inactive)
REMARK    1  A    between atoms: N1_2  and  C2_3 
REMARK    2  A    between atoms: N1_2  and  C3_7 
REMARK    3  A    between atoms: C3_7  and  S1_8 
REMARK    4  A    between atoms: S1_8  and  C4_9 
REMARK    5  A    between atoms: S1_8  and  C5_13 
REMARK    6  A    between atoms: C4_9  and  N3_10 
REMARK    7  A    between atoms: C5_13  and  C6_14 
REMARK    8  A    between atoms: C6_14  and  N4_15 
ROOT
HETATM    1  S1  UNL     1      -3.155  -3.536  18.653  1.00  0.00    -0.162 SA
ENDROOT
BRANCH   1   2
HETATM    2  C3  UNL     1      -4.746  -3.283  19.335  1.00  0.00     0.192 C 
BRANCH   2   3
HETATM    3  N1  UNL     1      -4.951  -4.159  20.429  1.00  0.00    -0.373 N 
HETATM    4  C1  UNL     1      -4.992  -3.603  21.731  1.00  0.00     0.151 C 
BRANCH   3   5
HETATM    5  C2  UNL     1      -5.769  -5.262  20.201  1.00  0.00     0.171 C 
HETATM    6  N2  UNL     1      -6.264  -5.869  21.238  1.00  0.00    -0.395 N 
ATOM      7  H22 UNL     1      -6.052  -5.536  22.178  1.00  0.00     0.156 HD
ATOM      8  H21 UNL     1      -6.864  -6.678  21.071  1.00  0.00     0.156 HD
ENDBRANCH   3   5
ENDBRANCH   2   3
ENDBRANCH   1   2
BRANCH   1   9
HETATM    9  C4  UNL     1      -1.909  -2.506  19.213  1.00  0.00     0.117 C 
BRANCH   9  10
HETATM   10  N3  UNL     1      -0.765  -2.532  18.590  1.00  0.00    -0.403 N 
ATOM     11  H32 UNL     1      -0.431  -3.401  18.174  1.00  0.00     0.155 HD
ATOM     12  H31 UNL     1      -0.227  -1.667  18.536  1.00  0.00     0.155 HD
ENDBRANCH   9  10
ENDBRANCH   1   9
BRANCH   1  13
HETATM   13  C5  UNL     1      -3.144  -3.858  16.936  1.00  0.00     0.092 C 
BRANCH  13  14
HETATM   14  C6  UNL     1      -2.404  -5.125  16.561  1.00  0.00     0.161 C 
BRANCH  14  15
HETATM   15  N4  UNL     1      -1.597  -4.810  15.397  1.00  0.00    -0.272 N 
HETATM   16  C7  UNL     1      -0.888  -5.519  14.472  1.00  0.00     0.219 A 
HETATM   17  N5  UNL     1      -0.534  -4.391  13.864  1.00  0.00    -0.280 N 
HETATM   18  N6  UNL     1      -1.219  -3.714  14.760  1.00  0.00    -0.239 N 
ATOM     19  H5  UNL     1       0.030  -4.152  13.047  1.00  0.00     0.189 HD
ATOM     20  H6  UNL     1      -1.393  -2.720  14.908  1.00  0.00     0.208 HD
ENDBRANCH  14  15
ENDBRANCH  13  14
ENDBRANCH   1  13
TORSDOF 8
ENDMDL
