MODEL 1
REMARK VINA RESULT: -5.786646866      0.000      0.000
REMARK  7 active torsions:
REMARK  status: ('A' for Active; 'I' for Inactive)
REMARK    1  A    between atoms: N1_2  and  N2_4 
REMARK    2  A    between atoms: C2_6  and  C3_7 
REMARK    3  A    between atoms: C3_7  and  C4_8 
REMARK    4  A    between atoms: C4_8  and  N3_9 
REMARK    5  A    between atoms: N3_9  and  C5_10 
REMARK    6  A    between atoms: N3_9  and  C6_14 
REMARK    7  A    between atoms: C6_14  and  N5_15 
ROOT
HETATM    1  N3  UNL     1      -3.272  -3.037  18.720  1.00  0.00    -0.360 N 
ENDROOT
BRANCH   1   2
HETATM    2  C4  UNL     1      -3.082  -4.101  17.761  1.00  0.00     0.130 C 
BRANCH   2   3
HETATM    3  C3  UNL     1      -3.172  -3.560  16.352  1.00  0.00     0.066 C 
BRANCH   3   4
HETATM    4  C2  UNL     1      -2.206  -4.276  15.480  1.00  0.00     0.081 C 
HETATM    5  N2  UNL     1      -1.291  -3.644  14.833  1.00  0.00    -0.320 N 
ATOM      6  H2  UNL     1      -1.256  -2.630  14.942  1.00  0.00     0.185 HD
BRANCH   5   7
HETATM    7  N1  UNL     1      -0.353  -4.227  14.000  1.00  0.00    -0.341 N 
HETATM    8  C1  UNL     1      -0.099  -5.645  13.947  1.00  0.00     0.167 C 
ATOM      9  H1  UNL     1       0.191  -3.618  13.388  1.00  0.00     0.179 HD
ENDBRANCH   5   7
ENDBRANCH   3   4
ENDBRANCH   2   3
ENDBRANCH   1   2
BRANCH   1  10
HETATM   10  C5  UNL     1      -2.105  -2.370  19.194  1.00  0.00     0.172 C 
HETATM   11  N4  UNL     1      -0.920  -2.668  18.744  1.00  0.00    -0.395 N 
ATOM     12  H42 UNL     1      -0.842  -3.398  18.035  1.00  0.00     0.156 HD
ATOM     13  H41 UNL     1      -0.085  -2.190  19.083  1.00  0.00     0.156 HD
ENDBRANCH   1  10
BRANCH   1  14
HETATM   14  C6  UNL     1      -4.619  -2.728  19.119  1.00  0.00     0.255 C 
BRANCH  14  15
HETATM   15  N5  UNL     1      -4.827  -2.822  20.556  1.00  0.00    -0.335 N 
HETATM   16  C7  UNL     1      -5.032  -1.779  21.381  1.00  0.00     0.110 A 
HETATM   17  C8  UNL     1      -5.191  -2.245  22.679  1.00  0.00     0.106 A 
HETATM   18  N6  UNL     1      -5.077  -3.585  22.614  1.00  0.00    -0.361 N 
HETATM   19  C9  UNL     1      -4.856  -3.913  21.317  1.00  0.00     0.183 A 
ATOM     20  H6  UNL     1      -5.145  -4.234  23.398  1.00  0.00     0.166 HD
ENDBRANCH  14  15
ENDBRANCH   1  14
TORSDOF 7
ENDMDL
MODEL 2
REMARK VINA RESULT: -5.620575208      2.540      2.656
REMARK  7 active torsions:
REMARK  status: ('A' for Active; 'I' for Inactive)
REMARK    1  A    between atoms: N1_2  and  N2_4 
REMARK    2  A    between atoms: C2_6  and  C3_7 
REMARK    3  A    between atoms: C3_7  and  C4_8 
REMARK    4  A    between atoms: C4_8  and  N3_9 
REMARK    5  A    between atoms: N3_9  and  C5_10 
REMARK    6  A    between atoms: N3_9  and  C6_14 
REMARK    7  A    between atoms: C6_14  and  N5_15 
ROOT
HETATM    1  N3  UNL     1      -3.104  -3.467  18.115  1.00  0.00    -0.360 N 
ENDROOT
BRANCH   1   2
HETATM    2  C4  UNL     1      -3.146  -4.853  17.707  1.00  0.00     0.130 C 
BRANCH   2   3
HETATM    3  C3  UNL     1      -2.322  -5.057  16.455  1.00  0.00     0.066 C 
BRANCH   3   4
HETATM    4  C2  UNL     1      -1.655  -6.382  16.507  1.00  0.00     0.081 C 
HETATM    5  N2  UNL     1      -1.908  -7.223  17.448  1.00  0.00    -0.320 N 
ATOM      6  H2  UNL     1      -2.586  -6.943  18.156  1.00  0.00     0.185 HD
BRANCH   5   7
HETATM    7  N1  UNL     1      -1.335  -8.476  17.575  1.00  0.00    -0.341 N 
HETATM    8  C1  UNL     1      -1.105  -9.128  18.841  1.00  0.00     0.167 C 
ATOM      9  H1  UNL     1      -1.060  -8.967  16.725  1.00  0.00     0.179 HD
ENDBRANCH   5   7
ENDBRANCH   3   4
ENDBRANCH   2   3
ENDBRANCH   1   2
BRANCH   1  10
HETATM   10  C5  UNL     1      -1.892  -2.755  17.881  1.00  0.00     0.172 C 
HETATM   11  N4  UNL     1      -0.972  -2.658  18.797  1.00  0.00    -0.395 N 
ATOM     12  H42 UNL     1      -1.138  -3.107  19.697  1.00  0.00     0.156 HD
ATOM     13  H41 UNL     1      -0.105  -2.148  18.629  1.00  0.00     0.156 HD
ENDBRANCH   1  10
BRANCH   1  14
HETATM   14  C6  UNL     1      -4.285  -2.912  18.720  1.00  0.00     0.255 C 
BRANCH  14  15
HETATM   15  N5  UNL     1      -4.296  -3.030  20.170  1.00  0.00    -0.335 N 
HETATM   16  C7  UNL     1      -3.730  -2.157  21.024  1.00  0.00     0.110 A 
HETATM   17  C8  UNL     1      -3.940  -2.590  22.327  1.00  0.00     0.106 A 
HETATM   18  N6  UNL     1      -4.640  -3.737  22.235  1.00  0.00    -0.361 N 
HETATM   19  C9  UNL     1      -4.844  -3.984  20.917  1.00  0.00     0.183 A 
ATOM     20  H6  UNL     1      -4.958  -4.313  23.014  1.00  0.00     0.166 HD
ENDBRANCH  14  15
ENDBRANCH   1  14
TORSDOF 7
ENDMDL
MODEL 3
REMARK VINA RESULT: -5.565748032      3.058      4.014
REMARK  7 active torsions:
REMARK  status: ('A' for Active; 'I' for Inactive)
REMARK    1  A    between atoms: N1_2  and  N2_4 
REMARK    2  A    between atoms: C2_6  and  C3_7 
REMARK    3  A    between atoms: C3_7  and  C4_8 
REMARK    4  A    between atoms: C4_8  and  N3_9 
REMARK    5  A    between atoms: N3_9  and  C5_10 
REMARK    6  A    between atoms: N3_9  and  C6_14 
REMARK    7  A    between atoms: C6_14  and  N5_15 
ROOT
HETATM    1  N3  UNL     1      -2.849  -4.154  16.731  1.00  0.00    -0.360 N 
ENDROOT
BRANCH   1   2
HETATM    2  C4  UNL     1      -2.785  -5.525  17.186  1.00  0.00     0.130 C 
BRANCH   2   3
HETATM    3  C3  UNL     1      -1.690  -6.270  16.455  1.00  0.00     0.066 C 
BRANCH   3   4
HETATM    4  C2  UNL     1      -1.363  -7.519  17.187  1.00  0.00     0.081 C 
HETATM    5  N2  UNL     1      -2.100  -7.942  18.154  1.00  0.00    -0.320 N 
ATOM      6  H2  UNL     1      -2.919  -7.384  18.397  1.00  0.00     0.185 HD
BRANCH   5   7
HETATM    7  N1  UNL     1      -1.872  -9.091  18.890  1.00  0.00    -0.341 N 
HETATM    8  C1  UNL     1      -2.916  -9.864  19.515  1.00  0.00     0.167 C 
ATOM      9  H1  UNL     1      -0.908  -9.410  18.996  1.00  0.00     0.179 HD
ENDBRANCH   5   7
ENDBRANCH   3   4
ENDBRANCH   2   3
ENDBRANCH   1   2
BRANCH   1  10
HETATM   10  C5  UNL     1      -2.076  -3.811  15.584  1.00  0.00     0.172 C 
HETATM   11  N4  UNL     1      -1.692  -2.587  15.363  1.00  0.00    -0.395 N 
ATOM     12  H42 UNL     1      -1.957  -1.868  16.036  1.00  0.00     0.156 HD
ATOM     13  H41 UNL     1      -1.139  -2.342  14.542  1.00  0.00     0.156 HD
ENDBRANCH   1  10
BRANCH   1  14
HETATM   14  C6  UNL     1      -3.686  -3.243  17.465  1.00  0.00     0.255 C 
BRANCH  14  15
HETATM   15  N5  UNL     1      -3.324  -3.136  18.869  1.00  0.00    -0.335 N 
HETATM   16  C7  UNL     1      -4.107  -3.495  19.903  1.00  0.00     0.110 A 
HETATM   17  C8  UNL     1      -3.435  -3.253  21.094  1.00  0.00     0.106 A 
HETATM   18  N6  UNL     1      -2.237  -2.742  20.752  1.00  0.00    -0.361 N 
HETATM   19  C9  UNL     1      -2.191  -2.680  19.398  1.00  0.00     0.183 A 
ATOM     20  H6  UNL     1      -1.498  -2.455  21.395  1.00  0.00     0.166 HD
ENDBRANCH  14  15
ENDBRANCH   1  14
TORSDOF 7
ENDMDL
MODEL 4
REMARK VINA RESULT: -5.487303585      2.118      6.403
REMARK  7 active torsions:
REMARK  status: ('A' for Active; 'I' for Inactive)
REMARK    1  A    between atoms: N1_2  and  N2_4 
REMARK    2  A    between atoms: C2_6  and  C3_7 
REMARK    3  A    between atoms: C3_7  and  C4_8 
REMARK    4  A    between atoms: C4_8  and  N3_9 
REMARK    5  A    between atoms: N3_9  and  C5_10 
REMARK    6  A    between atoms: N3_9  and  C6_14 
REMARK    7  A    between atoms: C6_14  and  N5_15 
ROOT
HETATM    1  N3  UNL     1      -3.070  -3.546  18.085  1.00  0.00    -0.360 N 
ENDROOT
BRANCH   1   2
HETATM    2  C4  UNL     1      -3.945  -4.392  18.864  1.00  0.00     0.130 C 
BRANCH   2   3
HETATM    3  C3  UNL     1      -4.645  -3.581  19.933  1.00  0.00     0.066 C 
BRANCH   3   4
HETATM    4  C2  UNL     1      -5.434  -4.485  20.807  1.00  0.00     0.081 C 
HETATM    5  N2  UNL     1      -5.810  -5.648  20.404  1.00  0.00    -0.320 N 
ATOM      6  H2  UNL     1      -5.543  -5.925  19.460  1.00  0.00     0.185 HD
BRANCH   5   7
HETATM    7  N1  UNL     1      -6.546  -6.552  21.149  1.00  0.00    -0.341 N 
HETATM    8  C1  UNL     1      -7.969  -6.738  21.007  1.00  0.00     0.167 C 
ATOM      9  H1  UNL     1      -6.053  -7.121  21.837  1.00  0.00     0.179 HD
ENDBRANCH   5   7
ENDBRANCH   3   4
ENDBRANCH   2   3
ENDBRANCH   1   2
BRANCH   1  10
HETATM   10  C5  UNL     1      -2.189  -2.685  18.801  1.00  0.00     0.172 C 
HETATM   11  N4  UNL     1      -0.906  -2.683  18.574  1.00  0.00    -0.395 N 
ATOM     12  H42 UNL     1      -0.540  -3.318  17.865  1.00  0.00     0.156 HD
ATOM     13  H41 UNL     1      -0.275  -2.067  19.086  1.00  0.00     0.156 HD
ENDBRANCH   1  10
BRANCH   1  14
HETATM   14  C6  UNL     1      -3.150  -3.639  16.652  1.00  0.00     0.255 C 
BRANCH  14  15
HETATM   15  N5  UNL     1      -2.422  -4.774  16.109  1.00  0.00    -0.335 N 
HETATM   16  C7  UNL     1      -1.720  -4.770  14.960  1.00  0.00     0.110 A 
HETATM   17  C8  UNL     1      -1.158  -6.024  14.761  1.00  0.00     0.106 A 
HETATM   18  N6  UNL     1      -1.539  -6.777  15.810  1.00  0.00    -0.361 N 
HETATM   19  C9  UNL     1      -2.304  -5.999  16.615  1.00  0.00     0.183 A 
ATOM     20  H6  UNL     1      -1.295  -7.755  15.970  1.00  0.00     0.166 HD
ENDBRANCH  14  15
ENDBRANCH   1  14
TORSDOF 7
ENDMDL
MODEL 5
REMARK VINA RESULT: -5.482292511      3.168      5.031
REMARK  7 active torsions:
REMARK  status: ('A' for Active; 'I' for Inactive)
REMARK    1  A    between atoms: N1_2  and  N2_4 
REMARK    2  A    between atoms: C2_6  and  C3_7 
REMARK    3  A    between atoms: C3_7  and  C4_8 
REMARK    4  A    between atoms: C4_8  and  N3_9 
REMARK    5  A    between atoms: N3_9  and  C5_10 
REMARK    6  A    between atoms: N3_9  and  C6_14 
REMARK    7  A    between atoms: C6_14  and  N5_15 
ROOT
HETATM    1  N3  UNL     1      -1.932  -5.140  15.783  1.00  0.00    -0.360 N 
ENDROOT
BRANCH   1   2
HETATM    2  C4  UNL     1      -2.524  -6.256  16.486  1.00  0.00     0.130 C 
BRANCH   2   3
HETATM    3  C3  UNL     1      -1.450  -7.081  17.160  1.00  0.00     0.066 C 
BRANCH   3   4
HETATM    4  C2  UNL     1      -2.076  -8.038  18.106  1.00  0.00     0.081 C 
HETATM    5  N2  UNL     1      -3.354  -8.175  18.172  1.00  0.00    -0.320 N 
ATOM      6  H2  UNL     1      -3.920  -7.599  17.549  1.00  0.00     0.185 HD
BRANCH   5   7
HETATM    7  N1  UNL     1      -4.023  -9.039  19.021  1.00  0.00    -0.341 N 
HETATM    8  C1  UNL     1      -3.379 -10.102  19.753  1.00  0.00     0.167 C 
ATOM      9  H1  UNL     1      -5.029  -8.917  19.136  1.00  0.00     0.179 HD
ENDBRANCH   5   7
ENDBRANCH   3   4
ENDBRANCH   2   3
ENDBRANCH   1   2
BRANCH   1  10
HETATM   10  C5  UNL     1      -0.816  -5.417  14.942  1.00  0.00     0.172 C 
HETATM   11  N4  UNL     1      -0.386  -4.547  14.074  1.00  0.00    -0.395 N 
ATOM     12  H42 UNL     1      -0.869  -3.651  14.007  1.00  0.00     0.156 HD
ATOM     13  H41 UNL     1       0.413  -4.745  13.472  1.00  0.00     0.156 HD
ENDBRANCH   1  10
BRANCH   1  14
HETATM   14  C6  UNL     1      -2.514  -3.839  15.982  1.00  0.00     0.255 C 
BRANCH  14  15
HETATM   15  N5  UNL     1      -2.543  -3.431  17.377  1.00  0.00    -0.335 N 
HETATM   16  C7  UNL     1      -3.607  -3.533  18.195  1.00  0.00     0.110 A 
HETATM   17  C8  UNL     1      -3.269  -3.048  19.451  1.00  0.00     0.106 A 
HETATM   18  N6  UNL     1      -1.984  -2.653  19.369  1.00  0.00    -0.361 N 
HETATM   19  C9  UNL     1      -1.564  -2.894  18.102  1.00  0.00     0.183 A 
ATOM     20  H6  UNL     1      -1.429  -2.247  20.122  1.00  0.00     0.166 HD
ENDBRANCH  14  15
ENDBRANCH   1  14
TORSDOF 7
ENDMDL
