MODEL 1
REMARK VINA RESULT: -7.086548422      0.000      0.000
REMARK  17 active torsions:
REMARK  status: ('A' for Active; 'I' for Inactive)
REMARK    1  A    between atoms: C2_2  and  O2_4 
REMARK    2  A    between atoms: O2_4  and  C3_5 
REMARK    3  A    between atoms: C3_5  and  C4_6 
REMARK    4  A    between atoms: C4_6  and  C6_8 
REMARK    5  A    between atoms: C6_8  and  O3_9 
REMARK    6  A    between atoms: O3_9  and  C7_10 
REMARK    7  A    between atoms: C7_10  and  C8_12 
REMARK    8  A    between atoms: C8_12  and  C9_13 
REMARK    9  A    between atoms: C9_13  and  C10_14 
REMARK   10  A    between atoms: C12_17  and  O5_18 
REMARK   11  A    between atoms: O5_18  and  C13_19 
REMARK   12  A    between atoms: C16_23  and  O7_24 
REMARK   13  A    between atoms: C17_26  and  C18_27 
REMARK   14  A    between atoms: C18_27  and  O8_29 
REMARK   15  A    between atoms: C18_27  and  C20_31 
REMARK   16  A    between atoms: C21_34  and  C23_36 
REMARK   17  A    between atoms: C23_36  and  O11_37 
ROOT
HETATM    1  C8  UNL     1       3.687  -2.487  45.237  1.00  0.00     0.087 C 
HETATM    2  C12 UNL     1       3.862  -1.498  46.356  1.00  0.00     0.153 C 
HETATM    3  C15 UNL     1       3.547  -0.079  45.944  1.00  0.00     0.066 C 
HETATM    4  C16 UNL     1       4.476   0.321  44.827  1.00  0.00     0.129 C 
HETATM    5  C17 UNL     1       5.103  -0.846  44.108  1.00  0.00     0.071 C 
HETATM    6  C21 UNL     1       4.063  -1.902  43.889  1.00  0.00     0.006 C 
HETATM    7  C22 UNL     1       4.587  -3.085  43.077  1.00  0.00     0.019 C 
ENDROOT
BRANCH   1   8
HETATM    8  C7  UNL     1       4.646  -3.626  45.520  1.00  0.00     0.271 C 
HETATM    9  O4  UNL     1       4.317  -4.822  45.369  1.00  0.00    -0.264 OA
BRANCH   8  10
HETATM   10  O3  UNL     1       5.946  -3.436  45.968  1.00  0.00    -0.320 OA
BRANCH  10  11
HETATM   11  C6  UNL     1       7.006  -4.313  45.643  1.00  0.00     0.185 C 
BRANCH  11  12
HETATM   12  C4  UNL     1       7.474  -4.956  46.968  1.00  0.00     0.030 C 
HETATM   13  C5  UNL     1       7.518  -3.914  48.013  1.00  0.00     0.014 C 
BRANCH  12  14
HETATM   14  C3  UNL     1       8.683  -5.771  46.761  1.00  0.00     0.185 C 
BRANCH  14  15
HETATM   15  O2  UNL     1       8.629  -7.045  46.320  1.00  0.00    -0.321 OA
BRANCH  15  16
HETATM   16  C2  UNL     1       8.191  -7.601  45.173  1.00  0.00     0.254 C 
HETATM   17  C1  UNL     1       6.729  -7.988  45.019  1.00  0.00     0.126 C 
HETATM   18  O1  UNL     1       8.953  -7.816  44.210  1.00  0.00    -0.266 OA
ENDBRANCH  15  16
ENDBRANCH  14  15
ENDBRANCH  12  14
ENDBRANCH  11  12
ENDBRANCH  10  11
ENDBRANCH   8  10
ENDBRANCH   1   8
BRANCH   1  19
HETATM   19  C9  UNL     1       2.339  -3.124  45.226  1.00  0.00     0.051 C 
BRANCH  19  20
HETATM   20  C10 UNL     1       1.176  -2.315  45.565  1.00  0.00    -0.013 C 
HETATM   21  C11 UNL     1      -0.007  -2.559  45.006  1.00  0.00     0.080 C 
HETATM   22 CL1  UNL     1      -1.464  -1.667  45.331  1.00  0.00    -0.097 Cl
ENDBRANCH  19  20
ENDBRANCH   1  19
BRANCH   2  23
HETATM   23  O5  UNL     1       3.261  -1.886  47.530  1.00  0.00    -0.315 OA
BRANCH  23  24
HETATM   24  C13 UNL     1       3.848  -2.193  48.738  1.00  0.00     0.255 C 
HETATM   25  C14 UNL     1       4.079  -3.565  49.247  1.00  0.00     0.126 C 
HETATM   26  O6  UNL     1       4.186  -1.209  49.403  1.00  0.00    -0.266 OA
ENDBRANCH  23  24
ENDBRANCH   2  23
BRANCH   6  27
HETATM   27  C23 UNL     1       2.910  -1.426  43.043  1.00  0.00     0.175 C 
BRANCH  27  28
HETATM   28  O11 UNL     1       2.661  -2.199  41.913  1.00  0.00    -0.400 OA
ATOM     29  H11 UNL     1       2.710  -3.137  42.056  1.00  0.00     0.209 HD
ENDBRANCH  27  28
ENDBRANCH   6  27
BRANCH   5  30
HETATM   30  C18 UNL     1       6.085  -0.518  43.069  1.00  0.00     0.148 C 
HETATM   31  C19 UNL     1       5.694  -0.186  41.696  1.00  0.00     0.058 C 
BRANCH  30  32
HETATM   32  O8  UNL     1       7.073  -1.549  42.949  1.00  0.00    -0.379 OA
ATOM     33  H8  UNL     1       7.629  -1.403  42.192  1.00  0.00     0.211 HD
ENDBRANCH  30  32
BRANCH  30  34
HETATM   34  C20 UNL     1       6.931   0.619  43.547  1.00  0.00     0.209 C 
HETATM   35  O9  UNL     1       6.965   1.743  42.934  1.00  0.00    -0.646 OA
HETATM   36  O10 UNL     1       7.742   0.591  44.669  1.00  0.00    -0.646 OA
ENDBRANCH  30  34
ENDBRANCH   5  30
BRANCH   4  37
HETATM   37  O7  UNL     1       3.853   1.241  43.990  1.00  0.00    -0.395 OA
ATOM     38  H7  UNL     1       4.326   2.065  43.998  1.00  0.00     0.210 HD
ENDBRANCH   4  37
TORSDOF 17
ENDMDL
MODEL 2
REMARK VINA RESULT: -6.884697256      0.922      1.838
REMARK  17 active torsions:
REMARK  status: ('A' for Active; 'I' for Inactive)
REMARK    1  A    between atoms: C2_2  and  O2_4 
REMARK    2  A    between atoms: O2_4  and  C3_5 
REMARK    3  A    between atoms: C3_5  and  C4_6 
REMARK    4  A    between atoms: C4_6  and  C6_8 
REMARK    5  A    between atoms: C6_8  and  O3_9 
REMARK    6  A    between atoms: O3_9  and  C7_10 
REMARK    7  A    between atoms: C7_10  and  C8_12 
REMARK    8  A    between atoms: C8_12  and  C9_13 
REMARK    9  A    between atoms: C9_13  and  C10_14 
REMARK   10  A    between atoms: C12_17  and  O5_18 
REMARK   11  A    between atoms: O5_18  and  C13_19 
REMARK   12  A    between atoms: C16_23  and  O7_24 
REMARK   13  A    between atoms: C17_26  and  C18_27 
REMARK   14  A    between atoms: C18_27  and  O8_29 
REMARK   15  A    between atoms: C18_27  and  C20_31 
REMARK   16  A    between atoms: C21_34  and  C23_36 
REMARK   17  A    between atoms: C23_36  and  O11_37 
ROOT
HETATM    1  C8  UNL     1       3.809  -2.329  45.216  1.00  0.00     0.087 C 
HETATM    2  C12 UNL     1       3.980  -1.319  46.318  1.00  0.00     0.153 C 
HETATM    3  C15 UNL     1       3.626   0.086  45.891  1.00  0.00     0.066 C 
HETATM    4  C16 UNL     1       4.527   0.491  44.753  1.00  0.00     0.129 C 
HETATM    5  C17 UNL     1       5.169  -0.672  44.041  1.00  0.00     0.071 C 
HETATM    6  C21 UNL     1       4.150  -1.754  43.854  1.00  0.00     0.006 C 
HETATM    7  C22 UNL     1       4.688  -2.937  43.050  1.00  0.00     0.019 C 
ENDROOT
BRANCH   1   8
HETATM    8  C7  UNL     1       4.799  -3.441  45.500  1.00  0.00     0.271 C 
HETATM    9  O4  UNL     1       6.003  -3.212  45.735  1.00  0.00    -0.264 OA
BRANCH   8  10
HETATM   10  O3  UNL     1       4.453  -4.785  45.517  1.00  0.00    -0.320 OA
BRANCH  10  11
HETATM   11  C6  UNL     1       4.640  -5.612  46.647  1.00  0.00     0.185 C 
BRANCH  11  12
HETATM   12  C4  UNL     1       5.011  -7.015  46.116  1.00  0.00     0.030 C 
HETATM   13  C5  UNL     1       4.176  -8.020  46.804  1.00  0.00     0.014 C 
BRANCH  12  14
HETATM   14  C3  UNL     1       6.470  -7.215  46.125  1.00  0.00     0.185 C 
BRANCH  14  15
HETATM   15  O2  UNL     1       7.341  -6.186  46.081  1.00  0.00    -0.321 OA
BRANCH  15  16
HETATM   16  C2  UNL     1       8.281  -5.743  46.939  1.00  0.00     0.254 C 
HETATM   17  C1  UNL     1       7.917  -4.744  48.025  1.00  0.00     0.126 C 
HETATM   18  O1  UNL     1       9.465  -6.128  46.877  1.00  0.00    -0.266 OA
ENDBRANCH  15  16
ENDBRANCH  14  15
ENDBRANCH  12  14
ENDBRANCH  11  12
ENDBRANCH  10  11
ENDBRANCH   8  10
ENDBRANCH   1   8
BRANCH   1  19
HETATM   19  C9  UNL     1       2.476  -2.996  45.236  1.00  0.00     0.051 C 
BRANCH  19  20
HETATM   20  C10 UNL     1       1.294  -2.197  45.532  1.00  0.00    -0.013 C 
HETATM   21  C11 UNL     1       0.103  -2.545  45.053  1.00  0.00     0.080 C 
HETATM   22 CL1  UNL     1      -1.377  -1.678  45.337  1.00  0.00    -0.097 Cl
ENDBRANCH  19  20
ENDBRANCH   1  19
BRANCH   2  23
HETATM   23  O5  UNL     1       3.407  -1.704  47.508  1.00  0.00    -0.315 OA
BRANCH  23  24
HETATM   24  C13 UNL     1       3.986  -1.787  48.755  1.00  0.00     0.255 C 
HETATM   25  C14 UNL     1       4.787  -2.932  49.246  1.00  0.00     0.126 C 
HETATM   26  O6  UNL     1       3.785  -0.803  49.474  1.00  0.00    -0.266 OA
ENDBRANCH  23  24
ENDBRANCH   2  23
BRANCH   6  27
HETATM   27  C23 UNL     1       2.972  -1.317  43.021  1.00  0.00     0.175 C 
BRANCH  27  28
HETATM   28  O11 UNL     1       2.679  -2.153  41.948  1.00  0.00    -0.400 OA
ATOM     29  H11 UNL     1       2.790  -1.754  41.093  1.00  0.00     0.209 HD
ENDBRANCH  27  28
ENDBRANCH   6  27
BRANCH   5  30
HETATM   30  C18 UNL     1       6.126  -0.337  42.981  1.00  0.00     0.148 C 
HETATM   31  C19 UNL     1       5.701   0.090  41.645  1.00  0.00     0.058 C 
BRANCH  30  32
HETATM   32  O8  UNL     1       7.054  -1.408  42.766  1.00  0.00    -0.379 OA
ATOM     33  H8  UNL     1       7.901  -1.076  42.490  1.00  0.00     0.211 HD
ENDBRANCH  30  32
BRANCH  30  34
HETATM   34  C20 UNL     1       7.048   0.729  43.484  1.00  0.00     0.209 C 
HETATM   35  O9  UNL     1       7.670   0.616  44.598  1.00  0.00    -0.646 OA
HETATM   36  O10 UNL     1       7.330   1.914  42.826  1.00  0.00    -0.646 OA
ENDBRANCH  30  34
ENDBRANCH   5  30
BRANCH   4  37
HETATM   37  O7  UNL     1       3.870   1.384  43.915  1.00  0.00    -0.395 OA
ATOM     38  H7  UNL     1       3.895   2.260  44.283  1.00  0.00     0.210 HD
ENDBRANCH   4  37
TORSDOF 17
ENDMDL
MODEL 3
REMARK VINA RESULT: -6.799277465      1.132      1.542
REMARK  17 active torsions:
REMARK  status: ('A' for Active; 'I' for Inactive)
REMARK    1  A    between atoms: C2_2  and  O2_4 
REMARK    2  A    between atoms: O2_4  and  C3_5 
REMARK    3  A    between atoms: C3_5  and  C4_6 
REMARK    4  A    between atoms: C4_6  and  C6_8 
REMARK    5  A    between atoms: C6_8  and  O3_9 
REMARK    6  A    between atoms: O3_9  and  C7_10 
REMARK    7  A    between atoms: C7_10  and  C8_12 
REMARK    8  A    between atoms: C8_12  and  C9_13 
REMARK    9  A    between atoms: C9_13  and  C10_14 
REMARK   10  A    between atoms: C12_17  and  O5_18 
REMARK   11  A    between atoms: O5_18  and  C13_19 
REMARK   12  A    between atoms: C16_23  and  O7_24 
REMARK   13  A    between atoms: C17_26  and  C18_27 
REMARK   14  A    between atoms: C18_27  and  O8_29 
REMARK   15  A    between atoms: C18_27  and  C20_31 
REMARK   16  A    between atoms: C21_34  and  C23_36 
REMARK   17  A    between atoms: C23_36  and  O11_37 
ROOT
HETATM    1  C8  UNL     1       4.083  -2.107  45.548  1.00  0.00     0.087 C 
HETATM    2  C12 UNL     1       3.956  -0.915  46.457  1.00  0.00     0.153 C 
HETATM    3  C15 UNL     1       3.393   0.302  45.759  1.00  0.00     0.066 C 
HETATM    4  C16 UNL     1       4.312   0.682  44.627  1.00  0.00     0.129 C 
HETATM    5  C17 UNL     1       5.224  -0.433  44.181  1.00  0.00     0.071 C 
HETATM    6  C21 UNL     1       4.444  -1.711  44.129  1.00  0.00     0.006 C 
HETATM    7  C22 UNL     1       5.267  -2.881  43.591  1.00  0.00     0.019 C 
ENDROOT
BRANCH   1   8
HETATM    8  C7  UNL     1       5.227  -2.938  46.093  1.00  0.00     0.271 C 
HETATM    9  O4  UNL     1       6.313  -2.426  46.437  1.00  0.00    -0.264 OA
BRANCH   8  10
HETATM   10  O3  UNL     1       5.163  -4.317  46.249  1.00  0.00    -0.320 OA
BRANCH  10  11
HETATM   11  C6  UNL     1       5.665  -4.985  47.388  1.00  0.00     0.185 C 
BRANCH  11  12
HETATM   12  C4  UNL     1       6.685  -6.028  46.879  1.00  0.00     0.030 C 
HETATM   13  C5  UNL     1       8.047  -5.478  47.037  1.00  0.00     0.014 C 
BRANCH  12  14
HETATM   14  C3  UNL     1       6.302  -6.539  45.552  1.00  0.00     0.185 C 
BRANCH  14  15
HETATM   15  O2  UNL     1       7.075  -6.365  44.460  1.00  0.00    -0.321 OA
BRANCH  15  16
HETATM   16  C2  UNL     1       7.968  -7.157  43.833  1.00  0.00     0.254 C 
HETATM   17  C1  UNL     1       8.008  -7.213  42.314  1.00  0.00     0.126 C 
HETATM   18  O1  UNL     1       8.781  -7.861  44.462  1.00  0.00    -0.266 OA
ENDBRANCH  15  16
ENDBRANCH  14  15
ENDBRANCH  12  14
ENDBRANCH  11  12
ENDBRANCH  10  11
ENDBRANCH   8  10
ENDBRANCH   1   8
BRANCH   1  19
HETATM   19  C9  UNL     1       2.899  -3.012  45.604  1.00  0.00     0.051 C 
BRANCH  19  20
HETATM   20  C10 UNL     1       1.573  -2.428  45.748  1.00  0.00    -0.013 C 
HETATM   21  C11 UNL     1       0.511  -3.008  45.193  1.00  0.00     0.080 C 
HETATM   22 CL1  UNL     1      -1.118  -2.410  45.295  1.00  0.00    -0.097 Cl
ENDBRANCH  19  20
ENDBRANCH   1  19
BRANCH   2  23
HETATM   23  O5  UNL     1       3.349  -1.202  47.657  1.00  0.00    -0.315 OA
BRANCH  23  24
HETATM   24  C13 UNL     1       3.847  -1.046  48.932  1.00  0.00     0.255 C 
HETATM   25  C14 UNL     1       3.883   0.232  49.680  1.00  0.00     0.126 C 
HETATM   26  O6  UNL     1       4.282  -2.085  49.438  1.00  0.00    -0.266 OA
ENDBRANCH  23  24
ENDBRANCH   2  23
BRANCH   6  27
HETATM   27  C23 UNL     1       3.294  -1.661  43.157  1.00  0.00     0.175 C 
BRANCH  27  28
HETATM   28  O11 UNL     1       3.497  -2.377  41.981  1.00  0.00    -0.400 OA
ATOM     29  H11 UNL     1       3.557  -1.844  41.197  1.00  0.00     0.209 HD
ENDBRANCH  27  28
ENDBRANCH   6  27
BRANCH   5  30
HETATM   30  C18 UNL     1       6.202  -0.096  43.142  1.00  0.00     0.148 C 
HETATM   31  C19 UNL     1       5.805   0.362  41.807  1.00  0.00     0.058 C 
BRANCH  30  32
HETATM   32  O8  UNL     1       7.114  -1.180  42.920  1.00  0.00    -0.379 OA
ATOM     33  H8  UNL     1       7.874  -0.893  42.427  1.00  0.00     0.211 HD
ENDBRANCH  30  32
BRANCH  30  34
HETATM   34  C20 UNL     1       7.136   0.943  43.677  1.00  0.00     0.209 C 
HETATM   35  O9  UNL     1       7.541   0.928  44.892  1.00  0.00    -0.646 OA
HETATM   36  O10 UNL     1       7.654   1.999  42.948  1.00  0.00    -0.646 OA
ENDBRANCH  30  34
ENDBRANCH   5  30
BRANCH   4  37
HETATM   37  O7  UNL     1       3.588   1.275  43.599  1.00  0.00    -0.395 OA
ATOM     38  H7  UNL     1       4.152   1.836  43.080  1.00  0.00     0.210 HD
ENDBRANCH   4  37
TORSDOF 17
ENDMDL
MODEL 4
REMARK VINA RESULT: -6.753085317      2.789      5.599
REMARK  17 active torsions:
REMARK  status: ('A' for Active; 'I' for Inactive)
REMARK    1  A    between atoms: C2_2  and  O2_4 
REMARK    2  A    between atoms: O2_4  and  C3_5 
REMARK    3  A    between atoms: C3_5  and  C4_6 
REMARK    4  A    between atoms: C4_6  and  C6_8 
REMARK    5  A    between atoms: C6_8  and  O3_9 
REMARK    6  A    between atoms: O3_9  and  C7_10 
REMARK    7  A    between atoms: C7_10  and  C8_12 
REMARK    8  A    between atoms: C8_12  and  C9_13 
REMARK    9  A    between atoms: C9_13  and  C10_14 
REMARK   10  A    between atoms: C12_17  and  O5_18 
REMARK   11  A    between atoms: O5_18  and  C13_19 
REMARK   12  A    between atoms: C16_23  and  O7_24 
REMARK   13  A    between atoms: C17_26  and  C18_27 
REMARK   14  A    between atoms: C18_27  and  O8_29 
REMARK   15  A    between atoms: C18_27  and  C20_31 
REMARK   16  A    between atoms: C21_34  and  C23_36 
REMARK   17  A    between atoms: C23_36  and  O11_37 
ROOT
HETATM    1  C8  UNL     1       5.761  -3.881  46.690  1.00  0.00     0.087 C 
HETATM    2  C12 UNL     1       6.409  -2.861  45.793  1.00  0.00     0.153 C 
HETATM    3  C15 UNL     1       5.988  -2.994  44.348  1.00  0.00     0.066 C 
HETATM    4  C16 UNL     1       6.383  -4.361  43.850  1.00  0.00     0.129 C 
HETATM    5  C17 UNL     1       6.627  -5.363  44.950  1.00  0.00     0.071 C 
HETATM    6  C21 UNL     1       5.562  -5.213  45.993  1.00  0.00     0.006 C 
HETATM    7  C22 UNL     1       5.674  -6.259  47.102  1.00  0.00     0.019 C 
ENDROOT
BRANCH   1   8
HETATM    8  C7  UNL     1       6.722  -4.109  47.839  1.00  0.00     0.271 C 
HETATM    9  O4  UNL     1       7.884  -3.652  47.832  1.00  0.00    -0.264 OA
BRANCH   8  10
HETATM   10  O3  UNL     1       6.395  -4.836  48.976  1.00  0.00    -0.320 OA
BRANCH  10  11
HETATM   11  C6  UNL     1       6.751  -4.425  50.280  1.00  0.00     0.185 C 
BRANCH  11  12
HETATM   12  C4  UNL     1       5.542  -4.738  51.191  1.00  0.00     0.030 C 
HETATM   13  C5  UNL     1       5.241  -3.546  52.008  1.00  0.00     0.014 C 
BRANCH  12  14
HETATM   14  C3  UNL     1       5.726  -6.021  51.891  1.00  0.00     0.185 C 
BRANCH  14  15
HETATM   15  O2  UNL     1       5.107  -7.154  51.499  1.00  0.00    -0.321 OA
BRANCH  15  16
HETATM   16  C2  UNL     1       4.371  -7.469  50.415  1.00  0.00     0.254 C 
HETATM   17  C1  UNL     1       2.900  -7.091  50.352  1.00  0.00     0.126 C 
HETATM   18  O1  UNL     1       4.858  -8.071  49.438  1.00  0.00    -0.266 OA
ENDBRANCH  15  16
ENDBRANCH  14  15
ENDBRANCH  12  14
ENDBRANCH  11  12
ENDBRANCH  10  11
ENDBRANCH   8  10
ENDBRANCH   1   8
BRANCH   1  19
HETATM   19  C9  UNL     1       4.513  -3.382  47.335  1.00  0.00     0.051 C 
BRANCH  19  20
HETATM   20  C10 UNL     1       4.622  -2.453  48.452  1.00  0.00    -0.013 C 
HETATM   21  C11 UNL     1       3.759  -1.449  48.586  1.00  0.00     0.080 C 
HETATM   22 CL1  UNL     1       3.784  -0.280  49.872  1.00  0.00    -0.097 Cl
ENDBRANCH  19  20
ENDBRANCH   1  19
BRANCH   2  23
HETATM   23  O5  UNL     1       6.337  -1.577  46.281  1.00  0.00    -0.315 OA
BRANCH  23  24
HETATM   24  C13 UNL     1       6.081  -0.409  45.596  1.00  0.00     0.255 C 
HETATM   25  C14 UNL     1       4.732   0.137  45.322  1.00  0.00     0.126 C 
HETATM   26  O6  UNL     1       7.093   0.182  45.206  1.00  0.00    -0.266 OA
ENDBRANCH  23  24
ENDBRANCH   2  23
BRANCH   6  27
HETATM   27  C23 UNL     1       4.175  -5.466  45.461  1.00  0.00     0.175 C 
BRANCH  27  28
HETATM   28  O11 UNL     1       3.675  -6.738  45.724  1.00  0.00    -0.400 OA
ATOM     29  H11 UNL     1       3.856  -7.061  46.599  1.00  0.00     0.209 HD
ENDBRANCH  27  28
ENDBRANCH   6  27
BRANCH   5  30
HETATM   30  C18 UNL     1       7.100  -6.687  44.530  1.00  0.00     0.148 C 
HETATM   31  C19 UNL     1       7.598  -6.950  43.177  1.00  0.00     0.058 C 
BRANCH  30  32
HETATM   32  O8  UNL     1       6.107  -7.691  44.776  1.00  0.00    -0.379 OA
ATOM     33  H8  UNL     1       6.317  -8.498  44.320  1.00  0.00     0.211 HD
ENDBRANCH  30  32
BRANCH  30  34
HETATM   34  C20 UNL     1       8.179  -7.132  45.465  1.00  0.00     0.209 C 
HETATM   35  O9  UNL     1       8.412  -8.371  45.690  1.00  0.00    -0.646 OA
HETATM   36  O10 UNL     1       9.024  -6.288  46.166  1.00  0.00    -0.646 OA
ENDBRANCH  30  34
ENDBRANCH   5  30
BRANCH   4  37
HETATM   37  O7  UNL     1       5.494  -4.790  42.871  1.00  0.00    -0.395 OA
ATOM     38  H7  UNL     1       5.591  -5.724  42.726  1.00  0.00     0.210 HD
ENDBRANCH   4  37
TORSDOF 17
ENDMDL
MODEL 5
REMARK VINA RESULT: -6.704518739      2.485      6.517
REMARK  17 active torsions:
REMARK  status: ('A' for Active; 'I' for Inactive)
REMARK    1  A    between atoms: C2_2  and  O2_4 
REMARK    2  A    between atoms: O2_4  and  C3_5 
REMARK    3  A    between atoms: C3_5  and  C4_6 
REMARK    4  A    between atoms: C4_6  and  C6_8 
REMARK    5  A    between atoms: C6_8  and  O3_9 
REMARK    6  A    between atoms: O3_9  and  C7_10 
REMARK    7  A    between atoms: C7_10  and  C8_12 
REMARK    8  A    between atoms: C8_12  and  C9_13 
REMARK    9  A    between atoms: C9_13  and  C10_14 
REMARK   10  A    between atoms: C12_17  and  O5_18 
REMARK   11  A    between atoms: O5_18  and  C13_19 
REMARK   12  A    between atoms: C16_23  and  O7_24 
REMARK   13  A    between atoms: C17_26  and  C18_27 
REMARK   14  A    between atoms: C18_27  and  O8_29 
REMARK   15  A    between atoms: C18_27  and  C20_31 
REMARK   16  A    between atoms: C21_34  and  C23_36 
REMARK   17  A    between atoms: C23_36  and  O11_37 
ROOT
HETATM    1  C8  UNL     1       3.869  -4.528  46.020  1.00  0.00     0.087 C 
HETATM    2  C12 UNL     1       3.240  -5.825  45.590  1.00  0.00     0.153 C 
HETATM    3  C15 UNL     1       3.691  -7.004  46.421  1.00  0.00     0.066 C 
HETATM    4  C16 UNL     1       5.185  -7.151  46.289  1.00  0.00     0.129 C 
HETATM    5  C17 UNL     1       5.880  -5.902  45.809  1.00  0.00     0.071 C 
HETATM    6  C21 UNL     1       5.292  -4.715  46.510  1.00  0.00     0.006 C 
HETATM    7  C22 UNL     1       6.006  -3.411  46.156  1.00  0.00     0.019 C 
ENDROOT
BRANCH   1   8
HETATM    8  C7  UNL     1       3.925  -3.651  44.786  1.00  0.00     0.271 C 
HETATM    9  O4  UNL     1       4.261  -4.100  43.669  1.00  0.00    -0.264 OA
BRANCH   8  10
HETATM   10  O3  UNL     1       3.616  -2.298  44.795  1.00  0.00    -0.320 OA
BRANCH  10  11
HETATM   11  C6  UNL     1       3.907  -1.436  43.713  1.00  0.00     0.185 C 
BRANCH  11  12
HETATM   12  C4  UNL     1       5.319  -0.861  43.970  1.00  0.00     0.030 C 
HETATM   13  C5  UNL     1       5.185   0.519  44.477  1.00  0.00     0.014 C 
BRANCH  12  14
HETATM   14  C3  UNL     1       6.199  -1.083  42.810  1.00  0.00     0.185 C 
BRANCH  14  15
HETATM   15  O2  UNL     1       6.803  -0.069  42.156  1.00  0.00    -0.321 OA
BRANCH  15  16
HETATM   16  C2  UNL     1       6.523   0.575  41.006  1.00  0.00     0.254 C 
HETATM   17  C1  UNL     1       5.086   0.695  40.524  1.00  0.00     0.126 C 
HETATM   18  O1  UNL     1       7.416   1.088  40.303  1.00  0.00    -0.266 OA
ENDBRANCH  15  16
ENDBRANCH  14  15
ENDBRANCH  12  14
ENDBRANCH  11  12
ENDBRANCH  10  11
ENDBRANCH   8  10
ENDBRANCH   1   8
BRANCH   1  19
HETATM   19  C9  UNL     1       3.029  -3.765  46.987  1.00  0.00     0.051 C 
BRANCH  19  20
HETATM   20  C10 UNL     1       2.447  -4.468  48.122  1.00  0.00    -0.013 C 
HETATM   21  C11 UNL     1       1.190  -4.237  48.493  1.00  0.00     0.080 C 
HETATM   22 CL1  UNL     1       0.386  -5.012  49.824  1.00  0.00    -0.097 Cl
ENDBRANCH  19  20
ENDBRANCH   1  19
BRANCH   2  23
HETATM   23  O5  UNL     1       1.878  -5.746  45.423  1.00  0.00    -0.315 OA
BRANCH  23  24
HETATM   24  C13 UNL     1       0.959  -6.770  45.340  1.00  0.00     0.255 C 
HETATM   25  C14 UNL     1      -0.052  -7.092  46.373  1.00  0.00     0.126 C 
HETATM   26  O6  UNL     1       1.035  -7.435  44.302  1.00  0.00    -0.266 OA
ENDBRANCH  23  24
ENDBRANCH   2  23
BRANCH   6  27
HETATM   27  C23 UNL     1       5.462  -4.771  48.006  1.00  0.00     0.175 C 
BRANCH  27  28
HETATM   28  O11 UNL     1       6.187  -3.714  48.548  1.00  0.00    -0.400 OA
ATOM     29  H11 UNL     1       5.658  -2.992  48.866  1.00  0.00     0.209 HD
ENDBRANCH  27  28
ENDBRANCH   6  27
BRANCH   5  30
HETATM   30  C18 UNL     1       7.324  -6.010  45.576  1.00  0.00     0.148 C 
HETATM   31  C19 UNL     1       8.308  -5.831  46.648  1.00  0.00     0.058 C 
BRANCH  30  32
HETATM   32  O8  UNL     1       7.743  -5.138  44.519  1.00  0.00    -0.379 OA
ATOM     33  H8  UNL     1       8.334  -4.468  44.843  1.00  0.00     0.211 HD
ENDBRANCH  30  32
BRANCH  30  34
HETATM   34  C20 UNL     1       7.614  -7.344  44.964  1.00  0.00     0.209 C 
HETATM   35  O9  UNL     1       8.265  -8.250  45.592  1.00  0.00    -0.646 OA
HETATM   36  O10 UNL     1       7.223  -7.740  43.696  1.00  0.00    -0.646 OA
ENDBRANCH  30  34
ENDBRANCH   5  30
BRANCH   4  37
HETATM   37  O7  UNL     1       5.719  -7.692  47.453  1.00  0.00    -0.395 OA
ATOM     38  H7  UNL     1       6.523  -7.242  47.685  1.00  0.00     0.210 HD
ENDBRANCH   4  37
TORSDOF 17
ENDMDL
