MODEL 1
REMARK VINA RESULT: -7.853110298      0.000      0.000
REMARK  14 active torsions:
REMARK  status: ('A' for Active; 'I' for Inactive)
REMARK    1  A    between atoms: C2_2  and  N1_3 
REMARK    2  A    between atoms: N1_3  and  C3_5 
REMARK    3  A    between atoms: C4_8  and  N3_9 
REMARK    4  A    between atoms: C7_12  and  N4_13 
REMARK    5  A    between atoms: C11_19  and  N6_20 
REMARK    6  A    between atoms: N6_20  and  C12_22 
REMARK    7  A    between atoms: C12_22  and  C13_23 
REMARK    8  A    between atoms: C13_23  and  S1_24 
REMARK    9  A    between atoms: S1_24  and  C14_25 
REMARK   10  A    between atoms: C14_25  and  C15_26 
REMARK   11  A    between atoms: C15_26  and  C16_27 
REMARK   12  A    between atoms: C16_27  and  C17_28 
REMARK   13  A    between atoms: C18_30  and  N7_31 
REMARK   14  A    between atoms: C19_36  and  N9_37 
ROOT
HETATM    1  C3  UNL     1       4.345  -0.808  41.729  1.00  0.00     0.707 A 
HETATM    2  N2  UNL     1       4.369  -0.073  40.593  1.00  0.00    -0.021 N 
ATOM      3  H2  UNL     1       3.741  -0.295  39.821  1.00  0.00     0.203 HD
HETATM    4  C4  UNL     1       5.236   0.960  40.495  1.00  0.00     0.709 A 
HETATM    5  N5  UNL     1       6.023   1.188  41.544  1.00  0.00    -0.021 N 
ATOM      6  H5  UNL     1       6.681   1.965  41.480  1.00  0.00     0.203 HD
HETATM    7  C11 UNL     1       6.017   0.471  42.682  1.00  0.00     0.707 A 
HETATM    8  N10 UNL     1       5.157  -0.551  42.776  1.00  0.00    -0.022 N 
ATOM      9  H10 UNL     1       5.117  -1.122  43.619  1.00  0.00     0.203 HD
ENDROOT
BRANCH   7  10
HETATM   10  N6  UNL     1       6.821   0.777  43.631  1.00  0.00    -0.224 N 
ATOM     11  H6  UNL     1       7.449   1.561  43.452  1.00  0.00     0.177 HD
BRANCH  10  12
HETATM   12  C12 UNL     1       6.943   0.157  44.906  1.00  0.00     0.148 C 
BRANCH  12  13
HETATM   13  C13 UNL     1       5.703   0.283  45.762  1.00  0.00     0.094 C 
BRANCH  13  14
HETATM   14  S1  UNL     1       5.230  -1.395  46.297  1.00  0.00    -0.167 SA
BRANCH  14  15
HETATM   15  C14 UNL     1       6.439  -2.610  45.724  1.00  0.00     0.074 C 
BRANCH  15  16
HETATM   16  C15 UNL     1       5.874  -3.431  44.557  1.00  0.00     0.015 C 
BRANCH  16  17
HETATM   17  C16 UNL     1       6.662  -4.692  44.515  1.00  0.00     0.051 C 
BRANCH  17  18
HETATM   18  C17 UNL     1       6.236  -5.714  45.536  1.00  0.00     0.036 A 
HETATM   19  S2  UNL     1       4.677  -5.969  46.204  1.00  0.00    -0.055 SA
HETATM   20  C18 UNL     1       5.049  -7.293  47.203  1.00  0.00     0.144 A 
HETATM   21  N8  UNL     1       6.346  -7.486  46.988  1.00  0.00    -0.317 N 
HETATM   22  C19 UNL     1       6.970  -6.703  46.152  1.00  0.00     0.189 A 
ATOM     23  H8  UNL     1       6.845  -8.235  47.468  1.00  0.00     0.169 HD
BRANCH  20  24
HETATM   24  N7  UNL     1       4.255  -7.972  48.003  1.00  0.00    -0.380 N 
ATOM     25  H72 UNL     1       3.886  -8.913  47.865  1.00  0.00     0.158 HD
ATOM     26  H71 UNL     1       3.861  -7.692  48.901  1.00  0.00     0.158 HD
ENDBRANCH  20  24
BRANCH  22  27
HETATM   27  N9  UNL     1       8.401  -6.832  45.895  1.00  0.00    -0.097 N 
HETATM   28  O1  UNL     1       8.840  -7.462  44.927  1.00  0.00    -0.530 OA
HETATM   29  O2  UNL     1       9.330  -6.240  46.710  1.00  0.00    -0.530 OA
ENDBRANCH  22  27
ENDBRANCH  17  18
ENDBRANCH  16  17
ENDBRANCH  15  16
ENDBRANCH  14  15
ENDBRANCH  13  14
ENDBRANCH  12  13
ENDBRANCH  10  12
ENDBRANCH   7  10
BRANCH   4  30
HETATM   30  N3  UNL     1       5.307   1.763  39.327  1.00  0.00    -0.214 N 
HETATM   31  C5  UNL     1       6.513   2.058  38.601  1.00  0.00     0.143 C 
HETATM   32  C6  UNL     1       6.088   2.667  37.282  1.00  0.00     0.058 C 
HETATM   33  C7  UNL     1       4.632   2.266  37.207  1.00  0.00     0.241 C 
HETATM   34  C10 UNL     1       4.204   2.427  38.648  1.00  0.00     0.177 C 
BRANCH  33  35
HETATM   35  N4  UNL     1       3.891   3.074  36.285  1.00  0.00     0.086 N 
HETATM   36  C8  UNL     1       3.921   2.413  34.993  1.00  0.00     0.310 C 
HETATM   37  C9  UNL     1       2.548   3.350  36.721  1.00  0.00     0.310 C 
ENDBRANCH  33  35
ENDBRANCH   4  30
BRANCH   1  38
HETATM   38  N1  UNL     1       3.531  -1.801  41.857  1.00  0.00    -0.225 N 
ATOM     39  H1  UNL     1       3.464  -2.483  41.102  1.00  0.00     0.177 HD
BRANCH  38  40
HETATM   40  C2  UNL     1       2.711  -1.983  43.033  1.00  0.00     0.133 C 
HETATM   41  C1  UNL     1       1.519  -1.030  42.974  1.00  0.00     0.027 C 
ENDBRANCH  38  40
ENDBRANCH   1  38
TORSDOF 14
ENDMDL
MODEL 2
REMARK VINA RESULT: -7.836118145      5.002     10.742
REMARK  14 active torsions:
REMARK  status: ('A' for Active; 'I' for Inactive)
REMARK    1  A    between atoms: C2_2  and  N1_3 
REMARK    2  A    between atoms: N1_3  and  C3_5 
REMARK    3  A    between atoms: C4_8  and  N3_9 
REMARK    4  A    between atoms: C7_12  and  N4_13 
REMARK    5  A    between atoms: C11_19  and  N6_20 
REMARK    6  A    between atoms: N6_20  and  C12_22 
REMARK    7  A    between atoms: C12_22  and  C13_23 
REMARK    8  A    between atoms: C13_23  and  S1_24 
REMARK    9  A    between atoms: S1_24  and  C14_25 
REMARK   10  A    between atoms: C14_25  and  C15_26 
REMARK   11  A    between atoms: C15_26  and  C16_27 
REMARK   12  A    between atoms: C16_27  and  C17_28 
REMARK   13  A    between atoms: C18_30  and  N7_31 
REMARK   14  A    between atoms: C19_36  and  N9_37 
ROOT
HETATM    1  C3  UNL     1       6.270   0.158  41.211  1.00  0.00     0.707 A 
HETATM    2  N2  UNL     1       6.632  -0.556  42.301  1.00  0.00    -0.021 N 
ATOM      3  H2  UNL     1       7.613  -0.619  42.575  1.00  0.00     0.203 HD
HETATM    4  C4  UNL     1       5.678  -1.184  43.025  1.00  0.00     0.709 A 
HETATM    5  N5  UNL     1       4.421  -1.055  42.605  1.00  0.00    -0.021 N 
ATOM      6  H5  UNL     1       3.694  -1.524  43.144  1.00  0.00     0.203 HD
HETATM    7  C11 UNL     1       4.038  -0.351  41.525  1.00  0.00     0.707 A 
HETATM    8  N10 UNL     1       4.986   0.270  40.812  1.00  0.00    -0.022 N 
ATOM      9  H10 UNL     1       4.742   0.815  39.985  1.00  0.00     0.203 HD
ENDROOT
BRANCH   7  10
HETATM   10  N6  UNL     1       2.798  -0.294  41.210  1.00  0.00    -0.224 N 
ATOM     11  H6  UNL     1       2.441  -1.069  40.652  1.00  0.00     0.177 HD
BRANCH  10  12
HETATM   12  C12 UNL     1       1.857   0.720  41.545  1.00  0.00     0.148 C 
BRANCH  12  13
HETATM   13  C13 UNL     1       1.221   1.376  40.340  1.00  0.00     0.094 C 
BRANCH  13  14
HETATM   14  S1  UNL     1       1.760   3.118  40.313  1.00  0.00    -0.167 SA
BRANCH  14  15
HETATM   15  C14 UNL     1       3.428   3.257  39.630  1.00  0.00     0.074 C 
BRANCH  15  16
HETATM   16  C15 UNL     1       3.472   2.730  38.191  1.00  0.00     0.015 C 
BRANCH  16  17
HETATM   17  C16 UNL     1       2.442   3.494  37.436  1.00  0.00     0.051 C 
BRANCH  17  18
HETATM   18  C17 UNL     1       2.066   2.872  36.116  1.00  0.00     0.036 A 
HETATM   19  S2  UNL     1       2.965   2.838  34.657  1.00  0.00    -0.055 SA
HETATM   20  C18 UNL     1       1.878   1.934  33.715  1.00  0.00     0.144 A 
HETATM   21  N8  UNL     1       0.873   1.695  34.550  1.00  0.00    -0.317 N 
HETATM   22  C19 UNL     1       0.941   2.157  35.768  1.00  0.00     0.189 A 
ATOM     23  H8  UNL     1       0.061   1.158  34.245  1.00  0.00     0.169 HD
BRANCH  20  24
HETATM   24  N7  UNL     1       1.990   1.556  32.460  1.00  0.00    -0.380 N 
ATOM     25  H72 UNL     1       2.502   0.753  32.093  1.00  0.00     0.158 HD
ATOM     26  H71 UNL     1       1.593   1.985  31.624  1.00  0.00     0.158 HD
ENDBRANCH  20  24
BRANCH  22  27
HETATM   27  N9  UNL     1      -0.141   1.966  36.729  1.00  0.00    -0.097 N 
HETATM   28  O1  UNL     1      -0.671   2.913  37.318  1.00  0.00    -0.530 OA
HETATM   29  O2  UNL     1      -0.634   0.719  37.012  1.00  0.00    -0.530 OA
ENDBRANCH  22  27
ENDBRANCH  17  18
ENDBRANCH  16  17
ENDBRANCH  15  16
ENDBRANCH  14  15
ENDBRANCH  13  14
ENDBRANCH  12  13
ENDBRANCH  10  12
ENDBRANCH   7  10
BRANCH   4  30
HETATM   30  N3  UNL     1       6.000  -1.948  44.175  1.00  0.00    -0.214 N 
HETATM   31  C5  UNL     1       6.039  -1.439  45.520  1.00  0.00     0.143 C 
HETATM   32  C6  UNL     1       6.113  -2.640  46.438  1.00  0.00     0.058 C 
HETATM   33  C7  UNL     1       5.676  -3.762  45.522  1.00  0.00     0.241 C 
HETATM   34  C10 UNL     1       6.343  -3.363  44.225  1.00  0.00     0.177 C 
BRANCH  33  35
HETATM   35  N4  UNL     1       6.072  -5.049  46.009  1.00  0.00     0.086 N 
HETATM   36  C8  UNL     1       6.587  -5.809  44.886  1.00  0.00     0.310 C 
HETATM   37  C9  UNL     1       7.014  -4.982  47.095  1.00  0.00     0.310 C 
ENDBRANCH  33  35
ENDBRANCH   4  30
BRANCH   1  38
HETATM   38  N1  UNL     1       7.154   0.771  40.497  1.00  0.00    -0.225 N 
ATOM     39  H1  UNL     1       8.125   0.768  40.808  1.00  0.00     0.177 HD
BRANCH  38  40
HETATM   40  C2  UNL     1       6.817   1.459  39.272  1.00  0.00     0.133 C 
HETATM   41  C1  UNL     1       7.841   1.110  38.194  1.00  0.00     0.027 C 
ENDBRANCH  38  40
ENDBRANCH   1  38
TORSDOF 14
ENDMDL
MODEL 3
REMARK VINA RESULT: -7.739628010      1.705      2.458
REMARK  14 active torsions:
REMARK  status: ('A' for Active; 'I' for Inactive)
REMARK    1  A    between atoms: C2_2  and  N1_3 
REMARK    2  A    between atoms: N1_3  and  C3_5 
REMARK    3  A    between atoms: C4_8  and  N3_9 
REMARK    4  A    between atoms: C7_12  and  N4_13 
REMARK    5  A    between atoms: C11_19  and  N6_20 
REMARK    6  A    between atoms: N6_20  and  C12_22 
REMARK    7  A    between atoms: C12_22  and  C13_23 
REMARK    8  A    between atoms: C13_23  and  S1_24 
REMARK    9  A    between atoms: S1_24  and  C14_25 
REMARK   10  A    between atoms: C14_25  and  C15_26 
REMARK   11  A    between atoms: C15_26  and  C16_27 
REMARK   12  A    between atoms: C16_27  and  C17_28 
REMARK   13  A    between atoms: C18_30  and  N7_31 
REMARK   14  A    between atoms: C19_36  and  N9_37 
ROOT
HETATM    1  C3  UNL     1       2.523  -1.601  42.488  1.00  0.00     0.707 A 
HETATM    2  N2  UNL     1       2.974  -0.557  41.754  1.00  0.00    -0.021 N 
ATOM      3  H2  UNL     1       2.338   0.192  41.479  1.00  0.00     0.203 HD
HETATM    4  C4  UNL     1       4.275  -0.519  41.391  1.00  0.00     0.709 A 
HETATM    5  N5  UNL     1       5.042  -1.533  41.788  1.00  0.00    -0.021 N 
ATOM      6  H5  UNL     1       6.025  -1.513  41.520  1.00  0.00     0.203 HD
HETATM    7  C11 UNL     1       4.616  -2.580  42.517  1.00  0.00     0.707 A 
HETATM    8  N10 UNL     1       3.327  -2.614  42.875  1.00  0.00    -0.022 N 
ATOM      9  H10 UNL     1       2.960  -3.388  43.427  1.00  0.00     0.203 HD
ENDROOT
BRANCH   7  10
HETATM   10  N6  UNL     1       5.441  -3.504  42.844  1.00  0.00    -0.224 N 
ATOM     11  H6  UNL     1       5.735  -4.129  42.093  1.00  0.00     0.177 HD
BRANCH  10  12
HETATM   12  C12 UNL     1       5.997  -3.764  44.128  1.00  0.00     0.148 C 
BRANCH  12  13
HETATM   13  C13 UNL     1       6.072  -2.540  45.014  1.00  0.00     0.094 C 
BRANCH  13  14
HETATM   14  S1  UNL     1       5.861  -3.095  46.738  1.00  0.00    -0.167 SA
BRANCH  14  15
HETATM   15  C14 UNL     1       7.468  -3.337  47.530  1.00  0.00     0.074 C 
BRANCH  15  16
HETATM   16  C15 UNL     1       7.633  -4.791  47.991  1.00  0.00     0.015 C 
BRANCH  16  17
HETATM   17  C16 UNL     1       7.977  -5.577  46.775  1.00  0.00     0.051 C 
BRANCH  17  18
HETATM   18  C17 UNL     1       6.917  -6.566  46.367  1.00  0.00     0.036 A 
HETATM   19  S2  UNL     1       5.469  -6.978  47.188  1.00  0.00    -0.055 SA
HETATM   20  C18 UNL     1       4.854  -8.094  46.063  1.00  0.00     0.144 A 
HETATM   21  N8  UNL     1       5.778  -8.108  45.108  1.00  0.00    -0.317 N 
HETATM   22  C19 UNL     1       6.829  -7.348  45.236  1.00  0.00     0.189 A 
ATOM     23  H8  UNL     1       5.666  -8.704  44.287  1.00  0.00     0.169 HD
BRANCH  20  24
HETATM   24  N7  UNL     1       3.736  -8.785  46.113  1.00  0.00    -0.380 N 
ATOM     25  H72 UNL     1       2.822  -8.472  46.440  1.00  0.00     0.158 HD
ATOM     26  H71 UNL     1       3.569  -9.753  45.837  1.00  0.00     0.158 HD
ENDBRANCH  20  24
BRANCH  22  27
HETATM   27  N9  UNL     1       7.902  -7.338  44.246  1.00  0.00    -0.097 N 
HETATM   28  O1  UNL     1       9.005  -7.849  44.468  1.00  0.00    -0.530 OA
HETATM   29  O2  UNL     1       7.729  -6.775  43.009  1.00  0.00    -0.530 OA
ENDBRANCH  22  27
ENDBRANCH  17  18
ENDBRANCH  16  17
ENDBRANCH  15  16
ENDBRANCH  14  15
ENDBRANCH  13  14
ENDBRANCH  12  13
ENDBRANCH  10  12
ENDBRANCH   7  10
BRANCH   4  30
HETATM   30  N3  UNL     1       4.801   0.549  40.620  1.00  0.00    -0.214 N 
HETATM   31  C5  UNL     1       6.191   0.724  40.291  1.00  0.00     0.143 C 
HETATM   32  C6  UNL     1       6.254   1.789  39.218  1.00  0.00     0.058 C 
HETATM   33  C7  UNL     1       4.823   1.823  38.728  1.00  0.00     0.241 C 
HETATM   34  C10 UNL     1       4.060   1.651  40.021  1.00  0.00     0.177 C 
BRANCH  33  35
HETATM   35  N4  UNL     1       4.516   3.034  38.027  1.00  0.00     0.086 N 
HETATM   36  C8  UNL     1       4.136   2.679  36.673  1.00  0.00     0.310 C 
HETATM   37  C9  UNL     1       3.512   3.831  38.681  1.00  0.00     0.310 C 
ENDBRANCH  33  35
ENDBRANCH   4  30
BRANCH   1  38
HETATM   38  N1  UNL     1       1.287  -1.670  42.851  1.00  0.00    -0.225 N 
ATOM     39  H1  UNL     1       0.567  -1.744  42.134  1.00  0.00     0.177 HD
BRANCH  38  40
HETATM   40  C2  UNL     1       0.886  -1.648  44.239  1.00  0.00     0.133 C 
HETATM   41  C1  UNL     1       0.884  -0.207  44.745  1.00  0.00     0.027 C 
ENDBRANCH  38  40
ENDBRANCH   1  38
TORSDOF 14
ENDMDL
MODEL 4
REMARK VINA RESULT: -7.730609185      3.838      8.740
REMARK  14 active torsions:
REMARK  status: ('A' for Active; 'I' for Inactive)
REMARK    1  A    between atoms: C2_2  and  N1_3 
REMARK    2  A    between atoms: N1_3  and  C3_5 
REMARK    3  A    between atoms: C4_8  and  N3_9 
REMARK    4  A    between atoms: C7_12  and  N4_13 
REMARK    5  A    between atoms: C11_19  and  N6_20 
REMARK    6  A    between atoms: N6_20  and  C12_22 
REMARK    7  A    between atoms: C12_22  and  C13_23 
REMARK    8  A    between atoms: C13_23  and  S1_24 
REMARK    9  A    between atoms: S1_24  and  C14_25 
REMARK   10  A    between atoms: C14_25  and  C15_26 
REMARK   11  A    between atoms: C15_26  and  C16_27 
REMARK   12  A    between atoms: C16_27  and  C17_28 
REMARK   13  A    between atoms: C18_30  and  N7_31 
REMARK   14  A    between atoms: C19_36  and  N9_37 
ROOT
HETATM    1  C3  UNL     1       5.949  -4.962  43.923  1.00  0.00     0.707 A 
HETATM    2  N2  UNL     1       5.100  -5.580  44.776  1.00  0.00    -0.021 N 
ATOM      3  H2  UNL     1       5.416  -6.372  45.335  1.00  0.00     0.203 HD
HETATM    4  C4  UNL     1       3.827  -5.135  44.878  1.00  0.00     0.709 A 
HETATM    5  N5  UNL     1       3.489  -4.096  44.116  1.00  0.00    -0.021 N 
ATOM      6  H5  UNL     1       2.532  -3.753  44.186  1.00  0.00     0.203 HD
HETATM    7  C11 UNL     1       4.315  -3.467  43.262  1.00  0.00     0.707 A 
HETATM    8  N10 UNL     1       5.575  -3.911  43.164  1.00  0.00    -0.022 N 
ATOM      9  H10 UNL     1       6.237  -3.464  42.530  1.00  0.00     0.203 HD
ENDROOT
BRANCH   7  10
HETATM   10  N6  UNL     1       3.884  -2.476  42.574  1.00  0.00    -0.224 N 
ATOM     11  H6  UNL     1       2.965  -2.118  42.831  1.00  0.00     0.177 HD
BRANCH  10  12
HETATM   12  C12 UNL     1       4.534  -1.814  41.495  1.00  0.00     0.148 C 
BRANCH  12  13
HETATM   13  C13 UNL     1       4.025  -0.410  41.251  1.00  0.00     0.094 C 
BRANCH  13  14
HETATM   14  S1  UNL     1       2.380  -0.279  42.026  1.00  0.00    -0.167 SA
BRANCH  14  15
HETATM   15  C14 UNL     1       2.335   1.098  43.197  1.00  0.00     0.074 C 
BRANCH  15  16
HETATM   16  C15 UNL     1       2.658   0.615  44.617  1.00  0.00     0.015 C 
BRANCH  16  17
HETATM   17  C16 UNL     1       4.134   0.725  44.769  1.00  0.00     0.051 C 
BRANCH  17  18
HETATM   18  C17 UNL     1       4.763  -0.440  45.489  1.00  0.00     0.036 A 
HETATM   19  S2  UNL     1       4.091  -1.418  46.726  1.00  0.00    -0.055 SA
HETATM   20  C18 UNL     1       5.396  -2.486  46.935  1.00  0.00     0.144 A 
HETATM   21  N8  UNL     1       6.291  -2.053  46.054  1.00  0.00    -0.317 N 
HETATM   22  C19 UNL     1       5.998  -1.022  45.312  1.00  0.00     0.189 A 
ATOM     23  H8  UNL     1       7.193  -2.520  45.959  1.00  0.00     0.169 HD
BRANCH  20  24
HETATM   24  N7  UNL     1       5.508  -3.501  47.765  1.00  0.00    -0.380 N 
ATOM     25  H72 UNL     1       4.769  -4.120  48.099  1.00  0.00     0.158 HD
ATOM     26  H71 UNL     1       6.343  -3.859  48.229  1.00  0.00     0.158 HD
ENDBRANCH  20  24
BRANCH  22  27
HETATM   27  N9  UNL     1       6.945  -0.468  44.349  1.00  0.00    -0.097 N 
HETATM   28  O1  UNL     1       7.124  -0.975  43.237  1.00  0.00    -0.530 OA
HETATM   29  O2  UNL     1       7.673   0.659  44.630  1.00  0.00    -0.530 OA
ENDBRANCH  22  27
ENDBRANCH  17  18
ENDBRANCH  16  17
ENDBRANCH  15  16
ENDBRANCH  14  15
ENDBRANCH  13  14
ENDBRANCH  12  13
ENDBRANCH  10  12
ENDBRANCH   7  10
BRANCH   4  30
HETATM   30  N3  UNL     1       2.893  -5.746  45.753  1.00  0.00    -0.214 N 
HETATM   31  C5  UNL     1       1.463  -5.693  45.602  1.00  0.00     0.143 C 
HETATM   32  C6  UNL     1       0.887  -6.719  46.554  1.00  0.00     0.058 C 
HETATM   33  C7  UNL     1       2.096  -7.575  46.861  1.00  0.00     0.241 C 
HETATM   34  C10 UNL     1       3.187  -6.531  46.945  1.00  0.00     0.177 C 
BRANCH  33  35
HETATM   35  N4  UNL     1       1.931  -8.342  48.059  1.00  0.00     0.086 N 
HETATM   36  C8  UNL     1       0.512  -8.582  48.239  1.00  0.00     0.310 C 
HETATM   37  C9  UNL     1       2.692  -9.564  48.062  1.00  0.00     0.310 C 
ENDBRANCH  33  35
ENDBRANCH   4  30
BRANCH   1  38
HETATM   38  N1  UNL     1       7.170  -5.361  43.800  1.00  0.00    -0.225 N 
ATOM     39  H1  UNL     1       7.907  -4.663  43.700  1.00  0.00     0.177 HD
BRANCH  38  40
HETATM   40  C2  UNL     1       7.531  -6.759  43.797  1.00  0.00     0.133 C 
HETATM   41  C1  UNL     1       7.949  -7.174  42.388  1.00  0.00     0.027 C 
ENDBRANCH  38  40
ENDBRANCH   1  38
TORSDOF 14
ENDMDL
MODEL 5
REMARK VINA RESULT: -7.682226009      0.939      2.537
REMARK  14 active torsions:
REMARK  status: ('A' for Active; 'I' for Inactive)
REMARK    1  A    between atoms: C2_2  and  N1_3 
REMARK    2  A    between atoms: N1_3  and  C3_5 
REMARK    3  A    between atoms: C4_8  and  N3_9 
REMARK    4  A    between atoms: C7_12  and  N4_13 
REMARK    5  A    between atoms: C11_19  and  N6_20 
REMARK    6  A    between atoms: N6_20  and  C12_22 
REMARK    7  A    between atoms: C12_22  and  C13_23 
REMARK    8  A    between atoms: C13_23  and  S1_24 
REMARK    9  A    between atoms: S1_24  and  C14_25 
REMARK   10  A    between atoms: C14_25  and  C15_26 
REMARK   11  A    between atoms: C15_26  and  C16_27 
REMARK   12  A    between atoms: C16_27  and  C17_28 
REMARK   13  A    between atoms: C18_30  and  N7_31 
REMARK   14  A    between atoms: C19_36  and  N9_37 
ROOT
HETATM    1  C3  UNL     1       6.179  -0.124  42.519  1.00  0.00     0.707 A 
HETATM    2  N2  UNL     1       6.259   0.730  41.474  1.00  0.00    -0.021 N 
ATOM      3  H2  UNL     1       7.055   1.360  41.382  1.00  0.00     0.203 HD
HETATM    4  C4  UNL     1       5.270   0.738  40.552  1.00  0.00     0.709 A 
HETATM    5  N5  UNL     1       4.264  -0.114  40.740  1.00  0.00    -0.021 N 
ATOM      6  H5  UNL     1       3.513  -0.116  40.051  1.00  0.00     0.203 HD
HETATM    7  C11 UNL     1       4.163  -0.971  41.772  1.00  0.00     0.707 A 
HETATM    8  N10 UNL     1       5.145  -0.976  42.682  1.00  0.00    -0.022 N 
ATOM      9  H10 UNL     1       5.111  -1.609  43.481  1.00  0.00     0.203 HD
ENDROOT
BRANCH   7  10
HETATM   10  N6  UNL     1       3.148  -1.747  41.857  1.00  0.00    -0.224 N 
ATOM     11  H6  UNL     1       2.967  -2.339  41.046  1.00  0.00     0.177 HD
BRANCH  10  12
HETATM   12  C12 UNL     1       2.243  -1.884  42.946  1.00  0.00     0.148 C 
BRANCH  12  13
HETATM   13  C13 UNL     1       2.448  -3.150  43.748  1.00  0.00     0.094 C 
BRANCH  13  14
HETATM   14  S1  UNL     1       3.367  -2.701  45.258  1.00  0.00    -0.167 SA
BRANCH  14  15
HETATM   15  C14 UNL     1       5.078  -3.277  45.158  1.00  0.00     0.074 C 
BRANCH  15  16
HETATM   16  C15 UNL     1       5.237  -4.315  44.040  1.00  0.00     0.015 C 
BRANCH  16  17
HETATM   17  C16 UNL     1       6.288  -5.263  44.499  1.00  0.00     0.051 C 
BRANCH  17  18
HETATM   18  C17 UNL     1       5.970  -5.940  45.807  1.00  0.00     0.036 A 
HETATM   19  S2  UNL     1       4.568  -6.830  46.235  1.00  0.00    -0.055 SA
HETATM   20  C18 UNL     1       5.024  -7.269  47.812  1.00  0.00     0.144 A 
HETATM   21  N8  UNL     1       6.227  -6.720  47.948  1.00  0.00    -0.317 N 
HETATM   22  C19 UNL     1       6.727  -6.044  46.952  1.00  0.00     0.189 A 
ATOM     23  H8  UNL     1       6.749  -6.827  48.818  1.00  0.00     0.169 HD
BRANCH  20  24
HETATM   24  N7  UNL     1       4.358  -7.980  48.696  1.00  0.00    -0.380 N 
ATOM     25  H72 UNL     1       3.448  -7.773  49.107  1.00  0.00     0.158 HD
ATOM     26  H71 UNL     1       4.619  -8.864  49.133  1.00  0.00     0.158 HD
ENDBRANCH  20  24
BRANCH  22  27
HETATM   27  N9  UNL     1       8.025  -5.382  47.043  1.00  0.00    -0.097 N 
HETATM   28  O1  UNL     1       8.135  -4.189  47.344  1.00  0.00    -0.530 OA
HETATM   29  O2  UNL     1       9.193  -6.062  46.813  1.00  0.00    -0.530 OA
ENDBRANCH  22  27
ENDBRANCH  17  18
ENDBRANCH  16  17
ENDBRANCH  15  16
ENDBRANCH  14  15
ENDBRANCH  13  14
ENDBRANCH  12  13
ENDBRANCH  10  12
ENDBRANCH   7  10
BRANCH   4  30
HETATM   30  N3  UNL     1       5.299   1.614  39.437  1.00  0.00    -0.214 N 
HETATM   31  C5  UNL     1       6.484   1.986  38.710  1.00  0.00     0.143 C 
HETATM   32  C6  UNL     1       6.021   2.665  37.440  1.00  0.00     0.058 C 
HETATM   33  C7  UNL     1       4.574   2.231  37.364  1.00  0.00     0.241 C 
HETATM   34  C10 UNL     1       4.167   2.291  38.819  1.00  0.00     0.177 C 
BRANCH  33  35
HETATM   35  N4  UNL     1       3.796   3.075  36.507  1.00  0.00     0.086 N 
HETATM   36  C8  UNL     1       3.797   2.484  35.182  1.00  0.00     0.310 C 
HETATM   37  C9  UNL     1       2.463   3.309  36.995  1.00  0.00     0.310 C 
ENDBRANCH  33  35
ENDBRANCH   4  30
BRANCH   1  38
HETATM   38  N1  UNL     1       7.105  -0.158  43.419  1.00  0.00    -0.225 N 
ATOM     39  H1  UNL     1       7.824  -0.878  43.356  1.00  0.00     0.177 HD
BRANCH  38  40
HETATM   40  C2  UNL     1       7.158   0.786  44.510  1.00  0.00     0.133 C 
HETATM   41  C1  UNL     1       5.875   0.687  45.332  1.00  0.00     0.027 C 
ENDBRANCH  38  40
ENDBRANCH   1  38
TORSDOF 14
ENDMDL
