MODEL 1
REMARK VINA RESULT: -8.864427828      0.000      0.000
REMARK  12 active torsions:
REMARK  status: ('A' for Active; 'I' for Inactive)
REMARK    1  A    between atoms: C2_2  and  C3_3 
REMARK    2  A    between atoms: C3_3  and  C5_5 
REMARK    3  A    between atoms: C5_5  and  N1_6 
REMARK    4  A    between atoms: C5_5  and  C7_10 
REMARK       I    between atoms: C7_10  and  N2_12 
REMARK    5  A    between atoms: N2_12  and  C8_14 
REMARK    6  A    between atoms: C9_17  and  N4_18 
REMARK    7  A    between atoms: N4_18  and  C10_20 
REMARK    8  A    between atoms: C10_20  and  C11_21 
REMARK    9  A    between atoms: C11_21  and  N5_22 
REMARK   10  A    between atoms: N5_22  and  C12_24 
REMARK   11  A    between atoms: C13_27  and  O2_28 
REMARK   12  A    between atoms: C18_36  and  N8_37 
ROOT
HETATM    1  C8  UNL     1       3.566   1.525  40.745  1.00  0.00     0.132 A 
HETATM    2  N3  UNL     1       3.235   0.837  41.834  1.00  0.00    -0.325 N 
ATOM      3  H3  UNL     1       2.243   0.740  42.053  1.00  0.00     0.169 HD
HETATM    4  C9  UNL     1       4.145   0.243  42.690  1.00  0.00     0.142 A 
HETATM    5  C18 UNL     1       5.468   0.394  42.365  1.00  0.00     0.172 A 
HETATM    6  C19 UNL     1       5.860   1.110  41.228  1.00  0.00     0.107 A 
HETATM    7  N9  UNL     1       7.258   1.252  40.910  1.00  0.00    -0.098 NA
HETATM    8  C20 UNL     1       4.918   1.671  40.426  1.00  0.00     0.115 A 
HETATM    9  C21 UNL     1       5.367   2.396  39.272  1.00  0.00     0.105 C 
HETATM   10  N10 UNL     1       5.716   2.992  38.342  1.00  0.00    -0.191 NA
ENDROOT
BRANCH   1  11
HETATM   11  N2  UNL     1       2.661   2.158  39.847  1.00  0.00    -0.310 N 
HETATM   12  C7  UNL     1       1.608   2.972  40.201  1.00  0.00     0.254 C 
HETATM   13  O1  UNL     1       1.335   3.206  41.422  1.00  0.00    -0.271 OA
ATOM     14  H2  UNL     1       2.805   1.994  38.851  1.00  0.00     0.170 HD
BRANCH  12  15
HETATM   15  C5  UNL     1       0.631   3.689  39.289  1.00  0.00     0.280 C 
BRANCH  15  16
HETATM   16  C3  UNL     1       0.200   2.966  38.102  1.00  0.00     0.021 C 
HETATM   17  C4  UNL     1       1.183   2.761  36.998  1.00  0.00     0.012 C 
BRANCH  16  18
HETATM   18  C2  UNL     1      -0.534   1.655  38.354  1.00  0.00     0.002 C 
HETATM   19  C1  UNL     1      -0.673   0.817  37.119  1.00  0.00     0.005 C 
ENDBRANCH  16  18
ENDBRANCH  15  16
BRANCH  15  20
HETATM   20  N1  UNL     1      -0.439   4.175  40.171  1.00  0.00    -0.066 N 
HETATM   21  C6  UNL     1      -0.993   5.411  39.733  1.00  0.00     0.267 C 
ATOM     22  H12 UNL     1      -1.166   3.469  40.289  1.00  0.00     0.277 HD
ATOM     23  H11 UNL     1      -0.116   4.240  41.137  1.00  0.00     0.277 HD
ENDBRANCH  15  20
ENDBRANCH  12  15
ENDBRANCH   1  11
BRANCH   5  24
HETATM   24  N8  UNL     1       6.505  -0.158  43.132  1.00  0.00    -0.110 N 
HETATM   25  O3  UNL     1       7.131  -1.142  42.729  1.00  0.00    -0.532 OA
HETATM   26  O4  UNL     1       6.814   0.376  44.349  1.00  0.00    -0.532 OA
ENDBRANCH   5  24
BRANCH   4  27
HETATM   27  N4  UNL     1       3.728  -0.369  43.661  1.00  0.00    -0.352 N 
ATOM     28  H4  UNL     1       3.490   0.353  44.340  1.00  0.00     0.166 HD
BRANCH  27  29
HETATM   29  C10 UNL     1       3.425  -1.537  44.280  1.00  0.00     0.082 C 
BRANCH  29  30
HETATM   30  C11 UNL     1       3.763  -2.833  43.511  1.00  0.00     0.165 C 
BRANCH  30  31
HETATM   31  N5  UNL     1       5.123  -3.083  43.715  1.00  0.00    -0.371 N 
ATOM     32  H5  UNL     1       5.673  -2.349  43.269  1.00  0.00     0.161 HD
BRANCH  31  33
HETATM   33  C12 UNL     1       5.876  -3.886  44.249  1.00  0.00     0.114 A 
HETATM   34  N6  UNL     1       6.177  -5.056  43.590  1.00  0.00    -0.308 N 
HETATM   35  C13 UNL     1       6.989  -5.987  44.089  1.00  0.00     0.226 A 
ATOM     36  H6  UNL     1       5.758  -5.217  42.674  1.00  0.00     0.171 HD
HETATM   37  N7  UNL     1       7.555  -5.807  45.284  1.00  0.00    -0.298 N 
HETATM   38  C15 UNL     1       7.316  -4.707  45.983  1.00  0.00     0.201 A 
ATOM     39  H7  UNL     1       8.177  -6.521  45.663  1.00  0.00     0.171 HD
HETATM   40  F1  UNL     1       7.908  -4.548  47.200  1.00  0.00    -0.185 F 
HETATM   41  C16 UNL     1       6.463  -3.718  45.472  1.00  0.00     0.038 A 
HETATM   42  C17 UNL     1       6.253  -2.515  46.336  1.00  0.00     0.057 C 
BRANCH  35  43
HETATM   43  O2  UNL     1       7.290  -7.169  43.418  1.00  0.00    -0.327 OA
HETATM   44  C14 UNL     1       8.077  -7.180  42.234  1.00  0.00     0.213 C 
ENDBRANCH  35  43
ENDBRANCH  31  33
ENDBRANCH  30  31
ENDBRANCH  29  30
ENDBRANCH  27  29
ENDBRANCH   4  27
TORSDOF 12
ENDMDL
MODEL 2
REMARK VINA RESULT: -8.696732691      0.932      1.700
REMARK  12 active torsions:
REMARK  status: ('A' for Active; 'I' for Inactive)
REMARK    1  A    between atoms: C2_2  and  C3_3 
REMARK    2  A    between atoms: C3_3  and  C5_5 
REMARK    3  A    between atoms: C5_5  and  N1_6 
REMARK    4  A    between atoms: C5_5  and  C7_10 
REMARK       I    between atoms: C7_10  and  N2_12 
REMARK    5  A    between atoms: N2_12  and  C8_14 
REMARK    6  A    between atoms: C9_17  and  N4_18 
REMARK    7  A    between atoms: N4_18  and  C10_20 
REMARK    8  A    between atoms: C10_20  and  C11_21 
REMARK    9  A    between atoms: C11_21  and  N5_22 
REMARK   10  A    between atoms: N5_22  and  C12_24 
REMARK   11  A    between atoms: C13_27  and  O2_28 
REMARK   12  A    between atoms: C18_36  and  N8_37 
ROOT
HETATM    1  C8  UNL     1       3.659   1.588  41.198  1.00  0.00     0.132 A 
HETATM    2  N3  UNL     1       3.410   0.900  42.309  1.00  0.00    -0.325 N 
ATOM      3  H3  UNL     1       2.444   0.850  42.632  1.00  0.00     0.169 HD
HETATM    4  C9  UNL     1       4.375   0.247  43.055  1.00  0.00     0.142 A 
HETATM    5  C18 UNL     1       5.661   0.337  42.592  1.00  0.00     0.172 A 
HETATM    6  C19 UNL     1       5.967   1.051  41.428  1.00  0.00     0.107 A 
HETATM    7  N9  UNL     1       7.328   1.127  40.963  1.00  0.00    -0.098 NA
HETATM    8  C20 UNL     1       4.975   1.671  40.737  1.00  0.00     0.115 A 
HETATM    9  C21 UNL     1       5.335   2.392  39.550  1.00  0.00     0.105 C 
HETATM   10  N10 UNL     1       5.614   2.985  38.595  1.00  0.00    -0.191 NA
ENDROOT
BRANCH   1  11
HETATM   11  N2  UNL     1       2.697   2.281  40.410  1.00  0.00    -0.310 N 
HETATM   12  C7  UNL     1       1.419   1.850  40.131  1.00  0.00     0.254 C 
HETATM   13  O1  UNL     1       0.992   0.729  40.555  1.00  0.00    -0.271 OA
ATOM     14  H2  UNL     1       2.980   3.178  40.016  1.00  0.00     0.170 HD
BRANCH  12  15
HETATM   15  C5  UNL     1       0.349   2.557  39.321  1.00  0.00     0.280 C 
BRANCH  15  16
HETATM   16  C3  UNL     1       0.288   4.006  39.450  1.00  0.00     0.021 C 
HETATM   17  C4  UNL     1       0.996   4.840  38.435  1.00  0.00     0.012 C 
BRANCH  16  18
HETATM   18  C2  UNL     1      -1.097   4.593  39.687  1.00  0.00     0.002 C 
HETATM   19  C1  UNL     1      -1.316   5.884  38.957  1.00  0.00     0.005 C 
ENDBRANCH  16  18
ENDBRANCH  15  16
BRANCH  15  20
HETATM   20  N1  UNL     1       0.491   2.038  37.953  1.00  0.00    -0.066 N 
HETATM   21  C6  UNL     1      -0.671   1.348  37.505  1.00  0.00     0.267 C 
ATOM     22  H12 UNL     1       0.749   2.781  37.304  1.00  0.00     0.277 HD
ATOM     23  H11 UNL     1       1.320   1.450  37.869  1.00  0.00     0.277 HD
ENDBRANCH  15  20
ENDBRANCH  12  15
ENDBRANCH   1  11
BRANCH   5  24
HETATM   24  N8  UNL     1       6.744  -0.279  43.237  1.00  0.00    -0.110 N 
HETATM   25  O3  UNL     1       7.285   0.255  44.209  1.00  0.00    -0.532 OA
HETATM   26  O4  UNL     1       7.228  -1.468  42.774  1.00  0.00    -0.532 OA
ENDBRANCH   5  24
BRANCH   4  27
HETATM   27  N4  UNL     1       4.032  -0.360  44.058  1.00  0.00    -0.352 N 
ATOM     28  H4  UNL     1       4.148   0.310  44.818  1.00  0.00     0.166 HD
BRANCH  27  29
HETATM   29  C10 UNL     1       3.574  -1.486  44.658  1.00  0.00     0.082 C 
BRANCH  29  30
HETATM   30  C11 UNL     1       3.807  -2.813  43.905  1.00  0.00     0.165 C 
BRANCH  30  31
HETATM   31  N5  UNL     1       5.170  -3.104  44.008  1.00  0.00    -0.371 N 
ATOM     32  H5  UNL     1       5.709  -2.357  43.568  1.00  0.00     0.161 HD
BRANCH  31  33
HETATM   33  C12 UNL     1       5.935  -3.952  44.447  1.00  0.00     0.114 A 
HETATM   34  N6  UNL     1       6.185  -5.076  43.694  1.00  0.00    -0.308 N 
HETATM   35  C13 UNL     1       7.005  -6.051  44.087  1.00  0.00     0.226 A 
ATOM     36  H6  UNL     1       5.720  -5.168  42.792  1.00  0.00     0.171 HD
HETATM   37  N7  UNL     1       7.630  -5.962  45.263  1.00  0.00    -0.298 N 
HETATM   38  C15 UNL     1       7.442  -4.910  46.048  1.00  0.00     0.201 A 
ATOM     39  H7  UNL     1       8.257  -6.709  45.561  1.00  0.00     0.171 HD
HETATM   40  F1  UNL     1       8.094  -4.845  47.242  1.00  0.00    -0.185 F 
HETATM   41  C16 UNL     1       6.582  -3.878  45.648  1.00  0.00     0.038 A 
HETATM   42  C17 UNL     1       6.433  -2.735  46.604  1.00  0.00     0.057 C 
BRANCH  35  43
HETATM   43  O2  UNL     1       7.254  -7.186  43.323  1.00  0.00    -0.327 OA
HETATM   44  C14 UNL     1       8.139  -7.162  42.210  1.00  0.00     0.213 C 
ENDBRANCH  35  43
ENDBRANCH  31  33
ENDBRANCH  30  31
ENDBRANCH  29  30
ENDBRANCH  27  29
ENDBRANCH   4  27
TORSDOF 12
ENDMDL
MODEL 3
REMARK VINA RESULT: -8.510423216      0.942      1.661
REMARK  12 active torsions:
REMARK  status: ('A' for Active; 'I' for Inactive)
REMARK    1  A    between atoms: C2_2  and  C3_3 
REMARK    2  A    between atoms: C3_3  and  C5_5 
REMARK    3  A    between atoms: C5_5  and  N1_6 
REMARK    4  A    between atoms: C5_5  and  C7_10 
REMARK       I    between atoms: C7_10  and  N2_12 
REMARK    5  A    between atoms: N2_12  and  C8_14 
REMARK    6  A    between atoms: C9_17  and  N4_18 
REMARK    7  A    between atoms: N4_18  and  C10_20 
REMARK    8  A    between atoms: C10_20  and  C11_21 
REMARK    9  A    between atoms: C11_21  and  N5_22 
REMARK   10  A    between atoms: N5_22  and  C12_24 
REMARK   11  A    between atoms: C13_27  and  O2_28 
REMARK   12  A    between atoms: C18_36  and  N8_37 
ROOT
HETATM    1  C8  UNL     1       3.493   1.072  40.946  1.00  0.00     0.132 A 
HETATM    2  N3  UNL     1       3.325   0.497  42.134  1.00  0.00    -0.325 N 
ATOM      3  H3  UNL     1       2.371   0.343  42.459  1.00  0.00     0.169 HD
HETATM    4  C9  UNL     1       4.360   0.095  42.960  1.00  0.00     0.142 A 
HETATM    5  C18 UNL     1       5.629   0.320  42.493  1.00  0.00     0.172 A 
HETATM    6  C19 UNL     1       5.850   0.922  41.248  1.00  0.00     0.107 A 
HETATM    7  N9  UNL     1       7.194   1.144  40.782  1.00  0.00    -0.098 NA
HETATM    8  C20 UNL     1       4.791   1.295  40.482  1.00  0.00     0.115 A 
HETATM    9  C21 UNL     1       5.065   1.908  39.215  1.00  0.00     0.105 C 
HETATM   10  N10 UNL     1       5.273   2.413  38.194  1.00  0.00    -0.191 NA
ENDROOT
BRANCH   1  11
HETATM   11  N2  UNL     1       2.456   1.509  40.075  1.00  0.00    -0.310 N 
HETATM   12  C7  UNL     1       1.496   2.451  40.368  1.00  0.00     0.254 C 
HETATM   13  O1  UNL     1       1.446   3.010  41.510  1.00  0.00    -0.271 OA
ATOM     14  H2  UNL     1       2.420   1.084  39.147  1.00  0.00     0.170 HD
BRANCH  12  15
HETATM   15  C5  UNL     1       0.388   2.970  39.471  1.00  0.00     0.280 C 
BRANCH  15  16
HETATM   16  C3  UNL     1       0.707   4.127  38.648  1.00  0.00     0.021 C 
HETATM   17  C4  UNL     1       0.125   5.449  39.024  1.00  0.00     0.012 C 
BRANCH  16  18
HETATM   18  C2  UNL     1       2.180   4.318  38.313  1.00  0.00     0.002 C 
HETATM   19  C1  UNL     1       2.738   5.602  38.848  1.00  0.00     0.005 C 
ENDBRANCH  16  18
ENDBRANCH  15  16
BRANCH  15  20
HETATM   20  N1  UNL     1      -0.116   1.789  38.755  1.00  0.00    -0.066 N 
HETATM   21  C6  UNL     1      -0.545   2.093  37.432  1.00  0.00     0.267 C 
ATOM     22  H12 UNL     1       0.575   1.039  38.753  1.00  0.00     0.277 HD
ATOM     23  H11 UNL     1      -0.858   1.329  39.284  1.00  0.00     0.277 HD
ENDBRANCH  15  20
ENDBRANCH  12  15
ENDBRANCH   1  11
BRANCH   5  24
HETATM   24  N8  UNL     1       6.777  -0.041  43.213  1.00  0.00    -0.110 N 
HETATM   25  O3  UNL     1       7.220  -1.191  43.157  1.00  0.00    -0.532 OA
HETATM   26  O4  UNL     1       7.401   0.876  44.007  1.00  0.00    -0.532 OA
ENDBRANCH   5  24
BRANCH   4  27
HETATM   27  N4  UNL     1       4.090  -0.426  44.031  1.00  0.00    -0.352 N 
ATOM     28  H4  UNL     1       3.932   0.355  44.667  1.00  0.00     0.166 HD
BRANCH  27  29
HETATM   29  C10 UNL     1       3.897  -1.534  44.789  1.00  0.00     0.082 C 
BRANCH  29  30
HETATM   30  C11 UNL     1       4.101  -2.894  44.089  1.00  0.00     0.165 C 
BRANCH  30  31
HETATM   31  N5  UNL     1       5.456  -3.216  44.213  1.00  0.00    -0.371 N 
ATOM     32  H5  UNL     1       6.020  -2.457  43.830  1.00  0.00     0.161 HD
BRANCH  31  33
HETATM   33  C12 UNL     1       6.192  -4.100  44.627  1.00  0.00     0.114 A 
HETATM   34  N6  UNL     1       6.437  -5.191  43.825  1.00  0.00    -0.308 N 
HETATM   35  C13 UNL     1       7.228  -6.202  44.187  1.00  0.00     0.226 A 
ATOM     36  H6  UNL     1       5.991  -5.229  42.909  1.00  0.00     0.171 HD
HETATM   37  N7  UNL     1       7.827  -6.184  45.379  1.00  0.00    -0.298 N 
HETATM   38  C15 UNL     1       7.643  -5.168  46.211  1.00  0.00     0.201 A 
ATOM     39  H7  UNL     1       8.432  -6.958  45.653  1.00  0.00     0.171 HD
HETATM   40  F1  UNL     1       8.268  -5.176  47.421  1.00  0.00    -0.185 F 
HETATM   41  C16 UNL     1       6.814  -4.099  45.844  1.00  0.00     0.038 A 
HETATM   42  C17 UNL     1       6.666  -3.002  46.851  1.00  0.00     0.057 C 
BRANCH  35  43
HETATM   43  O2  UNL     1       7.471  -7.303  43.373  1.00  0.00    -0.327 OA
HETATM   44  C14 UNL     1       8.085  -7.172  42.097  1.00  0.00     0.213 C 
ENDBRANCH  35  43
ENDBRANCH  31  33
ENDBRANCH  30  31
ENDBRANCH  29  30
ENDBRANCH  27  29
ENDBRANCH   4  27
TORSDOF 12
ENDMDL
MODEL 4
REMARK VINA RESULT: -8.506305959      0.771      1.272
REMARK  12 active torsions:
REMARK  status: ('A' for Active; 'I' for Inactive)
REMARK    1  A    between atoms: C2_2  and  C3_3 
REMARK    2  A    between atoms: C3_3  and  C5_5 
REMARK    3  A    between atoms: C5_5  and  N1_6 
REMARK    4  A    between atoms: C5_5  and  C7_10 
REMARK       I    between atoms: C7_10  and  N2_12 
REMARK    5  A    between atoms: N2_12  and  C8_14 
REMARK    6  A    between atoms: C9_17  and  N4_18 
REMARK    7  A    between atoms: N4_18  and  C10_20 
REMARK    8  A    between atoms: C10_20  and  C11_21 
REMARK    9  A    between atoms: C11_21  and  N5_22 
REMARK   10  A    between atoms: N5_22  and  C12_24 
REMARK   11  A    between atoms: C13_27  and  O2_28 
REMARK   12  A    between atoms: C18_36  and  N8_37 
ROOT
HETATM    1  C8  UNL     1       3.800   1.515  40.535  1.00  0.00     0.132 A 
HETATM    2  N3  UNL     1       3.408   0.863  41.627  1.00  0.00    -0.325 N 
ATOM      3  H3  UNL     1       2.407   0.794  41.807  1.00  0.00     0.169 HD
HETATM    4  C9  UNL     1       4.270   0.273  42.534  1.00  0.00     0.142 A 
HETATM    5  C18 UNL     1       5.608   0.386  42.260  1.00  0.00     0.172 A 
HETATM    6  C19 UNL     1       6.062   1.063  41.122  1.00  0.00     0.107 A 
HETATM    7  N9  UNL     1       7.474   1.165  40.858  1.00  0.00    -0.098 NA
HETATM    8  C20 UNL     1       5.167   1.622  40.267  1.00  0.00     0.115 A 
HETATM    9  C21 UNL     1       5.678   2.306  39.115  1.00  0.00     0.105 C 
HETATM   10  N10 UNL     1       6.078   2.870  38.185  1.00  0.00    -0.191 NA
ENDROOT
BRANCH   1  11
HETATM   11  N2  UNL     1       2.946   2.143  39.585  1.00  0.00    -0.310 N 
HETATM   12  C7  UNL     1       1.583   1.977  39.489  1.00  0.00     0.254 C 
HETATM   13  O1  UNL     1       0.957   1.186  40.264  1.00  0.00    -0.271 OA
ATOM     14  H2  UNL     1       3.385   2.774  38.914  1.00  0.00     0.170 HD
BRANCH  12  15
HETATM   15  C5  UNL     1       0.625   2.639  38.516  1.00  0.00     0.280 C 
BRANCH  15  16
HETATM   16  C3  UNL     1       0.611   2.112  37.159  1.00  0.00     0.021 C 
HETATM   17  C4  UNL     1      -0.706   1.786  36.537  1.00  0.00     0.012 C 
BRANCH  16  18
HETATM   18  C2  UNL     1       1.458   2.869  36.144  1.00  0.00     0.002 C 
HETATM   19  C1  UNL     1       2.825   2.279  35.970  1.00  0.00     0.005 C 
ENDBRANCH  16  18
ENDBRANCH  15  16
BRANCH  15  20
HETATM   20  N1  UNL     1      -0.671   2.670  39.208  1.00  0.00    -0.066 N 
HETATM   21  C6  UNL     1      -1.015   3.972  39.671  1.00  0.00     0.267 C 
ATOM     22  H12 UNL     1      -1.410   2.284  38.620  1.00  0.00     0.277 HD
ATOM     23  H11 UNL     1      -0.696   1.992  39.970  1.00  0.00     0.277 HD
ENDBRANCH  15  20
ENDBRANCH  12  15
ENDBRANCH   1  11
BRANCH   5  24
HETATM   24  N8  UNL     1       6.600  -0.168  43.083  1.00  0.00    -0.110 N 
HETATM   25  O3  UNL     1       6.972   0.419  44.103  1.00  0.00    -0.532 OA
HETATM   26  O4  UNL     1       7.184  -1.353  42.745  1.00  0.00    -0.532 OA
ENDBRANCH   5  24
BRANCH   4  27
HETATM   27  N4  UNL     1       3.800  -0.304  43.502  1.00  0.00    -0.352 N 
ATOM     28  H4  UNL     1       3.835   0.382  44.255  1.00  0.00     0.166 HD
BRANCH  27  29
HETATM   29  C10 UNL     1       3.254  -1.409  44.069  1.00  0.00     0.082 C 
BRANCH  29  30
HETATM   30  C11 UNL     1       3.623  -2.765  43.431  1.00  0.00     0.165 C 
BRANCH  30  31
HETATM   31  N5  UNL     1       4.985  -2.969  43.671  1.00  0.00    -0.371 N 
ATOM     32  H5  UNL     1       5.521  -2.216  43.239  1.00  0.00     0.161 HD
BRANCH  31  33
HETATM   33  C12 UNL     1       5.750  -3.747  44.224  1.00  0.00     0.114 A 
HETATM   34  N6  UNL     1       6.056  -4.935  43.602  1.00  0.00    -0.308 N 
HETATM   35  C13 UNL     1       6.881  -5.842  44.125  1.00  0.00     0.226 A 
ATOM     36  H6  UNL     1       5.629  -5.132  42.697  1.00  0.00     0.171 HD
HETATM   37  N7  UNL     1       7.457  -5.616  45.308  1.00  0.00    -0.298 N 
HETATM   38  C15 UNL     1       7.214  -4.494  45.971  1.00  0.00     0.201 A 
ATOM     39  H7  UNL     1       8.089  -6.311  45.704  1.00  0.00     0.171 HD
HETATM   40  F1  UNL     1       7.816  -4.289  47.176  1.00  0.00    -0.185 F 
HETATM   41  C16 UNL     1       6.348  -3.532  45.435  1.00  0.00     0.038 A 
HETATM   42  C17 UNL     1       6.134  -2.301  46.260  1.00  0.00     0.057 C 
BRANCH  35  43
HETATM   43  O2  UNL     1       7.186  -7.043  43.492  1.00  0.00    -0.327 OA
HETATM   44  C14 UNL     1       7.976  -7.089  42.311  1.00  0.00     0.213 C 
ENDBRANCH  35  43
ENDBRANCH  31  33
ENDBRANCH  30  31
ENDBRANCH  29  30
ENDBRANCH  27  29
ENDBRANCH   4  27
TORSDOF 12
ENDMDL
MODEL 5
REMARK VINA RESULT: -8.464922515      3.179      9.899
REMARK  12 active torsions:
REMARK  status: ('A' for Active; 'I' for Inactive)
REMARK    1  A    between atoms: C2_2  and  C3_3 
REMARK    2  A    between atoms: C3_3  and  C5_5 
REMARK    3  A    between atoms: C5_5  and  N1_6 
REMARK    4  A    between atoms: C5_5  and  C7_10 
REMARK       I    between atoms: C7_10  and  N2_12 
REMARK    5  A    between atoms: N2_12  and  C8_14 
REMARK    6  A    between atoms: C9_17  and  N4_18 
REMARK    7  A    between atoms: N4_18  and  C10_20 
REMARK    8  A    between atoms: C10_20  and  C11_21 
REMARK    9  A    between atoms: C11_21  and  N5_22 
REMARK   10  A    between atoms: N5_22  and  C12_24 
REMARK   11  A    between atoms: C13_27  and  O2_28 
REMARK   12  A    between atoms: C18_36  and  N8_37 
ROOT
HETATM    1  C8  UNL     1       4.589  -3.734  43.338  1.00  0.00     0.132 A 
HETATM    2  N3  UNL     1       5.277  -2.797  42.691  1.00  0.00    -0.325 N 
ATOM      3  H3  UNL     1       6.266  -2.970  42.513  1.00  0.00     0.169 HD
HETATM    4  C9  UNL     1       4.740  -1.603  42.244  1.00  0.00     0.142 A 
HETATM    5  C18 UNL     1       3.409  -1.404  42.502  1.00  0.00     0.172 A 
HETATM    6  C19 UNL     1       2.648  -2.364  43.179  1.00  0.00     0.107 A 
HETATM    7  N9  UNL     1       1.250  -2.130  43.435  1.00  0.00    -0.098 NA
HETATM    8  C20 UNL     1       3.233  -3.518  43.593  1.00  0.00     0.115 A 
HETATM    9  C21 UNL     1       2.415  -4.473  44.284  1.00  0.00     0.105 C 
HETATM   10  N10 UNL     1       1.767  -5.248  44.852  1.00  0.00    -0.191 NA
ENDROOT
BRANCH   1  11
HETATM   11  N2  UNL     1       5.107  -4.968  43.822  1.00  0.00    -0.310 N 
HETATM   12  C7  UNL     1       6.340  -5.153  44.408  1.00  0.00     0.254 C 
HETATM   13  O1  UNL     1       7.160  -4.189  44.540  1.00  0.00    -0.271 OA
ATOM     14  H2  UNL     1       4.512  -5.791  43.727  1.00  0.00     0.170 HD
BRANCH  12  15
HETATM   15  C5  UNL     1       6.930  -6.436  44.962  1.00  0.00     0.280 C 
BRANCH  15  16
HETATM   16  C3  UNL     1       6.413  -6.886  46.246  1.00  0.00     0.021 C 
HETATM   17  C4  UNL     1       6.357  -5.909  47.372  1.00  0.00     0.012 C 
BRANCH  16  18
HETATM   18  C2  UNL     1       5.100  -7.657  46.200  1.00  0.00     0.002 C 
HETATM   19  C1  UNL     1       4.010  -7.001  46.993  1.00  0.00     0.005 C 
ENDBRANCH  16  18
ENDBRANCH  15  16
BRANCH  15  20
HETATM   20  N1  UNL     1       6.853  -7.406  43.861  1.00  0.00    -0.066 N 
HETATM   21  C6  UNL     1       7.836  -7.176  42.857  1.00  0.00     0.267 C 
ATOM     22  H12 UNL     1       6.904  -8.363  44.211  1.00  0.00     0.277 HD
ATOM     23  H11 UNL     1       5.916  -7.428  43.457  1.00  0.00     0.277 HD
ENDBRANCH  15  20
ENDBRANCH  12  15
ENDBRANCH   1  11
BRANCH   5  24
HETATM   24  N8  UNL     1       2.723  -0.247  42.102  1.00  0.00    -0.110 N 
HETATM   25  O3  UNL     1       2.916   0.828  42.676  1.00  0.00    -0.532 OA
HETATM   26  O4  UNL     1       1.812  -0.309  41.089  1.00  0.00    -0.532 OA
ENDBRANCH   5  24
BRANCH   4  27
HETATM   27  N4  UNL     1       5.465  -0.815  41.656  1.00  0.00    -0.352 N 
ATOM     28  H4  UNL     1       5.279  -0.980  40.667  1.00  0.00     0.166 HD
BRANCH  27  29
HETATM   29  C10 UNL     1       6.395   0.172  41.673  1.00  0.00     0.082 C 
BRANCH  29  30
HETATM   30  C11 UNL     1       5.944   1.555  41.156  1.00  0.00     0.165 C 
BRANCH  30  31
HETATM   31  N5  UNL     1       5.059   1.323  40.099  1.00  0.00    -0.371 N 
ATOM     32  H5  UNL     1       5.082   0.335  39.848  1.00  0.00     0.161 HD
BRANCH  31  33
HETATM   33  C12 UNL     1       4.265   1.908  39.373  1.00  0.00     0.114 A 
HETATM   34  N6  UNL     1       2.977   2.101  39.816  1.00  0.00    -0.308 N 
HETATM   35  C13 UNL     1       2.045   2.728  39.099  1.00  0.00     0.226 A 
ATOM     36  H6  UNL     1       2.723   1.745  40.737  1.00  0.00     0.171 HD
HETATM   37  N7  UNL     1       2.344   3.206  37.889  1.00  0.00    -0.298 N 
HETATM   38  C15 UNL     1       3.564   3.061  37.391  1.00  0.00     0.201 A 
ATOM     39  H7  UNL     1       1.629   3.686  37.344  1.00  0.00     0.171 HD
HETATM   40  F1  UNL     1       3.841   3.559  36.154  1.00  0.00    -0.185 F 
HETATM   41  C16 UNL     1       4.554   2.403  38.133  1.00  0.00     0.038 A 
HETATM   42  C17 UNL     1       5.898   2.285  37.484  1.00  0.00     0.057 C 
BRANCH  35  43
HETATM   43  O2  UNL     1       0.743   2.920  39.551  1.00  0.00    -0.327 OA
HETATM   44  C14 UNL     1      -0.368   2.291  38.925  1.00  0.00     0.213 C 
ENDBRANCH  35  43
ENDBRANCH  31  33
ENDBRANCH  30  31
ENDBRANCH  29  30
ENDBRANCH  27  29
ENDBRANCH   4  27
TORSDOF 12
ENDMDL
