MODEL 1
REMARK VINA RESULT: -7.194127420      0.000      0.000
REMARK  9 active torsions:
REMARK  status: ('A' for Active; 'I' for Inactive)
REMARK    1  A    between atoms: C2_2  and  C3_3 
REMARK    2  A    between atoms: C7_9  and  C8_10 
REMARK    3  A    between atoms: C8_10  and  C9_11 
REMARK    4  A    between atoms: C9_11  and  C10_12 
REMARK    5  A    between atoms: C10_12  and  C11_13 
REMARK    6  A    between atoms: C11_13  and  C12_14 
REMARK    7  A    between atoms: C12_14  and  C13_15 
REMARK    8  A    between atoms: C13_15  and  C14_16 
REMARK    9  A    between atoms: C14_16  and  O3_17 
ROOT
HETATM    1  C3  UNL     1       6.561  50.050  18.030  1.00  0.00    -0.048 C 
HETATM    2  C4  UNL     1       6.859  50.787  19.092  1.00  0.00     0.057 C 
HETATM    3  C5  UNL     1       6.067  51.520  20.066  1.00  0.00     0.292 C 
HETATM    4  O1  UNL     1       4.819  51.588  20.100  1.00  0.00    -0.259 OA
HETATM    5  O2  UNL     1       6.937  52.159  20.991  1.00  0.00    -0.314 OA
HETATM    6  C6  UNL     1       8.135  52.291  20.251  1.00  0.00     0.222 C 
HETATM    7  C7  UNL     1       8.264  51.013  19.494  1.00  0.00     0.118 C 
HETATM    8  O4  UNL     1       9.014  51.335  18.327  1.00  0.00    -0.347 OA
HETATM    9  C15 UNL     1       8.913  50.414  17.346  1.00  0.00     0.242 C 
HETATM   10  N1  UNL     1       8.536  51.021  16.082  1.00  0.00    -0.333 N 
ATOM     11  H1  UNL     1       8.752  51.880  15.577  1.00  0.00     0.165 HD
HETATM   12  C16 UNL     1       7.715  49.850  15.869  1.00  0.00     0.232 C 
HETATM   13  O5  UNL     1       7.231  49.378  14.814  1.00  0.00    -0.273 OA
HETATM   14  C17 UNL     1       7.714  49.511  17.308  1.00  0.00     0.156 C 
ENDROOT
BRANCH   7  15
HETATM   15  C8  UNL     1       8.937  49.910  20.126  1.00  0.00     0.046 C 
BRANCH  15  16
HETATM   16  C9  UNL     1       8.923  49.519  21.521  1.00  0.00     0.003 C 
BRANCH  16  17
HETATM   17  C10 UNL     1       7.813  48.645  22.005  1.00  0.00     0.000 C 
BRANCH  17  18
HETATM   18  C11 UNL     1       8.388  47.343  22.616  1.00  0.00     0.000 C 
BRANCH  18  19
HETATM   19  C12 UNL     1       7.384  46.829  23.594  1.00  0.00     0.002 C 
BRANCH  19  20
HETATM   20  C13 UNL     1       7.708  46.891  25.026  1.00  0.00     0.026 C 
BRANCH  20  21
HETATM   21  C14 UNL     1       8.840  47.805  25.362  1.00  0.00     0.164 C 
BRANCH  21  22
HETATM   22  O3  UNL     1       9.584  47.388  26.440  1.00  0.00    -0.401 OA
ATOM     23  H3  UNL     1       9.962  48.101  26.941  1.00  0.00     0.209 HD
ENDBRANCH  21  22
ENDBRANCH  20  21
ENDBRANCH  19  20
ENDBRANCH  18  19
ENDBRANCH  17  18
ENDBRANCH  16  17
ENDBRANCH  15  16
ENDBRANCH   7  15
BRANCH   1  24
HETATM   24  C2  UNL     1       5.176  49.852  17.662  1.00  0.00     0.031 C 
HETATM   25  C1  UNL     1       4.676  48.443  17.859  1.00  0.00     0.010 C 
ENDBRANCH   1  24
TORSDOF 9
ENDMDL
MODEL 2
REMARK VINA RESULT: -7.154640606      0.957      1.107
REMARK  9 active torsions:
REMARK  status: ('A' for Active; 'I' for Inactive)
REMARK    1  A    between atoms: C2_2  and  C3_3 
REMARK    2  A    between atoms: C7_9  and  C8_10 
REMARK    3  A    between atoms: C8_10  and  C9_11 
REMARK    4  A    between atoms: C9_11  and  C10_12 
REMARK    5  A    between atoms: C10_12  and  C11_13 
REMARK    6  A    between atoms: C11_13  and  C12_14 
REMARK    7  A    between atoms: C12_14  and  C13_15 
REMARK    8  A    between atoms: C13_15  and  C14_16 
REMARK    9  A    between atoms: C14_16  and  O3_17 
ROOT
HETATM    1  C3  UNL     1       6.856  49.768  18.390  1.00  0.00    -0.048 C 
HETATM    2  C4  UNL     1       6.554  50.806  19.159  1.00  0.00     0.057 C 
HETATM    3  C5  UNL     1       5.335  51.261  19.805  1.00  0.00     0.292 C 
HETATM    4  O1  UNL     1       4.222  50.691  19.768  1.00  0.00    -0.259 OA
HETATM    5  O2  UNL     1       5.599  52.475  20.499  1.00  0.00    -0.314 OA
HETATM    6  C6  UNL     1       6.715  52.994  19.803  1.00  0.00     0.222 C 
HETATM    7  C7  UNL     1       7.576  51.812  19.517  1.00  0.00     0.118 C 
HETATM    8  O4  UNL     1       8.303  52.147  18.338  1.00  0.00    -0.347 OA
HETATM    9  C15 UNL     1       8.845  51.080  17.714  1.00  0.00     0.242 C 
HETATM   10  N1  UNL     1       8.487  51.048  16.307  1.00  0.00    -0.333 N 
ATOM     11  H1  UNL     1       8.370  51.727  15.555  1.00  0.00     0.165 HD
HETATM   12  C16 UNL     1       8.373  49.615  16.462  1.00  0.00     0.232 C 
HETATM   13  O5  UNL     1       8.389  48.701  15.605  1.00  0.00    -0.273 OA
HETATM   14  C17 UNL     1       8.245  49.721  17.932  1.00  0.00     0.156 C 
ENDROOT
BRANCH   7  15
HETATM   15  C8  UNL     1       8.547  51.420  20.503  1.00  0.00     0.046 C 
BRANCH  15  16
HETATM   16  C9  UNL     1       8.336  50.720  21.754  1.00  0.00     0.003 C 
BRANCH  16  17
HETATM   17  C10 UNL     1       8.883  49.338  21.898  1.00  0.00     0.000 C 
BRANCH  17  18
HETATM   18  C11 UNL     1       7.733  48.333  22.151  1.00  0.00     0.000 C 
BRANCH  18  19
HETATM   19  C12 UNL     1       8.301  47.192  22.927  1.00  0.00     0.002 C 
BRANCH  19  20
HETATM   20  C13 UNL     1       7.775  46.932  24.274  1.00  0.00     0.026 C 
BRANCH  20  21
HETATM   21  C14 UNL     1       8.606  47.498  25.378  1.00  0.00     0.164 C 
BRANCH  21  22
HETATM   22  O3  UNL     1       9.332  46.553  26.063  1.00  0.00    -0.401 OA
ATOM     23  H3  UNL     1       9.672  46.862  26.895  1.00  0.00     0.209 HD
ENDBRANCH  21  22
ENDBRANCH  20  21
ENDBRANCH  19  20
ENDBRANCH  18  19
ENDBRANCH  17  18
ENDBRANCH  16  17
ENDBRANCH  15  16
ENDBRANCH   7  15
BRANCH   1  24
HETATM   24  C2  UNL     1       5.831  48.802  18.055  1.00  0.00     0.031 C 
HETATM   25  C1  UNL     1       5.043  49.138  16.813  1.00  0.00     0.010 C 
ENDBRANCH   1  24
TORSDOF 9
ENDMDL
MODEL 3
REMARK VINA RESULT: -7.065258158      1.579      1.923
REMARK  9 active torsions:
REMARK  status: ('A' for Active; 'I' for Inactive)
REMARK    1  A    between atoms: C2_2  and  C3_3 
REMARK    2  A    between atoms: C7_9  and  C8_10 
REMARK    3  A    between atoms: C8_10  and  C9_11 
REMARK    4  A    between atoms: C9_11  and  C10_12 
REMARK    5  A    between atoms: C10_12  and  C11_13 
REMARK    6  A    between atoms: C11_13  and  C12_14 
REMARK    7  A    between atoms: C12_14  and  C13_15 
REMARK    8  A    between atoms: C13_15  and  C14_16 
REMARK    9  A    between atoms: C14_16  and  O3_17 
ROOT
HETATM    1  C3  UNL     1       5.600  50.313  19.279  1.00  0.00    -0.048 C 
HETATM    2  C4  UNL     1       6.621  51.152  19.394  1.00  0.00     0.057 C 
HETATM    3  C5  UNL     1       6.758  52.514  19.881  1.00  0.00     0.292 C 
HETATM    4  O1  UNL     1       5.843  53.225  20.351  1.00  0.00    -0.259 OA
HETATM    5  O2  UNL     1       8.112  52.927  19.742  1.00  0.00    -0.314 OA
HETATM    6  C6  UNL     1       8.585  52.097  18.698  1.00  0.00     0.222 C 
HETATM    7  C7  UNL     1       7.981  50.761  18.964  1.00  0.00     0.118 C 
HETATM    8  O4  UNL     1       7.880  50.128  17.691  1.00  0.00    -0.347 OA
HETATM    9  C15 UNL     1       7.026  49.084  17.671  1.00  0.00     0.242 C 
HETATM   10  N1  UNL     1       6.059  49.208  16.595  1.00  0.00    -0.333 N 
ATOM     11  H1  UNL     1       6.061  49.529  15.627  1.00  0.00     0.165 HD
HETATM   12  C16 UNL     1       5.091  48.668  17.525  1.00  0.00     0.232 C 
HETATM   13  O5  UNL     1       3.980  48.127  17.319  1.00  0.00    -0.273 OA
HETATM   14  C17 UNL     1       5.929  49.013  18.694  1.00  0.00     0.156 C 
ENDROOT
BRANCH   7  15
HETATM   15  C8  UNL     1       8.690  49.850  19.822  1.00  0.00     0.046 C 
BRANCH  15  16
HETATM   16  C9  UNL     1       8.667  49.765  21.269  1.00  0.00     0.003 C 
BRANCH  16  17
HETATM   17  C10 UNL     1       7.715  48.812  21.912  1.00  0.00     0.000 C 
BRANCH  17  18
HETATM   18  C11 UNL     1       8.490  47.636  22.556  1.00  0.00     0.000 C 
BRANCH  18  19
HETATM   19  C12 UNL     1       7.533  46.899  23.432  1.00  0.00     0.002 C 
BRANCH  19  20
HETATM   20  C13 UNL     1       7.694  47.005  24.889  1.00  0.00     0.026 C 
BRANCH  20  21
HETATM   21  C14 UNL     1       8.836  47.866  25.320  1.00  0.00     0.164 C 
BRANCH  21  22
HETATM   22  O3  UNL     1       9.538  47.356  26.387  1.00  0.00    -0.401 OA
ATOM     23  H3  UNL     1      10.349  47.818  26.564  1.00  0.00     0.209 HD
ENDBRANCH  21  22
ENDBRANCH  20  21
ENDBRANCH  19  20
ENDBRANCH  18  19
ENDBRANCH  17  18
ENDBRANCH  16  17
ENDBRANCH  15  16
ENDBRANCH   7  15
BRANCH   1  24
HETATM   24  C2  UNL     1       4.281  50.729  19.706  1.00  0.00     0.031 C 
HETATM   25  C1  UNL     1       3.471  51.421  18.638  1.00  0.00     0.010 C 
ENDBRANCH   1  24
TORSDOF 9
ENDMDL
MODEL 4
REMARK VINA RESULT: -7.034894416      1.875      2.400
REMARK  9 active torsions:
REMARK  status: ('A' for Active; 'I' for Inactive)
REMARK    1  A    between atoms: C2_2  and  C3_3 
REMARK    2  A    between atoms: C7_9  and  C8_10 
REMARK    3  A    between atoms: C8_10  and  C9_11 
REMARK    4  A    between atoms: C9_11  and  C10_12 
REMARK    5  A    between atoms: C10_12  and  C11_13 
REMARK    6  A    between atoms: C11_13  and  C12_14 
REMARK    7  A    between atoms: C12_14  and  C13_15 
REMARK    8  A    between atoms: C13_15  and  C14_16 
REMARK    9  A    between atoms: C14_16  and  O3_17 
ROOT
HETATM    1  C3  UNL     1       5.551  50.848  18.815  1.00  0.00    -0.048 C 
HETATM    2  C4  UNL     1       6.598  51.644  18.640  1.00  0.00     0.057 C 
HETATM    3  C5  UNL     1       6.764  53.083  18.529  1.00  0.00     0.292 C 
HETATM    4  O1  UNL     1       5.855  53.938  18.602  1.00  0.00    -0.259 OA
HETATM    5  O2  UNL     1       8.139  53.381  18.322  1.00  0.00    -0.314 OA
HETATM    6  C6  UNL     1       8.633  52.186  17.747  1.00  0.00     0.222 C 
HETATM    7  C7  UNL     1       7.962  51.089  18.500  1.00  0.00     0.118 C 
HETATM    8  O4  UNL     1       7.904  49.988  17.598  1.00  0.00    -0.347 OA
HETATM    9  C15 UNL     1       7.011  49.042  17.955  1.00  0.00     0.242 C 
HETATM   10  N1  UNL     1       6.108  48.723  16.863  1.00  0.00    -0.333 N 
ATOM     11  H1  UNL     1       6.176  48.614  15.851  1.00  0.00     0.165 HD
HETATM   12  C16 UNL     1       5.071  48.632  17.867  1.00  0.00     0.232 C 
HETATM   13  O5  UNL     1       3.952  48.070  17.830  1.00  0.00    -0.273 OA
HETATM   14  C17 UNL     1       5.859  49.418  18.841  1.00  0.00     0.156 C 
ENDROOT
BRANCH   7  15
HETATM   15  C8  UNL     1       8.586  50.606  19.703  1.00  0.00     0.046 C 
BRANCH  15  16
HETATM   16  C9  UNL     1       8.520  51.155  21.042  1.00  0.00     0.003 C 
BRANCH  16  17
HETATM   17  C10 UNL     1       8.507  50.212  22.199  1.00  0.00     0.000 C 
BRANCH  17  18
HETATM   18  C11 UNL     1       8.080  48.799  21.731  1.00  0.00     0.000 C 
BRANCH  18  19
HETATM   19  C12 UNL     1       7.717  48.017  22.949  1.00  0.00     0.002 C 
BRANCH  19  20
HETATM   20  C13 UNL     1       8.212  48.483  24.252  1.00  0.00     0.026 C 
BRANCH  20  21
HETATM   21  C14 UNL     1       8.318  47.413  25.288  1.00  0.00     0.164 C 
BRANCH  21  22
HETATM   22  O3  UNL     1       9.385  47.574  26.140  1.00  0.00    -0.401 OA
ATOM     23  H3  UNL     1      10.159  47.090  25.877  1.00  0.00     0.209 HD
ENDBRANCH  21  22
ENDBRANCH  20  21
ENDBRANCH  19  20
ENDBRANCH  18  19
ENDBRANCH  17  18
ENDBRANCH  16  17
ENDBRANCH  15  16
ENDBRANCH   7  15
BRANCH   1  24
HETATM   24  C2  UNL     1       4.229  51.423  18.945  1.00  0.00     0.031 C 
HETATM   25  C1  UNL     1       3.647  51.335  20.333  1.00  0.00     0.010 C 
ENDBRANCH   1  24
TORSDOF 9
ENDMDL
MODEL 5
REMARK VINA RESULT: -7.021217340      1.729      2.205
REMARK  9 active torsions:
REMARK  status: ('A' for Active; 'I' for Inactive)
REMARK    1  A    between atoms: C2_2  and  C3_3 
REMARK    2  A    between atoms: C7_9  and  C8_10 
REMARK    3  A    between atoms: C8_10  and  C9_11 
REMARK    4  A    between atoms: C9_11  and  C10_12 
REMARK    5  A    between atoms: C10_12  and  C11_13 
REMARK    6  A    between atoms: C11_13  and  C12_14 
REMARK    7  A    between atoms: C12_14  and  C13_15 
REMARK    8  A    between atoms: C13_15  and  C14_16 
REMARK    9  A    between atoms: C14_16  and  O3_17 
ROOT
HETATM    1  C3  UNL     1       5.493  50.964  19.827  1.00  0.00    -0.048 C 
HETATM    2  C4  UNL     1       6.297  52.013  19.949  1.00  0.00     0.057 C 
HETATM    3  C5  UNL     1       6.091  53.406  20.306  1.00  0.00     0.292 C 
HETATM    4  O1  UNL     1       5.001  53.934  20.616  1.00  0.00    -0.259 OA
HETATM    5  O2  UNL     1       7.335  54.092  20.250  1.00  0.00    -0.314 OA
HETATM    6  C6  UNL     1       8.083  53.306  19.342  1.00  0.00     0.222 C 
HETATM    7  C7  UNL     1       7.748  51.895  19.686  1.00  0.00     0.118 C 
HETATM    8  O4  UNL     1       7.923  51.157  18.480  1.00  0.00    -0.347 OA
HETATM    9  C15 UNL     1       7.314  49.953  18.487  1.00  0.00     0.242 C 
HETATM   10  N1  UNL     1       6.468  49.777  17.321  1.00  0.00    -0.333 N 
ATOM     11  H1  UNL     1       6.510  50.013  16.330  1.00  0.00     0.165 HD
HETATM   12  C16 UNL     1       5.538  49.114  18.209  1.00  0.00     0.232 C 
HETATM   13  O5  UNL     1       4.595  48.328  17.959  1.00  0.00    -0.273 OA
HETATM   14  C17 UNL     1       6.151  49.725  19.408  1.00  0.00     0.156 C 
ENDROOT
BRANCH   7  15
HETATM   15  C8  UNL     1       8.532  51.233  20.693  1.00  0.00     0.046 C 
BRANCH  15  16
HETATM   16  C9  UNL     1       8.514  51.427  22.128  1.00  0.00     0.003 C 
BRANCH  16  17
HETATM   17  C10 UNL     1       8.544  50.223  23.010  1.00  0.00     0.000 C 
BRANCH  17  18
HETATM   18  C11 UNL     1       8.460  48.933  22.156  1.00  0.00     0.000 C 
BRANCH  18  19
HETATM   19  C12 UNL     1       7.701  47.923  22.949  1.00  0.00     0.002 C 
BRANCH  19  20
HETATM   20  C13 UNL     1       8.446  47.052  23.869  1.00  0.00     0.026 C 
BRANCH  20  21
HETATM   21  C14 UNL     1       8.186  47.319  25.315  1.00  0.00     0.164 C 
BRANCH  21  22
HETATM   22  O3  UNL     1       9.316  47.641  26.029  1.00  0.00    -0.401 OA
ATOM     23  H3  UNL     1       9.883  46.899  26.201  1.00  0.00     0.209 HD
ENDBRANCH  21  22
ENDBRANCH  20  21
ENDBRANCH  19  20
ENDBRANCH  18  19
ENDBRANCH  17  18
ENDBRANCH  16  17
ENDBRANCH  15  16
ENDBRANCH   7  15
BRANCH   1  24
HETATM   24  C2  UNL     1       4.077  51.114  20.088  1.00  0.00     0.031 C 
HETATM   25  C1  UNL     1       3.264  51.526  18.886  1.00  0.00     0.010 C 
ENDBRANCH   1  24
TORSDOF 9
ENDMDL
