MODEL 1
REMARK VINA RESULT: -6.177385041      0.000      0.000
REMARK  9 active torsions:
REMARK  status: ('A' for Active; 'I' for Inactive)
REMARK    1  A    between atoms: C2_2  and  C3_3 
REMARK    2  A    between atoms: C3_3  and  C4_4 
REMARK    3  A    between atoms: C4_4  and  N1_5 
REMARK    4  A    between atoms: C7_11  and  O1_12 
REMARK    5  A    between atoms: O1_12  and  C8_13 
REMARK    6  A    between atoms: C8_13  and  C9_14 
REMARK    7  A    between atoms: C9_14  and  O2_15 
REMARK    8  A    between atoms: C9_14  and  C10_17 
REMARK    9  A    between atoms: C10_17  and  N2_18 
ROOT
HETATM    1  C3  UNL     1       7.736  55.341  23.265  1.00  0.00    -0.017 C 
HETATM    2  C5  UNL     1       6.791  54.948  22.181  1.00  0.00     0.013 C 
HETATM    3  C6  UNL     1       7.332  54.027  21.139  1.00  0.00     0.033 C 
HETATM    4  C7  UNL     1       8.126  52.876  21.620  1.00  0.00     0.121 C 
HETATM    5  C15 UNL     1       8.282  52.912  23.143  1.00  0.00     0.033 C 
HETATM    6  C16 UNL     1       8.803  54.287  23.493  1.00  0.00     0.013 C 
ENDROOT
BRANCH   4   7
HETATM    7  O1  UNL     1       7.599  51.618  21.342  1.00  0.00    -0.383 OA
BRANCH   7   8
HETATM    8  C8  UNL     1       8.322  50.946  20.386  1.00  0.00     0.201 C 
BRANCH   8   9
HETATM    9  C9  UNL     1       7.914  49.482  20.325  1.00  0.00     0.159 C 
BRANCH   9  10
HETATM   10  O2  UNL     1       8.799  48.704  19.611  1.00  0.00    -0.392 OA
ATOM     11  H2  UNL     1       8.513  48.537  18.720  1.00  0.00     0.210 HD
ENDBRANCH   9  10
BRANCH   9  12
HETATM   12  C10 UNL     1       7.696  48.915  21.697  1.00  0.00     0.151 C 
BRANCH  12  13
HETATM   13  N2  UNL     1       8.857  48.380  22.294  1.00  0.00    -0.402 N 
HETATM   14  C11 UNL     1       8.950  46.985  22.500  1.00  0.00     0.118 C 
HETATM   15  C12 UNL     1       7.804  46.418  23.313  1.00  0.00     0.029 C 
HETATM   16  C13 UNL     1       7.719  46.997  24.698  1.00  0.00     0.077 C 
HETATM   17  S1  UNL     1       8.432  48.623  24.885  1.00  0.00    -0.150 SA
HETATM   18  C14 UNL     1       9.330  49.155  23.433  1.00  0.00     0.191 C 
ENDBRANCH  12  13
ENDBRANCH   9  12
ENDBRANCH   8   9
ENDBRANCH   7   8
ENDBRANCH   4   7
BRANCH   1  19
HETATM   19  C2  UNL     1       8.477  56.614  22.913  1.00  0.00     0.006 C 
HETATM   20  C1  UNL     1       9.322  57.132  24.040  1.00  0.00     0.006 C 
ENDBRANCH   1  19
BRANCH   1  21
HETATM   21  C4  UNL     1       6.946  55.611  24.522  1.00  0.00     0.239 C 
BRANCH  21  22
HETATM   22  N1  UNL     1       5.519  55.612  24.321  1.00  0.00    -0.079 N 
ATOM     23  H13 UNL     1       5.229  56.447  23.811  1.00  0.00     0.274 HD
ATOM     24  H12 UNL     1       5.251  54.897  23.645  1.00  0.00     0.274 HD
ATOM     25  H11 UNL     1       4.984  55.512  25.183  1.00  0.00     0.274 HD
ENDBRANCH  21  22
ENDBRANCH   1  21
TORSDOF 9
ENDMDL
MODEL 2
REMARK VINA RESULT: -5.847481904      5.425      7.148
REMARK  9 active torsions:
REMARK  status: ('A' for Active; 'I' for Inactive)
REMARK    1  A    between atoms: C2_2  and  C3_3 
REMARK    2  A    between atoms: C3_3  and  C4_4 
REMARK    3  A    between atoms: C4_4  and  N1_5 
REMARK    4  A    between atoms: C7_11  and  O1_12 
REMARK    5  A    between atoms: O1_12  and  C8_13 
REMARK    6  A    between atoms: C8_13  and  C9_14 
REMARK    7  A    between atoms: C9_14  and  O2_15 
REMARK    8  A    between atoms: C9_14  and  C10_17 
REMARK    9  A    between atoms: C10_17  and  N2_18 
ROOT
HETATM    1  C3  UNL     1       8.156  50.599  20.844  1.00  0.00    -0.017 C 
HETATM    2  C5  UNL     1       6.759  50.077  20.832  1.00  0.00     0.013 C 
HETATM    3  C6  UNL     1       6.022  50.203  19.541  1.00  0.00     0.033 C 
HETATM    4  C7  UNL     1       6.760  49.825  18.316  1.00  0.00     0.121 C 
HETATM    5  C15 UNL     1       8.203  49.428  18.644  1.00  0.00     0.033 C 
HETATM    6  C16 UNL     1       8.787  50.555  19.465  1.00  0.00     0.013 C 
ENDROOT
BRANCH   4   7
HETATM    7  O1  UNL     1       6.243  48.745  17.607  1.00  0.00    -0.383 OA
BRANCH   7   8
HETATM    8  C8  UNL     1       4.918  48.517  17.890  1.00  0.00     0.201 C 
BRANCH   8   9
HETATM    9  C9  UNL     1       4.063  48.651  16.639  1.00  0.00     0.159 C 
BRANCH   9  10
HETATM   10  O2  UNL     1       4.808  48.747  15.484  1.00  0.00    -0.392 OA
ATOM     11  H2  UNL     1       4.946  49.645  15.203  1.00  0.00     0.210 HD
ENDBRANCH   9  10
BRANCH   9  12
HETATM   12  C10 UNL     1       3.064  47.536  16.535  1.00  0.00     0.151 C 
BRANCH  12  13
HETATM   13  N2  UNL     1       1.720  47.962  16.528  1.00  0.00    -0.402 N 
HETATM   14  C11 UNL     1       1.158  48.500  17.708  1.00  0.00     0.118 C 
HETATM   15  C12 UNL     1       1.262  47.574  18.903  1.00  0.00     0.029 C 
HETATM   16  C13 UNL     1       0.539  46.270  18.704  1.00  0.00     0.077 C 
HETATM   17  S1  UNL     1       0.335  45.767  17.002  1.00  0.00    -0.150 SA
HETATM   18  C14 UNL     1       0.825  47.039  15.844  1.00  0.00     0.191 C 
ENDBRANCH  12  13
ENDBRANCH   9  12
ENDBRANCH   8   9
ENDBRANCH   7   8
ENDBRANCH   4   7
BRANCH   1  19
HETATM   19  C2  UNL     1       8.197  52.051  21.274  1.00  0.00     0.006 C 
HETATM   20  C1  UNL     1       8.497  52.222  22.735  1.00  0.00     0.006 C 
ENDBRANCH   1  19
BRANCH   1  21
HETATM   21  C4  UNL     1       8.960  49.808  21.846  1.00  0.00     0.239 C 
BRANCH  21  22
HETATM   22  N1  UNL     1       8.676  48.395  21.830  1.00  0.00    -0.079 N 
ATOM     23  H13 UNL     1       8.263  48.121  20.939  1.00  0.00     0.274 HD
ATOM     24  H12 UNL     1       9.540  47.855  21.792  1.00  0.00     0.274 HD
ATOM     25  H11 UNL     1       8.092  48.086  22.607  1.00  0.00     0.274 HD
ENDBRANCH  21  22
ENDBRANCH   1  21
TORSDOF 9
ENDMDL
MODEL 3
REMARK VINA RESULT: -5.812996840      5.500      7.087
REMARK  9 active torsions:
REMARK  status: ('A' for Active; 'I' for Inactive)
REMARK    1  A    between atoms: C2_2  and  C3_3 
REMARK    2  A    between atoms: C3_3  and  C4_4 
REMARK    3  A    between atoms: C4_4  and  N1_5 
REMARK    4  A    between atoms: C7_11  and  O1_12 
REMARK    5  A    between atoms: O1_12  and  C8_13 
REMARK    6  A    between atoms: C8_13  and  C9_14 
REMARK    7  A    between atoms: C9_14  and  O2_15 
REMARK    8  A    between atoms: C9_14  and  C10_17 
REMARK    9  A    between atoms: C10_17  and  N2_18 
ROOT
HETATM    1  C3  UNL     1       8.093  50.701  20.855  1.00  0.00    -0.017 C 
HETATM    2  C5  UNL     1       8.629  50.510  19.477  1.00  0.00     0.013 C 
HETATM    3  C6  UNL     1       8.032  49.394  18.687  1.00  0.00     0.033 C 
HETATM    4  C7  UNL     1       6.558  49.271  18.725  1.00  0.00     0.121 C 
HETATM    5  C15 UNL     1       5.941  50.321  19.655  1.00  0.00     0.033 C 
HETATM    6  C16 UNL     1       6.664  50.207  20.977  1.00  0.00     0.013 C 
ENDROOT
BRANCH   4   7
HETATM    7  O1  UNL     1       5.905  49.441  17.507  1.00  0.00    -0.383 OA
BRANCH   7   8
HETATM    8  C8  UNL     1       4.574  49.747  17.664  1.00  0.00     0.201 C 
BRANCH   8   9
HETATM    9  C9  UNL     1       3.693  48.703  16.996  1.00  0.00     0.159 C 
BRANCH   9  10
HETATM   10  O2  UNL     1       4.390  47.874  16.143  1.00  0.00    -0.392 OA
ATOM     11  H2  UNL     1       4.016  47.003  16.082  1.00  0.00     0.210 HD
ENDBRANCH   9  10
BRANCH   9  12
HETATM   12  C10 UNL     1       2.928  47.901  18.008  1.00  0.00     0.151 C 
BRANCH  12  13
HETATM   13  N2  UNL     1       1.630  48.387  18.269  1.00  0.00    -0.402 N 
HETATM   14  C11 UNL     1       0.829  47.737  19.235  1.00  0.00     0.118 C 
HETATM   15  C12 UNL     1       0.640  46.258  18.966  1.00  0.00     0.029 C 
HETATM   16  C13 UNL     1      -0.050  45.980  17.659  1.00  0.00     0.077 C 
HETATM   17  S1  UNL     1       0.124  47.257  16.423  1.00  0.00    -0.150 SA
HETATM   18  C14 UNL     1       0.891  48.740  17.065  1.00  0.00     0.191 C 
ENDBRANCH  12  13
ENDBRANCH   9  12
ENDBRANCH   8   9
ENDBRANCH   7   8
ENDBRANCH   4   7
BRANCH   1  19
HETATM   19  C2  UNL     1       8.894  49.914  21.871  1.00  0.00     0.006 C 
HETATM   20  C1  UNL     1       8.163  48.709  22.388  1.00  0.00     0.006 C 
ENDBRANCH   1  19
BRANCH   1  21
HETATM   21  C4  UNL     1       8.206  52.160  21.221  1.00  0.00     0.239 C 
BRANCH  21  22
HETATM   22  N1  UNL     1       8.493  52.386  22.615  1.00  0.00    -0.079 N 
ATOM     23  H13 UNL     1       7.924  51.776  23.203  1.00  0.00     0.274 HD
ATOM     24  H12 UNL     1       9.421  52.036  22.854  1.00  0.00     0.274 HD
ATOM     25  H11 UNL     1       8.392  53.360  22.903  1.00  0.00     0.274 HD
ENDBRANCH  21  22
ENDBRANCH   1  21
TORSDOF 9
ENDMDL
MODEL 4
REMARK VINA RESULT: -5.728625347      5.319      6.987
REMARK  9 active torsions:
REMARK  status: ('A' for Active; 'I' for Inactive)
REMARK    1  A    between atoms: C2_2  and  C3_3 
REMARK    2  A    between atoms: C3_3  and  C4_4 
REMARK    3  A    between atoms: C4_4  and  N1_5 
REMARK    4  A    between atoms: C7_11  and  O1_12 
REMARK    5  A    between atoms: O1_12  and  C8_13 
REMARK    6  A    between atoms: C8_13  and  C9_14 
REMARK    7  A    between atoms: C9_14  and  O2_15 
REMARK    8  A    between atoms: C9_14  and  C10_17 
REMARK    9  A    between atoms: C10_17  and  N2_18 
ROOT
HETATM    1  C3  UNL     1       8.149  50.578  20.738  1.00  0.00    -0.017 C 
HETATM    2  C5  UNL     1       6.733  50.117  20.804  1.00  0.00     0.013 C 
HETATM    3  C6  UNL     1       5.941  50.243  19.546  1.00  0.00     0.033 C 
HETATM    4  C7  UNL     1       6.604  49.803  18.299  1.00  0.00     0.121 C 
HETATM    5  C15 UNL     1       8.043  49.353  18.569  1.00  0.00     0.033 C 
HETATM    6  C16 UNL     1       8.712  50.473  19.333  1.00  0.00     0.013 C 
ENDROOT
BRANCH   4   7
HETATM    7  O1  UNL     1       6.009  48.730  17.642  1.00  0.00    -0.383 OA
BRANCH   7   8
HETATM    8  C8  UNL     1       4.697  48.552  18.009  1.00  0.00     0.201 C 
BRANCH   8   9
HETATM    9  C9  UNL     1       3.769  48.728  16.817  1.00  0.00     0.159 C 
BRANCH   9  10
HETATM   10  O2  UNL     1       4.102  47.921  15.750  1.00  0.00    -0.392 OA
ATOM     11  H2  UNL     1       3.409  47.316  15.512  1.00  0.00     0.210 HD
ENDBRANCH   9  10
BRANCH   9  12
HETATM   12  C10 UNL     1       2.333  48.531  17.205  1.00  0.00     0.151 C 
BRANCH  12  13
HETATM   13  N2  UNL     1       2.145  47.681  18.314  1.00  0.00    -0.402 N 
HETATM   14  C11 UNL     1       1.890  46.308  18.099  1.00  0.00     0.118 C 
HETATM   15  C12 UNL     1       0.692  46.049  17.207  1.00  0.00     0.029 C 
HETATM   16  C13 UNL     1      -0.593  46.584  17.776  1.00  0.00     0.077 C 
HETATM   17  S1  UNL     1      -0.410  47.946  18.915  1.00  0.00    -0.150 SA
HETATM   18  C14 UNL     1       1.297  48.260  19.348  1.00  0.00     0.191 C 
ENDBRANCH  12  13
ENDBRANCH   9  12
ENDBRANCH   8   9
ENDBRANCH   7   8
ENDBRANCH   4   7
BRANCH   1  19
HETATM   19  C2  UNL     1       8.271  52.037  21.128  1.00  0.00     0.006 C 
HETATM   20  C1  UNL     1       8.426  52.237  22.608  1.00  0.00     0.006 C 
ENDBRANCH   1  19
BRANCH   1  21
HETATM   21  C4  UNL     1       8.966  49.777  21.722  1.00  0.00     0.239 C 
BRANCH  21  22
HETATM   22  N1  UNL     1       8.606  48.383  21.774  1.00  0.00    -0.079 N 
ATOM     23  H13 UNL     1       8.544  48.063  22.741  1.00  0.00     0.274 HD
ATOM     24  H12 UNL     1       7.635  48.251  21.489  1.00  0.00     0.274 HD
ATOM     25  H11 UNL     1       9.225  47.778  21.234  1.00  0.00     0.274 HD
ENDBRANCH  21  22
ENDBRANCH   1  21
TORSDOF 9
ENDMDL
MODEL 5
REMARK VINA RESULT: -5.646871973      4.939      6.829
REMARK  9 active torsions:
REMARK  status: ('A' for Active; 'I' for Inactive)
REMARK    1  A    between atoms: C2_2  and  C3_3 
REMARK    2  A    between atoms: C3_3  and  C4_4 
REMARK    3  A    between atoms: C4_4  and  N1_5 
REMARK    4  A    between atoms: C7_11  and  O1_12 
REMARK    5  A    between atoms: O1_12  and  C8_13 
REMARK    6  A    between atoms: C8_13  and  C9_14 
REMARK    7  A    between atoms: C9_14  and  O2_15 
REMARK    8  A    between atoms: C9_14  and  C10_17 
REMARK    9  A    between atoms: C10_17  and  N2_18 
ROOT
HETATM    1  C3  UNL     1       8.103  49.708  21.425  1.00  0.00    -0.017 C 
HETATM    2  C5  UNL     1       6.697  50.007  21.030  1.00  0.00     0.013 C 
HETATM    3  C6  UNL     1       6.520  50.999  19.929  1.00  0.00     0.033 C 
HETATM    4  C7  UNL     1       7.400  50.845  18.751  1.00  0.00     0.121 C 
HETATM    5  C15 UNL     1       8.388  49.691  18.948  1.00  0.00     0.033 C 
HETATM    6  C16 UNL     1       9.070  49.926  20.276  1.00  0.00     0.013 C 
ENDROOT
BRANCH   4   7
HETATM    7  O1  UNL     1       6.758  50.567  17.548  1.00  0.00    -0.383 OA
BRANCH   7   8
HETATM    8  C8  UNL     1       5.395  50.474  17.690  1.00  0.00     0.201 C 
BRANCH   8   9
HETATM    9  C9  UNL     1       4.865  49.207  17.036  1.00  0.00     0.159 C 
BRANCH   9  10
HETATM   10  O2  UNL     1       5.863  48.332  16.666  1.00  0.00    -0.392 OA
ATOM     11  H2  UNL     1       5.530  47.521  16.299  1.00  0.00     0.210 HD
ENDBRANCH   9  10
BRANCH   9  12
HETATM   12  C10 UNL     1       3.854  48.521  17.907  1.00  0.00     0.151 C 
BRANCH  12  13
HETATM   13  N2  UNL     1       2.519  48.675  17.478  1.00  0.00    -0.402 N 
HETATM   14  C11 UNL     1       1.490  47.980  18.152  1.00  0.00     0.118 C 
HETATM   15  C12 UNL     1       1.707  46.481  18.203  1.00  0.00     0.029 C 
HETATM   16  C13 UNL     1       1.759  45.845  16.841  1.00  0.00     0.077 C 
HETATM   17  S1  UNL     1       2.259  46.932  15.515  1.00  0.00    -0.150 SA
HETATM   18  C14 UNL     1       2.372  48.641  16.029  1.00  0.00     0.191 C 
ENDBRANCH  12  13
ENDBRANCH   9  12
ENDBRANCH   8   9
ENDBRANCH   7   8
ENDBRANCH   4   7
BRANCH   1  19
HETATM   19  C2  UNL     1       8.568  50.622  22.540  1.00  0.00     0.006 C 
HETATM   20  C1  UNL     1       8.468  52.077  22.185  1.00  0.00     0.006 C 
ENDBRANCH   1  19
BRANCH   1  21
HETATM   21  C4  UNL     1       8.170  48.292  21.943  1.00  0.00     0.239 C 
BRANCH  21  22
HETATM   22  N1  UNL     1       9.431  47.959  22.556  1.00  0.00    -0.079 N 
ATOM     23  H13 UNL     1       9.320  47.837  23.563  1.00  0.00     0.274 HD
ATOM     24  H12 UNL     1       9.717  47.015  22.300  1.00  0.00     0.274 HD
ATOM     25  H11 UNL     1      10.174  48.628  22.355  1.00  0.00     0.274 HD
ENDBRANCH  21  22
ENDBRANCH   1  21
TORSDOF 9
ENDMDL
