MODEL 1
REMARK VINA RESULT: -6.746682566      0.000      0.000
REMARK  8 active torsions:
REMARK  status: ('A' for Active; 'I' for Inactive)
REMARK    1  A    between atoms: C2_2  and  N1_3 
REMARK    2  A    between atoms: C2_2  and  C10_15 
REMARK    3  A    between atoms: N1_3  and  N2_5 
REMARK    4  A    between atoms: C3_7  and  C4_8 
REMARK    5  A    between atoms: C4_8  and  C5_9 
REMARK       I    between atoms: C10_15  and  N3_17 
REMARK    6  A    between atoms: N3_17  and  C11_19 
REMARK    7  A    between atoms: C11_19  and  C12_20 
REMARK    8  A    between atoms: C12_20  and  C13_21 
ROOT
HETATM    1  C1  UNL     1       5.280  50.453  19.341  1.00  0.00     0.044 C 
HETATM    2  C2  UNL     1       6.221  49.791  18.353  1.00  0.00     0.187 C 
ENDROOT
BRANCH   2   3
HETATM    3  N1  UNL     1       5.624  48.585  17.856  1.00  0.00    -0.324 N 
ATOM      4  H1  UNL     1       5.809  47.708  18.342  1.00  0.00     0.181 HD
BRANCH   3   5
HETATM    5  N2  UNL     1       4.807  48.571  16.743  1.00  0.00    -0.319 N 
HETATM    6  C3  UNL     1       3.589  48.142  16.735  1.00  0.00     0.083 C 
ATOM      7  H2  UNL     1       5.191  48.924  15.867  1.00  0.00     0.185 HD
BRANCH   6   8
HETATM    8  C4  UNL     1       2.911  47.604  17.939  1.00  0.00     0.074 C 
BRANCH   8   9
HETATM    9  C5  UNL     1       2.278  48.672  18.749  1.00  0.00    -0.007 C 
HETATM   10  C6  UNL     1       1.155  48.516  19.415  1.00  0.00    -0.025 C 
HETATM   11  C7  UNL     1       0.269  47.318  19.535  1.00  0.00     0.046 C 
HETATM   12  S1  UNL     1       0.297  49.748  20.432  1.00  0.00    -0.135 SA
HETATM   13  C8  UNL     1      -1.154  47.814  19.531  1.00  0.00     0.015 C 
HETATM   14  C9  UNL     1      -1.287  48.837  20.635  1.00  0.00     0.079 C 
ENDBRANCH   8   9
ENDBRANCH   6   8
ENDBRANCH   3   5
ENDBRANCH   2   3
BRANCH   2  15
HETATM   15  C10 UNL     1       7.519  49.468  19.008  1.00  0.00     0.241 C 
HETATM   16  O1  UNL     1       8.435  48.961  18.340  1.00  0.00    -0.271 OA
HETATM   17  N3  UNL     1       7.700  49.742  20.391  1.00  0.00    -0.359 N 
ATOM     18  H3  UNL     1       6.924  50.162  20.902  1.00  0.00     0.162 HD
BRANCH  17  19
HETATM   19  C11 UNL     1       8.903  49.467  21.108  1.00  0.00     0.125 C 
BRANCH  19  20
HETATM   20  C12 UNL     1       8.828  49.807  22.563  1.00  0.00     0.051 C 
BRANCH  20  21
HETATM   21  C13 UNL     1       7.873  48.831  23.231  1.00  0.00     0.123 C 
HETATM   22  C14 UNL     1       8.275  48.519  24.629  1.00  0.00     0.034 C 
HETATM   23  C15 UNL     1       7.945  47.042  24.749  1.00  0.00     0.029 C 
HETATM   24  C16 UNL     1       8.102  46.606  23.298  1.00  0.00     0.168 C 
HETATM   25  O2  UNL     1       7.778  47.677  22.511  1.00  0.00    -0.386 OA
ENDBRANCH  20  21
ENDBRANCH  19  20
ENDBRANCH  17  19
ENDBRANCH   2  15
TORSDOF 8
ENDMDL
MODEL 2
REMARK VINA RESULT: -6.702350757      2.798      7.239
REMARK  8 active torsions:
REMARK  status: ('A' for Active; 'I' for Inactive)
REMARK    1  A    between atoms: C2_2  and  N1_3 
REMARK    2  A    between atoms: C2_2  and  C10_15 
REMARK    3  A    between atoms: N1_3  and  N2_5 
REMARK    4  A    between atoms: C3_7  and  C4_8 
REMARK    5  A    between atoms: C4_8  and  C5_9 
REMARK       I    between atoms: C10_15  and  N3_17 
REMARK    6  A    between atoms: N3_17  and  C11_19 
REMARK    7  A    between atoms: C11_19  and  C12_20 
REMARK    8  A    between atoms: C12_20  and  C13_21 
ROOT
HETATM    1  C1  UNL     1       4.829  52.334  19.008  1.00  0.00     0.044 C 
HETATM    2  C2  UNL     1       4.988  50.997  19.706  1.00  0.00     0.187 C 
ENDROOT
BRANCH   2   3
HETATM    3  N1  UNL     1       6.203  50.996  20.469  1.00  0.00    -0.324 N 
ATOM      4  H1  UNL     1       6.212  50.534  21.378  1.00  0.00     0.181 HD
BRANCH   3   5
HETATM    5  N2  UNL     1       7.360  51.599  20.016  1.00  0.00    -0.319 N 
HETATM    6  C3  UNL     1       8.537  51.076  20.099  1.00  0.00     0.083 C 
ATOM      7  H2  UNL     1       7.278  52.520  19.586  1.00  0.00     0.185 HD
BRANCH   6   8
HETATM    8  C4  UNL     1       8.793  49.745  20.701  1.00  0.00     0.074 C 
BRANCH   8   9
HETATM    9  C5  UNL     1       8.879  49.808  22.180  1.00  0.00    -0.007 C 
HETATM   10  C6  UNL     1       8.694  48.771  22.967  1.00  0.00    -0.025 C 
HETATM   11  C7  UNL     1       8.370  47.352  22.626  1.00  0.00     0.046 C 
HETATM   12  S1  UNL     1       8.776  48.735  24.778  1.00  0.00    -0.135 SA
HETATM   13  C8  UNL     1       7.404  46.852  23.669  1.00  0.00     0.015 C 
HETATM   14  C9  UNL     1       8.038  47.069  25.023  1.00  0.00     0.079 C 
ENDBRANCH   8   9
ENDBRANCH   6   8
ENDBRANCH   3   5
ENDBRANCH   2   3
BRANCH   2  15
HETATM   15  C10 UNL     1       5.029  49.891  18.709  1.00  0.00     0.241 C 
HETATM   16  O1  UNL     1       5.954  49.064  18.746  1.00  0.00    -0.271 OA
HETATM   17  N3  UNL     1       4.008  49.791  17.724  1.00  0.00    -0.359 N 
ATOM     18  H3  UNL     1       3.265  50.489  17.731  1.00  0.00     0.162 HD
BRANCH  17  19
HETATM   19  C11 UNL     1       3.960  48.772  16.727  1.00  0.00     0.125 C 
BRANCH  19  20
HETATM   20  C12 UNL     1       2.635  48.083  16.633  1.00  0.00     0.051 C 
BRANCH  20  21
HETATM   21  C13 UNL     1       2.381  47.360  17.945  1.00  0.00     0.123 C 
HETATM   22  C14 UNL     1       1.460  46.204  17.781  1.00  0.00     0.034 C 
HETATM   23  C15 UNL     1       0.628  46.257  19.050  1.00  0.00     0.029 C 
HETATM   24  C16 UNL     1       0.688  47.749  19.354  1.00  0.00     0.168 C 
HETATM   25  O2  UNL     1       1.883  48.216  18.883  1.00  0.00    -0.386 OA
ENDBRANCH  20  21
ENDBRANCH  19  20
ENDBRANCH  17  19
ENDBRANCH   2  15
TORSDOF 8
ENDMDL
MODEL 3
REMARK VINA RESULT: -6.695656519      3.175      7.664
REMARK  8 active torsions:
REMARK  status: ('A' for Active; 'I' for Inactive)
REMARK    1  A    between atoms: C2_2  and  N1_3 
REMARK    2  A    between atoms: C2_2  and  C10_15 
REMARK    3  A    between atoms: N1_3  and  N2_5 
REMARK    4  A    between atoms: C3_7  and  C4_8 
REMARK    5  A    between atoms: C4_8  and  C5_9 
REMARK       I    between atoms: C10_15  and  N3_17 
REMARK    6  A    between atoms: N3_17  and  C11_19 
REMARK    7  A    between atoms: C11_19  and  C12_20 
REMARK    8  A    between atoms: C12_20  and  C13_21 
ROOT
HETATM    1  C1  UNL     1       5.897  48.957  18.168  1.00  0.00     0.044 C 
HETATM    2  C2  UNL     1       5.414  50.325  18.608  1.00  0.00     0.187 C 
ENDROOT
BRANCH   2   3
HETATM    3  N1  UNL     1       6.187  50.768  19.733  1.00  0.00    -0.324 N 
ATOM      4  H1  UNL     1       5.857  50.550  20.673  1.00  0.00     0.181 HD
BRANCH   3   5
HETATM    5  N2  UNL     1       7.362  51.479  19.586  1.00  0.00    -0.319 N 
HETATM    6  C3  UNL     1       8.524  51.055  19.956  1.00  0.00     0.083 C 
ATOM      7  H2  UNL     1       7.307  52.402  19.157  1.00  0.00     0.185 HD
BRANCH   6   8
HETATM    8  C4  UNL     1       8.740  49.733  20.593  1.00  0.00     0.074 C 
BRANCH   8   9
HETATM    9  C5  UNL     1       8.850  49.834  22.068  1.00  0.00    -0.007 C 
HETATM   10  C6  UNL     1       8.684  48.817  22.884  1.00  0.00    -0.025 C 
HETATM   11  C7  UNL     1       8.364  47.388  22.585  1.00  0.00     0.046 C 
HETATM   12  S1  UNL     1       8.797  48.828  24.694  1.00  0.00    -0.135 SA
HETATM   13  C8  UNL     1       7.419  46.910  23.656  1.00  0.00     0.015 C 
HETATM   14  C9  UNL     1       8.073  47.165  24.994  1.00  0.00     0.079 C 
ENDBRANCH   8   9
ENDBRANCH   6   8
ENDBRANCH   3   5
ENDBRANCH   2   3
BRANCH   2  15
HETATM   15  C10 UNL     1       3.975  50.272  18.986  1.00  0.00     0.241 C 
HETATM   16  O1  UNL     1       3.481  51.192  19.656  1.00  0.00    -0.271 OA
HETATM   17  N3  UNL     1       3.177  49.169  18.575  1.00  0.00    -0.359 N 
ATOM     18  H3  UNL     1       3.621  48.435  18.022  1.00  0.00     0.162 HD
BRANCH  17  19
HETATM   19  C11 UNL     1       1.792  49.025  18.888  1.00  0.00     0.125 C 
BRANCH  19  20
HETATM   20  C12 UNL     1       1.320  47.606  18.893  1.00  0.00     0.051 C 
BRANCH  20  21
HETATM   21  C13 UNL     1       1.014  47.202  17.460  1.00  0.00     0.123 C 
HETATM   22  C14 UNL     1       0.658  45.762  17.345  1.00  0.00     0.034 C 
HETATM   23  C15 UNL     1       1.313  45.359  16.037  1.00  0.00     0.029 C 
HETATM   24  C16 UNL     1       2.473  46.346  15.995  1.00  0.00     0.168 C 
HETATM   25  O2  UNL     1       2.068  47.482  16.641  1.00  0.00    -0.386 OA
ENDBRANCH  20  21
ENDBRANCH  19  20
ENDBRANCH  17  19
ENDBRANCH   2  15
TORSDOF 8
ENDMDL
MODEL 4
REMARK VINA RESULT: -6.663938579      1.588      1.976
REMARK  8 active torsions:
REMARK  status: ('A' for Active; 'I' for Inactive)
REMARK    1  A    between atoms: C2_2  and  N1_3 
REMARK    2  A    between atoms: C2_2  and  C10_15 
REMARK    3  A    between atoms: N1_3  and  N2_5 
REMARK    4  A    between atoms: C3_7  and  C4_8 
REMARK    5  A    between atoms: C4_8  and  C5_9 
REMARK       I    between atoms: C10_15  and  N3_17 
REMARK    6  A    between atoms: N3_17  and  C11_19 
REMARK    7  A    between atoms: C11_19  and  C12_20 
REMARK    8  A    between atoms: C12_20  and  C13_21 
ROOT
HETATM    1  C1  UNL     1       5.554  51.694  20.088  1.00  0.00     0.044 C 
HETATM    2  C2  UNL     1       6.743  51.669  19.148  1.00  0.00     0.187 C 
ENDROOT
BRANCH   2   3
HETATM    3  N1  UNL     1       6.412  50.911  17.976  1.00  0.00    -0.324 N 
ATOM      4  H1  UNL     1       6.054  51.402  17.157  1.00  0.00     0.181 HD
BRANCH   3   5
HETATM    5  N2  UNL     1       6.563  49.539  17.917  1.00  0.00    -0.319 N 
HETATM    6  C3  UNL     1       5.586  48.700  17.823  1.00  0.00     0.083 C 
ATOM      7  H2  UNL     1       7.510  49.163  17.951  1.00  0.00     0.185 HD
BRANCH   6   8
HETATM    8  C4  UNL     1       4.163  49.115  17.767  1.00  0.00     0.074 C 
BRANCH   8   9
HETATM    9  C5  UNL     1       3.239  47.971  17.955  1.00  0.00    -0.007 C 
HETATM   10  C6  UNL     1       2.030  48.084  18.458  1.00  0.00    -0.025 C 
HETATM   11  C7  UNL     1       1.300  49.296  18.942  1.00  0.00     0.046 C 
HETATM   12  S1  UNL     1       0.822  46.759  18.730  1.00  0.00    -0.135 SA
HETATM   13  C8  UNL     1       0.512  48.885  20.159  1.00  0.00     0.015 C 
HETATM   14  C9  UNL     1      -0.358  47.713  19.769  1.00  0.00     0.079 C 
ENDBRANCH   8   9
ENDBRANCH   6   8
ENDBRANCH   3   5
ENDBRANCH   2   3
BRANCH   2  15
HETATM   15  C10 UNL     1       7.923  51.055  19.817  1.00  0.00     0.241 C 
HETATM   16  O1  UNL     1       8.942  50.800  19.155  1.00  0.00    -0.271 OA
HETATM   17  N3  UNL     1       7.875  50.768  21.209  1.00  0.00    -0.359 N 
ATOM     18  H3  UNL     1       7.021  50.996  21.717  1.00  0.00     0.162 HD
BRANCH  17  19
HETATM   19  C11 UNL     1       8.950  50.179  21.940  1.00  0.00     0.125 C 
BRANCH  19  20
HETATM   20  C12 UNL     1       8.666  50.010  23.399  1.00  0.00     0.051 C 
BRANCH  20  21
HETATM   21  C13 UNL     1       8.926  48.559  23.768  1.00  0.00     0.123 C 
HETATM   22  C14 UNL     1       8.071  47.619  22.993  1.00  0.00     0.034 C 
HETATM   23  C15 UNL     1       7.732  46.554  24.019  1.00  0.00     0.029 C 
HETATM   24  C16 UNL     1       7.812  47.372  25.302  1.00  0.00     0.168 C 
HETATM   25  O2  UNL     1       8.740  48.356  25.103  1.00  0.00    -0.386 OA
ENDBRANCH  20  21
ENDBRANCH  19  20
ENDBRANCH  17  19
ENDBRANCH   2  15
TORSDOF 8
ENDMDL
MODEL 5
REMARK VINA RESULT: -6.630386077      3.249      7.555
REMARK  8 active torsions:
REMARK  status: ('A' for Active; 'I' for Inactive)
REMARK    1  A    between atoms: C2_2  and  N1_3 
REMARK    2  A    between atoms: C2_2  and  C10_15 
REMARK    3  A    between atoms: N1_3  and  N2_5 
REMARK    4  A    between atoms: C3_7  and  C4_8 
REMARK    5  A    between atoms: C4_8  and  C5_9 
REMARK       I    between atoms: C10_15  and  N3_17 
REMARK    6  A    between atoms: N3_17  and  C11_19 
REMARK    7  A    between atoms: C11_19  and  C12_20 
REMARK    8  A    between atoms: C12_20  and  C13_21 
ROOT
HETATM    1  C1  UNL     1       5.084  52.569  18.758  1.00  0.00     0.044 C 
HETATM    2  C2  UNL     1       4.997  51.400  19.719  1.00  0.00     0.187 C 
ENDROOT
BRANCH   2   3
HETATM    3  N1  UNL     1       6.249  51.245  20.401  1.00  0.00    -0.324 N 
ATOM      4  H1  UNL     1       6.256  50.823  21.329  1.00  0.00     0.181 HD
BRANCH   3   5
HETATM    5  N2  UNL     1       7.447  51.647  19.843  1.00  0.00    -0.319 N 
HETATM    6  C3  UNL     1       8.542  50.964  19.893  1.00  0.00     0.083 C 
ATOM      7  H2  UNL     1       7.469  52.544  19.359  1.00  0.00     0.185 HD
BRANCH   6   8
HETATM    8  C4  UNL     1       8.647  49.647  20.565  1.00  0.00     0.074 C 
BRANCH   8   9
HETATM    9  C5  UNL     1       8.831  49.780  22.030  1.00  0.00    -0.007 C 
HETATM   10  C6  UNL     1       8.681  48.788  22.879  1.00  0.00    -0.025 C 
HETATM   11  C7  UNL     1       8.314  47.360  22.631  1.00  0.00     0.046 C 
HETATM   12  S1  UNL     1       8.881  48.839  24.681  1.00  0.00    -0.135 SA
HETATM   13  C8  UNL     1       7.410  46.931  23.758  1.00  0.00     0.015 C 
HETATM   14  C9  UNL     1       8.134  47.201  25.056  1.00  0.00     0.079 C 
ENDBRANCH   8   9
ENDBRANCH   6   8
ENDBRANCH   3   5
ENDBRANCH   2   3
BRANCH   2  15
HETATM   15  C10 UNL     1       4.674  50.145  18.985  1.00  0.00     0.241 C 
HETATM   16  O1  UNL     1       5.591  49.457  18.510  1.00  0.00    -0.271 OA
HETATM   17  N3  UNL     1       3.317  49.744  18.835  1.00  0.00    -0.359 N 
ATOM     18  H3  UNL     1       2.595  50.336  19.243  1.00  0.00     0.162 HD
BRANCH  17  19
HETATM   19  C11 UNL     1       2.906  48.563  18.148  1.00  0.00     0.125 C 
BRANCH  19  20
HETATM   20  C12 UNL     1       1.738  47.875  18.780  1.00  0.00     0.051 C 
BRANCH  20  21
HETATM   21  C13 UNL     1       1.673  46.456  18.239  1.00  0.00     0.123 C 
HETATM   22  C14 UNL     1       2.200  46.360  16.851  1.00  0.00     0.034 C 
HETATM   23  C15 UNL     1       1.264  45.353  16.208  1.00  0.00     0.029 C 
HETATM   24  C16 UNL     1       0.004  45.584  17.032  1.00  0.00     0.168 C 
HETATM   25  O2  UNL     1       0.397  45.978  18.282  1.00  0.00    -0.386 OA
ENDBRANCH  20  21
ENDBRANCH  19  20
ENDBRANCH  17  19
ENDBRANCH   2  15
TORSDOF 8
ENDMDL
