MODEL 1
REMARK VINA RESULT: -6.005058930      0.000      0.000
REMARK  7 active torsions:
REMARK  status: ('A' for Active; 'I' for Inactive)
REMARK    1  A    between atoms: C2_2  and  C3_3 
REMARK    2  A    between atoms: C3_3  and  S1_4 
REMARK    3  A    between atoms: S1_4  and  C4_5 
REMARK    4  A    between atoms: N3_14  and  O1_16 
REMARK    5  A    between atoms: C10_18  and  C11_19 
REMARK    6  A    between atoms: C11_19  and  C12_20 
REMARK       I    between atoms: C12_20  and  N4_22 
REMARK    7  A    between atoms: N4_22  and  C14_24 
ROOT
HETATM    1  C4  UNL     1       7.304  51.967  20.874  1.00  0.00     0.033 A 
HETATM    2  C5  UNL     1       7.749  52.907  21.764  1.00  0.00     0.084 A 
HETATM    3  C6  UNL     1       7.487  54.298  21.566  1.00  0.00     0.103 C 
HETATM    4  N1  UNL     1       7.304  55.422  21.402  1.00  0.00    -0.191 NA
HETATM    5  C7  UNL     1       8.525  52.536  22.853  1.00  0.00     0.029 A 
HETATM    6  C8  UNL     1       9.005  53.572  23.824  1.00  0.00     0.070 C 
HETATM    7  N2  UNL     1       8.824  51.242  23.003  1.00  0.00    -0.343 N 
ATOM      8  H2  UNL     1       9.395  50.968  23.803  1.00  0.00     0.167 HD
HETATM    9  C9  UNL     1       8.414  50.287  22.158  1.00  0.00     0.133 A 
HETATM   10  N3  UNL     1       8.707  49.040  22.309  1.00  0.00    -0.253 N 
ATOM     11  H3  UNL     1       8.356  48.374  21.621  1.00  0.00     0.196 HD
HETATM   12  C10 UNL     1       7.642  50.616  21.067  1.00  0.00     0.015 A 
ENDROOT
BRANCH   1  13
HETATM   13  S1  UNL     1       6.245  52.321  19.490  1.00  0.00    -0.128 SA
BRANCH  13  14
HETATM   14  C3  UNL     1       4.549  52.515  20.035  1.00  0.00     0.079 C 
BRANCH  14  15
HETATM   15  C2  UNL     1       3.826  51.223  20.113  1.00  0.00     0.006 C 
HETATM   16  C1  UNL     1       2.378  51.469  20.526  1.00  0.00     0.006 C 
ENDBRANCH  14  15
ENDBRANCH  13  14
ENDBRANCH   1  13
BRANCH  12  17
HETATM   17  C11 UNL     1       7.192  49.619  20.089  1.00  0.00     0.146 C 
BRANCH  17  18
HETATM   18  C12 UNL     1       8.068  49.613  18.886  1.00  0.00     0.223 C 
HETATM   19  O2  UNL     1       9.292  49.843  19.050  1.00  0.00    -0.273 OA
HETATM   20  N4  UNL     1       7.502  49.352  17.613  1.00  0.00    -0.357 N 
HETATM   21  C13 UNL     1       6.081  49.102  17.509  1.00  0.00     0.152 C 
BRANCH  20  22
HETATM   22  C14 UNL     1       8.290  49.323  16.408  1.00  0.00     0.120 C 
HETATM   23  C15 UNL     1       8.439  50.655  15.737  1.00  0.00     0.026 C 
ENDBRANCH  20  22
ENDBRANCH  17  18
ENDBRANCH  12  17
BRANCH  10  24
HETATM   24  O1  UNL     1       9.467  48.561  23.345  1.00  0.00    -0.288 OA
ATOM     25  H1  UNL     1       9.885  47.708  23.338  1.00  0.00     0.244 HD
ENDBRANCH  10  24
TORSDOF 7
ENDMDL
MODEL 2
REMARK VINA RESULT: -5.995099172      1.467      2.085
REMARK  7 active torsions:
REMARK  status: ('A' for Active; 'I' for Inactive)
REMARK    1  A    between atoms: C2_2  and  C3_3 
REMARK    2  A    between atoms: C3_3  and  S1_4 
REMARK    3  A    between atoms: S1_4  and  C4_5 
REMARK    4  A    between atoms: N3_14  and  O1_16 
REMARK    5  A    between atoms: C10_18  and  C11_19 
REMARK    6  A    between atoms: C11_19  and  C12_20 
REMARK       I    between atoms: C12_20  and  N4_22 
REMARK    7  A    between atoms: N4_22  and  C14_24 
ROOT
HETATM    1  C4  UNL     1       7.055  51.660  20.577  1.00  0.00     0.033 A 
HETATM    2  C5  UNL     1       7.557  52.519  21.519  1.00  0.00     0.084 A 
HETATM    3  C6  UNL     1       7.253  53.914  21.485  1.00  0.00     0.103 C 
HETATM    4  N1  UNL     1       7.036  55.044  21.452  1.00  0.00    -0.191 NA
HETATM    5  C7  UNL     1       8.428  52.062  22.497  1.00  0.00     0.029 A 
HETATM    6  C8  UNL     1       8.970  53.008  23.525  1.00  0.00     0.070 C 
HETATM    7  N2  UNL     1       8.763  50.767  22.490  1.00  0.00    -0.343 N 
ATOM      8  H2  UNL     1       9.404  50.430  23.208  1.00  0.00     0.167 HD
HETATM    9  C9  UNL     1       8.300  49.891  21.588  1.00  0.00     0.133 A 
HETATM   10  N3  UNL     1       8.628  48.643  21.587  1.00  0.00    -0.253 N 
ATOM     11  H3  UNL     1       8.232  48.040  20.866  1.00  0.00     0.196 HD
HETATM   12  C10 UNL     1       7.433  50.306  20.603  1.00  0.00     0.015 A 
ENDROOT
BRANCH   1  13
HETATM   13  S1  UNL     1       5.876  52.122  19.328  1.00  0.00    -0.128 SA
BRANCH  13  14
HETATM   14  C3  UNL     1       6.717  52.792  17.895  1.00  0.00     0.079 C 
BRANCH  14  15
HETATM   15  C2  UNL     1       8.177  52.937  18.109  1.00  0.00     0.006 C 
HETATM   16  C1  UNL     1       8.563  54.411  18.034  1.00  0.00     0.006 C 
ENDBRANCH  14  15
ENDBRANCH  13  14
ENDBRANCH   1  13
BRANCH  12  17
HETATM   17  C11 UNL     1       6.921  49.400  19.570  1.00  0.00     0.146 C 
BRANCH  17  18
HETATM   18  C12 UNL     1       7.820  49.373  18.385  1.00  0.00     0.223 C 
HETATM   19  O2  UNL     1       9.057  49.471  18.584  1.00  0.00    -0.273 OA
HETATM   20  N4  UNL     1       7.262  49.238  17.089  1.00  0.00    -0.357 N 
HETATM   21  C13 UNL     1       5.826  49.136  16.944  1.00  0.00     0.152 C 
BRANCH  20  22
HETATM   22  C14 UNL     1       8.072  49.197  15.899  1.00  0.00     0.120 C 
HETATM   23  C15 UNL     1       8.325  50.538  15.279  1.00  0.00     0.026 C 
ENDBRANCH  20  22
ENDBRANCH  17  18
ENDBRANCH  12  17
BRANCH  10  24
HETATM   24  O1  UNL     1       9.481  48.084  22.503  1.00  0.00    -0.288 OA
ATOM     25  H1  UNL     1       9.190  47.556  23.237  1.00  0.00     0.244 HD
ENDBRANCH  10  24
TORSDOF 7
ENDMDL
MODEL 3
REMARK VINA RESULT: -5.709293766      1.287      1.770
REMARK  7 active torsions:
REMARK  status: ('A' for Active; 'I' for Inactive)
REMARK    1  A    between atoms: C2_2  and  C3_3 
REMARK    2  A    between atoms: C3_3  and  S1_4 
REMARK    3  A    between atoms: S1_4  and  C4_5 
REMARK    4  A    between atoms: N3_14  and  O1_16 
REMARK    5  A    between atoms: C10_18  and  C11_19 
REMARK    6  A    between atoms: C11_19  and  C12_20 
REMARK       I    between atoms: C12_20  and  N4_22 
REMARK    7  A    between atoms: N4_22  and  C14_24 
ROOT
HETATM    1  C4  UNL     1       8.105  52.744  20.424  1.00  0.00     0.033 A 
HETATM    2  C5  UNL     1       7.955  53.682  21.410  1.00  0.00     0.084 A 
HETATM    3  C6  UNL     1       7.676  55.048  21.096  1.00  0.00     0.103 C 
HETATM    4  N1  UNL     1       7.477  56.155  20.853  1.00  0.00    -0.191 NA
HETATM    5  C7  UNL     1       8.134  53.341  22.742  1.00  0.00     0.029 A 
HETATM    6  C8  UNL     1       7.965  54.374  23.815  1.00  0.00     0.070 C 
HETATM    7  N2  UNL     1       8.459  52.076  23.032  1.00  0.00    -0.343 N 
ATOM      8  H2  UNL     1       8.591  51.824  24.011  1.00  0.00     0.167 HD
HETATM    9  C9  UNL     1       8.618  51.124  22.103  1.00  0.00     0.133 A 
HETATM   10  N3  UNL     1       8.932  49.906  22.390  1.00  0.00    -0.253 N 
ATOM     11  H3  UNL     1       9.035  49.241  21.624  1.00  0.00     0.196 HD
HETATM   12  C10 UNL     1       8.448  51.425  20.770  1.00  0.00     0.015 A 
ENDROOT
BRANCH   1  13
HETATM   13  S1  UNL     1       7.826  53.054  18.695  1.00  0.00    -0.128 SA
BRANCH  13  14
HETATM   14  C3  UNL     1       6.087  52.881  18.303  1.00  0.00     0.079 C 
BRANCH  14  15
HETATM   15  C2  UNL     1       5.238  52.788  19.515  1.00  0.00     0.006 C 
HETATM   16  C1  UNL     1       4.176  51.709  19.317  1.00  0.00     0.006 C 
ENDBRANCH  14  15
ENDBRANCH  13  14
ENDBRANCH   1  13
BRANCH  12  17
HETATM   17  C11 UNL     1       8.643  50.434  19.707  1.00  0.00     0.146 C 
BRANCH  17  18
HETATM   18  C12 UNL     1       7.375  49.717  19.401  1.00  0.00     0.223 C 
HETATM   19  O2  UNL     1       6.608  49.445  20.360  1.00  0.00    -0.273 OA
HETATM   20  N4  UNL     1       7.077  49.368  18.061  1.00  0.00    -0.357 N 
HETATM   21  C13 UNL     1       8.015  49.712  17.015  1.00  0.00     0.152 C 
BRANCH  20  22
HETATM   22  C14 UNL     1       5.866  48.681  17.692  1.00  0.00     0.120 C 
HETATM   23  C15 UNL     1       5.104  49.332  16.577  1.00  0.00     0.026 C 
ENDBRANCH  20  22
ENDBRANCH  17  18
ENDBRANCH  12  17
BRANCH  10  24
HETATM   24  O1  UNL     1       9.135  49.458  23.669  1.00  0.00    -0.288 OA
ATOM     25  H1  UNL     1       8.570  48.828  24.100  1.00  0.00     0.244 HD
ENDBRANCH  10  24
TORSDOF 7
ENDMDL
MODEL 4
REMARK VINA RESULT: -5.682165129      2.771      4.934
REMARK  7 active torsions:
REMARK  status: ('A' for Active; 'I' for Inactive)
REMARK    1  A    between atoms: C2_2  and  C3_3 
REMARK    2  A    between atoms: C3_3  and  S1_4 
REMARK    3  A    between atoms: S1_4  and  C4_5 
REMARK    4  A    between atoms: N3_14  and  O1_16 
REMARK    5  A    between atoms: C10_18  and  C11_19 
REMARK    6  A    between atoms: C11_19  and  C12_20 
REMARK       I    between atoms: C12_20  and  N4_22 
REMARK    7  A    between atoms: N4_22  and  C14_24 
ROOT
HETATM    1  C4  UNL     1       8.557  50.083  21.343  1.00  0.00     0.033 A 
HETATM    2  C5  UNL     1       8.737  49.289  22.444  1.00  0.00     0.084 A 
HETATM    3  C6  UNL     1       8.771  47.865  22.333  1.00  0.00     0.103 C 
HETATM    4  N1  UNL     1       8.774  46.717  22.258  1.00  0.00    -0.191 NA
HETATM    5  C7  UNL     1       8.827  49.849  23.710  1.00  0.00     0.029 A 
HETATM    6  C8  UNL     1       9.027  48.973  24.909  1.00  0.00     0.070 C 
HETATM    7  N2  UNL     1       8.731  51.178  23.821  1.00  0.00    -0.343 N 
ATOM      8  H2  UNL     1       8.796  51.591  24.752  1.00  0.00     0.167 HD
HETATM    9  C9  UNL     1       8.553  51.995  22.774  1.00  0.00     0.133 A 
HETATM   10  N3  UNL     1       8.460  53.277  22.889  1.00  0.00    -0.253 N 
ATOM     11  H3  UNL     1       8.325  53.829  22.042  1.00  0.00     0.196 HD
HETATM   12  C10 UNL     1       8.459  51.477  21.502  1.00  0.00     0.015 A 
ENDROOT
BRANCH   1  13
HETATM   13  S1  UNL     1       8.503  49.479  19.671  1.00  0.00    -0.128 SA
BRANCH  13  14
HETATM   14  C3  UNL     1       6.818  49.086  19.204  1.00  0.00     0.079 C 
BRANCH  14  15
HETATM   15  C2  UNL     1       6.626  49.068  17.735  1.00  0.00     0.006 C 
HETATM   16  C1  UNL     1       5.200  48.631  17.409  1.00  0.00     0.006 C 
ENDBRANCH  14  15
ENDBRANCH  13  14
ENDBRANCH   1  13
BRANCH  12  17
HETATM   17  C11 UNL     1       8.230  52.318  20.323  1.00  0.00     0.146 C 
BRANCH  17  18
HETATM   18  C12 UNL     1       6.831  52.823  20.286  1.00  0.00     0.223 C 
HETATM   19  O2  UNL     1       5.902  51.989  20.428  1.00  0.00    -0.273 OA
HETATM   20  N4  UNL     1       6.594  54.207  20.094  1.00  0.00    -0.357 N 
HETATM   21  C13 UNL     1       7.720  55.101  19.933  1.00  0.00     0.152 C 
BRANCH  20  22
HETATM   22  C14 UNL     1       5.268  54.766  20.056  1.00  0.00     0.120 C 
HETATM   23  C15 UNL     1       4.791  55.310  21.369  1.00  0.00     0.026 C 
ENDBRANCH  20  22
ENDBRANCH  17  18
ENDBRANCH  12  17
BRANCH  10  24
HETATM   24  O1  UNL     1       8.533  53.936  24.088  1.00  0.00    -0.288 OA
ATOM     25  H1  UNL     1       7.817  54.442  24.454  1.00  0.00     0.244 HD
ENDBRANCH  10  24
TORSDOF 7
ENDMDL
MODEL 5
REMARK VINA RESULT: -5.633867223      2.730      5.507
REMARK  7 active torsions:
REMARK  status: ('A' for Active; 'I' for Inactive)
REMARK    1  A    between atoms: C2_2  and  C3_3 
REMARK    2  A    between atoms: C3_3  and  S1_4 
REMARK    3  A    between atoms: S1_4  and  C4_5 
REMARK    4  A    between atoms: N3_14  and  O1_16 
REMARK    5  A    between atoms: C10_18  and  C11_19 
REMARK    6  A    between atoms: C11_19  and  C12_20 
REMARK       I    between atoms: C12_20  and  N4_22 
REMARK    7  A    between atoms: N4_22  and  C14_24 
ROOT
HETATM    1  C4  UNL     1       7.555  52.623  21.301  1.00  0.00     0.033 A 
HETATM    2  C5  UNL     1       7.753  51.273  21.422  1.00  0.00     0.084 A 
HETATM    3  C6  UNL     1       7.155  50.352  20.508  1.00  0.00     0.103 C 
HETATM    4  N1  UNL     1       6.658  49.600  19.792  1.00  0.00    -0.191 NA
HETATM    5  C7  UNL     1       8.491  50.761  22.478  1.00  0.00     0.029 A 
HETATM    6  C8  UNL     1       8.705  49.283  22.601  1.00  0.00     0.070 C 
HETATM    7  N2  UNL     1       8.997  51.619  23.371  1.00  0.00    -0.343 N 
ATOM      8  H2  UNL     1       9.539  51.243  24.148  1.00  0.00     0.167 HD
HETATM    9  C9  UNL     1       8.828  52.946  23.295  1.00  0.00     0.133 A 
HETATM   10  N3  UNL     1       9.318  53.768  24.160  1.00  0.00    -0.253 N 
ATOM     11  H3  UNL     1       9.144  54.764  24.032  1.00  0.00     0.196 HD
HETATM   12  C10 UNL     1       8.102  53.492  22.261  1.00  0.00     0.015 A 
ENDROOT
BRANCH   1  13
HETATM   13  S1  UNL     1       6.691  53.391  19.949  1.00  0.00    -0.128 SA
BRANCH  13  14
HETATM   14  C3  UNL     1       4.926  53.399  20.261  1.00  0.00     0.079 C 
BRANCH  14  15
HETATM   15  C2  UNL     1       4.194  52.435  19.405  1.00  0.00     0.006 C 
HETATM   16  C1  UNL     1       3.461  51.423  20.282  1.00  0.00     0.006 C 
ENDBRANCH  14  15
ENDBRANCH  13  14
ENDBRANCH   1  13
BRANCH  12  17
HETATM   17  C11 UNL     1       7.855  54.933  22.145  1.00  0.00     0.146 C 
BRANCH  17  18
HETATM   18  C12 UNL     1       6.675  55.343  22.954  1.00  0.00     0.223 C 
HETATM   19  O2  UNL     1       6.527  54.814  24.085  1.00  0.00    -0.273 OA
HETATM   20  N4  UNL     1       5.770  56.300  22.433  1.00  0.00    -0.357 N 
HETATM   21  C13 UNL     1       6.010  56.858  21.119  1.00  0.00     0.152 C 
BRANCH  20  22
HETATM   22  C14 UNL     1       4.613  56.749  23.163  1.00  0.00     0.120 C 
HETATM   23  C15 UNL     1       3.329  56.098  22.743  1.00  0.00     0.026 C 
ENDBRANCH  20  22
ENDBRANCH  17  18
ENDBRANCH  12  17
BRANCH  10  24
HETATM   24  O1  UNL     1      10.060  53.373  25.243  1.00  0.00    -0.288 OA
ATOM     25  H1  UNL     1      10.890  52.918  25.172  1.00  0.00     0.244 HD
ENDBRANCH  10  24
TORSDOF 7
ENDMDL
