MODEL 1
REMARK VINA RESULT: -7.129888224      0.000      0.000
REMARK  7 active torsions:
REMARK  status: ('A' for Active; 'I' for Inactive)
REMARK    1  A    between atoms: C2_2  and  N1_3 
REMARK    2  A    between atoms: C3_6  and  C4_7 
REMARK    3  A    between atoms: C4_7  and  N3_8 
REMARK    4  A    between atoms: N3_8  and  C5_10 
REMARK    5  A    between atoms: C5_10  and  C6_11 
REMARK    6  A    between atoms: C11_19  and  N5_20 
REMARK    7  A    between atoms: C16_25  and  C17_26 
ROOT
HETATM    1  N1  UNL     1       7.308  53.081  20.696  1.00  0.00    -0.293 N 
HETATM    2  N2  UNL     1       8.321  52.260  20.525  1.00  0.00    -0.295 N 
ATOM      3  H2  UNL     1       9.203  52.350  21.030  1.00  0.00     0.187 HD
HETATM    4  C3  UNL     1       8.093  51.323  19.652  1.00  0.00     0.092 A 
HETATM    5  C11 UNL     1       6.813  51.558  19.212  1.00  0.00     0.085 A 
HETATM    6  C16 UNL     1       6.353  52.708  19.926  1.00  0.00     0.061 A 
ENDROOT
BRANCH   4   7
HETATM    7  C4  UNL     1       8.889  50.078  19.409  1.00  0.00     0.120 C 
BRANCH   7   8
HETATM    8  N3  UNL     1       8.906  49.112  20.422  1.00  0.00    -0.376 N 
ATOM      9  H3  UNL     1       8.910  48.116  20.202  1.00  0.00     0.164 HD
BRANCH   8  10
HETATM   10  C5  UNL     1       8.917  49.564  21.752  1.00  0.00     0.065 C 
BRANCH  10  11
HETATM   11  C6  UNL     1       9.003  48.558  22.861  1.00  0.00     0.027 C 
HETATM   12  C7  UNL     1       9.152  49.047  24.257  1.00  0.00     0.037 C 
HETATM   13  C8  UNL     1       8.477  48.075  25.279  1.00  0.00     0.233 C 
HETATM   14  N4  UNL     1       8.744  46.759  24.715  1.00  0.00    -0.075 N 
HETATM   15  C9  UNL     1       7.799  46.533  23.649  1.00  0.00     0.233 C 
ATOM     16  H42 UNL     1       9.712  46.648  24.415  1.00  0.00     0.277 HD
ATOM     17  H41 UNL     1       8.733  46.019  25.416  1.00  0.00     0.277 HD
HETATM   18  C10 UNL     1       7.660  47.799  22.837  1.00  0.00     0.037 C 
ENDBRANCH  10  11
ENDBRANCH   8  10
ENDBRANCH   7   8
ENDBRANCH   4   7
BRANCH   5  19
HETATM   19  N5  UNL     1       6.177  50.794  18.214  1.00  0.00    -0.377 N 
HETATM   20  C12 UNL     1       6.173  50.841  16.799  1.00  0.00     0.123 C 
HETATM   21  C13 UNL     1       5.605  49.497  16.331  1.00  0.00     0.021 C 
HETATM   22  C14 UNL     1       5.579  48.633  17.568  1.00  0.00     0.021 C 
HETATM   23  C15 UNL     1       5.322  49.661  18.631  1.00  0.00     0.123 C 
ENDBRANCH   5  19
BRANCH   1  24
HETATM   24  C2  UNL     1       7.435  54.187  21.652  1.00  0.00     0.144 C 
HETATM   25  C1  UNL     1       8.100  53.664  22.879  1.00  0.00     0.028 C 
ENDBRANCH   1  24
BRANCH   6  26
HETATM   26  C17 UNL     1       5.069  53.296  19.538  1.00  0.00     0.040 A 
HETATM   27  C18 UNL     1       3.772  52.697  20.179  1.00  0.00     0.011 A 
HETATM   28  C19 UNL     1       4.206  54.081  20.493  1.00  0.00     0.011 A 
ENDBRANCH   6  26
TORSDOF 7
ENDMDL
MODEL 2
REMARK VINA RESULT: -6.865757897      1.228      3.541
REMARK  7 active torsions:
REMARK  status: ('A' for Active; 'I' for Inactive)
REMARK    1  A    between atoms: C2_2  and  N1_3 
REMARK    2  A    between atoms: C3_6  and  C4_7 
REMARK    3  A    between atoms: C4_7  and  N3_8 
REMARK    4  A    between atoms: N3_8  and  C5_10 
REMARK    5  A    between atoms: C5_10  and  C6_11 
REMARK    6  A    between atoms: C11_19  and  N5_20 
REMARK    7  A    between atoms: C16_25  and  C17_26 
ROOT
HETATM    1  N1  UNL     1       4.850  50.257  18.888  1.00  0.00    -0.293 N 
HETATM    2  N2  UNL     1       5.979  49.603  19.053  1.00  0.00    -0.295 N 
ATOM      3  H2  UNL     1       6.046  48.586  19.014  1.00  0.00     0.187 HD
HETATM    4  C3  UNL     1       7.002  50.376  19.272  1.00  0.00     0.092 A 
HETATM    5  C11 UNL     1       6.491  51.650  19.251  1.00  0.00     0.085 A 
HETATM    6  C16 UNL     1       5.091  51.511  18.994  1.00  0.00     0.061 A 
ENDROOT
BRANCH   4   7
HETATM    7  C4  UNL     1       8.455  50.014  19.231  1.00  0.00     0.120 C 
BRANCH   7   8
HETATM    8  N3  UNL     1       8.939  49.164  20.232  1.00  0.00    -0.376 N 
ATOM      9  H3  UNL     1       9.293  48.234  20.009  1.00  0.00     0.164 HD
BRANCH   8  10
HETATM   10  C5  UNL     1       8.918  49.637  21.555  1.00  0.00     0.065 C 
BRANCH  10  11
HETATM   11  C6  UNL     1       9.033  48.654  22.681  1.00  0.00     0.027 C 
HETATM   12  C7  UNL     1       9.116  49.170  24.073  1.00  0.00     0.037 C 
HETATM   13  C8  UNL     1       8.473  48.174  25.092  1.00  0.00     0.233 C 
HETATM   14  N4  UNL     1       8.833  46.869  24.555  1.00  0.00    -0.075 N 
HETATM   15  C9  UNL     1       7.931  46.571  23.469  1.00  0.00     0.233 C 
ATOM     16  H42 UNL     1       9.813  46.811  24.282  1.00  0.00     0.277 HD
ATOM     17  H41 UNL     1       8.847  46.139  25.268  1.00  0.00     0.277 HD
HETATM   18  C10 UNL     1       7.739  47.815  22.634  1.00  0.00     0.037 C 
ENDBRANCH  10  11
ENDBRANCH   8  10
ENDBRANCH   7   8
ENDBRANCH   4   7
BRANCH   5  19
HETATM   19  N5  UNL     1       7.259  52.806  19.494  1.00  0.00    -0.377 N 
HETATM   20  C12 UNL     1       7.746  53.848  18.670  1.00  0.00     0.123 C 
HETATM   21  C13 UNL     1       8.156  54.981  19.617  1.00  0.00     0.021 C 
HETATM   22  C14 UNL     1       7.592  54.591  20.960  1.00  0.00     0.021 C 
HETATM   23  C15 UNL     1       7.677  53.094  20.884  1.00  0.00     0.123 C 
ENDBRANCH   5  19
BRANCH   1  24
HETATM   24  C2  UNL     1       3.615  49.503  18.636  1.00  0.00     0.144 C 
HETATM   25  C1  UNL     1       3.958  48.324  17.792  1.00  0.00     0.028 C 
ENDBRANCH   1  24
BRANCH   6  26
HETATM   26  C17 UNL     1       4.248  52.707  19.082  1.00  0.00     0.040 A 
HETATM   27  C18 UNL     1       2.993  52.644  20.014  1.00  0.00     0.011 A 
HETATM   28  C19 UNL     1       4.133  53.538  20.333  1.00  0.00     0.011 A 
ENDBRANCH   6  26
TORSDOF 7
ENDMDL
MODEL 3
REMARK VINA RESULT: -6.800619231      2.384      4.082
REMARK  7 active torsions:
REMARK  status: ('A' for Active; 'I' for Inactive)
REMARK    1  A    between atoms: C2_2  and  N1_3 
REMARK    2  A    between atoms: C3_6  and  C4_7 
REMARK    3  A    between atoms: C4_7  and  N3_8 
REMARK    4  A    between atoms: N3_8  and  C5_10 
REMARK    5  A    between atoms: C5_10  and  C6_11 
REMARK    6  A    between atoms: C11_19  and  N5_20 
REMARK    7  A    between atoms: C16_25  and  C17_26 
ROOT
HETATM    1  N1  UNL     1       9.144  51.777  16.641  1.00  0.00    -0.293 N 
HETATM    2  N2  UNL     1       8.884  50.632  17.231  1.00  0.00    -0.295 N 
ATOM      3  H2  UNL     1       9.159  49.729  16.843  1.00  0.00     0.187 HD
HETATM    4  C3  UNL     1       8.243  50.757  18.356  1.00  0.00     0.092 A 
HETATM    5  C11 UNL     1       8.066  52.110  18.510  1.00  0.00     0.085 A 
HETATM    6  C16 UNL     1       8.674  52.722  17.370  1.00  0.00     0.061 A 
ENDROOT
BRANCH   4   7
HETATM    7  C4  UNL     1       8.028  49.719  19.415  1.00  0.00     0.120 C 
BRANCH   7   8
HETATM    8  N3  UNL     1       9.076  49.483  20.312  1.00  0.00    -0.376 N 
ATOM      9  H3  UNL     1       9.963  49.092  19.996  1.00  0.00     0.164 HD
BRANCH   8  10
HETATM   10  C5  UNL     1       8.861  49.804  21.663  1.00  0.00     0.065 C 
BRANCH  10  11
HETATM   11  C6  UNL     1       9.033  48.735  22.701  1.00  0.00     0.027 C 
HETATM   12  C7  UNL     1       9.155  49.138  24.126  1.00  0.00     0.037 C 
HETATM   13  C8  UNL     1       8.565  48.049  25.081  1.00  0.00     0.233 C 
HETATM   14  N4  UNL     1       8.929  46.799  24.427  1.00  0.00    -0.075 N 
HETATM   15  C9  UNL     1       7.996  46.573  23.351  1.00  0.00     0.233 C 
ATOM     16  H42 UNL     1       9.901  46.784  24.118  1.00  0.00     0.277 HD
ATOM     17  H41 UNL     1       8.980  46.014  25.077  1.00  0.00     0.277 HD
HETATM   18  C10 UNL     1       7.753  47.877  22.627  1.00  0.00     0.037 C 
ENDBRANCH  10  11
ENDBRANCH   8  10
ENDBRANCH   7   8
ENDBRANCH   4   7
BRANCH   5  19
HETATM   19  N5  UNL     1       7.368  52.691  19.587  1.00  0.00    -0.377 N 
HETATM   20  C12 UNL     1       7.768  53.263  20.818  1.00  0.00     0.123 C 
HETATM   21  C13 UNL     1       6.560  54.056  21.330  1.00  0.00     0.021 C 
HETATM   22  C14 UNL     1       5.603  54.106  20.165  1.00  0.00     0.021 C 
HETATM   23  C15 UNL     1       5.895  52.792  19.498  1.00  0.00     0.123 C 
ENDBRANCH   5  19
BRANCH   1  24
HETATM   24  C2  UNL     1       9.861  51.778  15.360  1.00  0.00     0.144 C 
HETATM   25  C1  UNL     1      11.294  52.080  15.633  1.00  0.00     0.028 C 
ENDBRANCH   1  24
BRANCH   6  26
HETATM   26  C17 UNL     1       8.494  54.163  17.177  1.00  0.00     0.040 A 
HETATM   27  C18 UNL     1       9.354  55.127  18.061  1.00  0.00     0.011 A 
HETATM   28  C19 UNL     1       9.562  55.051  16.594  1.00  0.00     0.011 A 
ENDBRANCH   6  26
TORSDOF 7
ENDMDL
MODEL 4
REMARK VINA RESULT: -6.744426801      2.088      2.808
REMARK  7 active torsions:
REMARK  status: ('A' for Active; 'I' for Inactive)
REMARK    1  A    between atoms: C2_2  and  N1_3 
REMARK    2  A    between atoms: C3_6  and  C4_7 
REMARK    3  A    between atoms: C4_7  and  N3_8 
REMARK    4  A    between atoms: N3_8  and  C5_10 
REMARK    5  A    between atoms: C5_10  and  C6_11 
REMARK    6  A    between atoms: C11_19  and  N5_20 
REMARK    7  A    between atoms: C16_25  and  C17_26 
ROOT
HETATM    1  N1  UNL     1       8.069  53.225  20.347  1.00  0.00    -0.293 N 
HETATM    2  N2  UNL     1       8.303  51.948  20.556  1.00  0.00    -0.295 N 
ATOM      3  H2  UNL     1       8.358  51.537  21.488  1.00  0.00     0.187 HD
HETATM    4  C3  UNL     1       8.458  51.259  19.464  1.00  0.00     0.092 A 
HETATM    5  C11 UNL     1       8.315  52.174  18.449  1.00  0.00     0.085 A 
HETATM    6  C16 UNL     1       8.060  53.431  19.081  1.00  0.00     0.061 A 
ENDROOT
BRANCH   4   7
HETATM    7  C4  UNL     1       8.462  49.770  19.307  1.00  0.00     0.120 C 
BRANCH   7   8
HETATM    8  N3  UNL     1       8.932  49.007  20.383  1.00  0.00    -0.376 N 
ATOM      9  H3  UNL     1       9.901  48.693  20.425  1.00  0.00     0.164 HD
BRANCH   8  10
HETATM   10  C5  UNL     1       8.019  48.691  21.404  1.00  0.00     0.065 C 
BRANCH  10  11
HETATM   11  C6  UNL     1       8.537  48.125  22.693  1.00  0.00     0.027 C 
HETATM   12  C7  UNL     1       9.080  49.060  23.714  1.00  0.00     0.037 C 
HETATM   13  C8  UNL     1       8.849  48.520  25.163  1.00  0.00     0.233 C 
HETATM   14  N4  UNL     1       9.033  47.082  25.018  1.00  0.00    -0.075 N 
HETATM   15  C9  UNL     1       7.821  46.533  24.460  1.00  0.00     0.233 C 
ATOM     16  H42 UNL     1       9.862  46.844  24.473  1.00  0.00     0.277 HD
ATOM     17  H41 UNL     1       9.308  46.629  25.889  1.00  0.00     0.277 HD
HETATM   18  C10 UNL     1       7.326  47.446  23.364  1.00  0.00     0.037 C 
ENDBRANCH  10  11
ENDBRANCH   8  10
ENDBRANCH   7   8
ENDBRANCH   4   7
BRANCH   5  19
HETATM   19  N5  UNL     1       8.456  51.856  17.084  1.00  0.00    -0.377 N 
HETATM   20  C12 UNL     1       7.541  51.700  16.016  1.00  0.00     0.123 C 
HETATM   21  C13 UNL     1       8.375  51.754  14.731  1.00  0.00     0.021 C 
HETATM   22  C14 UNL     1       9.737  52.233  15.169  1.00  0.00     0.021 C 
HETATM   23  C15 UNL     1       9.818  51.643  16.548  1.00  0.00     0.123 C 
ENDBRANCH   5  19
BRANCH   1  24
HETATM   24  C2  UNL     1       7.878  54.117  21.496  1.00  0.00     0.144 C 
HETATM   25  C1  UNL     1       8.216  53.357  22.733  1.00  0.00     0.028 C 
ENDBRANCH   1  24
BRANCH   6  26
HETATM   26  C17 UNL     1       8.030  54.633  18.245  1.00  0.00     0.040 A 
HETATM   27  C18 UNL     1       8.830  55.883  18.741  1.00  0.00     0.011 A 
HETATM   28  C19 UNL     1       9.240  55.154  17.515  1.00  0.00     0.011 A 
ENDBRANCH   6  26
TORSDOF 7
ENDMDL
MODEL 5
REMARK VINA RESULT: -6.743375882      0.945      1.070
REMARK  7 active torsions:
REMARK  status: ('A' for Active; 'I' for Inactive)
REMARK    1  A    between atoms: C2_2  and  N1_3 
REMARK    2  A    between atoms: C3_6  and  C4_7 
REMARK    3  A    between atoms: C4_7  and  N3_8 
REMARK    4  A    between atoms: N3_8  and  C5_10 
REMARK    5  A    between atoms: C5_10  and  C6_11 
REMARK    6  A    between atoms: C11_19  and  N5_20 
REMARK    7  A    between atoms: C16_25  and  C17_26 
ROOT
HETATM    1  N1  UNL     1       6.701  54.146  21.248  1.00  0.00    -0.293 N 
HETATM    2  N2  UNL     1       7.780  53.399  21.164  1.00  0.00    -0.295 N 
ATOM      3  H2  UNL     1       8.624  53.573  21.711  1.00  0.00     0.187 HD
HETATM    4  C3  UNL     1       7.671  52.418  20.316  1.00  0.00     0.092 A 
HETATM    5  C11 UNL     1       6.405  52.540  19.799  1.00  0.00     0.085 A 
HETATM    6  C16 UNL     1       5.821  53.676  20.443  1.00  0.00     0.061 A 
ENDROOT
BRANCH   4   7
HETATM    7  C4  UNL     1       8.570  51.229  20.163  1.00  0.00     0.120 C 
BRANCH   7   8
HETATM    8  N3  UNL     1       8.308  50.113  20.965  1.00  0.00    -0.376 N 
ATOM      9  H3  UNL     1       7.860  49.281  20.582  1.00  0.00     0.164 HD
BRANCH   8  10
HETATM   10  C5  UNL     1       8.686  50.180  22.317  1.00  0.00     0.065 C 
BRANCH  10  11
HETATM   11  C6  UNL     1       8.936  48.905  23.066  1.00  0.00     0.027 C 
HETATM   12  C7  UNL     1       8.976  48.947  24.552  1.00  0.00     0.037 C 
HETATM   13  C8  UNL     1       8.474  47.605  25.176  1.00  0.00     0.233 C 
HETATM   14  N4  UNL     1       8.981  46.597  24.254  1.00  0.00    -0.075 N 
HETATM   15  C9  UNL     1       8.106  46.563  23.107  1.00  0.00     0.233 C 
ATOM     16  H42 UNL     1       9.958  46.749  24.002  1.00  0.00     0.277 HD
ATOM     17  H41 UNL     1       9.094  45.683  24.691  1.00  0.00     0.277 HD
HETATM   18  C10 UNL     1       7.753  47.979  22.716  1.00  0.00     0.037 C 
ENDBRANCH  10  11
ENDBRANCH   8  10
ENDBRANCH   7   8
ENDBRANCH   4   7
BRANCH   5  19
HETATM   19  N5  UNL     1       5.883  51.697  18.798  1.00  0.00    -0.377 N 
HETATM   20  C12 UNL     1       5.959  51.693  17.385  1.00  0.00     0.123 C 
HETATM   21  C13 UNL     1       5.516  50.295  16.940  1.00  0.00     0.021 C 
HETATM   22  C14 UNL     1       5.480  49.476  18.206  1.00  0.00     0.021 C 
HETATM   23  C15 UNL     1       5.089  50.520  19.212  1.00  0.00     0.123 C 
ENDBRANCH   5  19
BRANCH   1  24
HETATM   24  C2  UNL     1       6.692  55.291  22.167  1.00  0.00     0.144 C 
HETATM   25  C1  UNL     1       7.362  54.874  23.431  1.00  0.00     0.028 C 
ENDBRANCH   1  24
BRANCH   6  26
HETATM   26  C17 UNL     1       4.521  54.151  19.966  1.00  0.00     0.040 A 
HETATM   27  C18 UNL     1       3.242  53.411  20.483  1.00  0.00     0.011 A 
HETATM   28  C19 UNL     1       3.513  54.820  20.864  1.00  0.00     0.011 A 
ENDBRANCH   6  26
TORSDOF 7
ENDMDL
