MODEL 1
REMARK VINA RESULT: -4.904167009      0.000      0.000
REMARK  2 active torsions:
REMARK  status: ('A' for Active; 'I' for Inactive)
REMARK    1  A    between atoms: S1_2  and  N1_5 
REMARK    2  A    between atoms: N1_5  and  C1_7 
ROOT
HETATM    1  N1  UNL     1     -17.165 -14.121  14.000  1.00  0.00    -0.296 N 
ATOM      2  H1  UNL     1     -16.329 -14.363  13.468  1.00  0.00     0.175 HD
ENDROOT
BRANCH   1   3
HETATM    3  S1  UNL     1     -18.113 -12.755  13.641  1.00  0.00     0.204 S 
HETATM    4  O1  UNL     1     -17.323 -11.805  12.763  1.00  0.00    -0.578 OA
HETATM    5  O2  UNL     1     -19.362 -13.217  12.946  1.00  0.00    -0.578 OA
HETATM    6  O3  UNL     1     -18.570 -11.922  15.043  1.00  0.00    -0.578 OA
ENDBRANCH   1   3
BRANCH   1   7
HETATM    7  C1  UNL     1     -17.626 -14.900  15.097  1.00  0.00     0.095 C 
HETATM    8  C2  UNL     1     -17.140 -16.329  15.113  1.00  0.00     0.026 C 
HETATM    9  C3  UNL     1     -16.124 -15.910  16.171  1.00  0.00     0.004 C 
HETATM   10  C4  UNL     1     -16.957 -14.682  16.426  1.00  0.00     0.026 C 
ENDBRANCH   1   7
TORSDOF 2
ENDMDL
MODEL 2
REMARK VINA RESULT: -4.817034861      0.159      1.516
REMARK  2 active torsions:
REMARK  status: ('A' for Active; 'I' for Inactive)
REMARK    1  A    between atoms: S1_2  and  N1_5 
REMARK    2  A    between atoms: N1_5  and  C1_7 
ROOT
HETATM    1  N1  UNL     1     -17.157 -14.163  13.978  1.00  0.00    -0.296 N 
ATOM      2  H1  UNL     1     -16.345 -14.456  13.435  1.00  0.00     0.175 HD
ENDROOT
BRANCH   1   3
HETATM    3  S1  UNL     1     -18.057 -12.772  13.597  1.00  0.00     0.204 S 
HETATM    4  O1  UNL     1     -19.372 -13.176  12.958  1.00  0.00    -0.578 OA
HETATM    5  O2  UNL     1     -18.291 -12.000  14.864  1.00  0.00    -0.578 OA
HETATM    6  O3  UNL     1     -17.230 -11.766  12.514  1.00  0.00    -0.578 OA
ENDBRANCH   1   3
BRANCH   1   7
HETATM    7  C1  UNL     1     -17.622 -14.888  15.110  1.00  0.00     0.095 C 
HETATM    8  C2  UNL     1     -17.246 -16.350  15.130  1.00  0.00     0.026 C 
HETATM    9  C3  UNL     1     -16.151 -15.993  16.132  1.00  0.00     0.004 C 
HETATM   10  C4  UNL     1     -16.876 -14.702  16.401  1.00  0.00     0.026 C 
ENDBRANCH   1   7
TORSDOF 2
ENDMDL
MODEL 3
REMARK VINA RESULT: -4.681074033      1.204      1.582
REMARK  2 active torsions:
REMARK  status: ('A' for Active; 'I' for Inactive)
REMARK    1  A    between atoms: S1_2  and  N1_5 
REMARK    2  A    between atoms: N1_5  and  C1_7 
ROOT
HETATM    1  N1  UNL     1     -17.014 -14.664  14.046  1.00  0.00    -0.296 N 
ATOM      2  H1  UNL     1     -16.543 -14.750  13.146  1.00  0.00     0.175 HD
ENDROOT
BRANCH   1   3
HETATM    3  S1  UNL     1     -18.245 -13.526  14.330  1.00  0.00     0.204 S 
HETATM    4  O1  UNL     1     -17.630 -12.160  14.566  1.00  0.00    -0.578 OA
HETATM    5  O2  UNL     1     -19.154 -13.506  13.135  1.00  0.00    -0.578 OA
HETATM    6  O3  UNL     1     -19.172 -13.930  15.689  1.00  0.00    -0.578 OA
ENDBRANCH   1   3
BRANCH   1   7
HETATM    7  C1  UNL     1     -16.689 -15.488  15.160  1.00  0.00     0.095 C 
HETATM    8  C2  UNL     1     -17.392 -16.823  15.191  1.00  0.00     0.026 C 
HETATM    9  C3  UNL     1     -16.098 -17.450  14.680  1.00  0.00     0.004 C 
HETATM   10  C4  UNL     1     -15.371 -16.208  15.123  1.00  0.00     0.026 C 
ENDBRANCH   1   7
TORSDOF 2
ENDMDL
MODEL 4
REMARK VINA RESULT: -4.635253845      1.001      1.912
REMARK  2 active torsions:
REMARK  status: ('A' for Active; 'I' for Inactive)
REMARK    1  A    between atoms: S1_2  and  N1_5 
REMARK    2  A    between atoms: N1_5  and  C1_7 
ROOT
HETATM    1  N1  UNL     1     -17.223 -14.569  14.208  1.00  0.00    -0.296 N 
ATOM      2  H1  UNL     1     -16.550 -14.592  13.443  1.00  0.00     0.175 HD
ENDROOT
BRANCH   1   3
HETATM    3  S1  UNL     1     -18.426 -13.373  14.332  1.00  0.00     0.204 S 
HETATM    4  O1  UNL     1     -19.435 -13.775  15.390  1.00  0.00    -0.578 OA
HETATM    5  O2  UNL     1     -17.764 -12.072  14.688  1.00  0.00    -0.578 OA
HETATM    6  O3  UNL     1     -19.251 -13.158  12.869  1.00  0.00    -0.578 OA
ENDBRANCH   1   3
BRANCH   1   7
HETATM    7  C1  UNL     1     -17.227 -15.535  15.253  1.00  0.00     0.095 C 
HETATM    8  C2  UNL     1     -16.412 -16.774  14.978  1.00  0.00     0.026 C 
HETATM    9  C3  UNL     1     -15.327 -16.188  15.876  1.00  0.00     0.004 C 
HETATM   10  C4  UNL     1     -16.362 -15.258  16.450  1.00  0.00     0.026 C 
ENDBRANCH   1   7
TORSDOF 2
ENDMDL
MODEL 5
REMARK VINA RESULT: -4.602823102      1.058      1.358
REMARK  2 active torsions:
REMARK  status: ('A' for Active; 'I' for Inactive)
REMARK    1  A    between atoms: S1_2  and  N1_5 
REMARK    2  A    between atoms: N1_5  and  C1_7 
ROOT
HETATM    1  N1  UNL     1     -17.459 -13.800  14.600  1.00  0.00    -0.296 N 
ATOM      2  H1  UNL     1     -16.876 -14.491  14.130  1.00  0.00     0.175 HD
ENDROOT
BRANCH   1   3
HETATM    3  S1  UNL     1     -18.292 -12.580  13.757  1.00  0.00     0.204 S 
HETATM    4  O1  UNL     1     -17.318 -11.809  12.886  1.00  0.00    -0.578 OA
HETATM    5  O2  UNL     1     -19.361 -13.226  12.925  1.00  0.00    -0.578 OA
HETATM    6  O3  UNL     1     -19.037 -11.484  14.813  1.00  0.00    -0.578 OA
ENDBRANCH   1   3
BRANCH   1   7
HETATM    7  C1  UNL     1     -17.639 -13.784  16.012  1.00  0.00     0.095 C 
HETATM    8  C2  UNL     1     -18.921 -14.414  16.498  1.00  0.00     0.026 C 
HETATM    9  C3  UNL     1     -18.104 -15.646  16.876  1.00  0.00     0.004 C 
HETATM   10  C4  UNL     1     -16.866 -14.791  16.816  1.00  0.00     0.026 C 
ENDBRANCH   1   7
TORSDOF 2
ENDMDL
