MODEL 1
REMARK VINA RESULT: -5.401466999      0.000      0.000
REMARK  3 active torsions:
REMARK  status: ('A' for Active; 'I' for Inactive)
REMARK    1  A    between atoms: C2_3  and  N2_4 
REMARK    2  A    between atoms: C2_3  and  C4_8 
REMARK    3  A    between atoms: N2_4  and  C3_6 
ROOT
HETATM    1  N1  UNL     1     -16.917 -14.794  17.633  1.00  0.00    -0.195 NA
HETATM    2  C1  UNL     1     -17.154 -15.067  16.526  1.00  0.00     0.085 C 
HETATM    3  C2  UNL     1     -17.454 -15.394  15.124  1.00  0.00     0.195 C 
ENDROOT
BRANCH   3   4
HETATM    4  N2  UNL     1     -16.246 -15.489  14.371  1.00  0.00    -0.351 N 
ATOM      5  H2  UNL     1     -16.149 -14.935  13.521  1.00  0.00     0.163 HD
BRANCH   4   6
HETATM    6  C3  UNL     1     -15.173 -16.333  14.772  1.00  0.00     0.349 C 
HETATM    7  O1  UNL     1     -15.093 -17.506  14.317  1.00  0.00    -0.284 OA
ENDBRANCH   4   6
ENDBRANCH   3   4
BRANCH   3   8
HETATM    8  C4  UNL     1     -18.419 -14.362  14.623  1.00  0.00     0.022 C 
HETATM    9  C5  UNL     1     -19.131 -13.622  15.698  1.00  0.00     0.007 C 
HETATM   10  C6  UNL     1     -19.201 -12.162  15.279  1.00  0.00     0.000 C 
HETATM   11  C7  UNL     1     -18.898 -12.234  13.796  1.00  0.00     0.000 C 
HETATM   12  C8  UNL     1     -17.772 -13.280  13.806  1.00  0.00     0.007 C 
ENDBRANCH   3   8
TORSDOF 3
ENDMDL
MODEL 2
REMARK VINA RESULT: -5.308054978      2.809      3.934
REMARK  3 active torsions:
REMARK  status: ('A' for Active; 'I' for Inactive)
REMARK    1  A    between atoms: C2_3  and  N2_4 
REMARK    2  A    between atoms: C2_3  and  C4_8 
REMARK    3  A    between atoms: N2_4  and  C3_6 
ROOT
HETATM    1  N1  UNL     1     -18.044 -11.279  16.399  1.00  0.00    -0.195 NA
HETATM    2  C1  UNL     1     -17.856 -12.413  16.213  1.00  0.00     0.085 C 
HETATM    3  C2  UNL     1     -17.637 -13.848  15.977  1.00  0.00     0.195 C 
ENDROOT
BRANCH   3   4
HETATM    4  N2  UNL     1     -17.401 -14.088  14.591  1.00  0.00    -0.351 N 
ATOM      5  H2  UNL     1     -16.815 -14.877  14.319  1.00  0.00     0.163 HD
BRANCH   4   6
HETATM    6  C3  UNL     1     -17.958 -13.260  13.577  1.00  0.00     0.349 C 
HETATM    7  O1  UNL     1     -19.131 -13.474  13.165  1.00  0.00    -0.284 OA
ENDBRANCH   4   6
ENDBRANCH   3   4
BRANCH   3   8
HETATM    8  C4  UNL     1     -18.819 -14.577  16.541  1.00  0.00     0.022 C 
HETATM    9  C5  UNL     1     -18.639 -16.050  16.628  1.00  0.00     0.007 C 
HETATM   10  C6  UNL     1     -19.236 -16.507  17.951  1.00  0.00     0.000 C 
HETATM   11  C7  UNL     1     -20.096 -15.324  18.345  1.00  0.00     0.000 C 
HETATM   12  C8  UNL     1     -19.162 -14.172  17.947  1.00  0.00     0.007 C 
ENDBRANCH   3   8
TORSDOF 3
ENDMDL
MODEL 3
REMARK VINA RESULT: -5.301284636      0.512      1.296
REMARK  3 active torsions:
REMARK  status: ('A' for Active; 'I' for Inactive)
REMARK    1  A    between atoms: C2_3  and  N2_4 
REMARK    2  A    between atoms: C2_3  and  C4_8 
REMARK    3  A    between atoms: N2_4  and  C3_6 
ROOT
HETATM    1  N1  UNL     1     -16.538 -15.578  17.864  1.00  0.00    -0.195 NA
HETATM    2  C1  UNL     1     -16.813 -15.430  16.742  1.00  0.00     0.085 C 
HETATM    3  C2  UNL     1     -17.155 -15.226  15.327  1.00  0.00     0.195 C 
ENDROOT
BRANCH   3   4
HETATM    4  N2  UNL     1     -16.029 -15.520  14.501  1.00  0.00    -0.351 N 
ATOM      5  H2  UNL     1     -15.878 -14.968  13.657  1.00  0.00     0.163 HD
BRANCH   4   6
HETATM    6  C3  UNL     1     -15.112 -16.560  14.820  1.00  0.00     0.349 C 
HETATM    7  O1  UNL     1     -15.221 -17.686  14.262  1.00  0.00    -0.284 OA
ENDBRANCH   4   6
ENDBRANCH   3   4
BRANCH   3   8
HETATM    8  C4  UNL     1     -17.675 -13.827  15.192  1.00  0.00     0.022 C 
HETATM    9  C5  UNL     1     -17.792 -13.353  13.788  1.00  0.00     0.007 C 
HETATM   10  C6  UNL     1     -19.092 -12.572  13.674  1.00  0.00     0.000 C 
HETATM   11  C7  UNL     1     -19.430 -12.290  15.124  1.00  0.00     0.000 C 
HETATM   12  C8  UNL     1     -19.058 -13.642  15.752  1.00  0.00     0.007 C 
ENDBRANCH   3   8
TORSDOF 3
ENDMDL
MODEL 4
REMARK VINA RESULT: -5.276394718      1.670      3.064
REMARK  3 active torsions:
REMARK  status: ('A' for Active; 'I' for Inactive)
REMARK    1  A    between atoms: C2_3  and  N2_4 
REMARK    2  A    between atoms: C2_3  and  C4_8 
REMARK    3  A    between atoms: N2_4  and  C3_6 
ROOT
HETATM    1  N1  UNL     1     -18.733 -13.503  13.330  1.00  0.00    -0.195 NA
HETATM    2  C1  UNL     1     -18.121 -14.058  14.152  1.00  0.00     0.085 C 
HETATM    3  C2  UNL     1     -17.363 -14.767  15.193  1.00  0.00     0.195 C 
ENDROOT
BRANCH   3   4
HETATM    4  N2  UNL     1     -16.732 -15.922  14.642  1.00  0.00    -0.351 N 
ATOM      5  H2  UNL     1     -17.287 -16.571  14.086  1.00  0.00     0.163 HD
BRANCH   4   6
HETATM    6  C3  UNL     1     -15.350 -16.194  14.845  1.00  0.00     0.349 C 
HETATM    7  O1  UNL     1     -14.866 -17.298  14.473  1.00  0.00    -0.284 OA
ENDBRANCH   4   6
ENDBRANCH   3   4
BRANCH   3   8
HETATM    8  C4  UNL     1     -18.312 -15.055  16.317  1.00  0.00     0.022 C 
HETATM    9  C5  UNL     1     -17.697 -15.771  17.464  1.00  0.00     0.007 C 
HETATM   10  C6  UNL     1     -18.254 -15.157  18.740  1.00  0.00     0.000 C 
HETATM   11  C7  UNL     1     -19.473 -14.411  18.235  1.00  0.00     0.000 C 
HETATM   12  C8  UNL     1     -18.904 -13.820  16.936  1.00  0.00     0.007 C 
ENDBRANCH   3   8
TORSDOF 3
ENDMDL
MODEL 5
REMARK VINA RESULT: -5.267642949      1.019      1.019
REMARK  3 active torsions:
REMARK  status: ('A' for Active; 'I' for Inactive)
REMARK    1  A    between atoms: C2_3  and  N2_4 
REMARK    2  A    between atoms: C2_3  and  C4_8 
REMARK    3  A    between atoms: N2_4  and  C3_6 
ROOT
HETATM    1  N1  UNL     1     -17.644 -16.797  17.450  1.00  0.00    -0.195 NA
HETATM    2  C1  UNL     1     -17.604 -16.282  16.406  1.00  0.00     0.085 C 
HETATM    3  C2  UNL     1     -17.554 -15.617  15.095  1.00  0.00     0.195 C 
ENDROOT
BRANCH   3   4
HETATM    4  N2  UNL     1     -16.198 -15.421  14.695  1.00  0.00    -0.351 N 
ATOM      5  H2  UNL     1     -15.963 -14.607  14.128  1.00  0.00     0.163 HD
BRANCH   4   6
HETATM    6  C3  UNL     1     -15.166 -16.328  15.062  1.00  0.00     0.349 C 
HETATM    7  O1  UNL     1     -14.934 -17.340  14.345  1.00  0.00    -0.284 OA
ENDBRANCH   4   6
ENDBRANCH   3   4
BRANCH   3   8
HETATM    8  C4  UNL     1     -18.358 -14.357  15.205  1.00  0.00     0.022 C 
HETATM    9  C5  UNL     1     -17.913 -13.444  16.290  1.00  0.00     0.007 C 
HETATM   10  C6  UNL     1     -17.980 -12.024  15.750  1.00  0.00     0.000 C 
HETATM   11  C7  UNL     1     -18.861 -12.182  14.528  1.00  0.00     0.000 C 
HETATM   12  C8  UNL     1     -18.308 -13.502  13.970  1.00  0.00     0.007 C 
ENDBRANCH   3   8
TORSDOF 3
ENDMDL
