MODEL 1
REMARK VINA RESULT: -5.232571137      0.000      0.000
REMARK  3 active torsions:
REMARK  status: ('A' for Active; 'I' for Inactive)
REMARK    1  A    between atoms: N1_2  and  C2_4 
REMARK    2  A    between atoms: C2_4  and  C3_5 
REMARK    3  A    between atoms: C4_9  and  C5_10 
ROOT
HETATM    1  C3  UNL     1     -16.586 -16.074  15.570  1.00  0.00     0.236 A 
HETATM    2  N2  UNL     1     -15.832 -15.518  14.458  1.00  0.00    -0.059 N 
ATOM      3  H21 UNL     1     -15.278 -15.879  13.682  1.00  0.00     0.278 HD
ATOM      4  H22 UNL     1     -14.963 -14.998  14.337  1.00  0.00     0.278 HD
HETATM    5  C4  UNL     1     -17.287 -15.187  14.713  1.00  0.00     0.248 A 
ENDROOT
BRANCH   5   6
HETATM    6  C5  UNL     1     -17.588 -13.750  14.934  1.00  0.00     0.218 C 
HETATM    7  C6  UNL     1     -18.916 -13.474  15.570  1.00  0.00     0.037 C 
HETATM    8  C7  UNL     1     -19.399 -12.212  14.883  1.00  0.00     0.029 C 
HETATM    9  C8  UNL     1     -18.822 -12.391  13.495  1.00  0.00     0.233 C 
HETATM   10  N3  UNL     1     -17.539 -12.983  13.693  1.00  0.00    -0.069 N 
ATOM     11  H32 UNL     1     -16.781 -12.300  13.679  1.00  0.00     0.277 HD
ATOM     12  H31 UNL     1     -17.233 -13.540  12.895  1.00  0.00     0.277 HD
ENDBRANCH   5   6
BRANCH   1  13
HETATM   13  C2  UNL     1     -16.022 -15.738  16.920  1.00  0.00     0.153 C 
BRANCH  13  14
HETATM   14  N1  UNL     1     -14.771 -15.053  16.758  1.00  0.00    -0.406 N 
HETATM   15  C1  UNL     1     -14.060 -14.637  17.715  1.00  0.00     0.112 C 
ATOM     16  H1  UNL     1     -14.433 -14.894  15.808  1.00  0.00     0.158 HD
ENDBRANCH  13  14
ENDBRANCH   1  13
TORSDOF 3
ENDMDL
MODEL 2
REMARK VINA RESULT: -4.939103215      0.918      1.173
REMARK  3 active torsions:
REMARK  status: ('A' for Active; 'I' for Inactive)
REMARK    1  A    between atoms: N1_2  and  C2_4 
REMARK    2  A    between atoms: C2_4  and  C3_5 
REMARK    3  A    between atoms: C4_9  and  C5_10 
ROOT
HETATM    1  C3  UNL     1     -16.440 -16.114  15.562  1.00  0.00     0.236 A 
HETATM    2  N2  UNL     1     -15.807 -15.550  14.381  1.00  0.00    -0.059 N 
ATOM      3  H21 UNL     1     -15.313 -15.905  13.562  1.00  0.00     0.278 HD
ATOM      4  H22 UNL     1     -14.969 -15.007  14.177  1.00  0.00     0.278 HD
HETATM    5  C4  UNL     1     -17.242 -15.260  14.763  1.00  0.00     0.248 A 
ENDROOT
BRANCH   5   6
HETATM    6  C5  UNL     1     -17.567 -13.829  14.995  1.00  0.00     0.218 C 
HETATM    7  C6  UNL     1     -18.902 -13.579  15.627  1.00  0.00     0.037 C 
HETATM    8  C7  UNL     1     -19.401 -12.318  14.948  1.00  0.00     0.029 C 
HETATM    9  C8  UNL     1     -18.814 -12.476  13.562  1.00  0.00     0.233 C 
HETATM   10  N3  UNL     1     -17.523 -13.051  13.761  1.00  0.00    -0.069 N 
ATOM     11  H32 UNL     1     -16.776 -12.356  13.756  1.00  0.00     0.277 HD
ATOM     12  H31 UNL     1     -17.205 -13.596  12.960  1.00  0.00     0.277 HD
ENDBRANCH   5   6
BRANCH   1  13
HETATM   13  C2  UNL     1     -15.769 -15.743  16.853  1.00  0.00     0.153 C 
BRANCH  13  14
HETATM   14  N1  UNL     1     -14.737 -16.697  17.145  1.00  0.00    -0.406 N 
HETATM   15  C1  UNL     1     -14.841 -17.940  16.943  1.00  0.00     0.112 C 
ATOM     16  H1  UNL     1     -13.863 -16.350  17.541  1.00  0.00     0.158 HD
ENDBRANCH  13  14
ENDBRANCH   1  13
TORSDOF 3
ENDMDL
MODEL 3
REMARK VINA RESULT: -4.924654131      1.022      1.313
REMARK  3 active torsions:
REMARK  status: ('A' for Active; 'I' for Inactive)
REMARK    1  A    between atoms: N1_2  and  C2_4 
REMARK    2  A    between atoms: C2_4  and  C3_5 
REMARK    3  A    between atoms: C4_9  and  C5_10 
ROOT
HETATM    1  C3  UNL     1     -16.562 -15.836  15.961  1.00  0.00     0.236 A 
HETATM    2  N2  UNL     1     -16.024 -15.625  14.627  1.00  0.00    -0.059 N 
ATOM      3  H21 UNL     1     -15.669 -16.207  13.868  1.00  0.00     0.278 HD
ATOM      4  H22 UNL     1     -15.167 -15.245  14.224  1.00  0.00     0.278 HD
HETATM    5  C4  UNL     1     -17.368 -15.085  15.067  1.00  0.00     0.248 A 
ENDROOT
BRANCH   5   6
HETATM    6  C5  UNL     1     -17.521 -13.609  14.993  1.00  0.00     0.218 C 
HETATM    7  C6  UNL     1     -18.735 -13.066  15.683  1.00  0.00     0.037 C 
HETATM    8  C7  UNL     1     -19.192 -11.932  14.784  1.00  0.00     0.029 C 
HETATM    9  C8  UNL     1     -18.803 -12.460  13.420  1.00  0.00     0.233 C 
HETATM   10  N3  UNL     1     -17.558 -13.131  13.615  1.00  0.00    -0.069 N 
ATOM     11  H32 UNL     1     -16.754 -12.551  13.375  1.00  0.00     0.277 HD
ATOM     12  H31 UNL     1     -17.398 -13.872  12.934  1.00  0.00     0.277 HD
ENDBRANCH   5   6
BRANCH   1  13
HETATM   13  C2  UNL     1     -15.707 -15.278  17.061  1.00  0.00     0.153 C 
BRANCH  13  14
HETATM   14  N1  UNL     1     -16.546 -14.823  18.134  1.00  0.00    -0.406 N 
HETATM   15  C1  UNL     1     -17.328 -15.568  18.788  1.00  0.00     0.112 C 
ATOM     16  H1  UNL     1     -16.509 -13.834  18.384  1.00  0.00     0.158 HD
ENDBRANCH  13  14
ENDBRANCH   1  13
TORSDOF 3
ENDMDL
MODEL 4
REMARK VINA RESULT: -4.897974759      1.669      4.707
REMARK  3 active torsions:
REMARK  status: ('A' for Active; 'I' for Inactive)
REMARK    1  A    between atoms: N1_2  and  C2_4 
REMARK    2  A    between atoms: C2_4  and  C3_5 
REMARK    3  A    between atoms: C4_9  and  C5_10 
ROOT
HETATM    1  C3  UNL     1     -18.991 -11.897  16.129  1.00  0.00     0.236 A 
HETATM    2  N2  UNL     1     -17.646 -11.372  16.298  1.00  0.00    -0.059 N 
ATOM      3  H21 UNL     1     -17.222 -10.525  16.676  1.00  0.00     0.278 HD
ATOM      4  H22 UNL     1     -16.908 -11.013  15.693  1.00  0.00     0.278 HD
HETATM    5  C4  UNL     1     -18.075 -12.722  16.830  1.00  0.00     0.248 A 
ENDROOT
BRANCH   5   6
HETATM    6  C5  UNL     1     -17.311 -13.887  16.313  1.00  0.00     0.218 C 
HETATM    7  C6  UNL     1     -18.063 -15.183  16.310  1.00  0.00     0.037 C 
HETATM    8  C7  UNL     1     -17.016 -16.216  16.683  1.00  0.00     0.029 C 
HETATM    9  C8  UNL     1     -16.133 -15.419  17.618  1.00  0.00     0.233 C 
HETATM   10  N3  UNL     1     -16.076 -14.107  17.059  1.00  0.00    -0.069 N 
ATOM     11  H32 UNL     1     -15.240 -13.953  16.495  1.00  0.00     0.277 HD
ATOM     12  H31 UNL     1     -15.902 -13.385  17.758  1.00  0.00     0.277 HD
ENDBRANCH   5   6
BRANCH   1  13
HETATM   13  C2  UNL     1     -19.408 -12.060  14.696  1.00  0.00     0.153 C 
BRANCH  13  14
HETATM   14  N1  UNL     1     -18.375 -11.553  13.837  1.00  0.00    -0.406 N 
HETATM   15  C1  UNL     1     -17.777 -12.242  12.965  1.00  0.00     0.112 C 
ATOM     16  H1  UNL     1     -18.108 -10.574  13.939  1.00  0.00     0.158 HD
ENDBRANCH  13  14
ENDBRANCH   1  13
TORSDOF 3
ENDMDL
MODEL 5
REMARK VINA RESULT: -4.833093549      2.611      4.639
REMARK  3 active torsions:
REMARK  status: ('A' for Active; 'I' for Inactive)
REMARK    1  A    between atoms: N1_2  and  C2_4 
REMARK    2  A    between atoms: C2_4  and  C3_5 
REMARK    3  A    between atoms: C4_9  and  C5_10 
ROOT
HETATM    1  C3  UNL     1     -18.184 -12.961  15.539  1.00  0.00     0.236 A 
HETATM    2  N2  UNL     1     -16.983 -12.781  16.338  1.00  0.00    -0.059 N 
ATOM      3  H21 UNL     1     -16.310 -12.034  16.511  1.00  0.00     0.278 HD
ATOM      4  H22 UNL     1     -16.022 -13.122  16.320  1.00  0.00     0.278 HD
HETATM    5  C4  UNL     1     -18.302 -13.234  16.926  1.00  0.00     0.248 A 
ENDROOT
BRANCH   5   6
HETATM    6  C5  UNL     1     -18.281 -14.557  17.602  1.00  0.00     0.218 C 
HETATM    7  C6  UNL     1     -19.607 -15.252  17.668  1.00  0.00     0.037 C 
HETATM    8  C7  UNL     1     -19.603 -15.925  19.027  1.00  0.00     0.029 C 
HETATM    9  C8  UNL     1     -18.799 -14.937  19.844  1.00  0.00     0.233 C 
HETATM   10  N3  UNL     1     -17.776 -14.465  18.968  1.00  0.00    -0.069 N 
ATOM     11  H32 UNL     1     -16.889 -14.954  19.096  1.00  0.00     0.277 HD
ATOM     12  H31 UNL     1     -17.449 -13.529  19.208  1.00  0.00     0.277 HD
ENDBRANCH   5   6
BRANCH   1  13
HETATM   13  C2  UNL     1     -18.045 -13.980  14.446  1.00  0.00     0.153 C 
BRANCH  13  14
HETATM   14  N1  UNL     1     -17.485 -13.357  13.280  1.00  0.00    -0.406 N 
HETATM   15  C1  UNL     1     -17.735 -12.172  12.920  1.00  0.00     0.112 C 
ATOM     16  H1  UNL     1     -16.845 -13.905  12.705  1.00  0.00     0.158 HD
ENDBRANCH  13  14
ENDBRANCH   1  13
TORSDOF 3
ENDMDL
