MODEL 1
REMARK VINA RESULT: -5.374880884      0.000      0.000
REMARK  5 active torsions:
REMARK  status: ('A' for Active; 'I' for Inactive)
REMARK    1  A    between atoms: O1_1  and  C1_3 
REMARK    2  A    between atoms: C1_3  and  C2_4 
REMARK    3  A    between atoms: C2_4  and  O2_5 
REMARK    4  A    between atoms: C2_4  and  C3_7 
REMARK    5  A    between atoms: C3_7  and  C4_8 
ROOT
HETATM    1  C2  UNL     1     -17.892 -12.472  14.515  1.00  0.00     0.142 C 
ENDROOT
BRANCH   1   2
HETATM    2  C1  UNL     1     -18.295 -12.086  13.125  1.00  0.00     0.195 C 
BRANCH   2   3
HETATM    3  O1  UNL     1     -17.136 -11.555  12.510  1.00  0.00    -0.398 OA
ATOM      4  H1  UNL     1     -17.061 -11.987  11.667  1.00  0.00     0.209 HD
ENDBRANCH   2   3
ENDBRANCH   1   2
BRANCH   1   5
HETATM    5  O2  UNL     1     -16.982 -11.512  14.974  1.00  0.00    -0.393 OA
ATOM      6  H2  UNL     1     -16.541 -11.874  15.733  1.00  0.00     0.210 HD
ENDBRANCH   1   5
BRANCH   1   7
HETATM    7  C3  UNL     1     -19.049 -12.477  15.481  1.00  0.00     0.038 C 
BRANCH   7   8
HETATM    8  C4  UNL     1     -19.239 -13.812  16.154  1.00  0.00    -0.012 C 
HETATM    9  C5  UNL     1     -18.857 -13.620  17.620  1.00  0.00     0.005 C 
HETATM   10  C6  UNL     1     -18.734 -15.040  18.083  1.00  0.00     0.000 C 
HETATM   11  C7  UNL     1     -17.981 -15.710  16.929  1.00  0.00     0.000 C 
HETATM   12  C8  UNL     1     -18.264 -14.851  15.713  1.00  0.00     0.005 C 
ENDBRANCH   7   8
ENDBRANCH   1   7
TORSDOF 5
ENDMDL
MODEL 2
REMARK VINA RESULT: -5.326651477      1.093      1.255
REMARK  5 active torsions:
REMARK  status: ('A' for Active; 'I' for Inactive)
REMARK    1  A    between atoms: O1_1  and  C1_3 
REMARK    2  A    between atoms: C1_3  and  C2_4 
REMARK    3  A    between atoms: C2_4  and  O2_5 
REMARK    4  A    between atoms: C2_4  and  C3_7 
REMARK    5  A    between atoms: C3_7  and  C4_8 
ROOT
HETATM    1  C2  UNL     1     -18.320 -13.290  13.868  1.00  0.00     0.142 C 
ENDROOT
BRANCH   1   2
HETATM    2  C1  UNL     1     -18.470 -11.919  13.283  1.00  0.00     0.195 C 
BRANCH   2   3
HETATM    3  O1  UNL     1     -17.293 -11.678  12.533  1.00  0.00    -0.398 OA
ATOM      4  H1  UNL     1     -17.104 -10.752  12.626  1.00  0.00     0.209 HD
ENDBRANCH   2   3
ENDBRANCH   1   2
BRANCH   1   5
HETATM    5  O2  UNL     1     -17.245 -13.911  13.222  1.00  0.00    -0.393 OA
ATOM      6  H2  UNL     1     -17.268 -14.833  13.448  1.00  0.00     0.210 HD
ENDBRANCH   1   5
BRANCH   1   7
HETATM    7  C3  UNL     1     -17.995 -13.268  15.339  1.00  0.00     0.038 C 
BRANCH   7   8
HETATM    8  C4  UNL     1     -18.962 -14.080  16.161  1.00  0.00    -0.012 C 
HETATM    9  C5  UNL     1     -18.871 -13.551  17.591  1.00  0.00     0.005 C 
HETATM   10  C6  UNL     1     -19.570 -14.635  18.353  1.00  0.00     0.000 C 
HETATM   11  C7  UNL     1     -19.013 -15.913  17.718  1.00  0.00     0.000 C 
HETATM   12  C8  UNL     1     -18.557 -15.505  16.331  1.00  0.00     0.005 C 
ENDBRANCH   7   8
ENDBRANCH   1   7
TORSDOF 5
ENDMDL
MODEL 3
REMARK VINA RESULT: -5.264985360      1.233      1.723
REMARK  5 active torsions:
REMARK  status: ('A' for Active; 'I' for Inactive)
REMARK    1  A    between atoms: O1_1  and  C1_3 
REMARK    2  A    between atoms: C1_3  and  C2_4 
REMARK    3  A    between atoms: C2_4  and  O2_5 
REMARK    4  A    between atoms: C2_4  and  C3_7 
REMARK    5  A    between atoms: C3_7  and  C4_8 
ROOT
HETATM    1  C2  UNL     1     -18.574 -12.920  13.906  1.00  0.00     0.142 C 
ENDROOT
BRANCH   1   2
HETATM    2  C1  UNL     1     -17.597 -11.894  13.418  1.00  0.00     0.195 C 
BRANCH   2   3
HETATM    3  O1  UNL     1     -17.150 -12.343  12.152  1.00  0.00    -0.398 OA
ATOM      4  H1  UNL     1     -17.447 -11.698  11.521  1.00  0.00     0.209 HD
ENDBRANCH   2   3
ENDBRANCH   1   2
BRANCH   1   5
HETATM    5  O2  UNL     1     -19.406 -13.256  12.832  1.00  0.00    -0.393 OA
ATOM      6  H2  UNL     1     -19.149 -12.722  12.090  1.00  0.00     0.210 HD
ENDBRANCH   1   5
BRANCH   1   7
HETATM    7  C3  UNL     1     -17.909 -14.193  14.361  1.00  0.00     0.038 C 
BRANCH   7   8
HETATM    8  C4  UNL     1     -18.430 -14.678  15.689  1.00  0.00    -0.012 C 
HETATM    9  C5  UNL     1     -18.983 -13.454  16.416  1.00  0.00     0.005 C 
HETATM   10  C6  UNL     1     -19.125 -13.978  17.813  1.00  0.00     0.000 C 
HETATM   11  C7  UNL     1     -17.826 -14.765  18.016  1.00  0.00     0.000 C 
HETATM   12  C8  UNL     1     -17.361 -15.137  16.622  1.00  0.00     0.005 C 
ENDBRANCH   7   8
ENDBRANCH   1   7
TORSDOF 5
ENDMDL
MODEL 4
REMARK VINA RESULT: -5.239144286      1.244      1.952
REMARK  5 active torsions:
REMARK  status: ('A' for Active; 'I' for Inactive)
REMARK    1  A    between atoms: O1_1  and  C1_3 
REMARK    2  A    between atoms: C1_3  and  C2_4 
REMARK    3  A    between atoms: C2_4  and  O2_5 
REMARK    4  A    between atoms: C2_4  and  C3_7 
REMARK    5  A    between atoms: C3_7  and  C4_8 
ROOT
HETATM    1  C2  UNL     1     -18.607 -12.900  13.908  1.00  0.00     0.142 C 
ENDROOT
BRANCH   1   2
HETATM    2  C1  UNL     1     -17.608 -11.893  13.430  1.00  0.00     0.195 C 
BRANCH   2   3
HETATM    3  O1  UNL     1     -17.160 -12.347  12.166  1.00  0.00    -0.398 OA
ATOM      4  H1  UNL     1     -17.586 -13.183  12.018  1.00  0.00     0.209 HD
ENDBRANCH   2   3
ENDBRANCH   1   2
BRANCH   1   5
HETATM    5  O2  UNL     1     -19.420 -13.240  12.821  1.00  0.00    -0.393 OA
ATOM      6  H2  UNL     1     -19.712 -12.432  12.417  1.00  0.00     0.210 HD
ENDBRANCH   1   5
BRANCH   1   7
HETATM    7  C3  UNL     1     -17.968 -14.175  14.394  1.00  0.00     0.038 C 
BRANCH   7   8
HETATM    8  C4  UNL     1     -17.865 -14.240  15.896  1.00  0.00    -0.012 C 
HETATM    9  C5  UNL     1     -18.349 -15.628  16.308  1.00  0.00     0.005 C 
HETATM   10  C6  UNL     1     -18.545 -15.448  17.783  1.00  0.00     0.000 C 
HETATM   11  C7  UNL     1     -19.228 -14.079  17.872  1.00  0.00     0.000 C 
HETATM   12  C8  UNL     1     -18.832 -13.351  16.603  1.00  0.00     0.005 C 
ENDBRANCH   7   8
ENDBRANCH   1   7
TORSDOF 5
ENDMDL
MODEL 5
REMARK VINA RESULT: -5.099916567      0.744      1.442
REMARK  5 active torsions:
REMARK  status: ('A' for Active; 'I' for Inactive)
REMARK    1  A    between atoms: O1_1  and  C1_3 
REMARK    2  A    between atoms: C1_3  and  C2_4 
REMARK    3  A    between atoms: C2_4  and  O2_5 
REMARK    4  A    between atoms: C2_4  and  C3_7 
REMARK    5  A    between atoms: C3_7  and  C4_8 
ROOT
HETATM    1  C2  UNL     1     -17.784 -12.522  14.835  1.00  0.00     0.142 C 
ENDROOT
BRANCH   1   2
HETATM    2  C1  UNL     1     -18.460 -12.249  13.527  1.00  0.00     0.195 C 
BRANCH   2   3
HETATM    3  O1  UNL     1     -17.559 -12.669  12.519  1.00  0.00    -0.398 OA
ATOM      4  H1  UNL     1     -18.071 -12.755  11.724  1.00  0.00     0.209 HD
ENDBRANCH   2   3
ENDBRANCH   1   2
BRANCH   1   5
HETATM    5  O2  UNL     1     -16.996 -11.408  15.145  1.00  0.00    -0.393 OA
ATOM      6  H2  UNL     1     -17.005 -10.830  14.391  1.00  0.00     0.210 HD
ENDBRANCH   1   5
BRANCH   1   7
HETATM    7  C3  UNL     1     -18.756 -12.703  15.972  1.00  0.00     0.038 C 
BRANCH   7   8
HETATM    8  C4  UNL     1     -18.388 -13.853  16.874  1.00  0.00    -0.012 C 
HETATM    9  C5  UNL     1     -18.371 -15.105  16.001  1.00  0.00     0.005 C 
HETATM   10  C6  UNL     1     -18.361 -16.188  17.037  1.00  0.00     0.000 C 
HETATM   11  C7  UNL     1     -19.387 -15.692  18.060  1.00  0.00     0.000 C 
HETATM   12  C8  UNL     1     -19.439 -14.188  17.878  1.00  0.00     0.005 C 
ENDBRANCH   7   8
ENDBRANCH   1   7
TORSDOF 5
ENDMDL
