MODEL 1
REMARK VINA RESULT: -6.136480817      0.000      0.000
REMARK  3 active torsions:
REMARK  status: ('A' for Active; 'I' for Inactive)
REMARK    1  A    between atoms: C2_2  and  C3_3 
REMARK    2  A    between atoms: C3_3  and  O2_5 
REMARK    3  A    between atoms: O2_5  and  C4_6 
ROOT
HETATM    1  C4  UNL     1       8.302  15.117 -16.237  1.00  0.00     0.132 C 
HETATM    2  C5  UNL     1       8.631  16.537 -15.925  1.00  0.00     0.032 C 
HETATM    3  C6  UNL     1       8.299  17.516 -16.984  1.00  0.00     0.002 C 
HETATM    4  C7  UNL     1       8.385  17.027 -18.375  1.00  0.00     0.000 C 
HETATM    5  C8  UNL     1       9.014  15.696 -18.577  1.00  0.00     0.002 C 
HETATM    6  C9  UNL     1       8.689  14.651 -17.585  1.00  0.00     0.032 C 
ENDROOT
BRANCH   1   7
HETATM    7  O2  UNL     1       8.928  14.321 -15.223  1.00  0.00    -0.313 OA
BRANCH   7   8
HETATM    8  C3  UNL     1       8.268  13.389 -14.475  1.00  0.00     0.282 C 
HETATM    9  O1  UNL     1       7.893  13.704 -13.325  1.00  0.00    -0.260 OA
BRANCH   8  10
HETATM   10  C2  UNL     1       8.025  12.067 -15.036  1.00  0.00     0.072 C 
HETATM   11  C1  UNL     1       6.898  11.819 -15.679  1.00  0.00     0.017 C 
ENDBRANCH   8  10
ENDBRANCH   7   8
ENDBRANCH   1   7
TORSDOF 3
ENDMDL
MODEL 2
REMARK VINA RESULT: -5.729294075      1.287      1.594
REMARK  3 active torsions:
REMARK  status: ('A' for Active; 'I' for Inactive)
REMARK    1  A    between atoms: C2_2  and  C3_3 
REMARK    2  A    between atoms: C3_3  and  O2_5 
REMARK    3  A    between atoms: O2_5  and  C4_6 
ROOT
HETATM    1  C4  UNL     1       8.439  14.674 -16.825  1.00  0.00     0.132 C 
HETATM    2  C5  UNL     1       8.746  15.879 -16.005  1.00  0.00     0.032 C 
HETATM    3  C6  UNL     1       8.247  17.163 -16.546  1.00  0.00     0.002 C 
HETATM    4  C7  UNL     1       8.180  17.270 -18.017  1.00  0.00     0.000 C 
HETATM    5  C8  UNL     1       8.833  16.185 -18.795  1.00  0.00     0.002 C 
HETATM    6  C9  UNL     1       8.676  14.810 -18.277  1.00  0.00     0.032 C 
ENDROOT
BRANCH   1   7
HETATM    7  O2  UNL     1       9.217  13.601 -16.280  1.00  0.00    -0.313 OA
BRANCH   7   8
HETATM    8  C3  UNL     1       8.677  12.465 -15.748  1.00  0.00     0.282 C 
HETATM    9  O1  UNL     1       9.110  11.359 -16.138  1.00  0.00    -0.260 OA
BRANCH   8  10
HETATM   10  C2  UNL     1       7.621  12.578 -14.752  1.00  0.00     0.072 C 
HETATM   11  C1  UNL     1       7.851  12.222 -13.501  1.00  0.00     0.017 C 
ENDBRANCH   8  10
ENDBRANCH   7   8
ENDBRANCH   1   7
TORSDOF 3
ENDMDL
MODEL 3
REMARK VINA RESULT: -5.703416552      1.577      4.558
REMARK  3 active torsions:
REMARK  status: ('A' for Active; 'I' for Inactive)
REMARK    1  A    between atoms: C2_2  and  C3_3 
REMARK    2  A    between atoms: C3_3  and  O2_5 
REMARK    3  A    between atoms: O2_5  and  C4_6 
ROOT
HETATM    1  C4  UNL     1       8.279  14.531 -15.550  1.00  0.00     0.132 C 
HETATM    2  C5  UNL     1       7.672  13.391 -16.294  1.00  0.00     0.032 C 
HETATM    3  C6  UNL     1       6.989  12.377 -15.460  1.00  0.00     0.002 C 
HETATM    4  C7  UNL     1       7.541  12.165 -14.107  1.00  0.00     0.000 C 
HETATM    5  C8  UNL     1       8.848  12.807 -13.812  1.00  0.00     0.002 C 
HETATM    6  C9  UNL     1       9.053  14.170 -14.345  1.00  0.00     0.032 C 
ENDROOT
BRANCH   1   7
HETATM    7  O2  UNL     1       9.097  15.241 -16.488  1.00  0.00    -0.313 OA
BRANCH   7   8
HETATM    8  C3  UNL     1       8.646  16.271 -17.262  1.00  0.00     0.282 C 
HETATM    9  O1  UNL     1       8.214  17.298 -16.694  1.00  0.00    -0.260 OA
BRANCH   8  10
HETATM   10  C2  UNL     1       8.682  16.143 -18.712  1.00  0.00     0.072 C 
HETATM   11  C1  UNL     1       9.127  15.029 -19.266  1.00  0.00     0.017 C 
ENDBRANCH   8  10
ENDBRANCH   7   8
ENDBRANCH   1   7
TORSDOF 3
ENDMDL
MODEL 4
REMARK VINA RESULT: -5.651047448      1.539      4.803
REMARK  3 active torsions:
REMARK  status: ('A' for Active; 'I' for Inactive)
REMARK    1  A    between atoms: C2_2  and  C3_3 
REMARK    2  A    between atoms: C3_3  and  O2_5 
REMARK    3  A    between atoms: O2_5  and  C4_6 
ROOT
HETATM    1  C4  UNL     1       8.352  14.346 -15.574  1.00  0.00     0.132 C 
HETATM    2  C5  UNL     1       7.832  13.122 -16.248  1.00  0.00     0.032 C 
HETATM    3  C6  UNL     1       7.128  12.161 -15.369  1.00  0.00     0.002 C 
HETATM    4  C7  UNL     1       7.597  12.090 -13.971  1.00  0.00     0.000 C 
HETATM    5  C8  UNL     1       8.861  12.805 -13.655  1.00  0.00     0.002 C 
HETATM    6  C9  UNL     1       9.057  14.122 -14.295  1.00  0.00     0.032 C 
ENDROOT
BRANCH   1   7
HETATM    7  O2  UNL     1       9.207  14.999 -16.520  1.00  0.00    -0.313 OA
BRANCH   7   8
HETATM    8  C3  UNL     1       8.757  15.852 -17.487  1.00  0.00     0.282 C 
HETATM    9  O1  UNL     1       9.031  15.598 -18.681  1.00  0.00    -0.260 OA
BRANCH   8  10
HETATM   10  C2  UNL     1       7.979  17.020 -17.101  1.00  0.00     0.072 C 
HETATM   11  C1  UNL     1       8.464  17.876 -16.218  1.00  0.00     0.017 C 
ENDBRANCH   8  10
ENDBRANCH   7   8
ENDBRANCH   1   7
TORSDOF 3
ENDMDL
MODEL 5
REMARK VINA RESULT: -5.634766272      0.687      1.653
REMARK  3 active torsions:
REMARK  status: ('A' for Active; 'I' for Inactive)
REMARK    1  A    between atoms: C2_2  and  C3_3 
REMARK    2  A    between atoms: C3_3  and  O2_5 
REMARK    3  A    between atoms: O2_5  and  C4_6 
ROOT
HETATM    1  C4  UNL     1       8.679  15.144 -16.310  1.00  0.00     0.132 C 
HETATM    2  C5  UNL     1       8.362  14.358 -17.537  1.00  0.00     0.032 C 
HETATM    3  C6  UNL     1       8.814  14.958 -18.812  1.00  0.00     0.002 C 
HETATM    4  C7  UNL     1       8.839  16.434 -18.867  1.00  0.00     0.000 C 
HETATM    5  C8  UNL     1       8.194  17.154 -17.739  1.00  0.00     0.002 C 
HETATM    6  C9  UNL     1       8.401  16.593 -16.388  1.00  0.00     0.032 C 
ENDROOT
BRANCH   1   7
HETATM    7  O2  UNL     1       7.944  14.540 -15.239  1.00  0.00    -0.313 OA
BRANCH   7   8
HETATM    8  C3  UNL     1       8.399  13.478 -14.511  1.00  0.00     0.282 C 
HETATM    9  O1  UNL     1       9.157  13.699 -13.541  1.00  0.00    -0.260 OA
BRANCH   8  10
HETATM   10  C2  UNL     1       7.989  12.131 -14.883  1.00  0.00     0.072 C 
HETATM   11  C1  UNL     1       6.825  11.934 -15.477  1.00  0.00     0.017 C 
ENDBRANCH   8  10
ENDBRANCH   7   8
ENDBRANCH   1   7
TORSDOF 3
ENDMDL
