MODEL 1
REMARK VINA RESULT: -6.138538140      0.000      0.000
REMARK  2 active torsions:
REMARK  status: ('A' for Active; 'I' for Inactive)
REMARK    1  A    between atoms: C2_2  and  C4_4 
REMARK    2  A    between atoms: C6_6  and  C8_8 
ROOT
HETATM    1  C4  UNL     1       8.848  14.355 -17.152  1.00  0.00     0.154 C 
HETATM    2  C5  UNL     1       7.554  13.863 -16.537  1.00  0.00     0.082 C 
HETATM    3  C6  UNL     1       8.573  13.251 -15.587  1.00  0.00     0.120 C 
HETATM    4  C7  UNL     1       9.038  11.903 -16.085  1.00  0.00     0.055 C 
HETATM    5  O2  UNL     1       9.398  14.312 -15.874  1.00  0.00    -0.363 OA
ENDROOT
BRANCH   3   6
HETATM    6  C8  UNL     1       8.115  13.145 -14.188  1.00  0.00     0.157 C 
HETATM    7  C9  UNL     1       7.852  11.847 -13.524  1.00  0.00     0.094 C 
HETATM    8  O1  UNL     1       7.943  14.161 -13.541  1.00  0.00    -0.295 OA
ENDBRANCH   3   6
BRANCH   1   9
HETATM    9  C2  UNL     1       8.719  15.686 -17.754  1.00  0.00    -0.064 C 
HETATM   10  C1  UNL     1       8.872  15.834 -19.061  1.00  0.00     0.016 C 
HETATM   11  C3  UNL     1       8.416  16.868 -16.906  1.00  0.00     0.045 C 
ENDBRANCH   1   9
TORSDOF 2
ENDMDL
MODEL 2
REMARK VINA RESULT: -6.134191548      0.070      1.038
REMARK  2 active torsions:
REMARK  status: ('A' for Active; 'I' for Inactive)
REMARK    1  A    between atoms: C2_2  and  C4_4 
REMARK    2  A    between atoms: C6_6  and  C8_8 
ROOT
HETATM    1  C4  UNL     1       8.844  14.349 -17.151  1.00  0.00     0.154 C 
HETATM    2  C5  UNL     1       7.550  13.854 -16.536  1.00  0.00     0.082 C 
HETATM    3  C6  UNL     1       8.571  13.247 -15.584  1.00  0.00     0.120 C 
HETATM    4  C7  UNL     1       9.040  11.900 -16.081  1.00  0.00     0.055 C 
HETATM    5  O2  UNL     1       9.393  14.309 -15.873  1.00  0.00    -0.363 OA
ENDROOT
BRANCH   3   6
HETATM    6  C8  UNL     1       8.112  13.142 -14.186  1.00  0.00     0.157 C 
HETATM    7  C9  UNL     1       7.850  11.844 -13.521  1.00  0.00     0.094 C 
HETATM    8  O1  UNL     1       7.939  14.158 -13.540  1.00  0.00    -0.295 OA
ENDBRANCH   3   6
BRANCH   1   9
HETATM    9  C2  UNL     1       8.711  15.679 -17.755  1.00  0.00    -0.064 C 
HETATM   10  C1  UNL     1       8.445  16.726 -16.989  1.00  0.00     0.016 C 
HETATM   11  C3  UNL     1       8.872  15.857 -19.221  1.00  0.00     0.045 C 
ENDBRANCH   1   9
TORSDOF 2
ENDMDL
MODEL 3
REMARK VINA RESULT: -5.900032287      0.966      1.096
REMARK  2 active torsions:
REMARK  status: ('A' for Active; 'I' for Inactive)
REMARK    1  A    between atoms: C2_2  and  C4_4 
REMARK    2  A    between atoms: C6_6  and  C8_8 
ROOT
HETATM    1  C4  UNL     1       8.846  15.450 -16.751  1.00  0.00     0.154 C 
HETATM    2  C5  UNL     1       7.659  14.511 -16.672  1.00  0.00     0.082 C 
HETATM    3  C6  UNL     1       8.615  13.850 -15.688  1.00  0.00     0.120 C 
HETATM    4  C7  UNL     1       9.538  12.885 -16.395  1.00  0.00     0.055 C 
HETATM    5  O2  UNL     1       9.134  15.097 -15.436  1.00  0.00    -0.363 OA
ENDROOT
BRANCH   3   6
HETATM    6  C8  UNL     1       7.952  13.180 -14.553  1.00  0.00     0.157 C 
HETATM    7  C9  UNL     1       7.534  11.760 -14.590  1.00  0.00     0.094 C 
HETATM    8  O1  UNL     1       7.736  13.811 -13.535  1.00  0.00    -0.295 OA
ENDBRANCH   3   6
BRANCH   1   9
HETATM    9  C2  UNL     1       8.449  16.845 -16.974  1.00  0.00    -0.064 C 
HETATM   10  C1  UNL     1       8.203  17.270 -18.203  1.00  0.00     0.016 C 
HETATM   11  C3  UNL     1       8.324  17.782 -15.828  1.00  0.00     0.045 C 
ENDBRANCH   1   9
TORSDOF 2
ENDMDL
MODEL 4
REMARK VINA RESULT: -5.819570478      1.369      1.680
REMARK  2 active torsions:
REMARK  status: ('A' for Active; 'I' for Inactive)
REMARK    1  A    between atoms: C2_2  and  C4_4 
REMARK    2  A    between atoms: C6_6  and  C8_8 
ROOT
HETATM    1  C4  UNL     1       9.056  15.376 -16.893  1.00  0.00     0.154 C 
HETATM    2  C5  UNL     1       9.204  13.887 -16.651  1.00  0.00     0.082 C 
HETATM    3  C6  UNL     1       8.561  14.328 -15.344  1.00  0.00     0.120 C 
HETATM    4  C7  UNL     1       9.608  14.758 -14.344  1.00  0.00     0.055 C 
HETATM    5  O2  UNL     1       7.953  15.341 -16.046  1.00  0.00    -0.363 OA
ENDROOT
BRANCH   3   6
HETATM    6  C8  UNL     1       7.663  13.326 -14.739  1.00  0.00     0.157 C 
HETATM    7  C9  UNL     1       6.928  12.318 -15.539  1.00  0.00     0.094 C 
HETATM    8  O1  UNL     1       7.510  13.316 -13.532  1.00  0.00    -0.295 OA
ENDBRANCH   3   6
BRANCH   1   9
HETATM    9  C2  UNL     1       8.782  15.697 -18.298  1.00  0.00    -0.064 C 
HETATM   10  C1  UNL     1       8.925  14.763 -19.225  1.00  0.00     0.016 C 
HETATM   11  C3  UNL     1       8.345  17.063 -18.684  1.00  0.00     0.045 C 
ENDBRANCH   1   9
TORSDOF 2
ENDMDL
MODEL 5
REMARK VINA RESULT: -5.811709952      1.373      1.888
REMARK  2 active torsions:
REMARK  status: ('A' for Active; 'I' for Inactive)
REMARK    1  A    between atoms: C2_2  and  C4_4 
REMARK    2  A    between atoms: C6_6  and  C8_8 
ROOT
HETATM    1  C4  UNL     1       9.047  15.421 -16.842  1.00  0.00     0.154 C 
HETATM    2  C5  UNL     1       9.182  13.926 -16.641  1.00  0.00     0.082 C 
HETATM    3  C6  UNL     1       8.557  14.338 -15.316  1.00  0.00     0.120 C 
HETATM    4  C7  UNL     1       9.617  14.732 -14.316  1.00  0.00     0.055 C 
HETATM    5  O2  UNL     1       7.952  15.374 -15.986  1.00  0.00    -0.363 OA
ENDROOT
BRANCH   3   6
HETATM    6  C8  UNL     1       7.654  13.329 -14.729  1.00  0.00     0.157 C 
HETATM    7  C9  UNL     1       6.913  12.340 -15.547  1.00  0.00     0.094 C 
HETATM    8  O1  UNL     1       7.504  13.297 -13.522  1.00  0.00    -0.295 OA
ENDBRANCH   3   6
BRANCH   1   9
HETATM    9  C2  UNL     1       8.762  15.781 -18.236  1.00  0.00    -0.064 C 
HETATM   10  C1  UNL     1       8.349  17.005 -18.527  1.00  0.00     0.016 C 
HETATM   11  C3  UNL     1       8.935  14.780 -19.320  1.00  0.00     0.045 C 
ENDBRANCH   1   9
TORSDOF 2
ENDMDL
