MODEL 1
REMARK VINA RESULT: -6.569248406      0.000      0.000
REMARK  2 active torsions:
REMARK  status: ('A' for Active; 'I' for Inactive)
REMARK    1  A    between atoms: C2_2  and  C3_3 
REMARK    2  A    between atoms: C2_2  and  C4_6 
ROOT
HETATM    1  C4  UNL     1       9.261  14.161 -16.102  1.00  0.00    -0.001 C 
HETATM    2  C5  UNL     1       8.555  14.130 -17.428  1.00  0.00     0.005 C 
HETATM    3  C6  UNL     1       8.914  15.389 -18.224  1.00  0.00     0.000 C 
HETATM    4  C7  UNL     1       8.575  16.638 -17.505  1.00  0.00     0.000 C 
HETATM    5  C8  UNL     1       8.222  16.462 -16.074  1.00  0.00     0.000 C 
HETATM    6  C9  UNL     1       9.026  15.446 -15.336  1.00  0.00     0.005 C 
ENDROOT
BRANCH   1   7
HETATM    7  C2  UNL     1       8.942  13.035 -15.207  1.00  0.00     0.087 C 
HETATM    8  C1  UNL     1       8.950  11.753 -16.015  1.00  0.00     0.021 C 
BRANCH   7   9
HETATM    9  C3  UNL     1       7.685  13.094 -14.472  1.00  0.00     0.177 C 
HETATM   10  O1  UNL     1       7.496  13.387 -13.290  1.00  0.00    -0.648 OA
HETATM   11  O2  UNL     1       6.520  12.776 -15.195  1.00  0.00    -0.648 OA
ENDBRANCH   7   9
ENDBRANCH   1   7
TORSDOF 2
ENDMDL
MODEL 2
REMARK VINA RESULT: -6.560312941      0.859      1.835
REMARK  2 active torsions:
REMARK  status: ('A' for Active; 'I' for Inactive)
REMARK    1  A    between atoms: C2_2  and  C3_3 
REMARK    2  A    between atoms: C2_2  and  C4_6 
ROOT
HETATM    1  C4  UNL     1       8.401  14.483 -15.779  1.00  0.00    -0.001 C 
HETATM    2  C5  UNL     1       8.963  15.819 -15.382  1.00  0.00     0.005 C 
HETATM    3  C6  UNL     1       8.279  16.920 -16.198  1.00  0.00     0.000 C 
HETATM    4  C7  UNL     1       8.426  16.728 -17.658  1.00  0.00     0.000 C 
HETATM    5  C8  UNL     1       8.948  15.400 -18.067  1.00  0.00     0.000 C 
HETATM    6  C9  UNL     1       8.445  14.242 -17.273  1.00  0.00     0.005 C 
ENDROOT
BRANCH   1   7
HETATM    7  C2  UNL     1       9.030  13.328 -15.115  1.00  0.00     0.087 C 
HETATM    8  C1  UNL     1       8.770  12.086 -15.945  1.00  0.00     0.021 C 
BRANCH   7   9
HETATM    9  C3  UNL     1       8.632  13.040 -13.743  1.00  0.00     0.177 C 
HETATM   10  O1  UNL     1       9.228  12.382 -12.888  1.00  0.00    -0.648 OA
HETATM   11  O2  UNL     1       7.403  13.581 -13.320  1.00  0.00    -0.648 OA
ENDBRANCH   7   9
ENDBRANCH   1   7
TORSDOF 2
ENDMDL
MODEL 3
REMARK VINA RESULT: -6.488852487      0.808      1.765
REMARK  2 active torsions:
REMARK  status: ('A' for Active; 'I' for Inactive)
REMARK    1  A    between atoms: C2_2  and  C3_3 
REMARK    2  A    between atoms: C2_2  and  C4_6 
ROOT
HETATM    1  C4  UNL     1       8.176  15.062 -16.335  1.00  0.00    -0.001 C 
HETATM    2  C5  UNL     1       8.708  16.450 -16.109  1.00  0.00     0.005 C 
HETATM    3  C6  UNL     1       8.135  17.392 -17.172  1.00  0.00     0.000 C 
HETATM    4  C7  UNL     1       8.442  16.956 -18.552  1.00  0.00     0.000 C 
HETATM    5  C8  UNL     1       8.989  15.580 -18.668  1.00  0.00     0.000 C 
HETATM    6  C9  UNL     1       8.384  14.572 -17.752  1.00  0.00     0.005 C 
ENDROOT
BRANCH   1   7
HETATM    7  C2  UNL     1       8.711  14.040 -15.418  1.00  0.00     0.087 C 
HETATM    8  C1  UNL     1       9.372  12.949 -16.236  1.00  0.00     0.021 C 
BRANCH   7   9
HETATM    9  C3  UNL     1       7.776  13.406 -14.496  1.00  0.00     0.177 C 
HETATM   10  O1  UNL     1       7.788  13.405 -13.265  1.00  0.00    -0.648 OA
HETATM   11  O2  UNL     1       6.710  12.694 -15.077  1.00  0.00    -0.648 OA
ENDBRANCH   7   9
ENDBRANCH   1   7
TORSDOF 2
ENDMDL
MODEL 4
REMARK VINA RESULT: -6.473195603      1.116      1.376
REMARK  2 active torsions:
REMARK  status: ('A' for Active; 'I' for Inactive)
REMARK    1  A    between atoms: C2_2  and  C3_3 
REMARK    2  A    between atoms: C2_2  and  C4_6 
ROOT
HETATM    1  C4  UNL     1       8.739  13.516 -16.031  1.00  0.00    -0.001 C 
HETATM    2  C5  UNL     1       7.645  13.986 -16.949  1.00  0.00     0.005 C 
HETATM    3  C6  UNL     1       8.143  15.187 -17.758  1.00  0.00     0.000 C 
HETATM    4  C7  UNL     1       8.595  16.307 -16.904  1.00  0.00     0.000 C 
HETATM    5  C8  UNL     1       8.748  15.977 -15.465  1.00  0.00     0.000 C 
HETATM    6  C9  UNL     1       9.309  14.626 -15.174  1.00  0.00     0.005 C 
ENDROOT
BRANCH   1   7
HETATM    7  C2  UNL     1       8.361  12.405 -15.141  1.00  0.00     0.087 C 
HETATM    8  C1  UNL     1       6.958  11.953 -15.492  1.00  0.00     0.021 C 
BRANCH   7   9
HETATM    9  C3  UNL     1       8.407  12.646 -13.704  1.00  0.00     0.177 C 
HETATM   10  O1  UNL     1       9.235  12.253 -12.881  1.00  0.00    -0.648 OA
HETATM   11  O2  UNL     1       7.372  13.435 -13.168  1.00  0.00    -0.648 OA
ENDBRANCH   7   9
ENDBRANCH   1   7
TORSDOF 2
ENDMDL
MODEL 5
REMARK VINA RESULT: -6.273617104      1.286      1.649
REMARK  2 active torsions:
REMARK  status: ('A' for Active; 'I' for Inactive)
REMARK    1  A    between atoms: C2_2  and  C3_3 
REMARK    2  A    between atoms: C2_2  and  C4_6 
ROOT
HETATM    1  C4  UNL     1       8.946  14.838 -16.936  1.00  0.00    -0.001 C 
HETATM    2  C5  UNL     1       8.511  14.628 -18.359  1.00  0.00     0.005 C 
HETATM    3  C6  UNL     1       8.918  15.842 -19.199  1.00  0.00     0.000 C 
HETATM    4  C7  UNL     1       8.355  17.110 -18.685  1.00  0.00     0.000 C 
HETATM    5  C8  UNL     1       7.749  17.026 -17.332  1.00  0.00     0.000 C 
HETATM    6  C9  UNL     1       8.472  16.156 -16.360  1.00  0.00     0.005 C 
ENDROOT
BRANCH   1   7
HETATM    7  C2  UNL     1       8.548  13.768 -16.005  1.00  0.00     0.087 C 
HETATM    8  C1  UNL     1       7.081  13.455 -16.220  1.00  0.00     0.021 C 
BRANCH   7   9
HETATM    9  C3  UNL     1       8.752  14.002 -14.581  1.00  0.00     0.177 C 
HETATM   10  O1  UNL     1       9.752  14.432 -14.005  1.00  0.00    -0.648 OA
HETATM   11  O2  UNL     1       7.667  13.703 -13.735  1.00  0.00    -0.648 OA
ENDBRANCH   7   9
ENDBRANCH   1   7
TORSDOF 2
ENDMDL
