MODEL 1
REMARK VINA RESULT: -6.047294708      0.000      0.000
REMARK  3 active torsions:
REMARK  status: ('A' for Active; 'I' for Inactive)
REMARK    1  A    between atoms: C2_2  and  O1_4 
REMARK    2  A    between atoms: O1_4  and  C4_5 
REMARK    3  A    between atoms: C4_5  and  C5_7 
ROOT
HETATM    1  C4  UNL     1       8.656  14.554 -14.857  1.00  0.00     0.263 C 
HETATM    2  O2  UNL     1       9.864  14.566 -14.511  1.00  0.00    -0.265 OA
ENDROOT
BRANCH   1   3
HETATM    3  O1  UNL     1       7.765  13.937 -13.998  1.00  0.00    -0.317 OA
BRANCH   3   4
HETATM    4  C2  UNL     1       7.560  12.542 -13.954  1.00  0.00     0.123 C 
HETATM    5  C1  UNL     1       7.571  11.891 -15.296  1.00  0.00     0.040 C 
HETATM    6  C3  UNL     1       8.726  11.965 -13.145  1.00  0.00     0.040 C 
ENDBRANCH   3   4
ENDBRANCH   1   3
BRANCH   1   7
HETATM    7  C5  UNL     1       8.272  15.180 -16.128  1.00  0.00     0.085 C 
HETATM    8  C6  UNL     1       8.511  16.673 -16.124  1.00  0.00     0.014 C 
HETATM    9  C7  UNL     1       8.334  17.002 -17.609  1.00  0.00     0.001 C 
HETATM   10  C8  UNL     1       8.750  15.749 -18.353  1.00  0.00     0.001 C 
HETATM   11  C9  UNL     1       9.114  14.727 -17.297  1.00  0.00     0.014 C 
ENDBRANCH   1   7
TORSDOF 3
ENDMDL
MODEL 2
REMARK VINA RESULT: -6.046985964      0.910      1.452
REMARK  3 active torsions:
REMARK  status: ('A' for Active; 'I' for Inactive)
REMARK    1  A    between atoms: C2_2  and  O1_4 
REMARK    2  A    between atoms: O1_4  and  C4_5 
REMARK    3  A    between atoms: C4_5  and  C5_7 
ROOT
HETATM    1  C4  UNL     1       8.971  14.225 -15.528  1.00  0.00     0.263 C 
HETATM    2  O2  UNL     1       9.465  14.682 -14.467  1.00  0.00    -0.265 OA
ENDROOT
BRANCH   1   3
HETATM    3  O1  UNL     1       9.001  12.852 -15.693  1.00  0.00    -0.317 OA
BRANCH   3   4
HETATM    4  C2  UNL     1       8.066  11.974 -15.104  1.00  0.00     0.123 C 
HETATM    5  C1  UNL     1       8.003  12.074 -13.617  1.00  0.00     0.040 C 
HETATM    6  C3  UNL     1       6.696  12.376 -15.657  1.00  0.00     0.040 C 
ENDBRANCH   3   4
ENDBRANCH   1   3
BRANCH   1   7
HETATM    7  C5  UNL     1       8.406  15.157 -16.511  1.00  0.00     0.085 C 
HETATM    8  C6  UNL     1       8.585  16.600 -16.098  1.00  0.00     0.014 C 
HETATM    9  C7  UNL     1       8.210  17.325 -17.395  1.00  0.00     0.001 C 
HETATM   10  C8  UNL     1       8.577  16.369 -18.512  1.00  0.00     0.001 C 
HETATM   11  C9  UNL     1       9.111  15.119 -17.846  1.00  0.00     0.014 C 
ENDBRANCH   1   7
TORSDOF 3
ENDMDL
MODEL 3
REMARK VINA RESULT: -5.940495614      1.593      4.487
REMARK  3 active torsions:
REMARK  status: ('A' for Active; 'I' for Inactive)
REMARK    1  A    between atoms: C2_2  and  O1_4 
REMARK    2  A    between atoms: O1_4  and  C4_5 
REMARK    3  A    between atoms: C4_5  and  C5_7 
ROOT
HETATM    1  C4  UNL     1       8.846  15.040 -16.264  1.00  0.00     0.263 C 
HETATM    2  O2  UNL     1       8.613  16.073 -15.587  1.00  0.00    -0.265 OA
ENDROOT
BRANCH   1   3
HETATM    3  O1  UNL     1       9.197  15.226 -17.589  1.00  0.00    -0.317 OA
BRANCH   3   4
HETATM    4  C2  UNL     1       8.394  14.817 -18.675  1.00  0.00     0.123 C 
HETATM    5  C1  UNL     1       7.005  15.361 -18.632  1.00  0.00     0.040 C 
HETATM    6  C3  UNL     1       9.070  15.363 -19.936  1.00  0.00     0.040 C 
ENDBRANCH   3   4
ENDBRANCH   1   3
BRANCH   1   7
HETATM    7  C5  UNL     1       8.733  13.726 -15.621  1.00  0.00     0.085 C 
HETATM    8  C6  UNL     1       8.871  13.811 -14.118  1.00  0.00     0.014 C 
HETATM    9  C7  UNL     1       8.413  12.410 -13.701  1.00  0.00     0.001 C 
HETATM   10  C8  UNL     1       7.426  11.975 -14.766  1.00  0.00     0.001 C 
HETATM   11  C9  UNL     1       7.368  13.099 -15.778  1.00  0.00     0.014 C 
ENDBRANCH   1   7
TORSDOF 3
ENDMDL
MODEL 4
REMARK VINA RESULT: -5.886754594      1.030      1.128
REMARK  3 active torsions:
REMARK  status: ('A' for Active; 'I' for Inactive)
REMARK    1  A    between atoms: C2_2  and  O1_4 
REMARK    2  A    between atoms: O1_4  and  C4_5 
REMARK    3  A    between atoms: C4_5  and  C5_7 
ROOT
HETATM    1  C4  UNL     1       8.736  15.137 -15.695  1.00  0.00     0.263 C 
HETATM    2  O2  UNL     1       9.074  16.014 -14.862  1.00  0.00    -0.265 OA
ENDROOT
BRANCH   1   3
HETATM    3  O1  UNL     1       8.796  13.819 -15.278  1.00  0.00    -0.317 OA
BRANCH   3   4
HETATM    4  C2  UNL     1       7.719  13.143 -14.666  1.00  0.00     0.123 C 
HETATM    5  C1  UNL     1       6.957  12.261 -15.598  1.00  0.00     0.040 C 
HETATM    6  C3  UNL     1       8.334  12.254 -13.580  1.00  0.00     0.040 C 
ENDBRANCH   3   4
ENDBRANCH   1   3
BRANCH   1   7
HETATM    7  C5  UNL     1       8.308  15.554 -17.036  1.00  0.00     0.085 C 
HETATM    8  C6  UNL     1       8.476  17.040 -17.252  1.00  0.00     0.014 C 
HETATM    9  C7  UNL     1       8.267  17.143 -18.766  1.00  0.00     0.001 C 
HETATM   10  C8  UNL     1       8.732  15.814 -19.328  1.00  0.00     0.001 C 
HETATM   11  C9  UNL     1       9.156  14.974 -18.142  1.00  0.00     0.014 C 
ENDBRANCH   1   7
TORSDOF 3
ENDMDL
MODEL 5
REMARK VINA RESULT: -5.869102211      1.529      4.554
REMARK  3 active torsions:
REMARK  status: ('A' for Active; 'I' for Inactive)
REMARK    1  A    between atoms: C2_2  and  O1_4 
REMARK    2  A    between atoms: O1_4  and  C4_5 
REMARK    3  A    between atoms: C4_5  and  C5_7 
ROOT
HETATM    1  C4  UNL     1       8.930  14.958 -16.255  1.00  0.00     0.263 C 
HETATM    2  O2  UNL     1       8.787  16.011 -15.585  1.00  0.00    -0.265 OA
ENDROOT
BRANCH   1   3
HETATM    3  O1  UNL     1       9.197  15.106 -17.604  1.00  0.00    -0.317 OA
BRANCH   3   4
HETATM    4  C2  UNL     1       8.467  15.961 -18.457  1.00  0.00     0.123 C 
HETATM    5  C1  UNL     1       8.950  15.958 -19.868  1.00  0.00     0.040 C 
HETATM    6  C3  UNL     1       7.027  15.438 -18.455  1.00  0.00     0.040 C 
ENDBRANCH   3   4
ENDBRANCH   1   3
BRANCH   1   7
HETATM    7  C5  UNL     1       8.806  13.661 -15.580  1.00  0.00     0.085 C 
HETATM    8  C6  UNL     1       8.866  13.792 -14.076  1.00  0.00     0.014 C 
HETATM    9  C7  UNL     1       8.411  12.395 -13.640  1.00  0.00     0.001 C 
HETATM   10  C8  UNL     1       7.488  11.911 -14.741  1.00  0.00     0.001 C 
HETATM   11  C9  UNL     1       7.462  13.004 -15.788  1.00  0.00     0.014 C 
ENDBRANCH   1   7
TORSDOF 3
ENDMDL
