MODEL 1
REMARK VINA RESULT: -6.212433975      0.000      0.000
REMARK  10 active torsions:
REMARK  status: ('A' for Active; 'I' for Inactive)
REMARK    1  A    between atoms: C2_2  and  C4_4 
REMARK    2  A    between atoms: C4_4  and  C5_5 
REMARK    3  A    between atoms: C4_4  and  C6_12 
REMARK    4  A    between atoms: C5_5  and  O1_6 
REMARK    5  A    between atoms: N1_8  and  O2_10 
REMARK    6  A    between atoms: C6_12  and  N2_14 
REMARK    7  A    between atoms: N2_14  and  C8_15 
REMARK    8  A    between atoms: N2_14  and  C10_18 
REMARK    9  A    between atoms: C8_15  and  C9_16 
REMARK   10  A    between atoms: C10_18  and  C11_19 
ROOT
HETATM    1  C11 UNL     1       2.118  74.758   7.824  1.00  0.00     0.075 C 
HETATM    2  C12 UNL     1       1.885  74.381   9.232  1.00  0.00     0.071 C 
HETATM    3  N3  UNL     1       1.679  74.072  10.345  1.00  0.00    -0.196 NA
HETATM    4  C13 UNL     1       3.585  75.325   7.874  1.00  0.00     0.026 C 
HETATM    5  C14 UNL     1       4.209  75.264   6.511  1.00  0.00     0.002 C 
HETATM    6  C15 UNL     1       4.599  73.830   6.212  1.00  0.00     0.000 C 
HETATM    7  C16 UNL     1       3.701  72.963   7.034  1.00  0.00     0.002 C 
HETATM    8  C17 UNL     1       2.279  73.562   6.940  1.00  0.00     0.026 C 
ENDROOT
BRANCH   1   9
HETATM    9  C10 UNL     1       1.317  75.886   7.378  1.00  0.00     0.297 C 
BRANCH   9  10
HETATM   10  N2  UNL     1       0.372  75.871   6.321  1.00  0.00     0.101 N 
BRANCH  10  11
HETATM   11  C6  UNL     1      -0.833  76.530   6.904  1.00  0.00     0.231 C 
HETATM   12  C7  UNL     1      -1.192  76.079   8.260  1.00  0.00     0.043 C 
BRANCH  11  13
HETATM   13  C4  UNL     1      -1.950  76.611   5.933  1.00  0.00     0.098 C 
BRANCH  13  14
HETATM   14  C2  UNL     1      -2.740  77.889   6.145  1.00  0.00    -0.009 C 
HETATM   15  C1  UNL     1      -1.877  79.113   5.977  1.00  0.00     0.010 C 
HETATM   16  C3  UNL     1      -3.853  77.979   5.099  1.00  0.00     0.010 C 
ENDBRANCH  13  14
BRANCH  13  17
HETATM   17  C5  UNL     1      -2.914  75.481   5.982  1.00  0.00     0.141 C 
HETATM   18  N1  UNL     1      -4.025  75.537   6.597  1.00  0.00    -0.251 N 
ATOM     19  H1  UNL     1      -4.295  76.388   7.092  1.00  0.00     0.196 HD
BRANCH  17  20
HETATM   20  O1  UNL     1      -2.570  74.316   5.319  1.00  0.00    -0.348 OA
ATOM     21  H1  UNL     1      -2.925  73.500   5.652  1.00  0.00     0.219 HD
ENDBRANCH  17  20
BRANCH  18  22
HETATM   22  O2  UNL     1      -4.857  74.450   6.593  1.00  0.00    -0.288 OA
ATOM     23  H2  UNL     1      -5.411  74.285   5.840  1.00  0.00     0.244 HD
ENDBRANCH  18  22
ENDBRANCH  13  17
ENDBRANCH  11  13
ENDBRANCH  10  11
BRANCH  10  24
HETATM   24  C8  UNL     1       0.669  76.646   5.161  1.00  0.00     0.341 C 
BRANCH  24  25
HETATM   25  C9  UNL     1       1.683  77.705   5.272  1.00  0.00     0.261 C 
HETATM   26  O3  UNL     1       1.536  78.862   5.540  1.00  0.00    -0.305 OA
ENDBRANCH  24  25
ENDBRANCH  10  24
ENDBRANCH   9  10
ENDBRANCH   1   9
TORSDOF 10
ENDMDL
MODEL 2
REMARK VINA RESULT: -6.127148867      1.194      1.943
REMARK  10 active torsions:
REMARK  status: ('A' for Active; 'I' for Inactive)
REMARK    1  A    between atoms: C2_2  and  C4_4 
REMARK    2  A    between atoms: C4_4  and  C5_5 
REMARK    3  A    between atoms: C4_4  and  C6_12 
REMARK    4  A    between atoms: C5_5  and  O1_6 
REMARK    5  A    between atoms: N1_8  and  O2_10 
REMARK    6  A    between atoms: C6_12  and  N2_14 
REMARK    7  A    between atoms: N2_14  and  C8_15 
REMARK    8  A    between atoms: N2_14  and  C10_18 
REMARK    9  A    between atoms: C8_15  and  C9_16 
REMARK   10  A    between atoms: C10_18  and  C11_19 
ROOT
HETATM    1  C11 UNL     1       2.366  74.773   7.470  1.00  0.00     0.075 C 
HETATM    2  C12 UNL     1       2.487  73.852   6.323  1.00  0.00     0.071 C 
HETATM    3  N3  UNL     1       2.594  73.137   5.399  1.00  0.00    -0.196 NA
HETATM    4  C13 UNL     1       1.820  73.822   8.599  1.00  0.00     0.026 C 
HETATM    5  C14 UNL     1       2.128  74.395   9.950  1.00  0.00     0.002 C 
HETATM    6  C15 UNL     1       3.598  74.180  10.253  1.00  0.00     0.000 C 
HETATM    7  C16 UNL     1       4.294  74.074   8.935  1.00  0.00     0.002 C 
HETATM    8  C17 UNL     1       3.701  75.168   8.018  1.00  0.00     0.026 C 
ENDROOT
BRANCH   1   9
HETATM    9  C10 UNL     1       1.323  75.772   7.312  1.00  0.00     0.297 C 
BRANCH   9  10
HETATM   10  N2  UNL     1       0.386  75.837   6.250  1.00  0.00     0.101 N 
BRANCH  10  11
HETATM   11  C6  UNL     1      -0.816  76.472   6.866  1.00  0.00     0.231 C 
HETATM   12  C7  UNL     1      -1.162  75.973   8.209  1.00  0.00     0.043 C 
BRANCH  11  13
HETATM   13  C4  UNL     1      -1.941  76.584   5.909  1.00  0.00     0.098 C 
BRANCH  13  14
HETATM   14  C2  UNL     1      -2.713  77.868   6.150  1.00  0.00    -0.009 C 
HETATM   15  C1  UNL     1      -1.834  79.083   6.007  1.00  0.00     0.010 C 
HETATM   16  C3  UNL     1      -3.827  77.996   5.110  1.00  0.00     0.010 C 
ENDBRANCH  13  14
BRANCH  13  17
HETATM   17  C5  UNL     1      -2.919  75.465   5.948  1.00  0.00     0.141 C 
HETATM   18  N1  UNL     1      -4.005  75.510   6.608  1.00  0.00    -0.251 N 
ATOM     19  H1  UNL     1      -4.243  76.342   7.146  1.00  0.00     0.196 HD
BRANCH  17  20
HETATM   20  O1  UNL     1      -2.617  74.325   5.225  1.00  0.00    -0.348 OA
ATOM     21  H1  UNL     1      -3.147  73.551   5.382  1.00  0.00     0.219 HD
ENDBRANCH  17  20
BRANCH  18  22
HETATM   22  O2  UNL     1      -4.852  74.434   6.591  1.00  0.00    -0.288 OA
ATOM     23  H2  UNL     1      -5.164  74.070   7.410  1.00  0.00     0.244 HD
ENDBRANCH  18  22
ENDBRANCH  13  17
ENDBRANCH  11  13
ENDBRANCH  10  11
BRANCH  10  24
HETATM   24  C8  UNL     1       0.701  76.683   5.145  1.00  0.00     0.341 C 
BRANCH  24  25
HETATM   25  C9  UNL     1       1.770  77.679   5.314  1.00  0.00     0.261 C 
HETATM   26  O3  UNL     1       1.677  78.855   5.514  1.00  0.00    -0.305 OA
ENDBRANCH  24  25
ENDBRANCH  10  24
ENDBRANCH   9  10
ENDBRANCH   1   9
TORSDOF 10
ENDMDL
MODEL 3
REMARK VINA RESULT: -5.954610524      1.491      2.369
REMARK  10 active torsions:
REMARK  status: ('A' for Active; 'I' for Inactive)
REMARK    1  A    between atoms: C2_2  and  C4_4 
REMARK    2  A    between atoms: C4_4  and  C5_5 
REMARK    3  A    between atoms: C4_4  and  C6_12 
REMARK    4  A    between atoms: C5_5  and  O1_6 
REMARK    5  A    between atoms: N1_8  and  O2_10 
REMARK    6  A    between atoms: C6_12  and  N2_14 
REMARK    7  A    between atoms: N2_14  and  C8_15 
REMARK    8  A    between atoms: N2_14  and  C10_18 
REMARK    9  A    between atoms: C8_15  and  C9_16 
REMARK   10  A    between atoms: C10_18  and  C11_19 
ROOT
HETATM    1  C11 UNL     1       2.023  75.785   6.084  1.00  0.00     0.075 C 
HETATM    2  C12 UNL     1       2.217  76.297   4.713  1.00  0.00     0.071 C 
HETATM    3  N3  UNL     1       2.373  76.726   3.632  1.00  0.00    -0.196 NA
HETATM    4  C13 UNL     1       2.065  74.228   5.862  1.00  0.00     0.026 C 
HETATM    5  C14 UNL     1       2.423  73.533   7.141  1.00  0.00     0.002 C 
HETATM    6  C15 UNL     1       3.909  73.701   7.394  1.00  0.00     0.000 C 
HETATM    7  C16 UNL     1       4.324  74.949   6.684  1.00  0.00     0.002 C 
HETATM    8  C17 UNL     1       3.227  76.007   6.943  1.00  0.00     0.026 C 
ENDROOT
BRANCH   1   9
HETATM    9  C10 UNL     1       0.695  76.031   6.619  1.00  0.00     0.297 C 
BRANCH   9  10
HETATM   10  N2  UNL     1      -0.035  77.242   6.513  1.00  0.00     0.101 N 
BRANCH  10  11
HETATM   11  C6  UNL     1      -1.401  76.885   6.998  1.00  0.00     0.231 C 
HETATM   12  C7  UNL     1      -1.437  75.841   8.037  1.00  0.00     0.043 C 
BRANCH  11  13
HETATM   13  C4  UNL     1      -2.364  76.721   5.884  1.00  0.00     0.098 C 
BRANCH  13  14
HETATM   14  C2  UNL     1      -3.352  77.872   5.869  1.00  0.00    -0.009 C 
HETATM   15  C1  UNL     1      -2.682  79.180   5.537  1.00  0.00     0.010 C 
HETATM   16  C3  UNL     1      -4.408  77.623   4.790  1.00  0.00     0.010 C 
ENDBRANCH  13  14
BRANCH  13  17
HETATM   17  C5  UNL     1      -3.151  75.461   5.907  1.00  0.00     0.141 C 
HETATM   18  N1  UNL     1      -4.230  75.324   6.566  1.00  0.00    -0.251 N 
ATOM     19  H1  UNL     1      -4.598  76.101   7.114  1.00  0.00     0.196 HD
BRANCH  17  20
HETATM   20  O1  UNL     1      -2.672  74.392   5.172  1.00  0.00    -0.348 OA
ATOM     21  H1  UNL     1      -3.215  73.614   5.121  1.00  0.00     0.219 HD
ENDBRANCH  17  20
BRANCH  18  22
HETATM   22  O2  UNL     1      -4.895  74.128   6.535  1.00  0.00    -0.288 OA
ATOM     23  H2  UNL     1      -4.457  73.339   6.831  1.00  0.00     0.244 HD
ENDBRANCH  18  22
ENDBRANCH  13  17
ENDBRANCH  11  13
ENDBRANCH  10  11
BRANCH  10  24
HETATM   24  C8  UNL     1       0.362  78.326   7.351  1.00  0.00     0.341 C 
BRANCH  24  25
HETATM   25  C9  UNL     1       0.881  79.546   6.713  1.00  0.00     0.261 C 
HETATM   26  O3  UNL     1       1.080  79.762   5.553  1.00  0.00    -0.305 OA
ENDBRANCH  24  25
ENDBRANCH  10  24
ENDBRANCH   9  10
ENDBRANCH   1   9
TORSDOF 10
ENDMDL
MODEL 4
REMARK VINA RESULT: -5.875300739      2.687      6.046
REMARK  10 active torsions:
REMARK  status: ('A' for Active; 'I' for Inactive)
REMARK    1  A    between atoms: C2_2  and  C4_4 
REMARK    2  A    between atoms: C4_4  and  C5_5 
REMARK    3  A    between atoms: C4_4  and  C6_12 
REMARK    4  A    between atoms: C5_5  and  O1_6 
REMARK    5  A    between atoms: N1_8  and  O2_10 
REMARK    6  A    between atoms: C6_12  and  N2_14 
REMARK    7  A    between atoms: N2_14  and  C8_15 
REMARK    8  A    between atoms: N2_14  and  C10_18 
REMARK    9  A    between atoms: C8_15  and  C9_16 
REMARK   10  A    between atoms: C10_18  and  C11_19 
ROOT
HETATM    1  C11 UNL     1      -0.122  76.441   6.836  1.00  0.00     0.075 C 
HETATM    2  C12 UNL     1       0.155  76.600   8.277  1.00  0.00     0.071 C 
HETATM    3  N3  UNL     1       0.390  76.744   9.417  1.00  0.00    -0.196 NA
HETATM    4  C13 UNL     1      -1.284  75.379   6.840  1.00  0.00     0.026 C 
HETATM    5  C14 UNL     1      -2.069  75.467   5.565  1.00  0.00     0.002 C 
HETATM    6  C15 UNL     1      -2.965  76.688   5.622  1.00  0.00     0.000 C 
HETATM    7  C16 UNL     1      -2.318  77.649   6.567  1.00  0.00     0.002 C 
HETATM    8  C17 UNL     1      -0.804  77.640   6.258  1.00  0.00     0.026 C 
ENDROOT
BRANCH   1   9
HETATM    9  C10 UNL     1       0.950  75.791   6.101  1.00  0.00     0.297 C 
BRANCH   9  10
HETATM   10  N2  UNL     1       2.339  75.982   6.311  1.00  0.00     0.101 N 
BRANCH  10  11
HETATM   11  C6  UNL     1       2.901  74.599   6.294  1.00  0.00     0.231 C 
HETATM   12  C7  UNL     1       1.947  73.547   5.901  1.00  0.00     0.043 C 
BRANCH  11  13
HETATM   13  C4  UNL     1       3.719  74.314   7.496  1.00  0.00     0.098 C 
BRANCH  13  14
HETATM   14  C2  UNL     1       4.221  72.883   7.463  1.00  0.00    -0.009 C 
HETATM   15  C1  UNL     1       5.116  72.633   6.277  1.00  0.00     0.010 C 
HETATM   16  C3  UNL     1       5.052  72.605   8.717  1.00  0.00     0.010 C 
ENDBRANCH  13  14
BRANCH  13  17
HETATM   17  C5  UNL     1       3.024  74.510   8.795  1.00  0.00     0.141 C 
HETATM   18  N1  UNL     1       2.116  73.731   9.226  1.00  0.00    -0.251 N 
ATOM     19  H1  UNL     1       1.829  72.923   8.673  1.00  0.00     0.196 HD
BRANCH  17  20
HETATM   20  O1  UNL     1       3.394  75.599   9.563  1.00  0.00    -0.348 OA
ATOM     21  H1  UNL     1       2.722  76.233   9.782  1.00  0.00     0.219 HD
ENDBRANCH  17  20
BRANCH  18  22
HETATM   22  O2  UNL     1       1.524  73.983  10.435  1.00  0.00    -0.288 OA
ATOM     23  H2  UNL     1       0.583  74.100  10.482  1.00  0.00     0.244 HD
ENDBRANCH  18  22
ENDBRANCH  13  17
ENDBRANCH  11  13
ENDBRANCH  10  11
BRANCH  10  24
HETATM   24  C8  UNL     1       3.070  76.670   5.299  1.00  0.00     0.341 C 
BRANCH  24  25
HETATM   25  C9  UNL     1       2.384  76.984   4.036  1.00  0.00     0.261 C 
HETATM   26  O3  UNL     1       2.530  76.489   2.957  1.00  0.00    -0.305 OA
ENDBRANCH  24  25
ENDBRANCH  10  24
ENDBRANCH   9  10
ENDBRANCH   1   9
TORSDOF 10
ENDMDL
MODEL 5
REMARK VINA RESULT: -5.839538729      2.545      5.886
REMARK  10 active torsions:
REMARK  status: ('A' for Active; 'I' for Inactive)
REMARK    1  A    between atoms: C2_2  and  C4_4 
REMARK    2  A    between atoms: C4_4  and  C5_5 
REMARK    3  A    between atoms: C4_4  and  C6_12 
REMARK    4  A    between atoms: C5_5  and  O1_6 
REMARK    5  A    between atoms: N1_8  and  O2_10 
REMARK    6  A    between atoms: C6_12  and  N2_14 
REMARK    7  A    between atoms: N2_14  and  C8_15 
REMARK    8  A    between atoms: N2_14  and  C10_18 
REMARK    9  A    between atoms: C8_15  and  C9_16 
REMARK   10  A    between atoms: C10_18  and  C11_19 
ROOT
HETATM    1  C11 UNL     1      -0.595  76.353   6.654  1.00  0.00     0.075 C 
HETATM    2  C12 UNL     1      -0.394  76.430   8.114  1.00  0.00     0.071 C 
HETATM    3  N3  UNL     1      -0.219  76.510   9.272  1.00  0.00    -0.196 NA
HETATM    4  C13 UNL     1      -1.727  75.265   6.536  1.00  0.00     0.026 C 
HETATM    5  C14 UNL     1      -2.450  75.413   5.230  1.00  0.00     0.002 C 
HETATM    6  C15 UNL     1      -3.381  76.607   5.315  1.00  0.00     0.000 C 
HETATM    7  C16 UNL     1      -2.807  77.523   6.347  1.00  0.00     0.002 C 
HETATM    8  C17 UNL     1      -1.279  77.569   6.115  1.00  0.00     0.026 C 
ENDROOT
BRANCH   1   9
HETATM    9  C10 UNL     1       0.528  75.774   5.937  1.00  0.00     0.297 C 
BRANCH   9  10
HETATM   10  N2  UNL     1       1.878  76.201   6.020  1.00  0.00     0.101 N 
BRANCH  10  11
HETATM   11  C6  UNL     1       2.645  74.935   6.216  1.00  0.00     0.231 C 
HETATM   12  C7  UNL     1       1.889  73.702   5.938  1.00  0.00     0.043 C 
BRANCH  11  13
HETATM   13  C4  UNL     1       3.425  74.945   7.476  1.00  0.00     0.098 C 
BRANCH  13  14
HETATM   14  C2  UNL     1       4.815  74.384   7.239  1.00  0.00    -0.009 C 
HETATM   15  C1  UNL     1       5.339  74.748   5.875  1.00  0.00     0.010 C 
HETATM   16  C3  UNL     1       5.785  74.975   8.264  1.00  0.00     0.010 C 
ENDBRANCH  13  14
BRANCH  13  17
HETATM   17  C5  UNL     1       2.823  74.180   8.599  1.00  0.00     0.141 C 
HETATM   18  N1  UNL     1       2.049  74.702   9.463  1.00  0.00    -0.251 N 
ATOM     19  H1  UNL     1       1.813  75.692   9.408  1.00  0.00     0.196 HD
BRANCH  17  20
HETATM   20  O1  UNL     1       3.130  72.835   8.696  1.00  0.00    -0.348 OA
ATOM     21  H1  UNL     1       2.408  72.224   8.781  1.00  0.00     0.219 HD
ENDBRANCH  17  20
BRANCH  18  22
HETATM   22  O2  UNL     1       1.536  73.926  10.468  1.00  0.00    -0.288 OA
ATOM     23  H2  UNL     1       2.037  73.188  10.794  1.00  0.00     0.244 HD
ENDBRANCH  18  22
ENDBRANCH  13  17
ENDBRANCH  11  13
ENDBRANCH  10  11
BRANCH  10  24
HETATM   24  C8  UNL     1       2.457  76.785   4.855  1.00  0.00     0.341 C 
BRANCH  24  25
HETATM   25  C9  UNL     1       2.565  78.251   4.791  1.00  0.00     0.261 C 
HETATM   26  O3  UNL     1       1.827  79.080   5.238  1.00  0.00    -0.305 OA
ENDBRANCH  24  25
ENDBRANCH  10  24
ENDBRANCH   9  10
ENDBRANCH   1   9
TORSDOF 10
ENDMDL
