MODEL 1
REMARK VINA RESULT: -7.078075599      0.000      0.000
REMARK  9 active torsions:
REMARK  status: ('A' for Active; 'I' for Inactive)
REMARK    1  A    between atoms: C2_2  and  C3_3 
REMARK    2  A    between atoms: C3_3  and  C4_4 
REMARK    3  A    between atoms: C4_4  and  C5_5 
REMARK    4  A    between atoms: C7_7  and  C8_8 
REMARK    5  A    between atoms: C8_8  and  O1_9 
REMARK    6  A    between atoms: O1_9  and  C9_10 
REMARK    7  A    between atoms: C10_11  and  C11_12 
REMARK    8  A    between atoms: C11_12  and  O2_13 
REMARK    9  A    between atoms: C13_16  and  O3_17 
ROOT
HETATM    1  C5  UNL     1      -0.748  78.251   6.986  1.00  0.00     0.127 C 
HETATM    2  C6  UNL     1      -0.921  77.215   5.883  1.00  0.00     0.072 C 
HETATM    3  C7  UNL     1      -0.886  75.859   6.594  1.00  0.00     0.090 C 
HETATM    4  C12 UNL     1       0.377  75.118   6.236  1.00  0.00     0.073 C 
HETATM    5  C13 UNL     1       1.009  74.646   7.519  1.00  0.00     0.133 C 
HETATM    6  C14 UNL     1       1.389  75.849   8.338  1.00  0.00     0.028 C 
HETATM    7  C15 UNL     1       2.501  76.643   7.716  1.00  0.00     0.022 C 
HETATM    8  C16 UNL     1       1.856  75.447   9.733  1.00  0.00     0.022 C 
HETATM    9  C17 UNL     1       0.167  76.741   8.427  1.00  0.00     0.271 C 
HETATM   10  O4  UNL     1       0.358  77.935   7.740  1.00  0.00    -0.355 OA
HETATM   11  O5  UNL     1      -0.968  76.100   7.958  1.00  0.00    -0.347 OA
ENDROOT
BRANCH   3  12
HETATM   12  C8  UNL     1      -2.103  75.093   6.143  1.00  0.00     0.212 C 
BRANCH  12  13
HETATM   13  O1  UNL     1      -3.208  75.978   6.231  1.00  0.00    -0.360 OA
BRANCH  13  14
HETATM   14  C9  UNL     1      -4.335  75.675   5.498  1.00  0.00     0.132 C 
HETATM   15  C10 UNL     1      -4.259  75.660   4.178  1.00  0.00     0.023 C 
BRANCH  15  16
HETATM   16  C11 UNL     1      -5.453  75.337   3.330  1.00  0.00     0.193 C 
BRANCH  16  17
HETATM   17  O2  UNL     1      -6.467  76.214   3.638  1.00  0.00    -0.397 OA
ATOM     18  H2  UNL     1      -7.004  75.834   4.324  1.00  0.00     0.209 HD
ENDBRANCH  16  17
ENDBRANCH  15  16
ENDBRANCH  13  14
ENDBRANCH  12  13
ENDBRANCH   3  12
BRANCH   1  19
HETATM   19  C4  UNL     1      -0.567  79.614   6.352  1.00  0.00     0.032 C 
BRANCH  19  20
HETATM   20  C3  UNL     1      -1.899  79.913   5.647  1.00  0.00     0.002 C 
BRANCH  20  21
HETATM   21  C2  UNL     1      -1.884  81.369   5.237  1.00  0.00    -0.004 C 
HETATM   22  C1  UNL     1      -3.261  81.937   5.564  1.00  0.00     0.005 C 
ENDBRANCH  20  21
ENDBRANCH  19  20
ENDBRANCH   1  19
BRANCH   5  23
HETATM   23  O3  UNL     1       2.056  73.765   7.324  1.00  0.00    -0.395 OA
ATOM     24  H3  UNL     1       2.170  73.149   8.038  1.00  0.00     0.210 HD
ENDBRANCH   5  23
TORSDOF 9
ENDMDL
MODEL 2
REMARK VINA RESULT: -7.047656238      1.265      1.649
REMARK  9 active torsions:
REMARK  status: ('A' for Active; 'I' for Inactive)
REMARK    1  A    between atoms: C2_2  and  C3_3 
REMARK    2  A    between atoms: C3_3  and  C4_4 
REMARK    3  A    between atoms: C4_4  and  C5_5 
REMARK    4  A    between atoms: C7_7  and  C8_8 
REMARK    5  A    between atoms: C8_8  and  O1_9 
REMARK    6  A    between atoms: O1_9  and  C9_10 
REMARK    7  A    between atoms: C10_11  and  C11_12 
REMARK    8  A    between atoms: C11_12  and  O2_13 
REMARK    9  A    between atoms: C13_16  and  O3_17 
ROOT
HETATM    1  C5  UNL     1      -1.471  79.413   6.254  1.00  0.00     0.127 C 
HETATM    2  C6  UNL     1      -2.114  78.206   5.586  1.00  0.00     0.072 C 
HETATM    3  C7  UNL     1      -1.651  76.998   6.406  1.00  0.00     0.090 C 
HETATM    4  C12 UNL     1      -0.697  76.156   5.596  1.00  0.00     0.073 C 
HETATM    5  C13 UNL     1       0.517  75.895   6.447  1.00  0.00     0.133 C 
HETATM    6  C14 UNL     1       1.188  77.209   6.741  1.00  0.00     0.028 C 
HETATM    7  C15 UNL     1       1.792  77.835   5.517  1.00  0.00     0.022 C 
HETATM    8  C16 UNL     1       2.313  77.043   7.757  1.00  0.00     0.022 C 
HETATM    9  C17 UNL     1       0.128  78.150   7.276  1.00  0.00     0.271 C 
HETATM   10  O4  UNL     1      -0.120  79.194   6.391  1.00  0.00    -0.355 OA
HETATM   11  O5  UNL     1      -1.052  77.480   7.561  1.00  0.00    -0.347 OA
ENDROOT
BRANCH   3  12
HETATM   12  C8  UNL     1      -2.885  76.211   6.768  1.00  0.00     0.212 C 
BRANCH  12  13
HETATM   13  O1  UNL     1      -2.890  75.049   5.957  1.00  0.00    -0.360 OA
BRANCH  13  14
HETATM   14  C9  UNL     1      -4.034  74.769   5.241  1.00  0.00     0.132 C 
HETATM   15  C10 UNL     1      -4.349  75.532   4.208  1.00  0.00     0.023 C 
BRANCH  15  16
HETATM   16  C11 UNL     1      -5.581  75.275   3.393  1.00  0.00     0.193 C 
BRANCH  16  17
HETATM   17  O2  UNL     1      -6.500  76.265   3.652  1.00  0.00    -0.397 OA
ATOM     18  H2  UNL     1      -6.226  76.744   4.425  1.00  0.00     0.209 HD
ENDBRANCH  16  17
ENDBRANCH  15  16
ENDBRANCH  13  14
ENDBRANCH  12  13
ENDBRANCH   3  12
BRANCH   1  19
HETATM   19  C4  UNL     1      -1.709  80.633   5.390  1.00  0.00     0.032 C 
BRANCH  19  20
HETATM   20  C3  UNL     1      -3.218  80.905   5.478  1.00  0.00     0.002 C 
BRANCH  20  21
HETATM   21  C2  UNL     1      -3.402  82.359   5.850  1.00  0.00    -0.004 C 
HETATM   22  C1  UNL     1      -2.115  83.081   5.469  1.00  0.00     0.005 C 
ENDBRANCH  20  21
ENDBRANCH  19  20
ENDBRANCH   1  19
BRANCH   5  23
HETATM   23  O3  UNL     1       1.374  74.953   5.907  1.00  0.00    -0.395 OA
ATOM     24  H3  UNL     1       1.604  74.260   6.515  1.00  0.00     0.210 HD
ENDBRANCH   5  23
TORSDOF 9
ENDMDL
MODEL 3
REMARK VINA RESULT: -7.046605178      1.061      1.179
REMARK  9 active torsions:
REMARK  status: ('A' for Active; 'I' for Inactive)
REMARK    1  A    between atoms: C2_2  and  C3_3 
REMARK    2  A    between atoms: C3_3  and  C4_4 
REMARK    3  A    between atoms: C4_4  and  C5_5 
REMARK    4  A    between atoms: C7_7  and  C8_8 
REMARK    5  A    between atoms: C8_8  and  O1_9 
REMARK    6  A    between atoms: O1_9  and  C9_10 
REMARK    7  A    between atoms: C10_11  and  C11_12 
REMARK    8  A    between atoms: C11_12  and  O2_13 
REMARK    9  A    between atoms: C13_16  and  O3_17 
ROOT
HETATM    1  C5  UNL     1      -0.423  79.373   6.777  1.00  0.00     0.127 C 
HETATM    2  C6  UNL     1      -1.232  78.445   5.880  1.00  0.00     0.072 C 
HETATM    3  C7  UNL     1      -1.250  77.097   6.607  1.00  0.00     0.090 C 
HETATM    4  C12 UNL     1      -0.421  76.089   5.852  1.00  0.00     0.073 C 
HETATM    5  C13 UNL     1       0.515  75.438   6.835  1.00  0.00     0.133 C 
HETATM    6  C14 UNL     1       1.442  76.489   7.382  1.00  0.00     0.028 C 
HETATM    7  C15 UNL     1       2.393  77.016   6.346  1.00  0.00     0.022 C 
HETATM    8  C16 UNL     1       2.289  75.942   8.526  1.00  0.00     0.022 C 
HETATM    9  C17 UNL     1       0.586  77.643   7.864  1.00  0.00     0.271 C 
HETATM   10  O4  UNL     1       0.778  78.779   7.085  1.00  0.00    -0.355 OA
HETATM   11  O5  UNL     1      -0.758  77.306   7.888  1.00  0.00    -0.347 OA
ENDROOT
BRANCH   3  12
HETATM   12  C8  UNL     1      -2.689  76.657   6.686  1.00  0.00     0.212 C 
BRANCH  12  13
HETATM   13  O1  UNL     1      -3.436  77.530   5.855  1.00  0.00    -0.360 OA
BRANCH  13  14
HETATM   14  C9  UNL     1      -4.519  77.007   5.181  1.00  0.00     0.132 C 
HETATM   15  C10 UNL     1      -4.324  76.030   4.310  1.00  0.00     0.023 C 
BRANCH  15  16
HETATM   16  C11 UNL     1      -5.464  75.423   3.549  1.00  0.00     0.193 C 
BRANCH  16  17
HETATM   17  O2  UNL     1      -6.553  76.258   3.638  1.00  0.00    -0.397 OA
ATOM     18  H2  UNL     1      -6.648  76.729   2.818  1.00  0.00     0.209 HD
ENDBRANCH  16  17
ENDBRANCH  15  16
ENDBRANCH  13  14
ENDBRANCH  12  13
ENDBRANCH   3  12
BRANCH   1  19
HETATM   19  C4  UNL     1      -0.181  80.674   6.041  1.00  0.00     0.032 C 
BRANCH  19  20
HETATM   20  C3  UNL     1      -1.360  80.815   5.067  1.00  0.00     0.002 C 
BRANCH  20  21
HETATM   21  C2  UNL     1      -2.092  82.092   5.413  1.00  0.00    -0.004 C 
HETATM   22  C1  UNL     1      -3.571  81.740   5.524  1.00  0.00     0.005 C 
ENDBRANCH  20  21
ENDBRANCH  19  20
ENDBRANCH   1  19
BRANCH   5  23
HETATM   23  O3  UNL     1       1.178  74.340   6.319  1.00  0.00    -0.395 OA
ATOM     24  H3  UNL     1       1.378  73.678   6.971  1.00  0.00     0.210 HD
ENDBRANCH   5  23
TORSDOF 9
ENDMDL
MODEL 4
REMARK VINA RESULT: -6.900313736      1.514      1.998
REMARK  9 active torsions:
REMARK  status: ('A' for Active; 'I' for Inactive)
REMARK    1  A    between atoms: C2_2  and  C3_3 
REMARK    2  A    between atoms: C3_3  and  C4_4 
REMARK    3  A    between atoms: C4_4  and  C5_5 
REMARK    4  A    between atoms: C7_7  and  C8_8 
REMARK    5  A    between atoms: C8_8  and  O1_9 
REMARK    6  A    between atoms: O1_9  and  C9_10 
REMARK    7  A    between atoms: C10_11  and  C11_12 
REMARK    8  A    between atoms: C11_12  and  O2_13 
REMARK    9  A    between atoms: C13_16  and  O3_17 
ROOT
HETATM    1  C5  UNL     1      -1.649  79.429   6.238  1.00  0.00     0.127 C 
HETATM    2  C6  UNL     1      -2.248  78.184   5.598  1.00  0.00     0.072 C 
HETATM    3  C7  UNL     1      -1.680  77.007   6.397  1.00  0.00     0.090 C 
HETATM    4  C12 UNL     1      -0.713  76.221   5.548  1.00  0.00     0.073 C 
HETATM    5  C13 UNL     1       0.550  76.035   6.347  1.00  0.00     0.133 C 
HETATM    6  C14 UNL     1       1.153  77.387   6.613  1.00  0.00     0.028 C 
HETATM    7  C15 UNL     1       1.667  78.045   5.365  1.00  0.00     0.022 C 
HETATM    8  C16 UNL     1       2.327  77.291   7.581  1.00  0.00     0.022 C 
HETATM    9  C17 UNL     1       0.062  78.265   7.192  1.00  0.00     0.271 C 
HETATM   10  O4  UNL     1      -0.284  79.290   6.318  1.00  0.00    -0.355 OA
HETATM   11  O5  UNL     1      -1.063  77.527   7.526  1.00  0.00    -0.347 OA
ENDROOT
BRANCH   3  12
HETATM   12  C8  UNL     1      -2.849  76.150   6.811  1.00  0.00     0.212 C 
BRANCH  12  13
HETATM   13  O1  UNL     1      -2.904  75.059   5.908  1.00  0.00    -0.360 OA
BRANCH  13  14
HETATM   14  C9  UNL     1      -4.099  74.816   5.266  1.00  0.00     0.132 C 
HETATM   15  C10 UNL     1      -4.364  75.451   4.136  1.00  0.00     0.023 C 
BRANCH  15  16
HETATM   16  C11 UNL     1      -5.648  75.225   3.395  1.00  0.00     0.193 C 
BRANCH  16  17
HETATM   17  O2  UNL     1      -6.493  76.283   3.638  1.00  0.00    -0.397 OA
ATOM     18  H2  UNL     1      -7.389  75.999   3.495  1.00  0.00     0.209 HD
ENDBRANCH  16  17
ENDBRANCH  15  16
ENDBRANCH  13  14
ENDBRANCH  12  13
ENDBRANCH   3  12
BRANCH   1  19
HETATM   19  C4  UNL     1      -1.995  80.631   5.385  1.00  0.00     0.032 C 
BRANCH  19  20
HETATM   20  C3  UNL     1      -0.743  81.519   5.409  1.00  0.00     0.002 C 
BRANCH  20  21
HETATM   21  C2  UNL     1      -0.550  82.079   4.017  1.00  0.00    -0.004 C 
HETATM   22  C1  UNL     1       0.935  81.960   3.692  1.00  0.00     0.005 C 
ENDBRANCH  20  21
ENDBRANCH  19  20
ENDBRANCH   1  19
BRANCH   5  23
HETATM   23  O3  UNL     1       1.437  75.144   5.772  1.00  0.00    -0.395 OA
ATOM     24  H3  UNL     1       2.051  75.554   5.175  1.00  0.00     0.210 HD
ENDBRANCH   5  23
TORSDOF 9
ENDMDL
MODEL 5
REMARK VINA RESULT: -6.771012078      2.068      4.785
REMARK  9 active torsions:
REMARK  status: ('A' for Active; 'I' for Inactive)
REMARK    1  A    between atoms: C2_2  and  C3_3 
REMARK    2  A    between atoms: C3_3  and  C4_4 
REMARK    3  A    between atoms: C4_4  and  C5_5 
REMARK    4  A    between atoms: C7_7  and  C8_8 
REMARK    5  A    between atoms: C8_8  and  O1_9 
REMARK    6  A    between atoms: O1_9  and  C9_10 
REMARK    7  A    between atoms: C10_11  and  C11_12 
REMARK    8  A    between atoms: C11_12  and  O2_13 
REMARK    9  A    between atoms: C13_16  and  O3_17 
ROOT
HETATM    1  C5  UNL     1      -2.312  76.100   5.832  1.00  0.00     0.127 C 
HETATM    2  C6  UNL     1      -2.196  77.359   6.682  1.00  0.00     0.072 C 
HETATM    3  C7  UNL     1      -0.741  77.812   6.535  1.00  0.00     0.090 C 
HETATM    4  C12 UNL     1      -0.002  77.616   7.835  1.00  0.00     0.073 C 
HETATM    5  C13 UNL     1       1.277  76.885   7.528  1.00  0.00     0.133 C 
HETATM    6  C14 UNL     1       0.933  75.528   6.977  1.00  0.00     0.028 C 
HETATM    7  C15 UNL     1       0.299  74.632   8.001  1.00  0.00     0.022 C 
HETATM    8  C16 UNL     1       2.174  74.806   6.462  1.00  0.00     0.022 C 
HETATM    9  C17 UNL     1      -0.062  75.733   5.852  1.00  0.00     0.271 C 
HETATM   10  O4  UNL     1      -1.313  75.221   6.180  1.00  0.00    -0.355 OA
HETATM   11  O5  UNL     1      -0.173  77.072   5.508  1.00  0.00    -0.347 OA
ENDROOT
BRANCH   3  12
HETATM   12  C8  UNL     1      -0.770  79.269   6.149  1.00  0.00     0.212 C 
BRANCH  12  13
HETATM   13  O1  UNL     1      -2.030  79.515   5.547  1.00  0.00    -0.360 OA
BRANCH  13  14
HETATM   14  C9  UNL     1      -2.515  80.804   5.575  1.00  0.00     0.132 C 
HETATM   15  C10 UNL     1      -1.682  81.810   5.369  1.00  0.00     0.023 C 
BRANCH  15  16
HETATM   16  C11 UNL     1      -2.156  83.233   5.388  1.00  0.00     0.193 C 
BRANCH  16  17
HETATM   17  O2  UNL     1      -3.374  83.288   6.024  1.00  0.00    -0.397 OA
ATOM     18  H2  UNL     1      -3.418  84.088   6.536  1.00  0.00     0.209 HD
ENDBRANCH  16  17
ENDBRANCH  15  16
ENDBRANCH  13  14
ENDBRANCH  12  13
ENDBRANCH   3  12
BRANCH   1  19
HETATM   19  C4  UNL     1      -3.664  75.467   6.079  1.00  0.00     0.032 C 
BRANCH  19  20
HETATM   20  C3  UNL     1      -3.729  74.265   5.125  1.00  0.00     0.002 C 
BRANCH  20  21
HETATM   21  C2  UNL     1      -3.883  74.802   3.720  1.00  0.00    -0.004 C 
HETATM   22  C1  UNL     1      -5.271  75.427   3.632  1.00  0.00     0.005 C 
ENDBRANCH  20  21
ENDBRANCH  19  20
ENDBRANCH   1  19
BRANCH   5  23
HETATM   23  O3  UNL     1       2.152  76.834   8.597  1.00  0.00    -0.395 OA
ATOM     24  H3  UNL     1       1.726  76.646   9.425  1.00  0.00     0.210 HD
ENDBRANCH   5  23
TORSDOF 9
ENDMDL
