MODEL 1
REMARK VINA RESULT: -6.688207332      0.000      0.000
REMARK  8 active torsions:
REMARK  status: ('A' for Active; 'I' for Inactive)
REMARK    1  A    between atoms: C1_2  and  C2_3 
REMARK       I    between atoms: C1_2  and  N2_18 
REMARK    2  A    between atoms: C2_3  and  C3_4 
REMARK    3  A    between atoms: C3_4  and  C4_5 
REMARK    4  A    between atoms: C4_5  and  C5_6 
REMARK    5  A    between atoms: C5_6  and  C6_7 
REMARK    6  A    between atoms: C6_7  and  S1_8 
REMARK    7  A    between atoms: S1_8  and  C7_9 
REMARK    8  A    between atoms: C9_15  and  O3_16 
ROOT
HETATM    1  C5  UNL     1       1.043  75.522   6.077  1.00  0.00     0.010 C 
ENDROOT
BRANCH   1   2
HETATM    2  C4  UNL     1       0.069  76.589   5.597  1.00  0.00     0.001 C 
BRANCH   2   3
HETATM    3  C3  UNL     1      -0.605  77.255   6.783  1.00  0.00     0.009 C 
BRANCH   3   4
HETATM    4  C2  UNL     1      -1.989  76.661   6.982  1.00  0.00     0.103 C 
BRANCH   4   5
HETATM    5  C1  UNL     1      -2.933  77.157   5.946  1.00  0.00     0.219 C 
HETATM    6  O1  UNL     1      -3.042  78.400   5.789  1.00  0.00    -0.273 OA
HETATM    7  N2  UNL     1      -3.704  76.272   5.144  1.00  0.00    -0.352 N 
HETATM    8  C10 UNL     1      -3.637  74.813   5.267  1.00  0.00     0.126 C 
HETATM    9  C13 UNL     1      -4.647  76.650   4.115  1.00  0.00     0.126 C 
HETATM   10  C11 UNL     1      -4.263  74.337   3.951  1.00  0.00     0.021 C 
HETATM   11  C12 UNL     1      -5.371  75.358   3.812  1.00  0.00     0.021 C 
ENDBRANCH   4   5
ENDBRANCH   3   4
ENDBRANCH   2   3
ENDBRANCH   1   2
BRANCH   1  12
HETATM   12  C6  UNL     1       2.268  75.477   5.194  1.00  0.00     0.080 C 
BRANCH  12  13
HETATM   13  S1  UNL     1       3.030  73.836   5.174  1.00  0.00    -0.118 SA
BRANCH  13  14
HETATM   14  C7  UNL     1       3.432  73.424   3.466  1.00  0.00     0.097 A 
HETATM   15  S2  UNL     1       3.632  74.456   2.112  1.00  0.00    -0.018 SA
HETATM   16  C8  UNL     1       3.986  73.264   0.947  1.00  0.00     0.291 A 
HETATM   17  O2  UNL     1       4.242  73.406  -0.303  1.00  0.00    -0.260 OA
HETATM   18  N1  UNL     1       3.936  72.132   1.648  1.00  0.00    -0.296 N 
HETATM   19  C9  UNL     1       3.658  72.192   2.915  1.00  0.00     0.167 A 
ATOM     20  H1  UNL     1       4.111  71.234   1.197  1.00  0.00     0.171 HD
BRANCH  19  21
HETATM   21  O3  UNL     1       3.578  71.046   3.754  1.00  0.00    -0.345 OA
ATOM     22  H3  UNL     1       3.451  70.195   3.351  1.00  0.00     0.219 HD
ENDBRANCH  19  21
ENDBRANCH  13  14
ENDBRANCH  12  13
ENDBRANCH   1  12
TORSDOF 8
ENDMDL
MODEL 2
REMARK VINA RESULT: -6.608019027      5.169      7.463
REMARK  8 active torsions:
REMARK  status: ('A' for Active; 'I' for Inactive)
REMARK    1  A    between atoms: C1_2  and  C2_3 
REMARK       I    between atoms: C1_2  and  N2_18 
REMARK    2  A    between atoms: C2_3  and  C3_4 
REMARK    3  A    between atoms: C3_4  and  C4_5 
REMARK    4  A    between atoms: C4_5  and  C5_6 
REMARK    5  A    between atoms: C5_6  and  C6_7 
REMARK    6  A    between atoms: C6_7  and  S1_8 
REMARK    7  A    between atoms: S1_8  and  C7_9 
REMARK    8  A    between atoms: C9_15  and  O3_16 
ROOT
HETATM    1  C5  UNL     1      -0.294  77.648   5.842  1.00  0.00     0.010 C 
ENDROOT
BRANCH   1   2
HETATM    2  C4  UNL     1      -1.319  78.432   6.650  1.00  0.00     0.001 C 
BRANCH   2   3
HETATM    3  C3  UNL     1      -1.911  79.545   5.804  1.00  0.00     0.009 C 
BRANCH   3   4
HETATM    4  C2  UNL     1      -0.935  80.706   5.733  1.00  0.00     0.103 C 
BRANCH   4   5
HETATM    5  C1  UNL     1      -1.364  81.698   4.711  1.00  0.00     0.219 C 
HETATM    6  O1  UNL     1      -2.557  82.092   4.731  1.00  0.00    -0.273 OA
HETATM    7  N2  UNL     1      -0.469  82.200   3.727  1.00  0.00    -0.352 N 
HETATM    8  C10 UNL     1       0.936  81.790   3.636  1.00  0.00     0.126 C 
HETATM    9  C13 UNL     1      -0.784  83.161   2.694  1.00  0.00     0.126 C 
HETATM   10  C11 UNL     1       1.550  82.893   2.766  1.00  0.00     0.021 C 
HETATM   11  C12 UNL     1       0.420  83.101   1.782  1.00  0.00     0.021 C 
ENDBRANCH   4   5
ENDBRANCH   3   4
ENDBRANCH   2   3
ENDBRANCH   1   2
BRANCH   1  12
HETATM   12  C6  UNL     1      -0.617  76.172   5.854  1.00  0.00     0.080 C 
BRANCH  12  13
HETATM   13  S1  UNL     1      -2.073  75.804   6.863  1.00  0.00    -0.118 SA
BRANCH  13  14
HETATM   14  C7  UNL     1      -3.482  75.593   5.759  1.00  0.00     0.097 A 
HETATM   15  S2  UNL     1      -4.253  76.738   4.742  1.00  0.00    -0.018 SA
HETATM   16  C8  UNL     1      -5.446  75.714   4.084  1.00  0.00     0.291 A 
HETATM   17  O2  UNL     1      -6.364  75.987   3.230  1.00  0.00    -0.260 OA
HETATM   18  N1  UNL     1      -5.200  74.544   4.674  1.00  0.00    -0.296 N 
HETATM   19  C9  UNL     1      -4.217  74.464   5.519  1.00  0.00     0.167 A 
ATOM     20  H1  UNL     1      -5.772  73.727   4.465  1.00  0.00     0.171 HD
BRANCH  19  21
HETATM   21  O3  UNL     1      -3.868  73.266   6.203  1.00  0.00    -0.345 OA
ATOM     22  H3  UNL     1      -3.093  73.266   6.751  1.00  0.00     0.219 HD
ENDBRANCH  19  21
ENDBRANCH  13  14
ENDBRANCH  12  13
ENDBRANCH   1  12
TORSDOF 8
ENDMDL
MODEL 3
REMARK VINA RESULT: -6.592327009      1.272      1.413
REMARK  8 active torsions:
REMARK  status: ('A' for Active; 'I' for Inactive)
REMARK    1  A    between atoms: C1_2  and  C2_3 
REMARK       I    between atoms: C1_2  and  N2_18 
REMARK    2  A    between atoms: C2_3  and  C3_4 
REMARK    3  A    between atoms: C3_4  and  C4_5 
REMARK    4  A    between atoms: C4_5  and  C5_6 
REMARK    5  A    between atoms: C5_6  and  C6_7 
REMARK    6  A    between atoms: C6_7  and  S1_8 
REMARK    7  A    between atoms: S1_8  and  C7_9 
REMARK    8  A    between atoms: C9_15  and  O3_16 
ROOT
HETATM    1  C5  UNL     1       1.351  76.441   5.536  1.00  0.00     0.010 C 
ENDROOT
BRANCH   1   2
HETATM    2  C4  UNL     1      -0.170  76.496   5.476  1.00  0.00     0.001 C 
BRANCH   2   3
HETATM    3  C3  UNL     1      -0.716  77.228   6.688  1.00  0.00     0.009 C 
BRANCH   3   4
HETATM    4  C2  UNL     1      -2.135  76.764   6.968  1.00  0.00     0.103 C 
BRANCH   4   5
HETATM    5  C1  UNL     1      -3.058  77.201   5.887  1.00  0.00     0.219 C 
HETATM    6  O1  UNL     1      -3.189  78.435   5.680  1.00  0.00    -0.273 OA
HETATM    7  N2  UNL     1      -3.786  76.270   5.096  1.00  0.00    -0.352 N 
HETATM    8  C10 UNL     1      -3.690  74.819   5.273  1.00  0.00     0.126 C 
HETATM    9  C13 UNL     1      -4.704  76.590   4.025  1.00  0.00     0.126 C 
HETATM   10  C11 UNL     1      -4.266  74.282   3.958  1.00  0.00     0.021 C 
HETATM   11  C12 UNL     1      -5.391  75.272   3.749  1.00  0.00     0.021 C 
ENDBRANCH   4   5
ENDBRANCH   3   4
ENDBRANCH   2   3
ENDBRANCH   1   2
BRANCH   1  12
HETATM   12  C6  UNL     1       1.814  75.200   6.262  1.00  0.00     0.080 C 
BRANCH  12  13
HETATM   13  S1  UNL     1       3.561  74.845   5.952  1.00  0.00    -0.118 SA
BRANCH  13  14
HETATM   14  C7  UNL     1       3.657  73.499   4.756  1.00  0.00     0.097 A 
HETATM   15  S2  UNL     1       3.414  73.527   3.059  1.00  0.00    -0.018 SA
HETATM   16  C8  UNL     1       3.694  71.875   2.746  1.00  0.00     0.291 A 
HETATM   17  O2  UNL     1       3.660  71.248   1.627  1.00  0.00    -0.260 OA
HETATM   18  N1  UNL     1       3.960  71.380   3.954  1.00  0.00    -0.296 N 
HETATM   19  C9  UNL     1       3.946  72.180   4.977  1.00  0.00     0.167 A 
ATOM     20  H1  UNL     1       4.171  70.389   4.074  1.00  0.00     0.171 HD
BRANCH  19  21
HETATM   21  O3  UNL     1       4.215  71.755   6.308  1.00  0.00    -0.345 OA
ATOM     22  H3  UNL     1       4.442  72.411   6.957  1.00  0.00     0.219 HD
ENDBRANCH  19  21
ENDBRANCH  13  14
ENDBRANCH  12  13
ENDBRANCH   1  12
TORSDOF 8
ENDMDL
MODEL 4
REMARK VINA RESULT: -6.547625781      4.274      5.215
REMARK  8 active torsions:
REMARK  status: ('A' for Active; 'I' for Inactive)
REMARK    1  A    between atoms: C1_2  and  C2_3 
REMARK       I    between atoms: C1_2  and  N2_18 
REMARK    2  A    between atoms: C2_3  and  C3_4 
REMARK    3  A    between atoms: C3_4  and  C4_5 
REMARK    4  A    between atoms: C4_5  and  C5_6 
REMARK    5  A    between atoms: C5_6  and  C6_7 
REMARK    6  A    between atoms: C6_7  and  S1_8 
REMARK    7  A    between atoms: S1_8  and  C7_9 
REMARK    8  A    between atoms: C9_15  and  O3_16 
ROOT
HETATM    1  C5  UNL     1       0.208  80.368   5.923  1.00  0.00     0.010 C 
ENDROOT
BRANCH   1   2
HETATM    2  C4  UNL     1      -1.280  80.054   5.862  1.00  0.00     0.001 C 
BRANCH   2   3
HETATM    3  C3  UNL     1      -1.535  78.631   6.325  1.00  0.00     0.009 C 
BRANCH   3   4
HETATM    4  C2  UNL     1      -2.908  78.181   5.857  1.00  0.00     0.103 C 
BRANCH   4   5
HETATM    5  C1  UNL     1      -3.073  76.713   6.030  1.00  0.00     0.219 C 
HETATM    6  O1  UNL     1      -2.495  76.162   7.001  1.00  0.00    -0.273 OA
HETATM    7  N2  UNL     1      -3.854  75.932   5.135  1.00  0.00    -0.352 N 
HETATM    8  C10 UNL     1      -4.556  76.498   3.979  1.00  0.00     0.126 C 
HETATM    9  C13 UNL     1      -4.076  74.506   5.214  1.00  0.00     0.126 C 
HETATM   10  C11 UNL     1      -5.567  75.399   3.631  1.00  0.00     0.021 C 
HETATM   11  C12 UNL     1      -4.711  74.177   3.882  1.00  0.00     0.021 C 
ENDBRANCH   4   5
ENDBRANCH   3   4
ENDBRANCH   2   3
ENDBRANCH   1   2
BRANCH   1  12
HETATM   12  C6  UNL     1       0.845  79.717   7.128  1.00  0.00     0.080 C 
BRANCH  12  13
HETATM   13  S1  UNL     1       2.040  78.442   6.659  1.00  0.00    -0.118 SA
BRANCH  13  14
HETATM   14  C7  UNL     1       1.687  76.960   7.622  1.00  0.00     0.097 A 
HETATM   15  S2  UNL     1       2.149  76.563   9.224  1.00  0.00    -0.018 SA
HETATM   16  C8  UNL     1       1.410  75.030   9.318  1.00  0.00     0.291 A 
HETATM   17  O2  UNL     1       1.393  74.199  10.296  1.00  0.00    -0.260 OA
HETATM   18  N1  UNL     1       0.844  74.893   8.119  1.00  0.00    -0.296 N 
HETATM   19  C9  UNL     1       0.972  75.852   7.253  1.00  0.00     0.167 A 
ATOM     20  H1  UNL     1       0.319  74.050   7.886  1.00  0.00     0.171 HD
BRANCH  19  21
HETATM   21  O3  UNL     1       0.410  75.808   5.947  1.00  0.00    -0.345 OA
ATOM     22  H3  UNL     1      -0.224  75.130   5.748  1.00  0.00     0.219 HD
ENDBRANCH  19  21
ENDBRANCH  13  14
ENDBRANCH  12  13
ENDBRANCH   1  12
TORSDOF 8
ENDMDL
MODEL 5
REMARK VINA RESULT: -6.544947797      2.971      7.738
REMARK  8 active torsions:
REMARK  status: ('A' for Active; 'I' for Inactive)
REMARK    1  A    between atoms: C1_2  and  C2_3 
REMARK       I    between atoms: C1_2  and  N2_18 
REMARK    2  A    between atoms: C2_3  and  C3_4 
REMARK    3  A    between atoms: C3_4  and  C4_5 
REMARK    4  A    between atoms: C4_5  and  C5_6 
REMARK    5  A    between atoms: C5_6  and  C6_7 
REMARK    6  A    between atoms: C6_7  and  S1_8 
REMARK    7  A    between atoms: S1_8  and  C7_9 
REMARK    8  A    between atoms: C9_15  and  O3_16 
ROOT
HETATM    1  C5  UNL     1       0.655  76.108   5.766  1.00  0.00     0.010 C 
ENDROOT
BRANCH   1   2
HETATM    2  C4  UNL     1       0.712  74.960   6.764  1.00  0.00     0.001 C 
BRANCH   2   3
HETATM    3  C3  UNL     1       1.820  73.993   6.389  1.00  0.00     0.009 C 
BRANCH   3   4
HETATM    4  C2  UNL     1       2.718  74.629   5.341  1.00  0.00     0.103 C 
BRANCH   4   5
HETATM    5  C1  UNL     1       3.066  73.649   4.277  1.00  0.00     0.219 C 
HETATM    6  O1  UNL     1       3.069  72.427   4.573  1.00  0.00    -0.273 OA
HETATM    7  N2  UNL     1       3.390  74.058   2.954  1.00  0.00    -0.352 N 
HETATM    8  C10 UNL     1       3.410  75.461   2.530  1.00  0.00     0.126 C 
HETATM    9  C13 UNL     1       3.741  73.191   1.852  1.00  0.00     0.126 C 
HETATM   10  C11 UNL     1       3.361  75.349   1.002  1.00  0.00     0.021 C 
HETATM   11  C12 UNL     1       4.262  74.149   0.805  1.00  0.00     0.021 C 
ENDBRANCH   4   5
ENDBRANCH   3   4
ENDBRANCH   2   3
ENDBRANCH   1   2
BRANCH   1  12
HETATM   12  C6  UNL     1      -0.732  76.704   5.711  1.00  0.00     0.080 C 
BRANCH  12  13
HETATM   13  S1  UNL     1      -1.927  75.728   6.656  1.00  0.00    -0.118 SA
BRANCH  13  14
HETATM   14  C7  UNL     1      -3.407  75.523   5.648  1.00  0.00     0.097 A 
HETATM   15  S2  UNL     1      -4.206  76.654   4.639  1.00  0.00    -0.018 SA
HETATM   16  C8  UNL     1      -5.466  75.646   4.092  1.00  0.00     0.291 A 
HETATM   17  O2  UNL     1      -6.427  75.918   3.286  1.00  0.00    -0.260 OA
HETATM   18  N1  UNL     1      -5.217  74.490   4.707  1.00  0.00    -0.296 N 
HETATM   19  C9  UNL     1      -4.187  74.409   5.493  1.00  0.00     0.167 A 
ATOM     20  H1  UNL     1      -5.825  73.684   4.563  1.00  0.00     0.171 HD
BRANCH  19  21
HETATM   21  O3  UNL     1      -3.831  73.225   6.198  1.00  0.00    -0.345 OA
ATOM     22  H3  UNL     1      -2.923  72.948   6.191  1.00  0.00     0.219 HD
ENDBRANCH  19  21
ENDBRANCH  13  14
ENDBRANCH  12  13
ENDBRANCH   1  12
TORSDOF 8
ENDMDL
