MODEL 1
REMARK VINA RESULT: -6.794199327      0.000      0.000
REMARK  10 active torsions:
REMARK  status: ('A' for Active; 'I' for Inactive)
REMARK    1  A    between atoms: C2_2  and  C3_3 
REMARK    2  A    between atoms: C3_3  and  C4_4 
REMARK    3  A    between atoms: C3_3  and  C8_10 
REMARK    4  A    between atoms: C4_4  and  C5_5 
REMARK    5  A    between atoms: C5_5  and  C6_6 
REMARK    6  A    between atoms: C6_6  and  O2_8 
REMARK    7  A    between atoms: C8_10  and  C9_12 
REMARK    8  A    between atoms: C9_12  and  C11_14 
REMARK    9  A    between atoms: C17_20  and  O4_21 
REMARK   10  A    between atoms: C18_23  and  O5_24 
ROOT
HETATM    1  C9  UNL     1       0.262  75.926   7.040  1.00  0.00     0.058 C 
HETATM    2  C10 UNL     1       0.257  75.412   8.429  1.00  0.00     0.018 C 
ENDROOT
BRANCH   1   3
HETATM    3  C8  UNL     1      -1.084  75.923   6.448  1.00  0.00     0.135 C 
HETATM    4  O3  UNL     1      -1.736  74.922   6.231  1.00  0.00    -0.297 OA
BRANCH   3   5
HETATM    5  C3  UNL     1      -1.745  77.206   6.068  1.00  0.00     0.056 C 
BRANCH   5   6
HETATM    6  C2  UNL     1      -1.039  78.338   6.724  1.00  0.00     0.007 C 
HETATM    7  C1  UNL     1      -1.077  79.665   6.033  1.00  0.00     0.006 C 
ENDBRANCH   5   6
BRANCH   5   8
HETATM    8  C4  UNL     1      -3.205  77.098   6.210  1.00  0.00     0.022 C 
BRANCH   8   9
HETATM    9  C5  UNL     1      -4.091  77.640   5.154  1.00  0.00     0.112 C 
BRANCH   9  10
HETATM   10  C6  UNL     1      -4.556  76.485   4.295  1.00  0.00     0.258 C 
HETATM   11  O1  UNL     1      -4.786  76.604   3.071  1.00  0.00    -0.265 OA
BRANCH  10  12
HETATM   12  O2  UNL     1      -4.733  75.252   4.892  1.00  0.00    -0.326 OA
HETATM   13  C7  UNL     1      -4.329  74.089   4.186  1.00  0.00     0.213 C 
ENDBRANCH  10  12
ENDBRANCH   9  10
ENDBRANCH   8   9
ENDBRANCH   5   8
ENDBRANCH   3   5
ENDBRANCH   1   3
BRANCH   1  14
HETATM   14  C11 UNL     1       1.269  75.282   6.126  1.00  0.00     0.033 C 
HETATM   15  C12 UNL     1       2.297  74.414   6.720  1.00  0.00     0.022 C 
HETATM   16  C13 UNL     1       2.532  73.276   5.702  1.00  0.00     0.009 C 
HETATM   17  C17 UNL     1       3.652  75.116   6.471  1.00  0.00     0.133 C 
HETATM   18  C14 UNL     1       2.946  74.130   4.488  1.00  0.00     0.015 C 
HETATM   19  C15 UNL     1       3.306  75.484   5.021  1.00  0.00     0.009 C 
HETATM   20  C16 UNL     1       4.351  76.208   4.307  1.00  0.00     0.020 C 
HETATM   21  C18 UNL     1       2.022  76.248   5.272  1.00  0.00     0.134 C 
BRANCH  21  22
HETATM   22  O5  UNL     1       2.214  77.494   5.791  1.00  0.00    -0.394 OA
ATOM     23  H5  UNL     1       1.938  78.224   5.249  1.00  0.00     0.210 HD
ENDBRANCH  21  22
BRANCH  17  24
HETATM   24  O4  UNL     1       4.642  74.135   6.501  1.00  0.00    -0.394 OA
ATOM     25  H4  UNL     1       4.252  73.348   6.863  1.00  0.00     0.210 HD
ENDBRANCH  17  24
ENDBRANCH   1  14
TORSDOF 10
ENDMDL
MODEL 2
REMARK VINA RESULT: -6.547652460      1.298      1.516
REMARK  10 active torsions:
REMARK  status: ('A' for Active; 'I' for Inactive)
REMARK    1  A    between atoms: C2_2  and  C3_3 
REMARK    2  A    between atoms: C3_3  and  C4_4 
REMARK    3  A    between atoms: C3_3  and  C8_10 
REMARK    4  A    between atoms: C4_4  and  C5_5 
REMARK    5  A    between atoms: C5_5  and  C6_6 
REMARK    6  A    between atoms: C6_6  and  O2_8 
REMARK    7  A    between atoms: C8_10  and  C9_12 
REMARK    8  A    between atoms: C9_12  and  C11_14 
REMARK    9  A    between atoms: C17_20  and  O4_21 
REMARK   10  A    between atoms: C18_23  and  O5_24 
ROOT
HETATM    1  C9  UNL     1       1.002  77.012   7.355  1.00  0.00     0.058 C 
HETATM    2  C10 UNL     1       1.635  77.476   8.611  1.00  0.00     0.018 C 
ENDROOT
BRANCH   1   3
HETATM    3  C8  UNL     1      -0.464  76.985   7.456  1.00  0.00     0.135 C 
HETATM    4  O3  UNL     1      -1.079  76.502   8.384  1.00  0.00    -0.297 OA
BRANCH   3   5
HETATM    5  C3  UNL     1      -1.307  77.575   6.374  1.00  0.00     0.056 C 
BRANCH   5   6
HETATM    6  C2  UNL     1      -1.128  79.050   6.358  1.00  0.00     0.007 C 
HETATM    7  C1  UNL     1      -2.150  79.860   5.626  1.00  0.00     0.006 C 
ENDBRANCH   5   6
BRANCH   5   8
HETATM    8  C4  UNL     1      -2.670  77.023   6.421  1.00  0.00     0.022 C 
BRANCH   8   9
HETATM    9  C5  UNL     1      -3.158  76.169   5.314  1.00  0.00     0.112 C 
BRANCH   9  10
HETATM   10  C6  UNL     1      -4.367  76.841   4.701  1.00  0.00     0.258 C 
HETATM   11  O1  UNL     1      -5.043  77.700   5.311  1.00  0.00    -0.265 OA
BRANCH  10  12
HETATM   12  O2  UNL     1      -4.735  76.489   3.418  1.00  0.00    -0.326 OA
HETATM   13  C7  UNL     1      -5.411  75.258   3.216  1.00  0.00     0.213 C 
ENDBRANCH  10  12
ENDBRANCH   9  10
ENDBRANCH   8   9
ENDBRANCH   5   8
ENDBRANCH   3   5
ENDBRANCH   1   3
BRANCH   1  14
HETATM   14  C11 UNL     1       1.543  75.718   6.809  1.00  0.00     0.033 C 
HETATM   15  C12 UNL     1       2.824  75.220   7.332  1.00  0.00     0.022 C 
HETATM   16  C13 UNL     1       2.697  73.681   7.373  1.00  0.00     0.009 C 
HETATM   17  C17 UNL     1       3.818  75.255   6.148  1.00  0.00     0.133 C 
HETATM   18  C14 UNL     1       2.400  73.431   5.882  1.00  0.00     0.015 C 
HETATM   19  C15 UNL     1       2.800  74.677   5.152  1.00  0.00     0.009 C 
HETATM   20  C16 UNL     1       3.304  74.503   3.795  1.00  0.00     0.020 C 
HETATM   21  C18 UNL     1       1.696  75.700   5.324  1.00  0.00     0.134 C 
BRANCH  21  22
HETATM   22  O5  UNL     1       1.956  76.899   4.727  1.00  0.00    -0.394 OA
ATOM     23  H5  UNL     1       2.367  76.863   3.871  1.00  0.00     0.210 HD
ENDBRANCH  21  22
BRANCH  17  24
HETATM   24  O4  UNL     1       4.819  74.321   6.416  1.00  0.00    -0.394 OA
ATOM     25  H4  UNL     1       5.649  74.721   6.184  1.00  0.00     0.210 HD
ENDBRANCH  17  24
ENDBRANCH   1  14
TORSDOF 10
ENDMDL
MODEL 3
REMARK VINA RESULT: -6.277421407      1.755      2.510
REMARK  10 active torsions:
REMARK  status: ('A' for Active; 'I' for Inactive)
REMARK    1  A    between atoms: C2_2  and  C3_3 
REMARK    2  A    between atoms: C3_3  and  C4_4 
REMARK    3  A    between atoms: C3_3  and  C8_10 
REMARK    4  A    between atoms: C4_4  and  C5_5 
REMARK    5  A    between atoms: C5_5  and  C6_6 
REMARK    6  A    between atoms: C6_6  and  O2_8 
REMARK    7  A    between atoms: C8_10  and  C9_12 
REMARK    8  A    between atoms: C9_12  and  C11_14 
REMARK    9  A    between atoms: C17_20  and  O4_21 
REMARK   10  A    between atoms: C18_23  and  O5_24 
ROOT
HETATM    1  C9  UNL     1       0.202  75.792   6.513  1.00  0.00     0.058 C 
HETATM    2  C10 UNL     1       0.918  76.646   5.536  1.00  0.00     0.018 C 
ENDROOT
BRANCH   1   3
HETATM    3  C8  UNL     1      -0.998  76.454   7.044  1.00  0.00     0.135 C 
HETATM    4  O3  UNL     1      -1.494  76.212   8.126  1.00  0.00    -0.297 OA
BRANCH   3   5
HETATM    5  C3  UNL     1      -1.700  77.503   6.245  1.00  0.00     0.056 C 
BRANCH   5   6
HETATM    6  C2  UNL     1      -1.188  78.843   6.635  1.00  0.00     0.007 C 
HETATM    7  C1  UNL     1      -1.455  79.979   5.699  1.00  0.00     0.006 C 
ENDBRANCH   5   6
BRANCH   5   8
HETATM    8  C4  UNL     1      -3.151  77.267   6.242  1.00  0.00     0.022 C 
BRANCH   8   9
HETATM    9  C5  UNL     1      -3.973  77.745   5.106  1.00  0.00     0.112 C 
BRANCH   9  10
HETATM   10  C6  UNL     1      -4.454  76.535   4.335  1.00  0.00     0.258 C 
HETATM   11  O1  UNL     1      -4.827  76.601   3.142  1.00  0.00    -0.265 OA
BRANCH  10  12
HETATM   12  O2  UNL     1      -4.481  75.314   4.978  1.00  0.00    -0.326 OA
HETATM   13  C7  UNL     1      -3.976  74.175   4.299  1.00  0.00     0.213 C 
ENDBRANCH  10  12
ENDBRANCH   9  10
ENDBRANCH   8   9
ENDBRANCH   5   8
ENDBRANCH   3   5
ENDBRANCH   1   3
BRANCH   1  14
HETATM   14  C11 UNL     1       1.057  75.231   7.616  1.00  0.00     0.033 C 
HETATM   15  C12 UNL     1       2.199  76.028   8.089  1.00  0.00     0.022 C 
HETATM   16  C13 UNL     1       2.293  75.776   9.610  1.00  0.00     0.009 C 
HETATM   17  C17 UNL     1       3.468  75.221   7.728  1.00  0.00     0.133 C 
HETATM   18  C14 UNL     1       2.464  74.245   9.584  1.00  0.00     0.015 C 
HETATM   19  C15 UNL     1       2.866  73.884   8.185  1.00  0.00     0.009 C 
HETATM   20  C16 UNL     1       3.749  72.734   8.038  1.00  0.00     0.020 C 
HETATM   21  C18 UNL     1       1.620  73.880   7.323  1.00  0.00     0.134 C 
BRANCH  21  22
HETATM   22  O5  UNL     1       1.859  73.594   6.011  1.00  0.00    -0.394 OA
ATOM     23  H5  UNL     1       2.752  73.708   5.710  1.00  0.00     0.210 HD
ENDBRANCH  21  22
BRANCH  17  24
HETATM   24  O4  UNL     1       4.480  75.622   8.599  1.00  0.00    -0.394 OA
ATOM     25  H4  UNL     1       4.251  75.306   9.465  1.00  0.00     0.210 HD
ENDBRANCH  17  24
ENDBRANCH   1  14
TORSDOF 10
ENDMDL
MODEL 4
REMARK VINA RESULT: -6.264584093      1.975      2.714
REMARK  10 active torsions:
REMARK  status: ('A' for Active; 'I' for Inactive)
REMARK    1  A    between atoms: C2_2  and  C3_3 
REMARK    2  A    between atoms: C3_3  and  C4_4 
REMARK    3  A    between atoms: C3_3  and  C8_10 
REMARK    4  A    between atoms: C4_4  and  C5_5 
REMARK    5  A    between atoms: C5_5  and  C6_6 
REMARK    6  A    between atoms: C6_6  and  O2_8 
REMARK    7  A    between atoms: C8_10  and  C9_12 
REMARK    8  A    between atoms: C9_12  and  C11_14 
REMARK    9  A    between atoms: C17_20  and  O4_21 
REMARK   10  A    between atoms: C18_23  and  O5_24 
ROOT
HETATM    1  C9  UNL     1      -0.384  76.615   7.625  1.00  0.00     0.058 C 
HETATM    2  C10 UNL     1      -1.437  75.704   8.129  1.00  0.00     0.018 C 
ENDROOT
BRANCH   1   3
HETATM    3  C8  UNL     1      -0.590  76.965   6.212  1.00  0.00     0.135 C 
HETATM    4  O3  UNL     1       0.042  76.494   5.288  1.00  0.00    -0.297 OA
BRANCH   3   5
HETATM    5  C3  UNL     1      -1.633  77.961   5.825  1.00  0.00     0.056 C 
BRANCH   5   6
HETATM    6  C2  UNL     1      -1.219  79.313   6.285  1.00  0.00     0.007 C 
HETATM    7  C1  UNL     1      -1.761  80.489   5.537  1.00  0.00     0.006 C 
ENDBRANCH   5   6
BRANCH   5   8
HETATM    8  C4  UNL     1      -2.974  77.469   6.175  1.00  0.00     0.022 C 
BRANCH   8   9
HETATM    9  C5  UNL     1      -4.107  77.696   5.248  1.00  0.00     0.112 C 
BRANCH   9  10
HETATM   10  C6  UNL     1      -4.191  76.511   4.312  1.00  0.00     0.258 C 
HETATM   11  O1  UNL     1      -4.790  76.560   3.214  1.00  0.00    -0.265 OA
BRANCH  10  12
HETATM   12  O2  UNL     1      -3.582  75.331   4.689  1.00  0.00    -0.326 OA
HETATM   13  C7  UNL     1      -4.395  74.250   5.117  1.00  0.00     0.213 C 
ENDBRANCH  10  12
ENDBRANCH   9  10
ENDBRANCH   8   9
ENDBRANCH   5   8
ENDBRANCH   3   5
ENDBRANCH   1   3
BRANCH   1  14
HETATM   14  C11 UNL     1       1.028  76.160   7.880  1.00  0.00     0.033 C 
HETATM   15  C12 UNL     1       1.271  74.726   8.096  1.00  0.00     0.022 C 
HETATM   16  C13 UNL     1       2.638  74.423   7.444  1.00  0.00     0.009 C 
HETATM   17  C17 UNL     1       1.770  74.587   9.554  1.00  0.00     0.133 C 
HETATM   18  C14 UNL     1       3.505  75.414   8.245  1.00  0.00     0.015 C 
HETATM   19  C15 UNL     1       2.705  75.802   9.452  1.00  0.00     0.009 C 
HETATM   20  C16 UNL     1       3.457  76.097  10.664  1.00  0.00     0.020 C 
HETATM   21  C18 UNL     1       1.690  76.844   9.030  1.00  0.00     0.134 C 
BRANCH  21  22
HETATM   22  O5  UNL     1       0.873  77.260  10.040  1.00  0.00    -0.394 OA
ATOM     23  H5  UNL     1      -0.027  77.451   9.803  1.00  0.00     0.210 HD
ENDBRANCH  21  22
BRANCH  17  24
HETATM   24  O4  UNL     1       2.511  73.409   9.631  1.00  0.00    -0.394 OA
ATOM     25  H4  UNL     1       1.916  72.687   9.463  1.00  0.00     0.210 HD
ENDBRANCH  17  24
ENDBRANCH   1  14
TORSDOF 10
ENDMDL
MODEL 5
REMARK VINA RESULT: -6.189376560      1.674      2.540
REMARK  10 active torsions:
REMARK  status: ('A' for Active; 'I' for Inactive)
REMARK    1  A    between atoms: C2_2  and  C3_3 
REMARK    2  A    between atoms: C3_3  and  C4_4 
REMARK    3  A    between atoms: C3_3  and  C8_10 
REMARK    4  A    between atoms: C4_4  and  C5_5 
REMARK    5  A    between atoms: C5_5  and  C6_6 
REMARK    6  A    between atoms: C6_6  and  O2_8 
REMARK    7  A    between atoms: C8_10  and  C9_12 
REMARK    8  A    between atoms: C9_12  and  C11_14 
REMARK    9  A    between atoms: C17_20  and  O4_21 
REMARK   10  A    between atoms: C18_23  and  O5_24 
ROOT
HETATM    1  C9  UNL     1       0.925  75.127   6.195  1.00  0.00     0.058 C 
HETATM    2  C10 UNL     1       1.444  76.232   5.356  1.00  0.00     0.018 C 
ENDROOT
BRANCH   1   3
HETATM    3  C8  UNL     1      -0.296  75.511   6.917  1.00  0.00     0.135 C 
HETATM    4  O3  UNL     1      -0.611  75.084   8.010  1.00  0.00    -0.297 OA
BRANCH   3   5
HETATM    5  C3  UNL     1      -1.253  76.487   6.317  1.00  0.00     0.056 C 
BRANCH   5   6
HETATM    6  C2  UNL     1      -1.127  77.794   7.016  1.00  0.00     0.007 C 
HETATM    7  C1  UNL     1      -1.359  79.030   6.207  1.00  0.00     0.006 C 
ENDBRANCH   5   6
BRANCH   5   8
HETATM    8  C4  UNL     1      -2.586  75.883   6.172  1.00  0.00     0.022 C 
BRANCH   8   9
HETATM    9  C5  UNL     1      -3.114  75.577   4.823  1.00  0.00     0.112 C 
BRANCH   9  10
HETATM   10  C6  UNL     1      -4.188  76.592   4.498  1.00  0.00     0.258 C 
HETATM   11  O1  UNL     1      -4.430  77.576   5.233  1.00  0.00    -0.265 OA
BRANCH  10  12
HETATM   12  O2  UNL     1      -4.927  76.421   3.345  1.00  0.00    -0.326 OA
HETATM   13  C7  UNL     1      -5.932  75.420   3.322  1.00  0.00     0.213 C 
ENDBRANCH  10  12
ENDBRANCH   9  10
ENDBRANCH   8   9
ENDBRANCH   5   8
ENDBRANCH   3   5
ENDBRANCH   1   3
BRANCH   1  14
HETATM   14  C11 UNL     1       1.936  74.498   7.115  1.00  0.00     0.033 C 
HETATM   15  C12 UNL     1       3.071  75.316   7.570  1.00  0.00     0.022 C 
HETATM   16  C13 UNL     1       3.355  74.879   9.024  1.00  0.00     0.009 C 
HETATM   17  C17 UNL     1       4.340  74.665   6.970  1.00  0.00     0.133 C 
HETATM   18  C14 UNL     1       3.621  73.382   8.771  1.00  0.00     0.015 C 
HETATM   19  C15 UNL     1       3.882  73.237   7.302  1.00  0.00     0.009 C 
HETATM   20  C16 UNL     1       4.815  72.189   6.907  1.00  0.00     0.020 C 
HETATM   21  C18 UNL     1       2.548  73.245   6.583  1.00  0.00     0.134 C 
BRANCH  21  22
HETATM   22  O5  UNL     1       2.652  73.149   5.227  1.00  0.00    -0.394 OA
ATOM     23  H5  UNL     1       2.786  73.963   4.756  1.00  0.00     0.210 HD
ENDBRANCH  21  22
BRANCH  17  24
HETATM   24  O4  UNL     1       5.417  75.030   7.777  1.00  0.00    -0.394 OA
ATOM     25  H4  UNL     1       5.496  75.976   7.734  1.00  0.00     0.210 HD
ENDBRANCH  17  24
ENDBRANCH   1  14
TORSDOF 10
ENDMDL
