MODEL 1
REMARK VINA RESULT: -6.956396520      0.000      0.000
REMARK  9 active torsions:
REMARK  status: ('A' for Active; 'I' for Inactive)
REMARK    1  A    between atoms: O1_2  and  C2_3 
REMARK    2  A    between atoms: C2_3  and  C3_5 
REMARK    3  A    between atoms: C3_5  and  C6_8 
REMARK    4  A    between atoms: C8_10  and  C9_11 
REMARK    5  A    between atoms: C9_11  and  C11_14 
REMARK    6  A    between atoms: C11_14  and  O3_15 
REMARK    7  A    between atoms: C11_14  and  N2_17 
REMARK    8  A    between atoms: N2_17  and  C12_19 
REMARK    9  A    between atoms: C12_19  and  C13_20 
ROOT
HETATM    1  C9  UNL     1       0.076  77.636   7.220  1.00  0.00     0.145 C 
HETATM    2  C10 UNL     1       1.140  76.797   6.586  1.00  0.00     0.068 C 
HETATM    3  N1  UNL     1       1.966  76.162   6.069  1.00  0.00    -0.197 NA
ENDROOT
BRANCH   1   4
HETATM    4  C8  UNL     1      -0.119  78.757   6.229  1.00  0.00     0.013 A 
HETATM    5  C6  UNL     1      -0.425  80.140   6.557  1.00  0.00     0.009 A 
HETATM    6  C7  UNL     1      -1.483  79.246   5.897  1.00  0.00     0.012 A 
BRANCH   5   7
HETATM    7  C3  UNL     1       0.168  81.226   5.655  1.00  0.00     0.045 C 
HETATM    8  C4  UNL     1       0.905  82.209   6.513  1.00  0.00     0.026 C 
HETATM    9  C5  UNL     1       1.106  80.645   4.641  1.00  0.00     0.026 C 
BRANCH   7  10
HETATM   10  C2  UNL     1      -0.929  81.904   4.947  1.00  0.00     0.266 C 
HETATM   11  O2  UNL     1      -1.099  81.802   3.687  1.00  0.00    -0.264 OA
BRANCH  10  12
HETATM   12  O1  UNL     1      -1.812  82.686   5.688  1.00  0.00    -0.326 OA
HETATM   13  C1  UNL     1      -3.191  82.365   5.634  1.00  0.00     0.213 C 
ENDBRANCH  10  12
ENDBRANCH   7  10
ENDBRANCH   5   7
ENDBRANCH   1   4
BRANCH   1  14
HETATM   14  C11 UNL     1      -1.136  76.800   7.430  1.00  0.00     0.231 C 
BRANCH  14  15
HETATM   15  O3  UNL     1      -0.902  76.185   8.724  1.00  0.00    -0.376 OA
ATOM     16  H3  UNL     1      -1.473  75.425   8.714  1.00  0.00     0.212 HD
ENDBRANCH  14  15
BRANCH  14  17
HETATM   17  N2  UNL     1      -1.244  75.647   6.589  1.00  0.00    -0.395 N 
ATOM     18  H2  UNL     1      -0.676  74.823   6.789  1.00  0.00     0.155 HD
BRANCH  17  19
HETATM   19  C12 UNL     1      -2.114  75.631   5.501  1.00  0.00     0.120 C 
BRANCH  19  20
HETATM   20  C13 UNL     1      -3.570  75.523   5.985  1.00  0.00     0.003 C 
HETATM   21  C14 UNL     1      -4.166  74.218   5.448  1.00  0.00     0.006 C 
HETATM   22  C15 UNL     1      -4.475  74.299   3.985  1.00  0.00     0.000 C 
HETATM   23  C16 UNL     1      -5.378  75.478   3.711  1.00  0.00     0.000 C 
HETATM   24  C17 UNL     1      -4.566  76.738   4.047  1.00  0.00     0.000 C 
HETATM   25  C18 UNL     1      -4.398  76.683   5.561  1.00  0.00     0.006 C 
ENDBRANCH  19  20
ENDBRANCH  17  19
ENDBRANCH  14  17
ENDBRANCH   1  14
TORSDOF 9
ENDMDL
MODEL 2
REMARK VINA RESULT: -6.771260047      0.974      1.765
REMARK  9 active torsions:
REMARK  status: ('A' for Active; 'I' for Inactive)
REMARK    1  A    between atoms: O1_2  and  C2_3 
REMARK    2  A    between atoms: C2_3  and  C3_5 
REMARK    3  A    between atoms: C3_5  and  C6_8 
REMARK    4  A    between atoms: C8_10  and  C9_11 
REMARK    5  A    between atoms: C9_11  and  C11_14 
REMARK    6  A    between atoms: C11_14  and  O3_15 
REMARK    7  A    between atoms: C11_14  and  N2_17 
REMARK    8  A    between atoms: N2_17  and  C12_19 
REMARK    9  A    between atoms: C12_19  and  C13_20 
ROOT
HETATM    1  C9  UNL     1       0.055  77.663   7.086  1.00  0.00     0.145 C 
HETATM    2  C10 UNL     1       1.067  76.828   6.369  1.00  0.00     0.068 C 
HETATM    3  N1  UNL     1       1.852  76.196   5.787  1.00  0.00    -0.197 NA
ENDROOT
BRANCH   1   4
HETATM    4  C8  UNL     1      -0.232  78.777   6.109  1.00  0.00     0.013 A 
HETATM    5  C6  UNL     1      -0.503  80.163   6.453  1.00  0.00     0.009 A 
HETATM    6  C7  UNL     1      -1.621  79.266   5.904  1.00  0.00     0.012 A 
BRANCH   5   7
HETATM    7  C3  UNL     1       0.003  81.240   5.490  1.00  0.00     0.045 C 
HETATM    8  C4  UNL     1       1.226  80.724   4.795  1.00  0.00     0.026 C 
HETATM    9  C5  UNL     1      -1.037  81.599   4.472  1.00  0.00     0.026 C 
BRANCH   7  10
HETATM   10  C2  UNL     1       0.339  82.446   6.264  1.00  0.00     0.266 C 
HETATM   11  O2  UNL     1      -0.543  83.287   6.640  1.00  0.00    -0.264 OA
BRANCH  10  12
HETATM   12  O1  UNL     1       1.673  82.670   6.595  1.00  0.00    -0.326 OA
HETATM   13  C1  UNL     1       2.019  82.725   7.967  1.00  0.00     0.213 C 
ENDBRANCH  10  12
ENDBRANCH   7  10
ENDBRANCH   5   7
ENDBRANCH   1   4
BRANCH   1  14
HETATM   14  C11 UNL     1      -1.128  76.820   7.403  1.00  0.00     0.231 C 
BRANCH  14  15
HETATM   15  O3  UNL     1      -0.792  76.233   8.687  1.00  0.00    -0.376 OA
ATOM     16  H3  UNL     1      -1.515  76.493   9.245  1.00  0.00     0.212 HD
ENDBRANCH  14  15
BRANCH  14  17
HETATM   17  N2  UNL     1      -1.286  75.649   6.595  1.00  0.00    -0.395 N 
ATOM     18  H2  UNL     1      -0.759  74.806   6.823  1.00  0.00     0.155 HD
BRANCH  17  19
HETATM   19  C12 UNL     1      -2.151  75.643   5.502  1.00  0.00     0.120 C 
BRANCH  19  20
HETATM   20  C13 UNL     1      -3.610  75.540   5.977  1.00  0.00     0.003 C 
HETATM   21  C14 UNL     1      -4.200  74.225   5.456  1.00  0.00     0.006 C 
HETATM   22  C15 UNL     1      -4.498  74.283   3.990  1.00  0.00     0.000 C 
HETATM   23  C16 UNL     1      -5.401  75.456   3.691  1.00  0.00     0.000 C 
HETATM   24  C17 UNL     1      -4.594  76.723   4.014  1.00  0.00     0.000 C 
HETATM   25  C18 UNL     1      -4.437  76.691   5.530  1.00  0.00     0.006 C 
ENDBRANCH  19  20
ENDBRANCH  17  19
ENDBRANCH  14  17
ENDBRANCH   1  14
TORSDOF 9
ENDMDL
MODEL 3
REMARK VINA RESULT: -6.667517285      3.549      4.901
REMARK  9 active torsions:
REMARK  status: ('A' for Active; 'I' for Inactive)
REMARK    1  A    between atoms: O1_2  and  C2_3 
REMARK    2  A    between atoms: C2_3  and  C3_5 
REMARK    3  A    between atoms: C3_5  and  C6_8 
REMARK    4  A    between atoms: C8_10  and  C9_11 
REMARK    5  A    between atoms: C9_11  and  C11_14 
REMARK    6  A    between atoms: C11_14  and  O3_15 
REMARK    7  A    between atoms: C11_14  and  N2_17 
REMARK    8  A    between atoms: N2_17  and  C12_19 
REMARK    9  A    between atoms: C12_19  and  C13_20 
ROOT
HETATM    1  C9  UNL     1      -0.128  77.045   7.809  1.00  0.00     0.145 C 
HETATM    2  C10 UNL     1       0.722  76.916   9.033  1.00  0.00     0.068 C 
HETATM    3  N1  UNL     1       1.408  76.815   9.968  1.00  0.00    -0.197 NA
ENDROOT
BRANCH   1   4
HETATM    4  C8  UNL     1       0.882  77.118   6.690  1.00  0.00     0.013 A 
HETATM    5  C6  UNL     1       2.213  76.534   6.705  1.00  0.00     0.009 A 
HETATM    6  C7  UNL     1       2.032  78.056   6.768  1.00  0.00     0.012 A 
BRANCH   5   7
HETATM    7  C3  UNL     1       2.761  75.994   5.381  1.00  0.00     0.045 C 
HETATM    8  C4  UNL     1       2.093  76.724   4.255  1.00  0.00     0.026 C 
HETATM    9  C5  UNL     1       4.245  76.178   5.286  1.00  0.00     0.026 C 
BRANCH   7  10
HETATM   10  C2  UNL     1       2.457  74.557   5.294  1.00  0.00     0.266 C 
HETATM   11  O2  UNL     1       1.738  73.955   6.159  1.00  0.00    -0.264 OA
BRANCH  10  12
HETATM   12  O1  UNL     1       2.977  73.833   4.224  1.00  0.00    -0.326 OA
HETATM   13  C1  UNL     1       3.373  72.493   4.458  1.00  0.00     0.213 C 
ENDBRANCH  10  12
ENDBRANCH   7  10
ENDBRANCH   5   7
ENDBRANCH   1   4
BRANCH   1  14
HETATM   14  C11 UNL     1      -1.035  75.869   7.727  1.00  0.00     0.231 C 
BRANCH  14  15
HETATM   15  O3  UNL     1      -0.301  74.827   8.421  1.00  0.00    -0.376 OA
ATOM     16  H3  UNL     1      -0.837  74.054   8.289  1.00  0.00     0.212 HD
ENDBRANCH  14  15
BRANCH  14  17
HETATM   17  N2  UNL     1      -1.177  75.289   6.426  1.00  0.00    -0.395 N 
ATOM     18  H2  UNL     1      -0.606  74.484   6.169  1.00  0.00     0.155 HD
BRANCH  17  19
HETATM   19  C12 UNL     1      -2.087  75.807   5.505  1.00  0.00     0.120 C 
BRANCH  19  20
HETATM   20  C13 UNL     1      -3.527  75.565   5.986  1.00  0.00     0.003 C 
HETATM   21  C14 UNL     1      -4.006  74.220   5.430  1.00  0.00     0.006 C 
HETATM   22  C15 UNL     1      -4.321  74.293   3.968  1.00  0.00     0.000 C 
HETATM   23  C16 UNL     1      -5.324  75.392   3.709  1.00  0.00     0.000 C 
HETATM   24  C17 UNL     1      -4.626  76.714   4.064  1.00  0.00     0.000 C 
HETATM   25  C18 UNL     1      -4.454  76.653   5.577  1.00  0.00     0.006 C 
ENDBRANCH  19  20
ENDBRANCH  17  19
ENDBRANCH  14  17
ENDBRANCH   1  14
TORSDOF 9
ENDMDL
MODEL 4
REMARK VINA RESULT: -6.570044383      1.238      1.847
REMARK  9 active torsions:
REMARK  status: ('A' for Active; 'I' for Inactive)
REMARK    1  A    between atoms: O1_2  and  C2_3 
REMARK    2  A    between atoms: C2_3  and  C3_5 
REMARK    3  A    between atoms: C3_5  and  C6_8 
REMARK    4  A    between atoms: C8_10  and  C9_11 
REMARK    5  A    between atoms: C9_11  and  C11_14 
REMARK    6  A    between atoms: C11_14  and  O3_15 
REMARK    7  A    between atoms: C11_14  and  N2_17 
REMARK    8  A    between atoms: N2_17  and  C12_19 
REMARK    9  A    between atoms: C12_19  and  C13_20 
ROOT
HETATM    1  C9  UNL     1       0.383  78.101   7.169  1.00  0.00     0.145 C 
HETATM    2  C10 UNL     1       1.161  77.691   5.958  1.00  0.00     0.068 C 
HETATM    3  N1  UNL     1       1.761  77.401   5.005  1.00  0.00    -0.197 NA
ENDROOT
BRANCH   1   4
HETATM    4  C8  UNL     1       0.104  79.564   6.925  1.00  0.00     0.013 A 
HETATM    5  C6  UNL     1       0.613  80.354   5.816  1.00  0.00     0.009 A 
HETATM    6  C7  UNL     1       1.128  80.593   7.241  1.00  0.00     0.012 A 
BRANCH   5   7
HETATM    7  C3  UNL     1      -0.297  81.452   5.257  1.00  0.00     0.045 C 
HETATM    8  C4  UNL     1      -1.701  80.929   5.208  1.00  0.00     0.026 C 
HETATM    9  C5  UNL     1      -0.252  82.686   6.105  1.00  0.00     0.026 C 
BRANCH   7  10
HETATM   10  C2  UNL     1       0.156  81.795   3.900  1.00  0.00     0.266 C 
HETATM   11  O2  UNL     1       1.380  81.725   3.548  1.00  0.00    -0.264 OA
BRANCH  10  12
HETATM   12  O1  UNL     1      -0.793  82.212   2.970  1.00  0.00    -0.326 OA
HETATM   13  C1  UNL     1      -0.335  82.860   1.797  1.00  0.00     0.213 C 
ENDBRANCH  10  12
ENDBRANCH   7  10
ENDBRANCH   5   7
ENDBRANCH   1   4
BRANCH   1  14
HETATM   14  C11 UNL     1      -0.841  77.261   7.261  1.00  0.00     0.231 C 
BRANCH  14  15
HETATM   15  O3  UNL     1      -0.687  76.578   8.533  1.00  0.00    -0.376 OA
ATOM     16  H3  UNL     1      -1.518  76.732   8.968  1.00  0.00     0.212 HD
ENDBRANCH  14  15
BRANCH  14  17
HETATM   17  N2  UNL     1      -0.901  76.154   6.356  1.00  0.00    -0.395 N 
ATOM     18  H2  UNL     1      -0.221  75.398   6.440  1.00  0.00     0.155 HD
BRANCH  17  19
HETATM   19  C12 UNL     1      -1.875  76.093   5.361  1.00  0.00     0.120 C 
BRANCH  19  20
HETATM   20  C13 UNL     1      -3.235  75.716   5.970  1.00  0.00     0.003 C 
HETATM   21  C14 UNL     1      -3.629  74.326   5.460  1.00  0.00     0.006 C 
HETATM   22  C15 UNL     1      -4.080  74.356   4.033  1.00  0.00     0.000 C 
HETATM   23  C16 UNL     1      -5.205  75.349   3.866  1.00  0.00     0.000 C 
HETATM   24  C17 UNL     1      -4.611  76.736   4.156  1.00  0.00     0.000 C 
HETATM   25  C18 UNL     1      -4.297  76.705   5.647  1.00  0.00     0.006 C 
ENDBRANCH  19  20
ENDBRANCH  17  19
ENDBRANCH  14  17
ENDBRANCH   1  14
TORSDOF 9
ENDMDL
MODEL 5
REMARK VINA RESULT: -6.557965296      2.946      6.167
REMARK  9 active torsions:
REMARK  status: ('A' for Active; 'I' for Inactive)
REMARK    1  A    between atoms: O1_2  and  C2_3 
REMARK    2  A    between atoms: C2_3  and  C3_5 
REMARK    3  A    between atoms: C3_5  and  C6_8 
REMARK    4  A    between atoms: C8_10  and  C9_11 
REMARK    5  A    between atoms: C9_11  and  C11_14 
REMARK    6  A    between atoms: C11_14  and  O3_15 
REMARK    7  A    between atoms: C11_14  and  N2_17 
REMARK    8  A    between atoms: N2_17  and  C12_19 
REMARK    9  A    between atoms: C12_19  and  C13_20 
ROOT
HETATM    1  C9  UNL     1      -0.735  78.096   6.958  1.00  0.00     0.145 C 
HETATM    2  C10 UNL     1      -1.381  79.179   6.152  1.00  0.00     0.068 C 
HETATM    3  N1  UNL     1      -1.900  79.999   5.511  1.00  0.00    -0.197 NA
ENDROOT
BRANCH   1   4
HETATM    4  C8  UNL     1      -1.466  76.851   6.518  1.00  0.00     0.013 A 
HETATM    5  C6  UNL     1      -2.895  76.616   6.634  1.00  0.00     0.009 A 
HETATM    6  C7  UNL     1      -1.907  75.839   7.513  1.00  0.00     0.012 A 
BRANCH   5   7
HETATM    7  C3  UNL     1      -3.568  75.800   5.527  1.00  0.00     0.045 C 
HETATM    8  C4  UNL     1      -2.502  75.213   4.652  1.00  0.00     0.026 C 
HETATM    9  C5  UNL     1      -4.413  74.699   6.094  1.00  0.00     0.026 C 
BRANCH   7  10
HETATM   10  C2  UNL     1      -4.428  76.694   4.736  1.00  0.00     0.266 C 
HETATM   11  O2  UNL     1      -4.838  77.818   5.179  1.00  0.00    -0.264 OA
BRANCH  10  12
HETATM   12  O1  UNL     1      -4.804  76.292   3.457  1.00  0.00    -0.326 OA
HETATM   13  C1  UNL     1      -5.945  75.463   3.328  1.00  0.00     0.213 C 
ENDBRANCH  10  12
ENDBRANCH   7  10
ENDBRANCH   5   7
ENDBRANCH   1   4
BRANCH   1  14
HETATM   14  C11 UNL     1       0.721  78.078   6.660  1.00  0.00     0.231 C 
BRANCH  14  15
HETATM   15  O3  UNL     1       0.884  79.156   5.702  1.00  0.00    -0.376 OA
ATOM     16  H3  UNL     1       0.758  78.728   4.863  1.00  0.00     0.212 HD
ENDBRANCH  14  15
BRANCH  14  17
HETATM   17  N2  UNL     1       1.182  76.957   5.898  1.00  0.00    -0.395 N 
ATOM     18  H2  UNL     1       0.819  76.806   4.956  1.00  0.00     0.155 HD
BRANCH  17  19
HETATM   19  C12 UNL     1       2.118  76.068   6.423  1.00  0.00     0.120 C 
BRANCH  19  20
HETATM   20  C13 UNL     1       1.498  74.670   6.576  1.00  0.00     0.003 C 
HETATM   21  C14 UNL     1       1.281  74.393   8.067  1.00  0.00     0.006 C 
HETATM   22  C15 UNL     1       2.564  74.093   8.777  1.00  0.00     0.000 C 
HETATM   23  C16 UNL     1       3.277  72.949   8.096  1.00  0.00     0.000 C 
HETATM   24  C17 UNL     1       3.669  73.448   6.697  1.00  0.00     0.000 C 
HETATM   25  C18 UNL     1       2.340  73.605   5.969  1.00  0.00     0.006 C 
ENDBRANCH  19  20
ENDBRANCH  17  19
ENDBRANCH  14  17
ENDBRANCH   1  14
TORSDOF 9
ENDMDL
