MODEL 1
REMARK VINA RESULT: -6.820546522      0.000      0.000
REMARK  9 active torsions:
REMARK  status: ('A' for Active; 'I' for Inactive)
REMARK    1  A    between atoms: C2_2  and  C16_23 
REMARK    2  A    between atoms: C3_3  and  C4_4 
REMARK    3  A    between atoms: C4_4  and  C5_5 
REMARK    4  A    between atoms: C5_5  and  C6_6 
REMARK    5  A    between atoms: C6_6  and  C7_8 
REMARK    6  A    between atoms: C8_9  and  C9_10 
REMARK    7  A    between atoms: C11_12  and  O2_13 
REMARK    8  A    between atoms: C11_12  and  C12_15 
REMARK    9  A    between atoms: C12_15  and  O3_16 
ROOT
HETATM    1  C9  UNL     1      -0.212  80.534   5.499  1.00  0.00     0.062 C 
HETATM    2  C10 UNL     1      -1.672  80.561   5.030  1.00  0.00     0.083 C 
HETATM    3  C11 UNL     1      -2.093  81.981   5.155  1.00  0.00     0.186 C 
HETATM    4  O4  UNL     1      -1.077  82.683   5.782  1.00  0.00    -0.327 OA
HETATM    5  C13 UNL     1       0.095  82.022   5.536  1.00  0.00     0.155 C 
HETATM    6  C14 UNL     1       0.748  82.385   4.221  1.00  0.00     0.064 C 
HETATM    7  C15 UNL     1       1.010  82.290   6.662  1.00  0.00     0.098 C 
HETATM    8  N1  UNL     1       1.726  82.478   7.546  1.00  0.00    -0.194 NA
ENDROOT
BRANCH   1   9
HETATM    9  C8  UNL     1      -0.106  79.913   6.823  1.00  0.00    -0.014 C 
HETATM   10  C7  UNL     1       0.274  78.728   7.089  1.00  0.00     0.046 C 
BRANCH  10  11
HETATM   11  C6  UNL     1       0.695  77.715   6.159  1.00  0.00     0.149 C 
HETATM   12  O1  UNL     1       1.767  77.642   5.528  1.00  0.00    -0.293 OA
BRANCH  11  13
HETATM   13  C5  UNL     1      -0.227  76.533   5.840  1.00  0.00     0.086 C 
BRANCH  13  14
HETATM   14  C4  UNL     1      -1.435  76.567   6.672  1.00  0.00     0.035 C 
BRANCH  14  15
HETATM   15  C3  UNL     1      -2.596  75.889   6.086  1.00  0.00    -0.024 C 
HETATM   16  C2  UNL     1      -3.673  76.327   5.498  1.00  0.00    -0.084 C 
HETATM   17  C1  UNL     1      -4.105  77.707   5.207  1.00  0.00     0.043 C 
BRANCH  16  18
HETATM   18  C16 UNL     1      -4.673  75.270   5.026  1.00  0.00     0.005 C 
HETATM   19  C17 UNL     1      -4.027  73.934   5.336  1.00  0.00     0.014 C 
HETATM   20  C18 UNL     1      -4.889  75.425   3.540  1.00  0.00     0.014 C 
ENDBRANCH  16  18
ENDBRANCH  14  15
ENDBRANCH  13  14
ENDBRANCH  11  13
ENDBRANCH  10  11
ENDBRANCH   1   9
BRANCH   3  21
HETATM   21  O2  UNL     1      -2.311  82.567   3.887  1.00  0.00    -0.363 OA
ATOM     22  H2  UNL     1      -3.211  82.856   3.789  1.00  0.00     0.213 HD
ENDBRANCH   3  21
BRANCH   3  23
HETATM   23  C12 UNL     1      -3.409  82.153   5.905  1.00  0.00     0.232 C 
BRANCH  23  24
HETATM   24  O3  UNL     1      -4.474  81.532   5.265  1.00  0.00    -0.396 OA
ATOM     25  H3  UNL     1      -5.050  81.080   5.870  1.00  0.00     0.209 HD
ENDBRANCH  23  24
ENDBRANCH   3  23
TORSDOF 9
ENDMDL
MODEL 2
REMARK VINA RESULT: -6.657759959      3.305      6.507
REMARK  9 active torsions:
REMARK  status: ('A' for Active; 'I' for Inactive)
REMARK    1  A    between atoms: C2_2  and  C16_23 
REMARK    2  A    between atoms: C3_3  and  C4_4 
REMARK    3  A    between atoms: C4_4  and  C5_5 
REMARK    4  A    between atoms: C5_5  and  C6_6 
REMARK    5  A    between atoms: C6_6  and  C7_8 
REMARK    6  A    between atoms: C8_9  and  C9_10 
REMARK    7  A    between atoms: C11_12  and  O2_13 
REMARK    8  A    between atoms: C11_12  and  C12_15 
REMARK    9  A    between atoms: C12_15  and  O3_16 
ROOT
HETATM    1  C9  UNL     1       0.460  75.132   6.694  1.00  0.00     0.062 C 
HETATM    2  C10 UNL     1       0.852  76.249   5.719  1.00  0.00     0.083 C 
HETATM    3  C11 UNL     1       2.278  76.542   6.016  1.00  0.00     0.186 C 
HETATM    4  O4  UNL     1       2.645  75.821   7.140  1.00  0.00    -0.327 OA
HETATM    5  C13 UNL     1       1.829  74.725   7.214  1.00  0.00     0.155 C 
HETATM    6  C14 UNL     1       2.298  73.547   6.388  1.00  0.00     0.064 C 
HETATM    7  C15 UNL     1       1.706  74.348   8.635  1.00  0.00     0.098 C 
HETATM    8  N1  UNL     1       1.588  74.056   9.744  1.00  0.00    -0.194 NA
ENDROOT
BRANCH   1   9
HETATM    9  C8  UNL     1      -0.403  75.654   7.759  1.00  0.00    -0.014 C 
HETATM   10  C7  UNL     1      -1.610  76.042   7.650  1.00  0.00     0.046 C 
BRANCH  10  11
HETATM   11  C6  UNL     1      -2.420  76.056   6.461  1.00  0.00     0.149 C 
HETATM   12  O1  UNL     1      -2.839  75.088   5.800  1.00  0.00    -0.293 OA
BRANCH  11  13
HETATM   13  C5  UNL     1      -2.876  77.390   5.858  1.00  0.00     0.086 C 
BRANCH  13  14
HETATM   14  C4  UNL     1      -1.873  78.437   6.075  1.00  0.00     0.035 C 
BRANCH  14  15
HETATM   15  C3  UNL     1      -2.305  79.783   5.680  1.00  0.00    -0.024 C 
HETATM   16  C2  UNL     1      -1.652  80.872   5.391  1.00  0.00    -0.084 C 
HETATM   17  C1  UNL     1      -0.200  81.131   5.357  1.00  0.00     0.043 C 
BRANCH  16  18
HETATM   18  C16 UNL     1      -2.492  82.098   5.029  1.00  0.00     0.005 C 
HETATM   19  C17 UNL     1      -1.729  83.288   5.575  1.00  0.00     0.014 C 
HETATM   20  C18 UNL     1      -3.844  81.982   5.692  1.00  0.00     0.014 C 
ENDBRANCH  16  18
ENDBRANCH  14  15
ENDBRANCH  13  14
ENDBRANCH  11  13
ENDBRANCH  10  11
ENDBRANCH   1   9
BRANCH   3  21
HETATM   21  O2  UNL     1       3.118  76.147   4.950  1.00  0.00    -0.363 OA
ATOM     22  H2  UNL     1       3.217  75.203   4.918  1.00  0.00     0.213 HD
ENDBRANCH   3  21
BRANCH   3  23
HETATM   23  C12 UNL     1       2.556  78.027   6.214  1.00  0.00     0.232 C 
BRANCH  23  24
HETATM   24  O3  UNL     1       1.730  78.604   7.170  1.00  0.00    -0.396 OA
ATOM     25  H3  UNL     1       1.761  79.553   7.156  1.00  0.00     0.209 HD
ENDBRANCH  23  24
ENDBRANCH   3  23
TORSDOF 9
ENDMDL
MODEL 3
REMARK VINA RESULT: -6.472976707      4.387      6.560
REMARK  9 active torsions:
REMARK  status: ('A' for Active; 'I' for Inactive)
REMARK    1  A    between atoms: C2_2  and  C16_23 
REMARK    2  A    between atoms: C3_3  and  C4_4 
REMARK    3  A    between atoms: C4_4  and  C5_5 
REMARK    4  A    between atoms: C5_5  and  C6_6 
REMARK    5  A    between atoms: C6_6  and  C7_8 
REMARK    6  A    between atoms: C8_9  and  C9_10 
REMARK    7  A    between atoms: C11_12  and  O2_13 
REMARK    8  A    between atoms: C11_12  and  C12_15 
REMARK    9  A    between atoms: C12_15  and  O3_16 
ROOT
HETATM    1  C9  UNL     1      -1.238  76.219   5.525  1.00  0.00     0.062 C 
HETATM    2  C10 UNL     1      -2.421  75.542   4.822  1.00  0.00     0.083 C 
HETATM    3  C11 UNL     1      -3.538  75.597   5.801  1.00  0.00     0.186 C 
HETATM    4  O4  UNL     1      -3.042  76.085   6.999  1.00  0.00    -0.327 OA
HETATM    5  C13 UNL     1      -1.945  76.851   6.712  1.00  0.00     0.155 C 
HETATM    6  C14 UNL     1      -2.268  78.281   6.342  1.00  0.00     0.064 C 
HETATM    7  C15 UNL     1      -1.045  76.807   7.881  1.00  0.00     0.098 C 
HETATM    8  N1  UNL     1      -0.326  76.764   8.781  1.00  0.00    -0.194 NA
ENDROOT
BRANCH   1   9
HETATM    9  C8  UNL     1      -0.243  75.224   5.938  1.00  0.00    -0.014 C 
HETATM   10  C7  UNL     1       1.023  75.337   5.890  1.00  0.00     0.046 C 
BRANCH  10  11
HETATM   11  C6  UNL     1       1.784  76.466   5.426  1.00  0.00     0.149 C 
HETATM   12  O1  UNL     1       2.168  77.458   6.074  1.00  0.00    -0.293 OA
BRANCH  11  13
HETATM   13  C5  UNL     1       2.225  76.545   3.960  1.00  0.00     0.086 C 
BRANCH  13  14
HETATM   14  C4  UNL     1       3.567  75.982   3.782  1.00  0.00     0.035 C 
BRANCH  14  15
HETATM   15  C3  UNL     1       3.633  74.853   2.846  1.00  0.00    -0.024 C 
HETATM   16  C2  UNL     1       3.517  73.566   3.003  1.00  0.00    -0.084 C 
HETATM   17  C1  UNL     1       3.266  72.775   4.223  1.00  0.00     0.043 C 
BRANCH  16  18
HETATM   18  C16 UNL     1       3.664  72.707   1.746  1.00  0.00     0.005 C 
HETATM   19  C17 UNL     1       4.743  71.693   2.072  1.00  0.00     0.014 C 
HETATM   20  C18 UNL     1       4.088  73.587   0.595  1.00  0.00     0.014 C 
ENDBRANCH  16  18
ENDBRANCH  14  15
ENDBRANCH  13  14
ENDBRANCH  11  13
ENDBRANCH  10  11
ENDBRANCH   1   9
BRANCH   3  21
HETATM   21  O2  UNL     1      -4.562  76.469   5.366  1.00  0.00    -0.363 OA
ATOM     22  H2  UNL     1      -5.175  76.024   4.792  1.00  0.00     0.213 HD
ENDBRANCH   3  21
BRANCH   3  23
HETATM   23  C12 UNL     1      -4.221  74.251   6.009  1.00  0.00     0.232 C 
BRANCH  23  24
HETATM   24  O3  UNL     1      -5.265  74.038   5.117  1.00  0.00    -0.396 OA
ATOM     25  H3  UNL     1      -4.987  74.088   4.210  1.00  0.00     0.209 HD
ENDBRANCH  23  24
ENDBRANCH   3  23
TORSDOF 9
ENDMDL
MODEL 4
REMARK VINA RESULT: -6.461772759      4.419      6.419
REMARK  9 active torsions:
REMARK  status: ('A' for Active; 'I' for Inactive)
REMARK    1  A    between atoms: C2_2  and  C16_23 
REMARK    2  A    between atoms: C3_3  and  C4_4 
REMARK    3  A    between atoms: C4_4  and  C5_5 
REMARK    4  A    between atoms: C5_5  and  C6_6 
REMARK    5  A    between atoms: C6_6  and  C7_8 
REMARK    6  A    between atoms: C8_9  and  C9_10 
REMARK    7  A    between atoms: C11_12  and  O2_13 
REMARK    8  A    between atoms: C11_12  and  C12_15 
REMARK    9  A    between atoms: C12_15  and  O3_16 
ROOT
HETATM    1  C9  UNL     1       0.932  76.211   6.597  1.00  0.00     0.062 C 
HETATM    2  C10 UNL     1      -0.146  76.847   5.711  1.00  0.00     0.083 C 
HETATM    3  C11 UNL     1      -1.143  77.412   6.657  1.00  0.00     0.186 C 
HETATM    4  O4  UNL     1      -0.800  77.015   7.939  1.00  0.00    -0.327 OA
HETATM    5  C13 UNL     1       0.547  76.779   7.953  1.00  0.00     0.155 C 
HETATM    6  C14 UNL     1       1.390  78.015   8.184  1.00  0.00     0.064 C 
HETATM    7  C15 UNL     1       0.819  75.764   8.989  1.00  0.00     0.098 C 
HETATM    8  N1  UNL     1       1.039  74.958   9.783  1.00  0.00    -0.194 NA
ENDROOT
BRANCH   1   9
HETATM    9  C8  UNL     1       0.833  74.748   6.562  1.00  0.00    -0.014 C 
HETATM   10  C7  UNL     1       1.790  73.915   6.470  1.00  0.00     0.046 C 
BRANCH  10  11
HETATM   11  C6  UNL     1       3.197  74.204   6.383  1.00  0.00     0.149 C 
HETATM   12  O1  UNL     1       3.871  74.979   7.086  1.00  0.00    -0.293 OA
BRANCH  11  13
HETATM   13  C5  UNL     1       4.058  73.515   5.319  1.00  0.00     0.086 C 
BRANCH  13  14
HETATM   14  C4  UNL     1       3.246  73.099   4.171  1.00  0.00     0.035 C 
BRANCH  14  15
HETATM   15  C3  UNL     1       3.596  73.758   2.907  1.00  0.00    -0.024 C 
HETATM   16  C2  UNL     1       3.431  74.972   2.467  1.00  0.00    -0.084 C 
HETATM   17  C1  UNL     1       2.816  76.145   3.118  1.00  0.00     0.043 C 
BRANCH  16  18
HETATM   18  C16 UNL     1       3.940  75.264   1.054  1.00  0.00     0.005 C 
HETATM   19  C17 UNL     1       2.906  76.180   0.432  1.00  0.00     0.014 C 
HETATM   20  C18 UNL     1       4.034  73.966   0.288  1.00  0.00     0.014 C 
ENDBRANCH  16  18
ENDBRANCH  14  15
ENDBRANCH  13  14
ENDBRANCH  11  13
ENDBRANCH  10  11
ENDBRANCH   1   9
BRANCH   3  21
HETATM   21  O2  UNL     1      -1.142  78.825   6.624  1.00  0.00    -0.363 OA
ATOM     22  H2  UNL     1      -1.516  79.153   5.814  1.00  0.00     0.213 HD
ENDBRANCH   3  21
BRANCH   3  23
HETATM   23  C12 UNL     1      -2.575  77.006   6.332  1.00  0.00     0.232 C 
BRANCH  23  24
HETATM   24  O3  UNL     1      -2.983  75.877   7.031  1.00  0.00    -0.396 OA
ATOM     25  H3  UNL     1      -3.395  75.230   6.471  1.00  0.00     0.209 HD
ENDBRANCH  23  24
ENDBRANCH   3  23
TORSDOF 9
ENDMDL
MODEL 5
REMARK VINA RESULT: -6.459525212      4.401      6.456
REMARK  9 active torsions:
REMARK  status: ('A' for Active; 'I' for Inactive)
REMARK    1  A    between atoms: C2_2  and  C16_23 
REMARK    2  A    between atoms: C3_3  and  C4_4 
REMARK    3  A    between atoms: C4_4  and  C5_5 
REMARK    4  A    between atoms: C5_5  and  C6_6 
REMARK    5  A    between atoms: C6_6  and  C7_8 
REMARK    6  A    between atoms: C8_9  and  C9_10 
REMARK    7  A    between atoms: C11_12  and  O2_13 
REMARK    8  A    between atoms: C11_12  and  C12_15 
REMARK    9  A    between atoms: C12_15  and  O3_16 
ROOT
HETATM    1  C9  UNL     1       0.930  76.145   6.610  1.00  0.00     0.062 C 
HETATM    2  C10 UNL     1      -0.158  76.789   5.742  1.00  0.00     0.083 C 
HETATM    3  C11 UNL     1      -1.110  77.402   6.705  1.00  0.00     0.186 C 
HETATM    4  O4  UNL     1      -0.738  77.026   7.985  1.00  0.00    -0.327 OA
HETATM    5  C13 UNL     1       0.603  76.755   7.963  1.00  0.00     0.155 C 
HETATM    6  C14 UNL     1       1.483  77.973   8.139  1.00  0.00     0.064 C 
HETATM    7  C15 UNL     1       0.880  75.757   9.014  1.00  0.00     0.098 C 
HETATM    8  N1  UNL     1       1.104  74.964   9.821  1.00  0.00    -0.194 NA
ENDROOT
BRANCH   1   9
HETATM    9  C8  UNL     1       0.792  74.685   6.614  1.00  0.00    -0.014 C 
HETATM   10  C7  UNL     1       1.718  73.825   6.459  1.00  0.00     0.046 C 
BRANCH  10  11
HETATM   11  C6  UNL     1       3.119  74.076   6.250  1.00  0.00     0.149 C 
HETATM   12  O1  UNL     1       3.820  74.989   6.724  1.00  0.00    -0.293 OA
BRANCH  11  13
HETATM   13  C5  UNL     1       3.937  73.150   5.342  1.00  0.00     0.086 C 
BRANCH  13  14
HETATM   14  C4  UNL     1       3.316  73.023   4.020  1.00  0.00     0.035 C 
BRANCH  14  15
HETATM   15  C3  UNL     1       3.357  74.245   3.209  1.00  0.00    -0.024 C 
HETATM   16  C2  UNL     1       3.633  74.467   1.955  1.00  0.00    -0.084 C 
HETATM   17  C1  UNL     1       4.009  73.526   0.883  1.00  0.00     0.043 C 
BRANCH  16  18
HETATM   18  C16 UNL     1       3.572  75.922   1.488  1.00  0.00     0.005 C 
HETATM   19  C17 UNL     1       2.712  76.640   2.508  1.00  0.00     0.014 C 
HETATM   20  C18 UNL     1       2.934  75.973   0.120  1.00  0.00     0.014 C 
ENDBRANCH  16  18
ENDBRANCH  14  15
ENDBRANCH  13  14
ENDBRANCH  11  13
ENDBRANCH  10  11
ENDBRANCH   1   9
BRANCH   3  21
HETATM   21  O2  UNL     1      -1.074  78.814   6.637  1.00  0.00    -0.363 OA
ATOM     22  H2  UNL     1      -0.247  79.123   6.285  1.00  0.00     0.213 HD
ENDBRANCH   3  21
BRANCH   3  23
HETATM   23  C12 UNL     1      -2.562  77.028   6.433  1.00  0.00     0.232 C 
BRANCH  23  24
HETATM   24  O3  UNL     1      -2.912  75.805   6.992  1.00  0.00    -0.396 OA
ATOM     25  H3  UNL     1      -3.039  75.127   6.339  1.00  0.00     0.209 HD
ENDBRANCH  23  24
ENDBRANCH   3  23
TORSDOF 9
ENDMDL
