MODEL 1
REMARK VINA RESULT: -5.187544130      0.000      0.000
REMARK  2 active torsions:
REMARK  status: ('A' for Active; 'I' for Inactive)
REMARK    1  A    between atoms: N1_2  and  C2_5 
REMARK    2  A    between atoms: C5_8  and  N2_9 
ROOT
HETATM    1  C2  UNL     1      13.825  13.746  42.999  1.00  0.00     0.185 C 
HETATM    2  C3  UNL     1      13.090  12.718  42.182  1.00  0.00     0.035 C 
HETATM    3  C4  UNL     1      13.966  12.105  41.139  1.00  0.00     0.035 C 
HETATM    4  C5  UNL     1      14.924  13.026  40.468  1.00  0.00     0.189 C 
HETATM    5  C7  UNL     1      15.571  14.022  41.402  1.00  0.00     0.014 C 
HETATM    6  C8  UNL     1      16.375  15.054  40.688  1.00  0.00     0.012 C 
HETATM    7  C9  UNL     1      14.417  14.760  42.081  1.00  0.00     0.039 C 
ENDROOT
BRANCH   1   8
HETATM    8  N1  UNL     1      13.024  14.322  44.029  1.00  0.00    -0.075 N 
HETATM    9  C1  UNL     1      12.100  13.369  44.612  1.00  0.00     0.267 C 
ATOM     10  H12 UNL     1      12.534  15.150  43.693  1.00  0.00     0.277 HD
ATOM     11  H11 UNL     1      13.606  14.756  44.746  1.00  0.00     0.277 HD
ENDBRANCH   1   8
BRANCH   4  12
HETATM   12  N2  UNL     1      16.022  12.216  39.940  1.00  0.00    -0.074 N 
HETATM   13  C6  UNL     1      15.748  10.811  39.953  1.00  0.00     0.267 C 
ATOM     14  H22 UNL     1      16.282  12.525  39.004  1.00  0.00     0.277 HD
ATOM     15  H21 UNL     1      16.891  12.419  40.433  1.00  0.00     0.277 HD
ENDBRANCH   4  12
TORSDOF 2
ENDMDL
MODEL 2
REMARK VINA RESULT: -5.165301718      1.440      4.302
REMARK  2 active torsions:
REMARK  status: ('A' for Active; 'I' for Inactive)
REMARK    1  A    between atoms: N1_2  and  C2_5 
REMARK    2  A    between atoms: C5_8  and  N2_9 
ROOT
HETATM    1  C2  UNL     1      13.986  11.625  41.603  1.00  0.00     0.185 C 
HETATM    2  C3  UNL     1      14.566  12.737  40.769  1.00  0.00     0.035 C 
HETATM    3  C4  UNL     1      14.816  13.966  41.579  1.00  0.00     0.035 C 
HETATM    4  C5  UNL     1      13.796  14.283  42.617  1.00  0.00     0.189 C 
HETATM    5  C7  UNL     1      13.282  13.072  43.359  1.00  0.00     0.014 C 
HETATM    6  C8  UNL     1      12.130  13.381  44.253  1.00  0.00     0.012 C 
HETATM    7  C9  UNL     1      12.756  12.122  42.283  1.00  0.00     0.039 C 
ENDROOT
BRANCH   1   8
HETATM    8  N1  UNL     1      13.772  10.424  40.864  1.00  0.00    -0.075 N 
HETATM    9  C1  UNL     1      14.921   9.539  40.897  1.00  0.00     0.267 C 
ATOM     10  H12 UNL     1      13.492  10.627  39.905  1.00  0.00     0.277 HD
ATOM     11  H11 UNL     1      12.929   9.943  41.182  1.00  0.00     0.277 HD
ENDBRANCH   1   8
BRANCH   4  12
HETATM   12  N2  UNL     1      14.441  15.118  43.631  1.00  0.00    -0.074 N 
HETATM   13  C6  UNL     1      14.973  16.339  43.106  1.00  0.00     0.267 C 
ATOM     14  H22 UNL     1      13.803  15.304  44.405  1.00  0.00     0.277 HD
ATOM     15  H21 UNL     1      15.160  14.593  44.127  1.00  0.00     0.277 HD
ENDBRANCH   4  12
TORSDOF 2
ENDMDL
MODEL 3
REMARK VINA RESULT: -5.093290980      1.579      4.353
REMARK  2 active torsions:
REMARK  status: ('A' for Active; 'I' for Inactive)
REMARK    1  A    between atoms: N1_2  and  C2_5 
REMARK    2  A    between atoms: C5_8  and  N2_9 
ROOT
HETATM    1  C2  UNL     1      13.528  12.916  41.759  1.00  0.00     0.185 C 
HETATM    2  C3  UNL     1      13.190  12.006  42.911  1.00  0.00     0.035 C 
HETATM    3  C4  UNL     1      12.566  12.753  44.044  1.00  0.00     0.035 C 
HETATM    4  C5  UNL     1      13.120  14.107  44.318  1.00  0.00     0.189 C 
HETATM    5  C7  UNL     1      13.438  14.901  43.073  1.00  0.00     0.014 C 
HETATM    6  C8  UNL     1      14.167  16.169  43.359  1.00  0.00     0.012 C 
HETATM    7  C9  UNL     1      14.390  14.026  42.257  1.00  0.00     0.039 C 
ENDROOT
BRANCH   1   8
HETATM    8  N1  UNL     1      14.091  12.225  40.646  1.00  0.00    -0.075 N 
HETATM    9  C1  UNL     1      13.997  10.784  40.781  1.00  0.00     0.267 C 
ATOM     10  H12 UNL     1      15.054  12.516  40.482  1.00  0.00     0.277 HD
ATOM     11  H11 UNL     1      13.673  12.540  39.770  1.00  0.00     0.277 HD
ENDBRANCH   1   8
BRANCH   4  12
HETATM   12  N2  UNL     1      12.090  14.874  45.018  1.00  0.00    -0.074 N 
HETATM   13  C6  UNL     1      10.905  14.118  45.289  1.00  0.00     0.267 C 
ATOM     14  H22 UNL     1      12.463  15.282  45.875  1.00  0.00     0.277 HD
ATOM     15  H21 UNL     1      11.866  15.728  44.508  1.00  0.00     0.277 HD
ENDBRANCH   4  12
TORSDOF 2
ENDMDL
MODEL 4
REMARK VINA RESULT: -5.040788937      1.822      3.235
REMARK  2 active torsions:
REMARK  status: ('A' for Active; 'I' for Inactive)
REMARK    1  A    between atoms: N1_2  and  C2_5 
REMARK    2  A    between atoms: C5_8  and  N2_9 
ROOT
HETATM    1  C2  UNL     1      14.950  15.573  41.950  1.00  0.00     0.185 C 
HETATM    2  C3  UNL     1      16.045  14.925  41.144  1.00  0.00     0.035 C 
HETATM    3  C4  UNL     1      15.589  13.652  40.511  1.00  0.00     0.035 C 
HETATM    4  C5  UNL     1      14.682  12.803  41.330  1.00  0.00     0.189 C 
HETATM    5  C7  UNL     1      13.648  13.584  42.107  1.00  0.00     0.014 C 
HETATM    6  C8  UNL     1      12.877  12.742  43.065  1.00  0.00     0.012 C 
HETATM    7  C9  UNL     1      14.437  14.590  42.946  1.00  0.00     0.039 C 
ENDROOT
BRANCH   1   8
HETATM    8  N1  UNL     1      15.344  16.812  42.537  1.00  0.00    -0.075 N 
HETATM    9  C1  UNL     1      15.214  17.927  41.619  1.00  0.00     0.267 C 
ATOM     10  H12 UNL     1      16.290  16.756  42.914  1.00  0.00     0.277 HD
ATOM     11  H11 UNL     1      14.833  16.987  43.402  1.00  0.00     0.277 HD
ENDBRANCH   1   8
BRANCH   4  12
HETATM   12  N2  UNL     1      13.922  11.953  40.413  1.00  0.00    -0.074 N 
HETATM   13  C6  UNL     1      14.377  10.597  40.386  1.00  0.00     0.267 C 
ATOM     14  H22 UNL     1      12.924  11.997  40.623  1.00  0.00     0.277 HD
ATOM     15  H21 UNL     1      13.915  12.351  39.474  1.00  0.00     0.277 HD
ENDBRANCH   4  12
TORSDOF 2
ENDMDL
MODEL 5
REMARK VINA RESULT: -5.011566090      3.183      7.107
REMARK  2 active torsions:
REMARK  status: ('A' for Active; 'I' for Inactive)
REMARK    1  A    between atoms: N1_2  and  C2_5 
REMARK    2  A    between atoms: C5_8  and  N2_9 
ROOT
HETATM    1  C2  UNL     1      12.128  14.030  44.942  1.00  0.00     0.185 C 
HETATM    2  C3  UNL     1      11.538  15.410  45.063  1.00  0.00     0.035 C 
HETATM    3  C4  UNL     1      10.573  15.503  46.199  1.00  0.00     0.035 C 
HETATM    4  C5  UNL     1       9.707  14.313  46.421  1.00  0.00     0.189 C 
HETATM    5  C7  UNL     1      10.422  12.995  46.242  1.00  0.00     0.014 C 
HETATM    6  C8  UNL     1       9.502  11.822  46.278  1.00  0.00     0.012 C 
HETATM    7  C9  UNL     1      11.021  13.038  44.836  1.00  0.00     0.039 C 
ENDROOT
BRANCH   1   8
HETATM    8  N1  UNL     1      13.083  13.919  43.888  1.00  0.00    -0.075 N 
HETATM    9  C1  UNL     1      12.923  12.698  43.121  1.00  0.00     0.267 C 
ATOM     10  H12 UNL     1      14.034  14.007  44.243  1.00  0.00     0.277 HD
ATOM     11  H11 UNL     1      13.057  14.739  43.282  1.00  0.00     0.277 HD
ENDBRANCH   1   8
BRANCH   4  12
HETATM   12  N2  UNL     1       9.272  14.336  47.818  1.00  0.00    -0.074 N 
HETATM   13  C6  UNL     1       8.782  15.613  48.239  1.00  0.00     0.267 C 
ATOM     14  H22 UNL     1       8.581  13.606  47.993  1.00  0.00     0.277 HD
ATOM     15  H21 UNL     1      10.018  14.013  48.434  1.00  0.00     0.277 HD
ENDBRANCH   4  12
TORSDOF 2
ENDMDL
