MODEL 1
REMARK VINA RESULT: -5.399769556      0.000      0.000
REMARK  2 active torsions:
REMARK  status: ('A' for Active; 'I' for Inactive)
REMARK    1  A    between atoms: C3_3  and  N1_4 
REMARK    2  A    between atoms: N1_4  and  C4_6 
ROOT
HETATM    1  C4  UNL     1      12.317  13.424  44.111  1.00  0.00     0.080 C 
HETATM    2  C5  UNL     1      13.299  14.192  44.974  1.00  0.00     0.052 C 
HETATM    3  C6  UNL     1      12.643  15.508  45.335  1.00  0.00     0.234 C 
HETATM    4  N2  UNL     1      11.222  15.478  45.077  1.00  0.00    -0.075 N 
ATOM      5  H21 UNL     1      11.024  15.587  44.083  1.00  0.00     0.277 HD
ATOM      6  H22 UNL     1      10.764  16.321  45.425  1.00  0.00     0.277 HD
HETATM    7  C7  UNL     1      10.599  14.278  45.612  1.00  0.00     0.234 C 
HETATM    8  C8  UNL     1      11.186  13.015  45.018  1.00  0.00     0.052 C 
ENDROOT
BRANCH   1   9
HETATM    9  N1  UNL     1      12.965  12.381  43.441  1.00  0.00    -0.413 N 
ATOM     10  H1  UNL     1      13.399  11.627  43.974  1.00  0.00     0.154 HD
BRANCH   9  11
HETATM   11  C3  UNL     1      13.022  12.368  42.032  1.00  0.00     0.077 C 
HETATM   12  C2  UNL     1      14.232  13.201  41.561  1.00  0.00     0.025 C 
HETATM   13  C1  UNL     1      14.303  12.247  40.388  1.00  0.00     0.004 C 
HETATM   14  C9  UNL     1      13.634  11.216  41.315  1.00  0.00     0.025 C 
ENDBRANCH   9  11
ENDBRANCH   1   9
TORSDOF 2
ENDMDL
MODEL 2
REMARK VINA RESULT: -5.384114228      1.068      1.211
REMARK  2 active torsions:
REMARK  status: ('A' for Active; 'I' for Inactive)
REMARK    1  A    between atoms: C3_3  and  N1_4 
REMARK    2  A    between atoms: N1_4  and  C4_6 
ROOT
HETATM    1  C4  UNL     1      11.536  13.306  44.683  1.00  0.00     0.080 C 
HETATM    2  C5  UNL     1      12.013  14.578  45.357  1.00  0.00     0.052 C 
HETATM    3  C6  UNL     1      10.788  15.430  45.621  1.00  0.00     0.234 C 
HETATM    4  N2  UNL     1       9.573  14.659  45.499  1.00  0.00    -0.075 N 
ATOM      5  H21 UNL     1       9.327  14.507  44.522  1.00  0.00     0.277 HD
ATOM      6  H22 UNL     1       8.759  15.202  45.787  1.00  0.00     0.277 HD
HETATM    7  C7  UNL     1       9.654  13.401  46.225  1.00  0.00     0.234 C 
HETATM    8  C8  UNL     1      10.786  12.527  45.731  1.00  0.00     0.052 C 
ENDROOT
BRANCH   1   9
HETATM    9  N1  UNL     1      12.610  12.639  44.083  1.00  0.00    -0.413 N 
ATOM     10  H1  UNL     1      13.301  12.165  44.664  1.00  0.00     0.154 HD
BRANCH   9  11
HETATM   11  C3  UNL     1      12.739  12.621  42.679  1.00  0.00     0.077 C 
HETATM   12  C2  UNL     1      13.883  13.566  42.258  1.00  0.00     0.025 C 
HETATM   13  C1  UNL     1      14.108  12.614  41.102  1.00  0.00     0.004 C 
HETATM   14  C9  UNL     1      13.498  11.529  42.008  1.00  0.00     0.025 C 
ENDBRANCH   9  11
ENDBRANCH   1   9
TORSDOF 2
ENDMDL
MODEL 3
REMARK VINA RESULT: -5.316557052      2.031      2.874
REMARK  2 active torsions:
REMARK  status: ('A' for Active; 'I' for Inactive)
REMARK    1  A    between atoms: C3_3  and  N1_4 
REMARK    2  A    between atoms: N1_4  and  C4_6 
ROOT
HETATM    1  C4  UNL     1      10.619  13.107  45.557  1.00  0.00     0.080 C 
HETATM    2  C5  UNL     1      10.288  14.107  46.648  1.00  0.00     0.052 C 
HETATM    3  C6  UNL     1       8.781  14.122  46.798  1.00  0.00     0.234 C 
HETATM    4  N2  UNL     1       8.176  12.978  46.159  1.00  0.00    -0.075 N 
ATOM      5  H21 UNL     1       8.133  13.098  45.147  1.00  0.00     0.277 HD
ATOM      6  H22 UNL     1       7.176  12.928  46.357  1.00  0.00     0.277 HD
HETATM    7  C7  UNL     1       8.847  11.739  46.516  1.00  0.00     0.234 C 
HETATM    8  C8  UNL     1      10.309  11.746  46.123  1.00  0.00     0.052 C 
ENDROOT
BRANCH   1   9
HETATM    9  N1  UNL     1      11.930  13.292  45.105  1.00  0.00    -0.413 N 
ATOM     10  H1  UNL     1      12.686  13.420  45.778  1.00  0.00     0.154 HD
BRANCH   9  11
HETATM   11  C3  UNL     1      12.210  13.301  43.723  1.00  0.00     0.077 C 
HETATM   12  C2  UNL     1      13.380  14.267  43.445  1.00  0.00     0.025 C 
HETATM   13  C1  UNL     1      13.741  13.340  42.303  1.00  0.00     0.004 C 
HETATM   14  C9  UNL     1      13.051  12.231  43.119  1.00  0.00     0.025 C 
ENDBRANCH   9  11
ENDBRANCH   1   9
TORSDOF 2
ENDMDL
MODEL 4
REMARK VINA RESULT: -5.231866073      3.947      5.532
REMARK  2 active torsions:
REMARK  status: ('A' for Active; 'I' for Inactive)
REMARK    1  A    between atoms: C3_3  and  N1_4 
REMARK    2  A    between atoms: N1_4  and  C4_6 
ROOT
HETATM    1  C4  UNL     1      15.309  12.264  40.571  1.00  0.00     0.080 C 
HETATM    2  C5  UNL     1      15.806  11.105  39.728  1.00  0.00     0.052 C 
HETATM    3  C6  UNL     1      15.401   9.830  40.439  1.00  0.00     0.234 C 
HETATM    4  N2  UNL     1      14.399  10.084  41.448  1.00  0.00    -0.075 N 
ATOM      5  H21 UNL     1      14.813  10.487  42.288  1.00  0.00     0.277 HD
ATOM      6  H22 UNL     1      14.045   9.214  41.846  1.00  0.00     0.277 HD
HETATM    7  C7  UNL     1      13.317  10.912  40.941  1.00  0.00     0.234 C 
HETATM    8  C8  UNL     1      13.808  12.259  40.453  1.00  0.00     0.052 C 
ENDROOT
BRANCH   1   9
HETATM    9  N1  UNL     1      15.944  13.452  40.191  1.00  0.00    -0.413 N 
ATOM     10  H1  UNL     1      16.202  13.600  39.216  1.00  0.00     0.154 HD
BRANCH   9  11
HETATM   11  C3  UNL     1      16.228  14.443  41.153  1.00  0.00     0.077 C 
HETATM   12  C2  UNL     1      16.190  15.832  40.482  1.00  0.00     0.025 C 
HETATM   13  C1  UNL     1      15.713  16.354  41.821  1.00  0.00     0.004 C 
HETATM   14  C9  UNL     1      15.156  14.939  42.061  1.00  0.00     0.025 C 
ENDBRANCH   9  11
ENDBRANCH   1   9
TORSDOF 2
ENDMDL
MODEL 5
REMARK VINA RESULT: -5.198845645      1.411      2.086
REMARK  2 active torsions:
REMARK  status: ('A' for Active; 'I' for Inactive)
REMARK    1  A    between atoms: C3_3  and  N1_4 
REMARK    2  A    between atoms: N1_4  and  C4_6 
ROOT
HETATM    1  C4  UNL     1      12.123  13.747  45.297  1.00  0.00     0.080 C 
HETATM    2  C5  UNL     1      10.851  12.995  44.959  1.00  0.00     0.052 C 
HETATM    3  C6  UNL     1      10.055  12.864  46.242  1.00  0.00     0.234 C 
HETATM    4  N2  UNL     1      10.541  13.768  47.258  1.00  0.00    -0.075 N 
ATOM      5  H21 UNL     1      11.397  13.417  47.687  1.00  0.00     0.277 HD
ATOM      6  H22 UNL     1       9.936  13.762  48.079  1.00  0.00     0.277 HD
HETATM    7  C7  UNL     1      10.721  15.116  46.744  1.00  0.00     0.234 C 
HETATM    8  C8  UNL     1      11.709  15.164  45.598  1.00  0.00     0.052 C 
ENDROOT
BRANCH   1   9
HETATM    9  N1  UNL     1      13.067  13.595  44.275  1.00  0.00    -0.413 N 
ATOM     10  H1  UNL     1      13.976  14.050  44.352  1.00  0.00     0.154 HD
BRANCH   9  11
HETATM   11  C3  UNL     1      12.764  12.815  43.140  1.00  0.00     0.077 C 
HETATM   12  C2  UNL     1      13.652  13.262  41.960  1.00  0.00     0.025 C 
HETATM   13  C1  UNL     1      13.585  11.821  41.497  1.00  0.00     0.004 C 
HETATM   14  C9  UNL     1      13.363  11.461  42.977  1.00  0.00     0.025 C 
ENDBRANCH   9  11
ENDBRANCH   1   9
TORSDOF 2
ENDMDL
