MODEL 1
REMARK VINA RESULT: -5.045704696      0.000      0.000
REMARK  3 active torsions:
REMARK  status: ('A' for Active; 'I' for Inactive)
REMARK    1  A    between atoms: N1_1  and  C1_5 
REMARK    2  A    between atoms: C5_9  and  N2_10 
REMARK    3  A    between atoms: N2_10  and  C6_12 
ROOT
HETATM    1  C1  UNL     1      12.834  15.642  45.057  1.00  0.00     0.185 C 
HETATM    2  C2  UNL     1      11.776  14.825  45.702  1.00  0.00     0.033 C 
HETATM    3  C3  UNL     1      11.331  13.605  44.975  1.00  0.00     0.004 C 
HETATM    4  C4  UNL     1      12.418  12.896  44.240  1.00  0.00     0.025 C 
HETATM    5  C5  UNL     1      13.091  13.939  43.352  1.00  0.00     0.079 C 
HETATM    6  C9  UNL     1      13.848  14.846  44.249  1.00  0.00     0.057 C 
ENDROOT
BRANCH   5   7
HETATM    7  N2  UNL     1      13.786  13.383  42.264  1.00  0.00    -0.413 N 
ATOM      8  H2  UNL     1      14.695  13.745  41.976  1.00  0.00     0.154 HD
BRANCH   7   9
HETATM    9  C6  UNL     1      13.174  12.295  41.578  1.00  0.00     0.077 A 
HETATM   10  C7  UNL     1      13.841  11.979  40.222  1.00  0.00     0.027 A 
HETATM   11  C8  UNL     1      13.890  11.022  41.371  1.00  0.00     0.027 A 
ENDBRANCH   7   9
ENDBRANCH   5   7
BRANCH   1  12
HETATM   12  N1  UNL     1      12.298  16.654  44.190  1.00  0.00    -0.075 N 
ATOM     13  H13 UNL     1      12.189  17.539  44.684  1.00  0.00     0.274 HD
ATOM     14  H12 UNL     1      12.984  16.939  43.491  1.00  0.00     0.274 HD
ATOM     15  H11 UNL     1      11.423  16.369  43.749  1.00  0.00     0.274 HD
ENDBRANCH   1  12
TORSDOF 3
ENDMDL
MODEL 2
REMARK VINA RESULT: -4.941263791      2.634      3.889
REMARK  3 active torsions:
REMARK  status: ('A' for Active; 'I' for Inactive)
REMARK    1  A    between atoms: N1_1  and  C1_5 
REMARK    2  A    between atoms: C5_9  and  N2_10 
REMARK    3  A    between atoms: N2_10  and  C6_12 
ROOT
HETATM    1  C1  UNL     1       9.811  14.782  48.000  1.00  0.00     0.185 C 
HETATM    2  C2  UNL     1       9.739  16.233  47.694  1.00  0.00     0.033 C 
HETATM    3  C3  UNL     1      10.365  16.683  46.421  1.00  0.00     0.004 C 
HETATM    4  C4  UNL     1      10.230  15.717  45.292  1.00  0.00     0.025 C 
HETATM    5  C5  UNL     1      10.755  14.379  45.805  1.00  0.00     0.079 C 
HETATM    6  C9  UNL     1       9.761  13.871  46.783  1.00  0.00     0.057 C 
ENDROOT
BRANCH   5   7
HETATM    7  N2  UNL     1      11.152  13.503  44.779  1.00  0.00    -0.413 N 
ATOM      8  H2  UNL     1      10.466  12.992  44.224  1.00  0.00     0.154 HD
BRANCH   7   9
HETATM    9  C6  UNL     1      12.549  13.357  44.542  1.00  0.00     0.077 A 
HETATM   10  C7  UNL     1      12.869  12.687  43.188  1.00  0.00     0.027 A 
HETATM   11  C8  UNL     1      13.225  14.113  43.470  1.00  0.00     0.027 A 
ENDBRANCH   7   9
ENDBRANCH   5   7
BRANCH   1  12
HETATM   12  N1  UNL     1      10.989  14.434  48.745  1.00  0.00    -0.075 N 
ATOM     13  H13 UNL     1      11.562  13.764  48.232  1.00  0.00     0.274 HD
ATOM     14  H12 UNL     1      11.643  15.215  48.782  1.00  0.00     0.274 HD
ATOM     15  H11 UNL     1      10.774  14.092  49.681  1.00  0.00     0.274 HD
ENDBRANCH   1  12
TORSDOF 3
ENDMDL
MODEL 3
REMARK VINA RESULT: -4.926329549      1.915      2.608
REMARK  3 active torsions:
REMARK  status: ('A' for Active; 'I' for Inactive)
REMARK    1  A    between atoms: N1_1  and  C1_5 
REMARK    2  A    between atoms: C5_9  and  N2_10 
REMARK    3  A    between atoms: N2_10  and  C6_12 
ROOT
HETATM    1  C1  UNL     1      10.124  14.052  46.082  1.00  0.00     0.185 C 
HETATM    2  C2  UNL     1      10.298  15.526  46.117  1.00  0.00     0.033 C 
HETATM    3  C3  UNL     1      11.595  16.062  45.620  1.00  0.00     0.004 C 
HETATM    4  C4  UNL     1      12.169  15.312  44.465  1.00  0.00     0.025 C 
HETATM    5  C5  UNL     1      12.221  13.845  44.886  1.00  0.00     0.079 C 
HETATM    6  C9  UNL     1      10.821  13.356  44.923  1.00  0.00     0.057 C 
ENDROOT
BRANCH   5   7
HETATM    7  N2  UNL     1      13.149  13.085  44.151  1.00  0.00    -0.413 N 
ATOM      8  H2  UNL     1      14.046  12.813  44.553  1.00  0.00     0.154 HD
BRANCH   7   9
HETATM    9  C6  UNL     1      12.788  12.708  42.826  1.00  0.00     0.077 A 
HETATM   10  C7  UNL     1      13.885  13.021  41.786  1.00  0.00     0.027 A 
HETATM   11  C8  UNL     1      13.491  11.618  42.124  1.00  0.00     0.027 A 
ENDBRANCH   7   9
ENDBRANCH   5   7
BRANCH   1  12
HETATM   12  N1  UNL     1      10.568  13.416  47.290  1.00  0.00    -0.075 N 
ATOM     13  H13 UNL     1      11.586  13.407  47.347  1.00  0.00     0.274 HD
ATOM     14  H12 UNL     1      10.363  13.993  48.106  1.00  0.00     0.274 HD
ATOM     15  H11 UNL     1      10.186  12.476  47.402  1.00  0.00     0.274 HD
ENDBRANCH   1  12
TORSDOF 3
ENDMDL
MODEL 4
REMARK VINA RESULT: -4.910040414      3.405      6.514
REMARK  3 active torsions:
REMARK  status: ('A' for Active; 'I' for Inactive)
REMARK    1  A    between atoms: N1_1  and  C1_5 
REMARK    2  A    between atoms: C5_9  and  N2_10 
REMARK    3  A    between atoms: N2_10  and  C6_12 
ROOT
HETATM    1  C1  UNL     1      11.313  14.417  45.201  1.00  0.00     0.185 C 
HETATM    2  C2  UNL     1      11.188  12.951  45.004  1.00  0.00     0.033 C 
HETATM    3  C3  UNL     1      10.360  12.207  45.991  1.00  0.00     0.004 C 
HETATM    4  C4  UNL     1       9.166  12.956  46.481  1.00  0.00     0.025 C 
HETATM    5  C5  UNL     1       9.678  14.302  46.986  1.00  0.00     0.079 C 
HETATM    6  C9  UNL     1      10.081  15.086  45.793  1.00  0.00     0.057 C 
ENDROOT
BRANCH   5   7
HETATM    7  N2  UNL     1       8.809  14.924  47.900  1.00  0.00    -0.413 N 
ATOM      8  H2  UNL     1       8.196  14.376  48.504  1.00  0.00     0.154 HD
BRANCH   7   9
HETATM    9  C6  UNL     1       8.818  16.347  47.952  1.00  0.00     0.077 A 
HETATM   10  C7  UNL     1       7.814  16.924  48.975  1.00  0.00     0.027 A 
HETATM   11  C8  UNL     1       9.293  17.065  49.150  1.00  0.00     0.027 A 
ENDBRANCH   7   9
ENDBRANCH   5   7
BRANCH   1  12
HETATM   12  N1  UNL     1      12.430  14.769  46.032  1.00  0.00    -0.075 N 
ATOM     13  H13 UNL     1      13.310  14.488  45.601  1.00  0.00     0.274 HD
ATOM     14  H12 UNL     1      12.570  15.779  46.051  1.00  0.00     0.274 HD
ATOM     15  H11 UNL     1      12.348  14.393  46.978  1.00  0.00     0.274 HD
ENDBRANCH   1  12
TORSDOF 3
ENDMDL
MODEL 5
REMARK VINA RESULT: -4.906606986      1.966      4.061
REMARK  3 active torsions:
REMARK  status: ('A' for Active; 'I' for Inactive)
REMARK    1  A    between atoms: N1_1  and  C1_5 
REMARK    2  A    between atoms: C5_9  and  N2_10 
REMARK    3  A    between atoms: N2_10  and  C6_12 
ROOT
HETATM    1  C1  UNL     1      14.145  15.512  43.261  1.00  0.00     0.185 C 
HETATM    2  C2  UNL     1      14.286  14.499  42.185  1.00  0.00     0.033 C 
HETATM    3  C3  UNL     1      13.760  13.136  42.470  1.00  0.00     0.004 C 
HETATM    4  C4  UNL     1      12.520  13.116  43.299  1.00  0.00     0.025 C 
HETATM    5  C5  UNL     1      12.821  13.941  44.547  1.00  0.00     0.079 C 
HETATM    6  C9  UNL     1      12.898  15.360  44.118  1.00  0.00     0.057 C 
ENDROOT
BRANCH   5   7
HETATM    7  N2  UNL     1      11.979  13.642  45.632  1.00  0.00    -0.413 N 
ATOM      8  H2  UNL     1      12.285  13.785  46.595  1.00  0.00     0.154 HD
BRANCH   7   9
HETATM    9  C6  UNL     1      10.681  13.133  45.338  1.00  0.00     0.077 A 
HETATM   10  C7  UNL     1      10.308  11.896  46.184  1.00  0.00     0.027 A 
HETATM   11  C8  UNL     1       9.591  13.201  46.329  1.00  0.00     0.027 A 
ENDBRANCH   7   9
ENDBRANCH   5   7
BRANCH   1  12
HETATM   12  N1  UNL     1      15.273  15.531  44.149  1.00  0.00    -0.075 N 
ATOM     13  H13 UNL     1      15.733  16.441  44.137  1.00  0.00     0.274 HD
ATOM     14  H12 UNL     1      14.973  15.512  45.124  1.00  0.00     0.274 HD
ATOM     15  H11 UNL     1      15.937  14.781  43.956  1.00  0.00     0.274 HD
ENDBRANCH   1  12
TORSDOF 3
ENDMDL
