MODEL 1
REMARK VINA RESULT: -5.017104257      0.000      0.000
REMARK  3 active torsions:
REMARK  status: ('A' for Active; 'I' for Inactive)
REMARK    1  A    between atoms: C2_2  and  C3_3 
REMARK    2  A    between atoms: C6_6  and  N1_7 
REMARK    3  A    between atoms: C7_11  and  N2_13 
ROOT
HETATM    1  C3  UNL     1      10.780  13.868  45.188  1.00  0.00     0.037 C 
HETATM    2  C4  UNL     1      10.666  12.405  45.687  1.00  0.00     0.013 C 
HETATM    3  C5  UNL     1       9.519  12.434  46.636  1.00  0.00     0.036 C 
HETATM    4  C6  UNL     1       9.190  13.887  46.901  1.00  0.00     0.211 C 
HETATM    5  C7  UNL     1      10.406  14.665  46.366  1.00  0.00     0.056 C 
HETATM    6  C8  UNL     1       9.829  16.031  45.994  1.00  0.00     0.041 C 
ENDROOT
BRANCH   4   7
HETATM    7  N1  UNL     1       7.996  14.231  46.159  1.00  0.00    -0.073 N 
ATOM      8  H13 UNL     1       7.622  13.442  45.632  1.00  0.00     0.274 HD
ATOM      9  H12 UNL     1       7.190  14.387  46.765  1.00  0.00     0.274 HD
ATOM     10  H11 UNL     1       8.202  15.035  45.567  1.00  0.00     0.274 HD
ENDBRANCH   4   7
BRANCH   5  11
HETATM   11  N2  UNL     1      11.346  14.727  47.404  1.00  0.00    -0.415 N 
HETATM   12  C9  UNL     1      11.055  15.443  48.588  1.00  0.00     0.140 C 
ATOM     13  H2  UNL     1      12.244  14.254  47.304  1.00  0.00     0.153 HD
ENDBRANCH   5  11
BRANCH   1  14
HETATM   14  C2  UNL     1      12.126  13.976  44.646  1.00  0.00    -0.030 C 
HETATM   15  C1  UNL     1      12.617  12.928  43.970  1.00  0.00     0.007 C 
ENDBRANCH   1  14
TORSDOF 3
ENDMDL
MODEL 2
REMARK VINA RESULT: -4.940772882      1.159      1.308
REMARK  3 active torsions:
REMARK  status: ('A' for Active; 'I' for Inactive)
REMARK    1  A    between atoms: C2_2  and  C3_3 
REMARK    2  A    between atoms: C6_6  and  N1_7 
REMARK    3  A    between atoms: C7_11  and  N2_13 
ROOT
HETATM    1  C3  UNL     1      10.496  14.045  45.402  1.00  0.00     0.037 C 
HETATM    2  C4  UNL     1      11.234  12.690  45.258  1.00  0.00     0.013 C 
HETATM    3  C5  UNL     1      10.344  11.717  45.951  1.00  0.00     0.036 C 
HETATM    4  C6  UNL     1       9.310  12.516  46.713  1.00  0.00     0.211 C 
HETATM    5  C7  UNL     1       9.860  13.953  46.724  1.00  0.00     0.056 C 
HETATM    6  C8  UNL     1       8.607  14.822  46.837  1.00  0.00     0.041 C 
ENDROOT
BRANCH   4   7
HETATM    7  N1  UNL     1       8.057  12.454  45.991  1.00  0.00    -0.073 N 
ATOM      8  H13 UNL     1       8.183  12.526  44.981  1.00  0.00     0.274 HD
ATOM      9  H12 UNL     1       7.638  11.524  46.012  1.00  0.00     0.274 HD
ATOM     10  H11 UNL     1       7.434  13.173  46.359  1.00  0.00     0.274 HD
ENDBRANCH   4   7
BRANCH   5  11
HETATM   11  N2  UNL     1      10.708  14.062  47.836  1.00  0.00    -0.415 N 
HETATM   12  C9  UNL     1      10.676  15.220  48.647  1.00  0.00     0.140 C 
ATOM     13  H2  UNL     1      11.350  13.302  48.060  1.00  0.00     0.153 HD
ENDBRANCH   5  11
BRANCH   1  14
HETATM   14  C2  UNL     1      11.515  15.055  45.164  1.00  0.00    -0.030 C 
HETATM   15  C1  UNL     1      12.742  14.640  44.815  1.00  0.00     0.007 C 
ENDBRANCH   1  14
TORSDOF 3
ENDMDL
MODEL 3
REMARK VINA RESULT: -4.913035128      1.503      1.763
REMARK  3 active torsions:
REMARK  status: ('A' for Active; 'I' for Inactive)
REMARK    1  A    between atoms: C2_2  and  C3_3 
REMARK    2  A    between atoms: C6_6  and  N1_7 
REMARK    3  A    between atoms: C7_11  and  N2_13 
ROOT
HETATM    1  C3  UNL     1      11.591  13.735  44.620  1.00  0.00     0.037 C 
HETATM    2  C4  UNL     1      10.883  12.789  45.624  1.00  0.00     0.013 C 
HETATM    3  C5  UNL     1      10.034  13.698  46.442  1.00  0.00     0.036 C 
HETATM    4  C6  UNL     1      10.461  15.116  46.131  1.00  0.00     0.211 C 
HETATM    5  C7  UNL     1      11.806  14.964  45.398  1.00  0.00     0.056 C 
HETATM    6  C8  UNL     1      11.884  16.212  44.518  1.00  0.00     0.041 C 
ENDROOT
BRANCH   4   7
HETATM    7  N1  UNL     1       9.470  15.714  45.262  1.00  0.00    -0.073 N 
ATOM      8  H13 UNL     1       8.550  15.287  45.365  1.00  0.00     0.274 HD
ATOM      9  H12 UNL     1       9.217  16.660  45.551  1.00  0.00     0.274 HD
ATOM     10  H11 UNL     1       9.813  15.676  44.302  1.00  0.00     0.274 HD
ENDBRANCH   4   7
BRANCH   5  11
HETATM   11  N2  UNL     1      12.808  14.918  46.378  1.00  0.00    -0.415 N 
HETATM   12  C9  UNL     1      13.073  16.051  47.181  1.00  0.00     0.140 C 
ATOM     13  H2  UNL     1      13.347  14.063  46.512  1.00  0.00     0.153 HD
ENDBRANCH   5  11
BRANCH   1  14
HETATM   14  C2  UNL     1      12.737  12.981  44.138  1.00  0.00    -0.030 C 
HETATM   15  C1  UNL     1      13.083  13.118  42.850  1.00  0.00     0.007 C 
ENDBRANCH   1  14
TORSDOF 3
ENDMDL
MODEL 4
REMARK VINA RESULT: -4.718944645      2.474      3.443
REMARK  3 active torsions:
REMARK  status: ('A' for Active; 'I' for Inactive)
REMARK    1  A    between atoms: C2_2  and  C3_3 
REMARK    2  A    between atoms: C6_6  and  N1_7 
REMARK    3  A    between atoms: C7_11  and  N2_13 
ROOT
HETATM    1  C3  UNL     1      13.083  14.897  43.421  1.00  0.00     0.037 C 
HETATM    2  C4  UNL     1      13.405  13.461  42.932  1.00  0.00     0.013 C 
HETATM    3  C5  UNL     1      12.596  12.584  43.822  1.00  0.00     0.036 C 
HETATM    4  C6  UNL     1      12.079  13.445  44.954  1.00  0.00     0.211 C 
HETATM    5  C7  UNL     1      12.914  14.736  44.873  1.00  0.00     0.056 C 
HETATM    6  C8  UNL     1      11.999  15.800  45.480  1.00  0.00     0.041 C 
ENDROOT
BRANCH   4   7
HETATM    7  N1  UNL     1      10.679  13.725  44.716  1.00  0.00    -0.073 N 
ATOM      8  H13 UNL     1      10.539  14.438  44.000  1.00  0.00     0.274 HD
ATOM      9  H12 UNL     1      10.201  12.958  44.245  1.00  0.00     0.274 HD
ATOM     10  H11 UNL     1      10.242  13.973  45.604  1.00  0.00     0.274 HD
ENDBRANCH   4   7
BRANCH   5  11
HETATM   11  N2  UNL     1      14.081  14.521  45.620  1.00  0.00    -0.415 N 
HETATM   12  C9  UNL     1      14.563  15.522  46.494  1.00  0.00     0.140 C 
ATOM     13  H2  UNL     1      14.583  13.638  45.533  1.00  0.00     0.153 HD
ENDBRANCH   5  11
BRANCH   1  14
HETATM   14  C2  UNL     1      14.169  15.719  42.912  1.00  0.00    -0.030 C 
HETATM   15  C1  UNL     1      15.158  15.111  42.243  1.00  0.00     0.007 C 
ENDBRANCH   1  14
TORSDOF 3
ENDMDL
MODEL 5
REMARK VINA RESULT: -4.647290681      1.462      2.289
REMARK  3 active torsions:
REMARK  status: ('A' for Active; 'I' for Inactive)
REMARK    1  A    between atoms: C2_2  and  C3_3 
REMARK    2  A    between atoms: C6_6  and  N1_7 
REMARK    3  A    between atoms: C7_11  and  N2_13 
ROOT
HETATM    1  C3  UNL     1       9.916  12.963  45.954  1.00  0.00     0.037 C 
HETATM    2  C4  UNL     1       8.461  12.894  46.484  1.00  0.00     0.013 C 
HETATM    3  C5  UNL     1       8.058  14.321  46.626  1.00  0.00     0.036 C 
HETATM    4  C6  UNL     1       9.309  15.159  46.479  1.00  0.00     0.211 C 
HETATM    5  C7  UNL     1      10.468  14.155  46.615  1.00  0.00     0.056 C 
HETATM    6  C8  UNL     1      11.603  14.797  45.818  1.00  0.00     0.041 C 
ENDROOT
BRANCH   4   7
HETATM    7  N1  UNL     1       9.308  15.762  45.163  1.00  0.00    -0.073 N 
ATOM      8  H13 UNL     1       8.562  15.401  44.568  1.00  0.00     0.274 HD
ATOM      9  H12 UNL     1       9.012  16.738  45.180  1.00  0.00     0.274 HD
ATOM     10  H11 UNL     1      10.232  15.639  44.748  1.00  0.00     0.274 HD
ENDBRANCH   4   7
BRANCH   5  11
HETATM   11  N2  UNL     1      10.753  14.036  47.984  1.00  0.00    -0.415 N 
HETATM   12  C9  UNL     1      10.856  15.191  48.793  1.00  0.00     0.140 C 
ATOM     13  H2  UNL     1      10.886  13.113  48.396  1.00  0.00     0.153 HD
ENDBRANCH   5  11
BRANCH   1  14
HETATM   14  C2  UNL     1      10.482  11.655  46.242  1.00  0.00    -0.030 C 
HETATM   15  C1  UNL     1       9.637  10.632  46.434  1.00  0.00     0.007 C 
ENDBRANCH   1  14
TORSDOF 3
ENDMDL
