MODEL 1
REMARK VINA RESULT: -5.012010667      0.000      0.000
REMARK  2 active torsions:
REMARK  status: ('A' for Active; 'I' for Inactive)
REMARK    1  A    between atoms: C2_3  and  N2_4 
REMARK    2  A    between atoms: C2_3  and  C3_8 
ROOT
HETATM    1  N1  UNL     1      15.836  12.587  39.768  1.00  0.00    -0.195 NA
HETATM    2  C1  UNL     1      14.807  12.335  40.232  1.00  0.00     0.094 C 
HETATM    3  C2  UNL     1      13.488  12.027  40.826  1.00  0.00     0.319 C 
ENDROOT
BRANCH   3   4
HETATM    4  N2  UNL     1      13.667  10.784  41.566  1.00  0.00    -0.060 N 
ATOM      5  H23 UNL     1      13.639   9.951  40.977  1.00  0.00     0.276 HD
ATOM      6  H22 UNL     1      14.615  10.651  41.920  1.00  0.00     0.276 HD
ATOM      7  H21 UNL     1      12.956  10.791  42.297  1.00  0.00     0.276 HD
ENDBRANCH   3   4
BRANCH   3   8
HETATM    8  C3  UNL     1      13.115  13.084  41.857  1.00  0.00     0.230 C 
HETATM    9  C4  UNL     1      12.868  12.370  43.163  1.00  0.00     0.036 C 
HETATM   10  C5  UNL     1      12.489  13.414  44.186  1.00  0.00     0.004 C 
HETATM   11  C6  UNL     1      12.674  14.816  43.686  1.00  0.00     0.027 C 
HETATM   12  C7  UNL     1      13.942  15.023  42.920  1.00  0.00     0.233 C 
HETATM   13  N3  UNL     1      14.282  13.953  42.036  1.00  0.00    -0.068 N 
ATOM     14  H32 UNL     1      15.104  13.437  42.350  1.00  0.00     0.277 HD
ATOM     15  H31 UNL     1      14.654  14.288  41.147  1.00  0.00     0.277 HD
ENDBRANCH   3   8
TORSDOF 2
ENDMDL
MODEL 2
REMARK VINA RESULT: -4.936984745      1.896      2.745
REMARK  2 active torsions:
REMARK  status: ('A' for Active; 'I' for Inactive)
REMARK    1  A    between atoms: C2_3  and  N2_4 
REMARK    2  A    between atoms: C2_3  and  C3_8 
ROOT
HETATM    1  N1  UNL     1      15.432   9.433  39.604  1.00  0.00    -0.195 NA
HETATM    2  C1  UNL     1      14.733  10.092  40.250  1.00  0.00     0.094 C 
HETATM    3  C2  UNL     1      13.846  10.945  41.068  1.00  0.00     0.319 C 
ENDROOT
BRANCH   3   4
HETATM    4  N2  UNL     1      13.740  10.283  42.362  1.00  0.00    -0.060 N 
ATOM      5  H23 UNL     1      14.599   9.815  42.652  1.00  0.00     0.276 HD
ATOM      6  H22 UNL     1      13.682  10.930  43.149  1.00  0.00     0.276 HD
ATOM      7  H21 UNL     1      12.939   9.657  42.289  1.00  0.00     0.276 HD
ENDBRANCH   3   4
BRANCH   3   8
HETATM    8  C3  UNL     1      14.507  12.292  41.333  1.00  0.00     0.230 C 
HETATM    9  C4  UNL     1      15.043  12.795  40.016  1.00  0.00     0.036 C 
HETATM   10  C5  UNL     1      15.707  14.126  40.276  1.00  0.00     0.004 C 
HETATM   11  C6  UNL     1      15.461  14.642  41.663  1.00  0.00     0.027 C 
HETATM   12  C7  UNL     1      14.051  14.466  42.132  1.00  0.00     0.233 C 
HETATM   13  N3  UNL     1      13.458  13.216  41.772  1.00  0.00    -0.068 N 
ATOM     14  H32 UNL     1      12.720  13.323  41.076  1.00  0.00     0.277 HD
ATOM     15  H31 UNL     1      12.890  12.827  42.525  1.00  0.00     0.277 HD
ENDBRANCH   3   8
TORSDOF 2
ENDMDL
MODEL 3
REMARK VINA RESULT: -4.926827479      1.515      2.339
REMARK  2 active torsions:
REMARK  status: ('A' for Active; 'I' for Inactive)
REMARK    1  A    between atoms: C2_3  and  N2_4 
REMARK    2  A    between atoms: C2_3  and  C3_8 
ROOT
HETATM    1  N1  UNL     1      14.648   9.909  39.876  1.00  0.00    -0.195 NA
HETATM    2  C1  UNL     1      13.997  10.689  40.432  1.00  0.00     0.094 C 
HETATM    3  C2  UNL     1      13.171  11.695  41.133  1.00  0.00     0.319 C 
ENDROOT
BRANCH   3   4
HETATM    4  N2  UNL     1      13.161  11.293  42.533  1.00  0.00    -0.060 N 
ATOM      5  H23 UNL     1      13.648  10.415  42.710  1.00  0.00     0.276 HD
ATOM      6  H22 UNL     1      13.744  11.879  43.131  1.00  0.00     0.276 HD
ATOM      7  H21 UNL     1      12.179  11.278  42.810  1.00  0.00     0.276 HD
ENDBRANCH   3   4
BRANCH   3   8
HETATM    8  C3  UNL     1      13.850  13.058  41.087  1.00  0.00     0.230 C 
HETATM    9  C4  UNL     1      13.870  13.597  42.496  1.00  0.00     0.036 C 
HETATM   10  C5  UNL     1      14.534  14.952  42.454  1.00  0.00     0.004 C 
HETATM   11  C6  UNL     1      15.150  15.260  41.122  1.00  0.00     0.027 C 
HETATM   12  C7  UNL     1      15.885  14.107  40.514  1.00  0.00     0.233 C 
HETATM   13  N3  UNL     1      15.238  12.842  40.671  1.00  0.00    -0.068 N 
ATOM     14  H32 UNL     1      15.742  12.225  41.308  1.00  0.00     0.277 HD
ATOM     15  H31 UNL     1      15.305  12.267  39.831  1.00  0.00     0.277 HD
ENDBRANCH   3   8
TORSDOF 2
ENDMDL
MODEL 4
REMARK VINA RESULT: -4.832204330      1.684      4.202
REMARK  2 active torsions:
REMARK  status: ('A' for Active; 'I' for Inactive)
REMARK    1  A    between atoms: C2_3  and  N2_4 
REMARK    2  A    between atoms: C2_3  and  C3_8 
ROOT
HETATM    1  N1  UNL     1      12.522  14.338  45.115  1.00  0.00    -0.195 NA
HETATM    2  C1  UNL     1      13.035  14.684  44.137  1.00  0.00     0.094 C 
HETATM    3  C2  UNL     1      13.681  15.118  42.880  1.00  0.00     0.319 C 
ENDROOT
BRANCH   3   4
HETATM    4  N2  UNL     1      15.085  15.332  43.208  1.00  0.00    -0.060 N 
ATOM      5  H23 UNL     1      15.539  16.033  42.624  1.00  0.00     0.276 HD
ATOM      6  H22 UNL     1      15.228  15.805  44.101  1.00  0.00     0.276 HD
ATOM      7  H21 UNL     1      15.524  14.413  43.160  1.00  0.00     0.276 HD
ENDBRANCH   3   4
BRANCH   3   8
HETATM    8  C3  UNL     1      13.651  13.991  41.856  1.00  0.00     0.230 C 
HETATM    9  C4  UNL     1      15.028  13.904  41.245  1.00  0.00     0.036 C 
HETATM   10  C5  UNL     1      15.000  12.793  40.223  1.00  0.00     0.004 C 
HETATM   11  C6  UNL     1      13.734  11.990  40.265  1.00  0.00     0.027 C 
HETATM   12  C7  UNL     1      13.267  11.671  41.650  1.00  0.00     0.233 C 
HETATM   13  N3  UNL     1      13.405  12.743  42.585  1.00  0.00    -0.068 N 
ATOM     14  H32 UNL     1      14.122  12.556  43.285  1.00  0.00     0.277 HD
ATOM     15  H31 UNL     1      12.605  12.815  43.213  1.00  0.00     0.277 HD
ENDBRANCH   3   8
TORSDOF 2
ENDMDL
MODEL 5
REMARK VINA RESULT: -4.829945804      1.951      3.875
REMARK  2 active torsions:
REMARK  status: ('A' for Active; 'I' for Inactive)
REMARK    1  A    between atoms: C2_3  and  N2_4 
REMARK    2  A    between atoms: C2_3  and  C3_8 
ROOT
HETATM    1  N1  UNL     1      15.781  17.041  40.992  1.00  0.00    -0.195 NA
HETATM    2  C1  UNL     1      15.131  16.371  41.676  1.00  0.00     0.094 C 
HETATM    3  C2  UNL     1      14.306  15.505  42.545  1.00  0.00     0.319 C 
ENDROOT
BRANCH   3   4
HETATM    4  N2  UNL     1      13.086  16.256  42.810  1.00  0.00    -0.060 N 
ATOM      5  H23 UNL     1      12.893  16.384  43.803  1.00  0.00     0.276 HD
ATOM      6  H22 UNL     1      13.154  17.245  42.570  1.00  0.00     0.276 HD
ATOM      7  H21 UNL     1      12.344  15.765  42.310  1.00  0.00     0.276 HD
ENDBRANCH   3   4
BRANCH   3   8
HETATM    8  C3  UNL     1      13.879  14.254  41.787  1.00  0.00     0.230 C 
HETATM    9  C4  UNL     1      15.101  13.717  41.082  1.00  0.00     0.036 C 
HETATM   10  C5  UNL     1      14.679  12.482  40.323  1.00  0.00     0.004 C 
HETATM   11  C6  UNL     1      13.283  12.042  40.650  1.00  0.00     0.027 C 
HETATM   12  C7  UNL     1      12.955  12.106  42.109  1.00  0.00     0.233 C 
HETATM   13  N3  UNL     1      13.463  13.261  42.781  1.00  0.00    -0.068 N 
ATOM     14  H32 UNL     1      14.210  13.031  43.436  1.00  0.00     0.277 HD
ATOM     15  H31 UNL     1      12.796  13.642  43.452  1.00  0.00     0.277 HD
ENDBRANCH   3   8
TORSDOF 2
ENDMDL
