MODEL 1
REMARK VINA RESULT: -4.786099160      0.000      0.000
REMARK  1 active torsions:
REMARK  status: ('A' for Active; 'I' for Inactive)
REMARK    1  A    between atoms: C1_4  and  C2_5 
ROOT
HETATM    1  C2  UNL     1      13.710  12.925  41.067  1.00  0.00     0.069 C 
HETATM    2  C3  UNL     1      14.655  12.432  40.035  1.00  0.00     0.015 C 
HETATM    3  C4  UNL     1      15.193  11.074  40.230  1.00  0.00     0.028 C 
HETATM    4  C5  UNL     1      14.258  10.093  40.865  1.00  0.00     0.234 C 
HETATM    5  N2  UNL     1      13.742  10.679  42.078  1.00  0.00    -0.057 N 
ATOM      6  H21 UNL     1      14.490  10.843  42.751  1.00  0.00     0.279 HD
ATOM      7  H22 UNL     1      13.190  10.002  42.604  1.00  0.00     0.279 HD
HETATM    8  C6  UNL     1      13.003  11.861  41.847  1.00  0.00     0.289 C 
HETATM    9 CL1  UNL     1      12.563  12.572  43.439  1.00  0.00    -0.094 Cl
ENDROOT
BRANCH   1  10
HETATM   10  C1  UNL     1      14.379  13.902  41.960  1.00  0.00     0.060 C 
HETATM   11  N1  UNL     1      15.376  14.631  41.643  1.00  0.00    -0.411 N 
ATOM     12  H12 UNL     1      15.730  14.520  40.694  1.00  0.00     0.155 HD
ATOM     13  H11 UNL     1      15.835  15.303  42.258  1.00  0.00     0.155 HD
ENDBRANCH   1  10
TORSDOF 1
ENDMDL
MODEL 2
REMARK VINA RESULT: -4.700882325      1.969      3.710
REMARK  1 active torsions:
REMARK  status: ('A' for Active; 'I' for Inactive)
REMARK    1  A    between atoms: C1_4  and  C2_5 
ROOT
HETATM    1  C2  UNL     1      13.672  11.727  40.576  1.00  0.00     0.069 C 
HETATM    2  C3  UNL     1      12.716  12.198  41.607  1.00  0.00     0.015 C 
HETATM    3  C4  UNL     1      13.191  13.261  42.511  1.00  0.00     0.028 C 
HETATM    4  C5  UNL     1      14.126  14.257  41.900  1.00  0.00     0.234 C 
HETATM    5  N2  UNL     1      15.197  13.537  41.256  1.00  0.00    -0.057 N 
ATOM      6  H21 UNL     1      15.742  13.008  41.937  1.00  0.00     0.279 HD
ATOM      7  H22 UNL     1      15.920  14.178  40.927  1.00  0.00     0.279 HD
HETATM    8  C6  UNL     1      14.748  12.702  40.210  1.00  0.00     0.289 C 
HETATM    9 CL1  UNL     1      16.149  11.747  39.608  1.00  0.00    -0.094 Cl
ENDROOT
BRANCH   1  10
HETATM   10  C1  UNL     1      14.236  10.409  40.952  1.00  0.00     0.060 C 
HETATM   11  N1  UNL     1      14.115   9.851  42.093  1.00  0.00    -0.411 N 
ATOM     12  H12 UNL     1      13.583  10.368  42.792  1.00  0.00     0.155 HD
ATOM     13  H11 UNL     1      14.503   8.944  42.351  1.00  0.00     0.155 HD
ENDBRANCH   1  10
TORSDOF 1
ENDMDL
MODEL 3
REMARK VINA RESULT: -4.567205847      2.072      3.558
REMARK  1 active torsions:
REMARK  status: ('A' for Active; 'I' for Inactive)
REMARK    1  A    between atoms: C1_4  and  C2_5 
ROOT
HETATM    1  C2  UNL     1      13.760  12.329  40.931  1.00  0.00     0.069 C 
HETATM    2  C3  UNL     1      13.651  13.587  41.709  1.00  0.00     0.015 C 
HETATM    3  C4  UNL     1      14.874  14.403  41.817  1.00  0.00     0.028 C 
HETATM    4  C5  UNL     1      15.773  14.382  40.621  1.00  0.00     0.234 C 
HETATM    5  N2  UNL     1      16.036  13.006  40.276  1.00  0.00    -0.057 N 
ATOM      6  H21 UNL     1      16.541  12.533  41.025  1.00  0.00     0.279 HD
ATOM      7  H22 UNL     1      16.737  12.944  39.537  1.00  0.00     0.279 HD
HETATM    8  C6  UNL     1      14.868  12.294  39.924  1.00  0.00     0.289 C 
HETATM    9 CL1  UNL     1      15.311  10.568  39.681  1.00  0.00    -0.094 Cl
ENDROOT
BRANCH   1  10
HETATM   10  C1  UNL     1      13.812  11.158  41.840  1.00  0.00     0.060 C 
HETATM   11  N1  UNL     1      13.210  11.065  42.960  1.00  0.00    -0.411 N 
ATOM     12  H12 UNL     1      12.651  11.871  43.238  1.00  0.00     0.155 HD
ATOM     13  H11 UNL     1      13.246  10.259  43.584  1.00  0.00     0.155 HD
ENDBRANCH   1  10
TORSDOF 1
ENDMDL
MODEL 4
REMARK VINA RESULT: -4.553034883      2.504      3.167
REMARK  1 active torsions:
REMARK  status: ('A' for Active; 'I' for Inactive)
REMARK    1  A    between atoms: C1_4  and  C2_5 
ROOT
HETATM    1  C2  UNL     1      14.624  14.409  42.054  1.00  0.00     0.069 C 
HETATM    2  C3  UNL     1      13.534  13.468  42.408  1.00  0.00     0.015 C 
HETATM    3  C4  UNL     1      13.170  12.467  41.389  1.00  0.00     0.028 C 
HETATM    4  C5  UNL     1      14.300  11.962  40.548  1.00  0.00     0.234 C 
HETATM    5  N2  UNL     1      15.002  13.099  40.003  1.00  0.00    -0.057 N 
ATOM      6  H21 UNL     1      14.398  13.638  39.383  1.00  0.00     0.279 HD
ATOM      7  H22 UNL     1      15.709  12.802  39.330  1.00  0.00     0.279 HD
HETATM    8  C6  UNL     1      15.569  13.924  40.999  1.00  0.00     0.289 C 
HETATM    9 CL1  UNL     1      16.265  15.377  40.200  1.00  0.00    -0.094 Cl
ENDROOT
BRANCH   1  10
HETATM   10  C1  UNL     1      14.071  15.744  41.718  1.00  0.00     0.060 C 
HETATM   11  N1  UNL     1      13.166  16.356  42.376  1.00  0.00    -0.411 N 
ATOM     12  H12 UNL     1      12.804  15.873  43.198  1.00  0.00     0.155 HD
ATOM     13  H11 UNL     1      12.786  17.274  42.145  1.00  0.00     0.155 HD
ENDBRANCH   1  10
TORSDOF 1
ENDMDL
MODEL 5
REMARK VINA RESULT: -4.522443425      2.691      3.929
REMARK  1 active torsions:
REMARK  status: ('A' for Active; 'I' for Inactive)
REMARK    1  A    between atoms: C1_4  and  C2_5 
ROOT
HETATM    1  C2  UNL     1      12.740  13.104  44.092  1.00  0.00     0.069 C 
HETATM    2  C3  UNL     1      12.903  12.085  43.027  1.00  0.00     0.015 C 
HETATM    3  C4  UNL     1      13.264  12.585  41.688  1.00  0.00     0.028 C 
HETATM    4  C5  UNL     1      14.156  13.787  41.666  1.00  0.00     0.234 C 
HETATM    5  N2  UNL     1      13.572  14.799  42.512  1.00  0.00    -0.057 N 
ATOM      6  H21 UNL     1      12.669  15.102  42.148  1.00  0.00     0.279 HD
ATOM      7  H22 UNL     1      14.085  15.678  42.436  1.00  0.00     0.279 HD
HETATM    8  C6  UNL     1      13.463  14.394  43.860  1.00  0.00     0.289 C 
HETATM    9 CL1  UNL     1      12.576  15.671  44.764  1.00  0.00    -0.094 Cl
ENDROOT
BRANCH   1  10
HETATM   10  C1  UNL     1      11.303  13.329  44.381  1.00  0.00     0.060 C 
HETATM   11  N1  UNL     1      10.652  12.807  45.346  1.00  0.00    -0.411 N 
ATOM     12  H12 UNL     1      11.179  12.187  45.960  1.00  0.00     0.155 HD
ATOM     13  H11 UNL     1       9.663  12.963  45.544  1.00  0.00     0.155 HD
ENDBRANCH   1  10
TORSDOF 1
ENDMDL
