MODEL 1
REMARK VINA RESULT: -4.490624564      0.000      0.000
REMARK  1 active torsions:
REMARK  status: ('A' for Active; 'I' for Inactive)
REMARK    1  A    between atoms: C2_2  and  C3_3 
ROOT
HETATM    1  C3  UNL     1      13.240  14.479  44.314  1.00  0.00     0.279 C 
HETATM    2  N1  UNL     1      12.964  15.790  44.856  1.00  0.00    -0.054 N 
ATOM      3  H11 UNL     1      12.495  16.403  44.189  1.00  0.00     0.279 HD
ATOM      4  H12 UNL     1      13.808  16.349  44.986  1.00  0.00     0.279 HD
HETATM    5  C4  UNL     1      12.212  15.617  46.083  1.00  0.00     0.245 C 
HETATM    6  C5  UNL     1      10.809  15.120  45.794  1.00  0.00    -0.008 C 
HETATM    7  C6  UNL     1      10.058  16.280  45.162  1.00  0.00     0.018 C 
HETATM    8  C7  UNL     1      10.198  14.689  47.088  1.00  0.00     0.018 C 
HETATM    9  C8  UNL     1      10.914  14.032  44.772  1.00  0.00     0.126 C 
HETATM   10  N2  UNL     1      12.260  13.537  44.741  1.00  0.00    -0.395 N 
ATOM     11  H2  UNL     1      12.498  12.581  45.004  1.00  0.00     0.155 HD
ENDROOT
BRANCH   1  12
HETATM   12  C2  UNL     1      13.342  14.622  42.814  1.00  0.00     0.049 C 
HETATM   13  C1  UNL     1      13.496  13.263  42.183  1.00  0.00     0.009 C 
ENDBRANCH   1  12
TORSDOF 1
ENDMDL
MODEL 2
REMARK VINA RESULT: -4.431739601      2.130      3.734
REMARK  1 active torsions:
REMARK  status: ('A' for Active; 'I' for Inactive)
REMARK    1  A    between atoms: C2_2  and  C3_3 
ROOT
HETATM    1  C3  UNL     1      10.028  12.958  45.997  1.00  0.00     0.279 C 
HETATM    2  N1  UNL     1      10.243  13.712  44.783  1.00  0.00    -0.054 N 
ATOM      3  H11 UNL     1       9.400  14.185  44.457  1.00  0.00     0.279 HD
ATOM      4  H12 UNL     1      10.389  13.115  43.968  1.00  0.00     0.279 HD
HETATM    5  C4  UNL     1      11.344  14.626  45.013  1.00  0.00     0.245 C 
HETATM    6  C5  UNL     1      10.942  15.728  45.974  1.00  0.00    -0.008 C 
HETATM    7  C6  UNL     1       9.978  16.630  45.222  1.00  0.00     0.018 C 
HETATM    8  C7  UNL     1      12.183  16.450  46.391  1.00  0.00     0.018 C 
HETATM    9  C8  UNL     1      10.192  15.095  47.103  1.00  0.00     0.126 C 
HETATM   10  N2  UNL     1      10.475  13.690  47.134  1.00  0.00    -0.395 N 
ATOM     11  H2  UNL     1      10.961  13.246  47.914  1.00  0.00     0.155 HD
ENDROOT
BRANCH   1  12
HETATM   12  C2  UNL     1       8.566  12.584  46.044  1.00  0.00     0.049 C 
HETATM   13  C1  UNL     1       8.426  11.121  46.375  1.00  0.00     0.009 C 
ENDBRANCH   1  12
TORSDOF 1
ENDMDL
MODEL 3
REMARK VINA RESULT: -4.399860061      2.223      3.436
REMARK  1 active torsions:
REMARK  status: ('A' for Active; 'I' for Inactive)
REMARK    1  A    between atoms: C2_2  and  C3_3 
ROOT
HETATM    1  C3  UNL     1      10.647  14.235  45.115  1.00  0.00     0.279 C 
HETATM    2  N1  UNL     1       9.460  15.059  45.169  1.00  0.00    -0.054 N 
ATOM      3  H11 UNL     1       8.810  14.768  45.898  1.00  0.00     0.279 HD
ATOM      4  H12 UNL     1       8.843  14.915  44.369  1.00  0.00     0.279 HD
HETATM    5  C4  UNL     1       9.881  16.439  45.311  1.00  0.00     0.245 C 
HETATM    6  C5  UNL     1      10.471  16.687  46.686  1.00  0.00    -0.008 C 
HETATM    7  C6  UNL     1       9.316  16.640  47.671  1.00  0.00     0.018 C 
HETATM    8  C7  UNL     1      11.142  18.022  46.664  1.00  0.00     0.018 C 
HETATM    9  C8  UNL     1      11.387  15.545  46.999  1.00  0.00     0.126 C 
HETATM   10  N2  UNL     1      11.733  14.865  45.785  1.00  0.00    -0.395 N 
ATOM     11  H2  UNL     1      12.688  14.835  45.428  1.00  0.00     0.155 HD
ENDROOT
BRANCH   1  12
HETATM   12  C2  UNL     1      10.282  12.881  45.675  1.00  0.00     0.049 C 
HETATM   13  C1  UNL     1       8.844  12.886  46.124  1.00  0.00     0.009 C 
ENDBRANCH   1  12
TORSDOF 1
ENDMDL
MODEL 4
REMARK VINA RESULT: -4.392852651      1.129      3.967
REMARK  1 active torsions:
REMARK  status: ('A' for Active; 'I' for Inactive)
REMARK    1  A    between atoms: C2_2  and  C3_3 
ROOT
HETATM    1  C3  UNL     1      12.165  16.162  45.079  1.00  0.00     0.279 C 
HETATM    2  N1  UNL     1      12.710  14.834  45.250  1.00  0.00    -0.054 N 
ATOM      3  H11 UNL     1      12.075  14.103  44.929  1.00  0.00     0.279 HD
ATOM      4  H12 UNL     1      12.761  14.551  46.229  1.00  0.00     0.279 HD
HETATM    5  C4  UNL     1      13.997  14.791  44.585  1.00  0.00     0.245 C 
HETATM    6  C5  UNL     1      13.831  14.848  43.079  1.00  0.00    -0.008 C 
HETATM    7  C6  UNL     1      13.248  13.510  42.654  1.00  0.00     0.018 C 
HETATM    8  C7  UNL     1      15.177  15.094  42.477  1.00  0.00     0.018 C 
HETATM    9  C8  UNL     1      12.819  15.906  42.773  1.00  0.00     0.126 C 
HETATM   10  N2  UNL     1      12.683  16.777  43.905  1.00  0.00    -0.395 N 
ATOM     11  H2  UNL     1      12.939  17.763  43.871  1.00  0.00     0.155 HD
ENDROOT
BRANCH   1  12
HETATM   12  C2  UNL     1      10.660  16.038  45.094  1.00  0.00     0.049 C 
HETATM   13  C1  UNL     1      10.269  14.595  45.274  1.00  0.00     0.009 C 
ENDBRANCH   1  12
TORSDOF 1
ENDMDL
MODEL 5
REMARK VINA RESULT: -4.386280905      1.818      2.664
REMARK  1 active torsions:
REMARK  status: ('A' for Active; 'I' for Inactive)
REMARK    1  A    between atoms: C2_2  and  C3_3 
ROOT
HETATM    1  C3  UNL     1      10.451  14.121  45.718  1.00  0.00     0.279 C 
HETATM    2  N1  UNL     1      11.549  14.770  46.398  1.00  0.00    -0.054 N 
ATOM      3  H11 UNL     1      12.304  15.035  45.765  1.00  0.00     0.279 HD
ATOM      4  H12 UNL     1      12.083  14.129  46.986  1.00  0.00     0.279 HD
HETATM    5  C4  UNL     1      11.014  15.896  47.136  1.00  0.00     0.245 C 
HETATM    6  C5  UNL     1      10.562  16.996  46.195  1.00  0.00    -0.008 C 
HETATM    7  C6  UNL     1      11.822  17.613  45.610  1.00  0.00     0.018 C 
HETATM    8  C7  UNL     1       9.766  17.981  46.989  1.00  0.00     0.018 C 
HETATM    9  C8  UNL     1       9.804  16.354  45.077  1.00  0.00     0.126 C 
HETATM   10  N2  UNL     1       9.390  15.040  45.474  1.00  0.00    -0.395 N 
ATOM     11  H2  UNL     1       8.409  14.782  45.576  1.00  0.00     0.155 HD
ENDROOT
BRANCH   1  12
HETATM   12  C2  UNL     1      11.007  13.481  44.468  1.00  0.00     0.049 C 
HETATM   13  C1  UNL     1      12.463  13.837  44.319  1.00  0.00     0.009 C 
ENDBRANCH   1  12
TORSDOF 1
ENDMDL
