MODEL 1
REMARK VINA RESULT: -4.982925377      0.000      0.000
REMARK  3 active torsions:
REMARK  status: ('A' for Active; 'I' for Inactive)
REMARK    1  A    between atoms: N1_1  and  C1_5 
REMARK    2  A    between atoms: C1_5  and  C2_6 
REMARK    3  A    between atoms: C8_12  and  N2_13 
ROOT
HETATM    1  C2  UNL     1      14.761  13.569  41.585  1.00  0.00     0.041 C 
HETATM    2  C3  UNL     1      14.698  12.871  40.245  1.00  0.00     0.008 C 
HETATM    3  C4  UNL     1      13.574  11.871  40.171  1.00  0.00     0.000 C 
HETATM    4  C5  UNL     1      13.680  10.833  41.240  1.00  0.00     0.000 C 
HETATM    5  C6  UNL     1      13.512  11.348  42.628  1.00  0.00     0.002 C 
HETATM    6  C7  UNL     1      12.744  12.629  42.729  1.00  0.00     0.033 C 
HETATM    7  C8  UNL     1      13.357  13.792  42.056  1.00  0.00     0.189 C 
ENDROOT
BRANCH   1   8
HETATM    8  C1  UNL     1      15.497  14.881  41.359  1.00  0.00     0.236 C 
BRANCH   8   9
HETATM    9  N1  UNL     1      16.359  14.672  40.195  1.00  0.00    -0.079 N 
ATOM     10  H13 UNL     1      17.039  15.419  40.055  1.00  0.00     0.274 HD
ATOM     11  H12 UNL     1      17.029  13.913  40.317  1.00  0.00     0.274 HD
ATOM     12  H11 UNL     1      15.736  14.537  39.399  1.00  0.00     0.274 HD
ENDBRANCH   8   9
ENDBRANCH   1   8
BRANCH   7  13
HETATM   13  N2  UNL     1      13.273  14.953  42.957  1.00  0.00    -0.075 N 
ATOM     14  H23 UNL     1      13.357  15.831  42.446  1.00  0.00     0.274 HD
ATOM     15  H22 UNL     1      12.329  15.074  43.324  1.00  0.00     0.274 HD
ATOM     16  H21 UNL     1      13.960  14.890  43.708  1.00  0.00     0.274 HD
ENDBRANCH   7  13
TORSDOF 3
ENDMDL
MODEL 2
REMARK VINA RESULT: -4.956885965      1.584      2.295
REMARK  3 active torsions:
REMARK  status: ('A' for Active; 'I' for Inactive)
REMARK    1  A    between atoms: N1_1  and  C1_5 
REMARK    2  A    between atoms: C1_5  and  C2_6 
REMARK    3  A    between atoms: C8_12  and  N2_13 
ROOT
HETATM    1  C2  UNL     1      14.676  14.713  42.019  1.00  0.00     0.041 C 
HETATM    2  C3  UNL     1      14.154  13.361  41.587  1.00  0.00     0.008 C 
HETATM    3  C4  UNL     1      12.842  13.018  42.242  1.00  0.00     0.000 C 
HETATM    4  C5  UNL     1      12.941  13.032  43.731  1.00  0.00     0.000 C 
HETATM    5  C6  UNL     1      13.213  14.371  44.326  1.00  0.00     0.002 C 
HETATM    6  C7  UNL     1      12.806  15.527  43.467  1.00  0.00     0.033 C 
HETATM    7  C8  UNL     1      13.505  15.634  42.170  1.00  0.00     0.189 C 
ENDROOT
BRANCH   1   8
HETATM    8  C1  UNL     1      15.627  15.182  40.927  1.00  0.00     0.236 C 
BRANCH   8   9
HETATM    9  N1  UNL     1      16.026  13.984  40.189  1.00  0.00    -0.079 N 
ATOM     10  H13 UNL     1      15.491  13.154  40.444  1.00  0.00     0.274 HD
ATOM     11  H12 UNL     1      15.760  14.007  39.204  1.00  0.00     0.274 HD
ATOM     12  H11 UNL     1      17.029  13.879  40.334  1.00  0.00     0.274 HD
ENDBRANCH   8   9
ENDBRANCH   1   8
BRANCH   7  13
HETATM   13  N2  UNL     1      13.897  17.038  41.963  1.00  0.00    -0.075 N 
ATOM     14  H23 UNL     1      14.037  17.522  42.850  1.00  0.00     0.274 HD
ATOM     15  H22 UNL     1      14.845  17.110  41.593  1.00  0.00     0.274 HD
ATOM     16  H21 UNL     1      13.227  17.526  41.370  1.00  0.00     0.274 HD
ENDBRANCH   7  13
TORSDOF 3
ENDMDL
MODEL 3
REMARK VINA RESULT: -4.895557642      2.333      3.496
REMARK  3 active torsions:
REMARK  status: ('A' for Active; 'I' for Inactive)
REMARK    1  A    between atoms: N1_1  and  C1_5 
REMARK    2  A    between atoms: C1_5  and  C2_6 
REMARK    3  A    between atoms: C8_12  and  N2_13 
ROOT
HETATM    1  C2  UNL     1      15.417  15.041  41.624  1.00  0.00     0.041 C 
HETATM    2  C3  UNL     1      14.360  13.993  41.890  1.00  0.00     0.008 C 
HETATM    3  C4  UNL     1      13.308  14.470  42.856  1.00  0.00     0.000 C 
HETATM    4  C5  UNL     1      13.899  14.887  44.162  1.00  0.00     0.000 C 
HETATM    5  C6  UNL     1      14.786  16.083  44.093  1.00  0.00     0.002 C 
HETATM    6  C7  UNL     1      14.527  16.983  42.926  1.00  0.00     0.033 C 
HETATM    7  C8  UNL     1      14.744  16.378  41.595  1.00  0.00     0.189 C 
ENDROOT
BRANCH   1   8
HETATM    8  C1  UNL     1      16.046  14.695  40.282  1.00  0.00     0.236 C 
BRANCH   8   9
HETATM    9  N1  UNL     1      15.628  13.328  39.974  1.00  0.00    -0.079 N 
ATOM     10  H13 UNL     1      16.409  12.692  39.816  1.00  0.00     0.274 HD
ATOM     11  H12 UNL     1      15.225  12.837  40.772  1.00  0.00     0.274 HD
ATOM     12  H11 UNL     1      14.994  13.395  39.178  1.00  0.00     0.274 HD
ENDBRANCH   8   9
ENDBRANCH   1   8
BRANCH   7  13
HETATM   13  N2  UNL     1      15.489  17.335  40.762  1.00  0.00    -0.075 N 
ATOM     14  H23 UNL     1      16.089  17.937  41.327  1.00  0.00     0.274 HD
ATOM     15  H22 UNL     1      16.210  16.869  40.211  1.00  0.00     0.274 HD
ATOM     16  H21 UNL     1      14.862  17.881  40.171  1.00  0.00     0.274 HD
ENDBRANCH   7  13
TORSDOF 3
ENDMDL
MODEL 4
REMARK VINA RESULT: -4.822778144      1.113      2.771
REMARK  3 active torsions:
REMARK  status: ('A' for Active; 'I' for Inactive)
REMARK    1  A    between atoms: N1_1  and  C1_5 
REMARK    2  A    between atoms: C1_5  and  C2_6 
REMARK    3  A    between atoms: C8_12  and  N2_13 
ROOT
HETATM    1  C2  UNL     1      14.129  14.611  41.485  1.00  0.00     0.041 C 
HETATM    2  C3  UNL     1      13.474  14.001  42.704  1.00  0.00     0.008 C 
HETATM    3  C4  UNL     1      13.480  12.495  42.664  1.00  0.00     0.000 C 
HETATM    4  C5  UNL     1      12.798  11.966  41.446  1.00  0.00     0.000 C 
HETATM    5  C6  UNL     1      13.480  12.287  40.160  1.00  0.00     0.002 C 
HETATM    6  C7  UNL     1      14.944  12.573  40.287  1.00  0.00     0.033 C 
HETATM    7  C8  UNL     1      15.294  13.750  41.107  1.00  0.00     0.189 C 
ENDROOT
BRANCH   1   8
HETATM    8  C1  UNL     1      14.568  16.013  41.884  1.00  0.00     0.236 C 
BRANCH   8   9
HETATM    9  N1  UNL     1      13.346  16.810  41.990  1.00  0.00    -0.079 N 
ATOM     10  H13 UNL     1      12.972  16.853  42.938  1.00  0.00     0.274 HD
ATOM     11  H12 UNL     1      13.503  17.811  41.872  1.00  0.00     0.274 HD
ATOM     12  H11 UNL     1      12.691  16.421  41.313  1.00  0.00     0.274 HD
ENDBRANCH   8   9
ENDBRANCH   1   8
BRANCH   7  13
HETATM   13  N2  UNL     1      16.326  14.525  40.398  1.00  0.00    -0.075 N 
ATOM     14  H23 UNL     1      16.025  14.776  39.457  1.00  0.00     0.274 HD
ATOM     15  H22 UNL     1      16.421  15.464  40.787  1.00  0.00     0.274 HD
ATOM     16  H21 UNL     1      17.218  14.032  40.388  1.00  0.00     0.274 HD
ENDBRANCH   7  13
TORSDOF 3
ENDMDL
MODEL 5
REMARK VINA RESULT: -4.790521824      2.036      3.568
REMARK  3 active torsions:
REMARK  status: ('A' for Active; 'I' for Inactive)
REMARK    1  A    between atoms: N1_1  and  C1_5 
REMARK    2  A    between atoms: C1_5  and  C2_6 
REMARK    3  A    between atoms: C8_12  and  N2_13 
ROOT
HETATM    1  C2  UNL     1      13.317  13.625  42.118  1.00  0.00     0.041 C 
HETATM    2  C3  UNL     1      14.673  13.916  41.514  1.00  0.00     0.008 C 
HETATM    3  C4  UNL     1      15.271  15.196  42.036  1.00  0.00     0.000 C 
HETATM    4  C5  UNL     1      14.381  16.369  41.788  1.00  0.00     0.000 C 
HETATM    5  C6  UNL     1      13.087  16.338  42.527  1.00  0.00     0.002 C 
HETATM    6  C7  UNL     1      13.096  15.495  43.764  1.00  0.00     0.033 C 
HETATM    7  C8  UNL     1      13.349  14.055  43.552  1.00  0.00     0.189 C 
ENDROOT
BRANCH   1   8
HETATM    8  C1  UNL     1      13.093  12.126  41.982  1.00  0.00     0.236 C 
BRANCH   8   9
HETATM    9  N1  UNL     1      13.391  11.791  40.590  1.00  0.00    -0.079 N 
ATOM     10  H13 UNL     1      12.829  12.315  39.919  1.00  0.00     0.274 HD
ATOM     11  H12 UNL     1      14.302  12.125  40.279  1.00  0.00     0.274 HD
ATOM     12  H11 UNL     1      13.280  10.781  40.509  1.00  0.00     0.274 HD
ENDBRANCH   8   9
ENDBRANCH   1   8
BRANCH   7  13
HETATM   13  N2  UNL     1      12.391  13.287  44.363  1.00  0.00    -0.075 N 
ATOM     14  H23 UNL     1      12.466  13.521  45.353  1.00  0.00     0.274 HD
ATOM     15  H22 UNL     1      11.432  13.595  44.201  1.00  0.00     0.274 HD
ATOM     16  H21 UNL     1      12.492  12.284  44.206  1.00  0.00     0.274 HD
ENDBRANCH   7  13
TORSDOF 3
ENDMDL
