MODEL 1
REMARK VINA RESULT: -4.912534791      0.000      0.000
REMARK  3 active torsions:
REMARK  status: ('A' for Active; 'I' for Inactive)
REMARK    1  A    between atoms: C2_2  and  N1_4 
REMARK    2  A    between atoms: N1_4  and  C4_6 
REMARK    3  A    between atoms: C7_9  and  N2_10 
ROOT
HETATM    1  C4  UNL     1      12.128  13.445  44.115  1.00  0.00     0.079 C 
HETATM    2  C5  UNL     1      12.701  12.395  43.222  1.00  0.00     0.027 C 
HETATM    3  C6  UNL     1      13.620  13.167  42.262  1.00  0.00     0.035 C 
HETATM    4  C7  UNL     1      13.748  14.537  42.822  1.00  0.00     0.185 C 
HETATM    5  C8  UNL     1      13.364  14.353  44.268  1.00  0.00     0.057 C 
ENDROOT
BRANCH   1   6
HETATM    6  N1  UNL     1      11.560  13.097  45.328  1.00  0.00    -0.414 N 
ATOM      7  H1  UNL     1      12.154  13.102  46.157  1.00  0.00     0.153 HD
BRANCH   6   8
HETATM    8  C2  UNL     1      10.225  12.742  45.480  1.00  0.00     0.068 C 
HETATM    9  C1  UNL     1      10.099  11.347  46.055  1.00  0.00     0.031 C 
HETATM   10  C3  UNL     1       9.604  13.682  46.528  1.00  0.00     0.031 C 
ENDBRANCH   6   8
ENDBRANCH   1   6
BRANCH   4  11
HETATM   11  N2  UNL     1      15.062  15.118  42.676  1.00  0.00    -0.075 N 
ATOM     12  H23 UNL     1      15.704  14.722  43.361  1.00  0.00     0.274 HD
ATOM     13  H22 UNL     1      15.502  14.791  41.815  1.00  0.00     0.274 HD
ATOM     14  H21 UNL     1      15.077  16.137  42.719  1.00  0.00     0.274 HD
ENDBRANCH   4  11
TORSDOF 3
ENDMDL
MODEL 2
REMARK VINA RESULT: -4.898976877      1.596      5.127
REMARK  3 active torsions:
REMARK  status: ('A' for Active; 'I' for Inactive)
REMARK    1  A    between atoms: C2_2  and  N1_4 
REMARK    2  A    between atoms: N1_4  and  C4_6 
REMARK    3  A    between atoms: C7_9  and  N2_10 
ROOT
HETATM    1  C4  UNL     1      10.797  13.056  45.125  1.00  0.00     0.079 C 
HETATM    2  C5  UNL     1      10.163  13.928  46.158  1.00  0.00     0.027 C 
HETATM    3  C6  UNL     1       8.874  13.186  46.549  1.00  0.00     0.035 C 
HETATM    4  C7  UNL     1       8.979  11.830  45.952  1.00  0.00     0.185 C 
HETATM    5  C8  UNL     1      10.460  11.673  45.716  1.00  0.00     0.057 C 
ENDROOT
BRANCH   1   6
HETATM    6  N1  UNL     1      12.138  13.200  44.816  1.00  0.00    -0.414 N 
ATOM      7  H1  UNL     1      12.754  12.401  44.964  1.00  0.00     0.153 HD
BRANCH   6   8
HETATM    8  C2  UNL     1      12.692  14.372  44.316  1.00  0.00     0.068 C 
HETATM    9  C1  UNL     1      13.746  14.916  45.258  1.00  0.00     0.031 C 
HETATM   10  C3  UNL     1      13.437  14.023  43.015  1.00  0.00     0.031 C 
ENDBRANCH   6   8
ENDBRANCH   1   6
BRANCH   4  11
HETATM   11  N2  UNL     1       8.443  10.774  46.778  1.00  0.00    -0.075 N 
ATOM     12  H23 UNL     1       9.157  10.427  47.419  1.00  0.00     0.274 HD
ATOM     13  H22 UNL     1       7.775  11.152  47.450  1.00  0.00     0.274 HD
ATOM     14  H21 UNL     1       8.027  10.004  46.256  1.00  0.00     0.274 HD
ENDBRANCH   4  11
TORSDOF 3
ENDMDL
MODEL 3
REMARK VINA RESULT: -4.833947951      3.782      5.161
REMARK  3 active torsions:
REMARK  status: ('A' for Active; 'I' for Inactive)
REMARK    1  A    between atoms: C2_2  and  N1_4 
REMARK    2  A    between atoms: N1_4  and  C4_6 
REMARK    3  A    between atoms: C7_9  and  N2_10 
ROOT
HETATM    1  C4  UNL     1      14.773  14.619  41.724  1.00  0.00     0.079 C 
HETATM    2  C5  UNL     1      13.904  13.465  42.101  1.00  0.00     0.027 C 
HETATM    3  C6  UNL     1      14.111  12.444  40.970  1.00  0.00     0.035 C 
HETATM    4  C7  UNL     1      15.272  12.929  40.180  1.00  0.00     0.185 C 
HETATM    5  C8  UNL     1      15.977  13.855  41.140  1.00  0.00     0.057 C 
ENDROOT
BRANCH   1   6
HETATM    6  N1  UNL     1      15.138  15.558  42.673  1.00  0.00    -0.414 N 
ATOM      7  H1  UNL     1      15.664  15.239  43.487  1.00  0.00     0.153 HD
BRANCH   6   8
HETATM    8  C2  UNL     1      14.829  16.909  42.580  1.00  0.00     0.068 C 
HETATM    9  C1  UNL     1      15.040  17.415  41.168  1.00  0.00     0.031 C 
HETATM   10  C3  UNL     1      13.324  17.069  42.858  1.00  0.00     0.031 C 
ENDBRANCH   6   8
ENDBRANCH   1   6
BRANCH   4  11
HETATM   11  N2  UNL     1      16.139  11.882  39.695  1.00  0.00    -0.075 N 
ATOM     12  H23 UNL     1      16.007  11.745  38.694  1.00  0.00     0.274 HD
ATOM     13  H22 UNL     1      17.111  12.192  39.702  1.00  0.00     0.274 HD
ATOM     14  H21 UNL     1      16.045  10.996  40.192  1.00  0.00     0.274 HD
ENDBRANCH   4  11
TORSDOF 3
ENDMDL
MODEL 4
REMARK VINA RESULT: -4.825886947      1.840      4.743
REMARK  3 active torsions:
REMARK  status: ('A' for Active; 'I' for Inactive)
REMARK    1  A    between atoms: C2_2  and  N1_4 
REMARK    2  A    between atoms: N1_4  and  C4_6 
REMARK    3  A    between atoms: C7_9  and  N2_10 
ROOT
HETATM    1  C4  UNL     1      12.711  13.178  43.087  1.00  0.00     0.079 C 
HETATM    2  C5  UNL     1      13.423  14.312  43.746  1.00  0.00     0.027 C 
HETATM    3  C6  UNL     1      12.408  14.867  44.759  1.00  0.00     0.035 C 
HETATM    4  C7  UNL     1      11.308  13.872  44.830  1.00  0.00     0.185 C 
HETATM    5  C8  UNL     1      11.949  12.613  44.300  1.00  0.00     0.057 C 
ENDROOT
BRANCH   1   6
HETATM    6  N1  UNL     1      13.423  12.212  42.398  1.00  0.00    -0.414 N 
ATOM      7  H1  UNL     1      13.871  11.470  42.935  1.00  0.00     0.153 HD
BRANCH   6   8
HETATM    8  C2  UNL     1      13.561  12.195  41.016  1.00  0.00     0.068 C 
HETATM    9  C1  UNL     1      14.810  12.937  40.588  1.00  0.00     0.031 C 
HETATM   10  C3  UNL     1      13.776  10.734  40.581  1.00  0.00     0.031 C 
ENDBRANCH   6   8
ENDBRANCH   1   6
BRANCH   4  11
HETATM   11  N2  UNL     1      10.757  13.689  46.152  1.00  0.00    -0.075 N 
ATOM     12  H23 UNL     1      11.315  14.190  46.842  1.00  0.00     0.274 HD
ATOM     13  H22 UNL     1       9.874  14.193  46.242  1.00  0.00     0.274 HD
ATOM     14  H21 UNL     1      10.640  12.714  46.426  1.00  0.00     0.274 HD
ENDBRANCH   4  11
TORSDOF 3
ENDMDL
MODEL 5
REMARK VINA RESULT: -4.774872361      1.707      2.194
REMARK  3 active torsions:
REMARK  status: ('A' for Active; 'I' for Inactive)
REMARK    1  A    between atoms: C2_2  and  N1_4 
REMARK    2  A    between atoms: N1_4  and  C4_6 
REMARK    3  A    between atoms: C7_9  and  N2_10 
ROOT
HETATM    1  C4  UNL     1      12.923  13.808  44.398  1.00  0.00     0.079 C 
HETATM    2  C5  UNL     1      13.432  14.838  43.445  1.00  0.00     0.027 C 
HETATM    3  C6  UNL     1      13.927  14.030  42.234  1.00  0.00     0.035 C 
HETATM    4  C7  UNL     1      13.426  12.645  42.427  1.00  0.00     0.185 C 
HETATM    5  C8  UNL     1      12.285  12.825  43.397  1.00  0.00     0.057 C 
ENDROOT
BRANCH   1   6
HETATM    6  N1  UNL     1      12.066  14.167  45.424  1.00  0.00    -0.414 N 
ATOM      7  H1  UNL     1      12.466  14.339  46.346  1.00  0.00     0.153 HD
BRANCH   6   8
HETATM    8  C2  UNL     1      10.693  14.306  45.268  1.00  0.00     0.068 C 
HETATM    9  C1  UNL     1       9.948  13.607  46.386  1.00  0.00     0.031 C 
HETATM   10  C3  UNL     1      10.352  15.801  45.411  1.00  0.00     0.031 C 
ENDBRANCH   6   8
ENDBRANCH   1   6
BRANCH   4  11
HETATM   11  N2  UNL     1      13.009  11.990  41.210  1.00  0.00    -0.075 N 
ATOM     12  H23 UNL     1      11.993  12.012  41.124  1.00  0.00     0.274 HD
ATOM     13  H22 UNL     1      13.265  12.551  40.398  1.00  0.00     0.274 HD
ATOM     14  H21 UNL     1      13.355  11.036  41.108  1.00  0.00     0.274 HD
ENDBRANCH   4  11
TORSDOF 3
ENDMDL
