MODEL 1
REMARK VINA RESULT: -4.960132772      0.000      0.000
REMARK  2 active torsions:
REMARK  status: ('A' for Active; 'I' for Inactive)
REMARK    1  A    between atoms: N1_2  and  C2_4 
REMARK    2  A    between atoms: C2_4  and  C4_6 
ROOT
HETATM    1  C4  UNL     1      12.901  12.899  43.880  1.00  0.00     0.033 C 
HETATM    2  C5  UNL     1      11.525  12.777  44.442  1.00  0.00     0.010 C 
HETATM    3  C6  UNL     1      10.937  14.017  45.006  1.00  0.00     0.028 C 
HETATM    4  C7  UNL     1      11.865  14.947  45.683  1.00  0.00     0.232 C 
HETATM    5  N2  UNL     1      13.274  14.650  45.437  1.00  0.00    -0.075 N 
ATOM      6  H21 UNL     1      13.658  13.919  46.036  1.00  0.00     0.277 HD
ATOM      7  H22 UNL     1      13.915  15.385  45.735  1.00  0.00     0.277 HD
HETATM    8  C8  UNL     1      13.333  14.344  43.996  1.00  0.00     0.238 C 
ENDROOT
BRANCH   1   9
HETATM    9  C2  UNL     1      13.031  12.494  42.443  1.00  0.00     0.077 C 
HETATM   10  C3  UNL     1      14.032  13.427  41.798  1.00  0.00     0.032 C 
BRANCH   9  11
HETATM   11  N1  UNL     1      13.478  11.158  42.250  1.00  0.00    -0.421 N 
HETATM   12  C1  UNL     1      13.874  10.833  40.927  1.00  0.00     0.140 C 
ATOM     13  H1  UNL     1      13.511  10.479  43.011  1.00  0.00     0.153 HD
ENDBRANCH   9  11
ENDBRANCH   1   9
TORSDOF 2
ENDMDL
MODEL 2
REMARK VINA RESULT: -4.956673240      2.284      4.301
REMARK  2 active torsions:
REMARK  status: ('A' for Active; 'I' for Inactive)
REMARK    1  A    between atoms: N1_2  and  C2_4 
REMARK    2  A    between atoms: C2_4  and  C4_6 
ROOT
HETATM    1  C4  UNL     1      14.676  13.602  41.924  1.00  0.00     0.033 C 
HETATM    2  C5  UNL     1      14.678  15.042  42.311  1.00  0.00     0.010 C 
HETATM    3  C6  UNL     1      15.231  15.987  41.311  1.00  0.00     0.028 C 
HETATM    4  C7  UNL     1      16.363  15.506  40.493  1.00  0.00     0.232 C 
HETATM    5  N2  UNL     1      16.580  14.064  40.585  1.00  0.00    -0.075 N 
ATOM      6  H21 UNL     1      17.117  13.772  41.400  1.00  0.00     0.277 HD
ATOM      7  H22 UNL     1      17.225  13.693  39.888  1.00  0.00     0.277 HD
HETATM    8  C8  UNL     1      15.223  13.490  40.518  1.00  0.00     0.238 C 
ENDROOT
BRANCH   1   9
HETATM    9  C2  UNL     1      13.330  12.946  41.948  1.00  0.00     0.077 C 
HETATM   10  C3  UNL     1      13.276  11.980  40.784  1.00  0.00     0.032 C 
BRANCH   9  11
HETATM   11  N1  UNL     1      13.051  12.223  43.141  1.00  0.00    -0.421 N 
HETATM   12  C1  UNL     1      12.234  12.898  44.085  1.00  0.00     0.140 C 
ATOM     13  H1  UNL     1      13.414  11.284  43.306  1.00  0.00     0.153 HD
ENDBRANCH   9  11
ENDBRANCH   1   9
TORSDOF 2
ENDMDL
MODEL 3
REMARK VINA RESULT: -4.914781715      2.749      3.924
REMARK  2 active torsions:
REMARK  status: ('A' for Active; 'I' for Inactive)
REMARK    1  A    between atoms: N1_2  and  C2_4 
REMARK    2  A    between atoms: C2_4  and  C4_6 
ROOT
HETATM    1  C4  UNL     1      13.979  12.327  40.639  1.00  0.00     0.033 C 
HETATM    2  C5  UNL     1      15.208  13.001  40.129  1.00  0.00     0.010 C 
HETATM    3  C6  UNL     1      15.894  13.914  41.077  1.00  0.00     0.028 C 
HETATM    4  C7  UNL     1      15.036  14.681  42.003  1.00  0.00     0.232 C 
HETATM    5  N2  UNL     1      13.655  14.206  42.051  1.00  0.00    -0.075 N 
ATOM      6  H21 UNL     1      13.065  14.560  41.299  1.00  0.00     0.277 HD
ATOM      7  H22 UNL     1      13.105  14.595  42.816  1.00  0.00     0.277 HD
HETATM    8  C8  UNL     1      13.779  12.737  42.081  1.00  0.00     0.238 C 
ENDROOT
BRANCH   1   9
HETATM    9  C2  UNL     1      14.017  10.830  40.587  1.00  0.00     0.077 C 
HETATM   10  C3  UNL     1      15.307  10.432  39.905  1.00  0.00     0.032 C 
BRANCH   9  11
HETATM   11  N1  UNL     1      13.972  10.199  41.861  1.00  0.00    -0.421 N 
HETATM   12  C1  UNL     1      14.951   9.195  42.078  1.00  0.00     0.140 C 
ATOM     13  H1  UNL     1      13.282  10.450  42.569  1.00  0.00     0.153 HD
ENDBRANCH   9  11
ENDBRANCH   1   9
TORSDOF 2
ENDMDL
MODEL 4
REMARK VINA RESULT: -4.845124395      1.119      1.285
REMARK  2 active torsions:
REMARK  status: ('A' for Active; 'I' for Inactive)
REMARK    1  A    between atoms: N1_2  and  C2_4 
REMARK    2  A    between atoms: C2_4  and  C4_6 
ROOT
HETATM    1  C4  UNL     1      13.599  12.822  42.709  1.00  0.00     0.033 C 
HETATM    2  C5  UNL     1      12.572  12.330  43.672  1.00  0.00     0.010 C 
HETATM    3  C6  UNL     1      11.793  13.372  44.385  1.00  0.00     0.028 C 
HETATM    4  C7  UNL     1      12.508  14.616  44.736  1.00  0.00     0.232 C 
HETATM    5  N2  UNL     1      13.798  14.759  44.065  1.00  0.00    -0.075 N 
ATOM      6  H21 UNL     1      14.562  14.258  44.518  1.00  0.00     0.277 HD
ATOM      7  H22 UNL     1      14.211  15.688  44.146  1.00  0.00     0.277 HD
HETATM    8  C8  UNL     1      13.534  14.333  42.679  1.00  0.00     0.238 C 
ENDROOT
BRANCH   1   9
HETATM    9  C2  UNL     1      13.433  12.326  41.306  1.00  0.00     0.077 C 
HETATM   10  C3  UNL     1      14.633  12.798  40.513  1.00  0.00     0.032 C 
BRANCH   9  11
HETATM   11  N1  UNL     1      13.351  10.911  41.190  1.00  0.00    -0.421 N 
HETATM   12  C1  UNL     1      14.488  10.278  40.624  1.00  0.00     0.140 C 
ATOM     13  H1  UNL     1      12.530  10.387  41.495  1.00  0.00     0.153 HD
ENDBRANCH   9  11
ENDBRANCH   1   9
TORSDOF 2
ENDMDL
MODEL 5
REMARK VINA RESULT: -4.797453613      1.570      2.465
REMARK  2 active torsions:
REMARK  status: ('A' for Active; 'I' for Inactive)
REMARK    1  A    between atoms: N1_2  and  C2_4 
REMARK    2  A    between atoms: C2_4  and  C4_6 
ROOT
HETATM    1  C4  UNL     1      13.005  12.458  41.792  1.00  0.00     0.033 C 
HETATM    2  C5  UNL     1      13.658  13.794  41.906  1.00  0.00     0.010 C 
HETATM    3  C6  UNL     1      14.024  14.227  43.277  1.00  0.00     0.028 C 
HETATM    4  C7  UNL     1      13.116  13.822  44.370  1.00  0.00     0.232 C 
HETATM    5  N2  UNL     1      12.148  12.801  43.977  1.00  0.00    -0.075 N 
ATOM      6  H21 UNL     1      11.323  13.167  43.502  1.00  0.00     0.277 HD
ATOM      7  H22 UNL     1      11.647  12.377  44.757  1.00  0.00     0.277 HD
HETATM    8  C8  UNL     1      12.933  11.847  43.173  1.00  0.00     0.238 C 
ENDROOT
BRANCH   1   9
HETATM    9  C2  UNL     1      13.713  11.488  40.896  1.00  0.00     0.077 C 
HETATM   10  C3  UNL     1      14.924  12.196  40.328  1.00  0.00     0.032 C 
BRANCH   9  11
HETATM   11  N1  UNL     1      14.153  10.303  41.547  1.00  0.00    -0.421 N 
HETATM   12  C1  UNL     1      14.962   9.440  40.762  1.00  0.00     0.140 C 
ATOM     13  H1  UNL     1      13.905  10.088  42.513  1.00  0.00     0.153 HD
ENDBRANCH   9  11
ENDBRANCH   1   9
TORSDOF 2
ENDMDL
