MODEL 1
REMARK VINA RESULT: -5.538181854      0.000      0.000
REMARK  3 active torsions:
REMARK  status: ('A' for Active; 'I' for Inactive)
REMARK    1  A    between atoms: C6_6  and  N1_7 
REMARK    2  A    between atoms: N1_7  and  C7_9 
REMARK    3  A    between atoms: N2_10  and  N3_12 
ROOT
HETATM    1  N1  UNL     1      14.673  12.682  40.381  1.00  0.00    -0.380 N 
ATOM      2  H1  UNL     1      15.178  12.584  39.501  1.00  0.00     0.160 HD
ENDROOT
BRANCH   1   3
HETATM    3  C6  UNL     1      15.187  13.578  41.426  1.00  0.00     0.083 C 
HETATM    4  C5  UNL     1      15.990  14.681  40.825  1.00  0.00     0.026 C 
HETATM    5  C4  UNL     1      15.351  15.942  41.294  1.00  0.00     0.011 C 
HETATM    6  C2  UNL     1      14.510  15.625  42.485  1.00  0.00    -0.046 C 
HETATM    7  C1  UNL     1      15.256  15.627  43.785  1.00  0.00     0.015 C 
HETATM    8  C3  UNL     1      13.360  16.605  42.498  1.00  0.00     0.015 C 
HETATM    9  C8  UNL     1      14.046  14.214  42.197  1.00  0.00     0.034 C 
ENDBRANCH   1   3
BRANCH   1  10
HETATM   10  C7  UNL     1      13.473  11.951  40.595  1.00  0.00     0.192 C 
HETATM   11  N2  UNL     1      13.425  10.709  40.887  1.00  0.00    -0.303 N 
ATOM     12  H2  UNL     1      12.509  10.281  41.020  1.00  0.00     0.187 HD
BRANCH  11  13
HETATM   13  N3  UNL     1      14.541   9.915  41.031  1.00  0.00    -0.344 N 
ATOM     14  H32 UNL     1      14.984   9.898  41.950  1.00  0.00     0.176 HD
ATOM     15  H31 UNL     1      14.937   9.355  40.276  1.00  0.00     0.176 HD
ENDBRANCH  11  13
ENDBRANCH   1  10
TORSDOF 3
ENDMDL
MODEL 2
REMARK VINA RESULT: -5.536804097      4.123      4.714
REMARK  3 active torsions:
REMARK  status: ('A' for Active; 'I' for Inactive)
REMARK    1  A    between atoms: C6_6  and  N1_7 
REMARK    2  A    between atoms: N1_7  and  C7_9 
REMARK    3  A    between atoms: N2_10  and  N3_12 
ROOT
HETATM    1  N1  UNL     1      10.829  13.311  44.575  1.00  0.00    -0.380 N 
ATOM      2  H1  UNL     1      10.171  13.740  43.924  1.00  0.00     0.160 HD
ENDROOT
BRANCH   1   3
HETATM    3  C6  UNL     1      12.243  13.714  44.560  1.00  0.00     0.083 C 
HETATM    4  C5  UNL     1      12.969  13.044  43.444  1.00  0.00     0.026 C 
HETATM    5  C4  UNL     1      13.562  14.145  42.635  1.00  0.00     0.011 C 
HETATM    6  C2  UNL     1      13.593  15.377  43.475  1.00  0.00    -0.046 C 
HETATM    7  C1  UNL     1      14.802  15.495  44.354  1.00  0.00     0.015 C 
HETATM    8  C3  UNL     1      13.459  16.561  42.545  1.00  0.00     0.015 C 
HETATM    9  C8  UNL     1      12.373  15.210  44.355  1.00  0.00     0.034 C 
ENDBRANCH   1   3
BRANCH   1  10
HETATM   10  C7  UNL     1      10.377  12.327  45.494  1.00  0.00     0.192 C 
HETATM   11  N2  UNL     1      10.104  12.553  46.721  1.00  0.00    -0.303 N 
ATOM     12  H2  UNL     1       9.786  11.773  47.295  1.00  0.00     0.187 HD
BRANCH  11  13
HETATM   13  N3  UNL     1      10.216  13.792  47.311  1.00  0.00    -0.344 N 
ATOM     14  H32 UNL     1       9.919  13.873  48.283  1.00  0.00     0.176 HD
ATOM     15  H31 UNL     1      10.576  14.616  46.829  1.00  0.00     0.176 HD
ENDBRANCH  11  13
ENDBRANCH   1  10
TORSDOF 3
ENDMDL
MODEL 3
REMARK VINA RESULT: -5.481022042      4.631      5.498
REMARK  3 active torsions:
REMARK  status: ('A' for Active; 'I' for Inactive)
REMARK    1  A    between atoms: C6_6  and  N1_7 
REMARK    2  A    between atoms: N1_7  and  C7_9 
REMARK    3  A    between atoms: N2_10  and  N3_12 
ROOT
HETATM    1  N1  UNL     1      10.758  12.289  45.463  1.00  0.00    -0.380 N 
ATOM      2  H1  UNL     1      11.370  11.476  45.526  1.00  0.00     0.160 HD
ENDROOT
BRANCH   1   3
HETATM    3  C6  UNL     1      11.193  13.479  44.717  1.00  0.00     0.083 C 
HETATM    4  C5  UNL     1      10.762  14.724  45.414  1.00  0.00     0.026 C 
HETATM    5  C4  UNL     1      12.010  15.503  45.649  1.00  0.00     0.011 C 
HETATM    6  C2  UNL     1      13.065  14.984  44.730  1.00  0.00    -0.046 C 
HETATM    7  C1  UNL     1      13.048  15.598  43.363  1.00  0.00     0.015 C 
HETATM    8  C3  UNL     1      14.397  15.181  45.416  1.00  0.00     0.015 C 
HETATM    9  C8  UNL     1      12.705  13.519  44.605  1.00  0.00     0.034 C 
ENDBRANCH   1   3
BRANCH   1  10
HETATM   10  C7  UNL     1       9.487  12.270  46.097  1.00  0.00     0.192 C 
HETATM   11  N2  UNL     1       8.901  11.214  46.512  1.00  0.00    -0.303 N 
ATOM     12  H2  UNL     1       7.988  11.313  46.956  1.00  0.00     0.187 HD
BRANCH  11  13
HETATM   13  N3  UNL     1       9.434   9.950  46.394  1.00  0.00    -0.344 N 
ATOM     14  H32 UNL     1      10.316   9.862  45.890  1.00  0.00     0.176 HD
ATOM     15  H31 UNL     1       8.995   9.114  46.781  1.00  0.00     0.176 HD
ENDBRANCH  11  13
ENDBRANCH   1  10
TORSDOF 3
ENDMDL
MODEL 4
REMARK VINA RESULT: -5.390189865      1.524      2.548
REMARK  3 active torsions:
REMARK  status: ('A' for Active; 'I' for Inactive)
REMARK    1  A    between atoms: C6_6  and  N1_7 
REMARK    2  A    between atoms: N1_7  and  C7_9 
REMARK    3  A    between atoms: N2_10  and  N3_12 
ROOT
HETATM    1  N1  UNL     1      13.418  11.800  42.345  1.00  0.00    -0.380 N 
ATOM      2  H1  UNL     1      13.723  11.177  43.094  1.00  0.00     0.160 HD
ENDROOT
BRANCH   1   3
HETATM    3  C6  UNL     1      12.967  13.162  42.663  1.00  0.00     0.083 C 
HETATM    4  C5  UNL     1      12.541  13.256  44.089  1.00  0.00     0.026 C 
HETATM    5  C4  UNL     1      13.370  14.341  44.683  1.00  0.00     0.011 C 
HETATM    6  C2  UNL     1      13.920  15.170  43.571  1.00  0.00    -0.046 C 
HETATM    7  C1  UNL     1      13.001  16.256  43.098  1.00  0.00     0.015 C 
HETATM    8  C3  UNL     1      15.247  15.723  44.036  1.00  0.00     0.015 C 
HETATM    9  C8  UNL     1      14.087  14.161  42.456  1.00  0.00     0.034 C 
ENDBRANCH   1   3
BRANCH   1  10
HETATM   10  C7  UNL     1      13.432  11.349  40.998  1.00  0.00     0.192 C 
HETATM   11  N2  UNL     1      13.955  10.251  40.608  1.00  0.00    -0.303 N 
ATOM     12  H2  UNL     1      13.909  10.022  39.615  1.00  0.00     0.187 HD
BRANCH  11  13
HETATM   13  N3  UNL     1      14.578   9.360  41.452  1.00  0.00    -0.344 N 
ATOM     14  H32 UNL     1      15.590   9.267  41.366  1.00  0.00     0.176 HD
ATOM     15  H31 UNL     1      14.084   8.801  42.147  1.00  0.00     0.176 HD
ENDBRANCH  11  13
ENDBRANCH   1  10
TORSDOF 3
ENDMDL
MODEL 5
REMARK VINA RESULT: -5.344915318      3.529      4.299
REMARK  3 active torsions:
REMARK  status: ('A' for Active; 'I' for Inactive)
REMARK    1  A    between atoms: C6_6  and  N1_7 
REMARK    2  A    between atoms: N1_7  and  C7_9 
REMARK    3  A    between atoms: N2_10  and  N3_12 
ROOT
HETATM    1  N1  UNL     1      12.516  13.480  44.928  1.00  0.00    -0.380 N 
ATOM      2  H1  UNL     1      13.152  13.023  45.581  1.00  0.00     0.160 HD
ENDROOT
BRANCH   1   3
HETATM    3  C6  UNL     1      12.908  14.744  44.287  1.00  0.00     0.083 C 
HETATM    4  C5  UNL     1      14.030  15.385  45.030  1.00  0.00     0.026 C 
HETATM    5  C4  UNL     1      15.120  15.564  44.030  1.00  0.00     0.011 C 
HETATM    6  C2  UNL     1      14.522  15.475  42.666  1.00  0.00    -0.046 C 
HETATM    7  C1  UNL     1      13.963  16.767  42.152  1.00  0.00     0.015 C 
HETATM    8  C3  UNL     1      15.583  14.918  41.745  1.00  0.00     0.015 C 
HETATM    9  C8  UNL     1      13.381  14.502  42.867  1.00  0.00     0.034 C 
ENDBRANCH   1   3
BRANCH   1  10
HETATM   10  C7  UNL     1      11.255  12.895  44.639  1.00  0.00     0.192 C 
HETATM   11  N2  UNL     1      10.317  12.738  45.492  1.00  0.00    -0.303 N 
ATOM     12  H2  UNL     1       9.448  12.306  45.178  1.00  0.00     0.187 HD
BRANCH  11  13
HETATM   13  N3  UNL     1      10.415  13.121  46.811  1.00  0.00    -0.344 N 
ATOM     14  H32 UNL     1       9.630  13.641  47.203  1.00  0.00     0.176 HD
ATOM     15  H31 UNL     1      11.220  12.912  47.401  1.00  0.00     0.176 HD
ENDBRANCH  11  13
ENDBRANCH   1  10
TORSDOF 3
ENDMDL
