MODEL 1
REMARK VINA RESULT: -4.921737581      0.000      0.000
REMARK  3 active torsions:
REMARK  status: ('A' for Active; 'I' for Inactive)
REMARK    1  A    between atoms: N1_2  and  N2_3 
REMARK    2  A    between atoms: C6_8  and  C7_9 
REMARK    3  A    between atoms: C7_9  and  N3_11 
ROOT
HETATM    1  N2  UNL     1      10.156  14.337  46.635  1.00  0.00    -0.229 NA
HETATM    2  C2  UNL     1       8.855  13.740  46.657  1.00  0.00     0.110 C 
HETATM    3  C3  UNL     1       8.844  12.303  46.188  1.00  0.00     0.016 C 
HETATM    4  C4  UNL     1      10.272  11.839  45.955  1.00  0.00     0.003 C 
HETATM    5  C5  UNL     1      10.858  12.787  44.936  1.00  0.00     0.023 C 
HETATM    6  C6  UNL     1      10.723  14.222  45.335  1.00  0.00     0.106 C 
ENDROOT
BRANCH   6   7
HETATM    7  C7  UNL     1      12.073  14.855  45.175  1.00  0.00     0.198 C 
HETATM    8  C8  UNL     1      12.897  14.231  44.081  1.00  0.00     0.041 C 
BRANCH   7   9
HETATM    9  N3  UNL     1      12.821  14.968  46.387  1.00  0.00    -0.074 N 
ATOM     10  H33 UNL     1      12.720  15.903  46.781  1.00  0.00     0.274 HD
ATOM     11  H32 UNL     1      12.385  14.417  47.126  1.00  0.00     0.274 HD
ATOM     12  H31 UNL     1      13.808  14.725  46.298  1.00  0.00     0.274 HD
ENDBRANCH   7   9
ENDBRANCH   6   7
BRANCH   1  13
HETATM   13  N1  UNL     1      10.097  15.601  47.158  1.00  0.00    -0.169 NA
HETATM   14  C1  UNL     1       9.406  15.691  48.432  1.00  0.00     0.152 C 
ENDBRANCH   1  13
TORSDOF 3
ENDMDL
MODEL 2
REMARK VINA RESULT: -4.876075621      1.528      3.368
REMARK  3 active torsions:
REMARK  status: ('A' for Active; 'I' for Inactive)
REMARK    1  A    between atoms: N1_2  and  N2_3 
REMARK    2  A    between atoms: C6_8  and  C7_9 
REMARK    3  A    between atoms: C7_9  and  N3_11 
ROOT
HETATM    1  N2  UNL     1      11.182  13.420  45.702  1.00  0.00    -0.229 NA
HETATM    2  C2  UNL     1      11.484  12.755  44.470  1.00  0.00     0.110 C 
HETATM    3  C3  UNL     1      12.714  13.297  43.779  1.00  0.00     0.016 C 
HETATM    4  C4  UNL     1      13.384  14.324  44.677  1.00  0.00     0.003 C 
HETATM    5  C5  UNL     1      12.343  15.385  44.946  1.00  0.00     0.023 C 
HETATM    6  C6  UNL     1      11.067  14.821  45.484  1.00  0.00     0.106 C 
ENDROOT
BRANCH   6   7
HETATM    7  C7  UNL     1      10.705  15.623  46.699  1.00  0.00     0.198 C 
HETATM    8  C8  UNL     1      10.955  17.098  46.535  1.00  0.00     0.041 C 
BRANCH   7   9
HETATM    9  N3  UNL     1      11.268  15.135  47.919  1.00  0.00    -0.074 N 
ATOM     10  H33 UNL     1      11.499  14.146  47.833  1.00  0.00     0.274 HD
ATOM     11  H32 UNL     1      12.202  15.522  48.058  1.00  0.00     0.274 HD
ATOM     12  H31 UNL     1      10.690  15.295  48.744  1.00  0.00     0.274 HD
ENDBRANCH   7   9
ENDBRANCH   6   7
BRANCH   1  13
HETATM   13  N1  UNL     1      10.115  12.813  46.309  1.00  0.00    -0.169 NA
HETATM   14  C1  UNL     1      10.020  11.385  46.066  1.00  0.00     0.152 C 
ENDBRANCH   1  13
TORSDOF 3
ENDMDL
MODEL 3
REMARK VINA RESULT: -4.794377992      1.679      4.289
REMARK  3 active torsions:
REMARK  status: ('A' for Active; 'I' for Inactive)
REMARK    1  A    between atoms: N1_2  and  N2_3 
REMARK    2  A    between atoms: C6_8  and  C7_9 
REMARK    3  A    between atoms: C7_9  and  N3_11 
ROOT
HETATM    1  N2  UNL     1      11.800  14.469  45.301  1.00  0.00    -0.229 NA
HETATM    2  C2  UNL     1      12.351  15.267  44.248  1.00  0.00     0.110 C 
HETATM    3  C3  UNL     1      12.305  16.752  44.530  1.00  0.00     0.016 C 
HETATM    4  C4  UNL     1      11.805  16.979  45.947  1.00  0.00     0.003 C 
HETATM    5  C5  UNL     1      10.447  16.322  46.021  1.00  0.00     0.023 C 
HETATM    6  C6  UNL     1      10.472  14.891  45.589  1.00  0.00     0.106 C 
ENDROOT
BRANCH   6   7
HETATM    7  C7  UNL     1       9.770  14.095  46.648  1.00  0.00     0.198 C 
HETATM    8  C8  UNL     1       8.390  14.608  46.961  1.00  0.00     0.041 C 
BRANCH   7   9
HETATM    9  N3  UNL     1      10.531  13.898  47.841  1.00  0.00    -0.074 N 
ATOM     10  H33 UNL     1      10.965  12.975  47.837  1.00  0.00     0.274 HD
ATOM     11  H32 UNL     1      11.366  14.485  47.832  1.00  0.00     0.274 HD
ATOM     12  H31 UNL     1      10.007  14.040  48.705  1.00  0.00     0.274 HD
ENDBRANCH   7   9
ENDBRANCH   6   7
BRANCH   1  13
HETATM   13  N1  UNL     1      11.963  13.141  45.012  1.00  0.00    -0.169 NA
HETATM   14  C1  UNL     1      12.680  12.880  43.777  1.00  0.00     0.152 C 
ENDBRANCH   1  13
TORSDOF 3
ENDMDL
MODEL 4
REMARK VINA RESULT: -4.790497051      4.079      5.527
REMARK  3 active torsions:
REMARK  status: ('A' for Active; 'I' for Inactive)
REMARK    1  A    between atoms: N1_2  and  N2_3 
REMARK    2  A    between atoms: C6_8  and  C7_9 
REMARK    3  A    between atoms: C7_9  and  N3_11 
ROOT
HETATM    1  N2  UNL     1      14.756  14.739  43.461  1.00  0.00    -0.229 NA
HETATM    2  C2  UNL     1      13.513  14.871  44.159  1.00  0.00     0.110 C 
HETATM    3  C3  UNL     1      12.566  13.715  43.927  1.00  0.00     0.016 C 
HETATM    4  C4  UNL     1      13.272  12.642  43.114  1.00  0.00     0.003 C 
HETATM    5  C5  UNL     1      13.711  13.312  41.833  1.00  0.00     0.023 C 
HETATM    6  C6  UNL     1      14.517  14.547  42.072  1.00  0.00     0.106 C 
ENDROOT
BRANCH   6   7
HETATM    7  C7  UNL     1      15.751  14.442  41.226  1.00  0.00     0.198 C 
HETATM    8  C8  UNL     1      16.095  15.723  40.514  1.00  0.00     0.041 C 
BRANCH   7   9
HETATM    9  N3  UNL     1      15.759  13.333  40.326  1.00  0.00    -0.074 N 
ATOM     10  H33 UNL     1      15.794  13.659  39.361  1.00  0.00     0.274 HD
ATOM     11  H32 UNL     1      16.651  12.840  40.378  1.00  0.00     0.274 HD
ATOM     12  H31 UNL     1      14.985  12.680  40.453  1.00  0.00     0.274 HD
ENDBRANCH   7   9
ENDBRANCH   6   7
BRANCH   1  13
HETATM   13  N1  UNL     1      15.589  15.773  43.795  1.00  0.00    -0.169 NA
HETATM   14  C1  UNL     1      15.653  16.056  45.217  1.00  0.00     0.152 C 
ENDBRANCH   1  13
TORSDOF 3
ENDMDL
MODEL 5
REMARK VINA RESULT: -4.746581800      1.518      3.877
REMARK  3 active torsions:
REMARK  status: ('A' for Active; 'I' for Inactive)
REMARK    1  A    between atoms: N1_2  and  N2_3 
REMARK    2  A    between atoms: C6_8  and  C7_9 
REMARK    3  A    between atoms: C7_9  and  N3_11 
ROOT
HETATM    1  N2  UNL     1      11.325  13.980  46.008  1.00  0.00    -0.229 NA
HETATM    2  C2  UNL     1      11.547  15.391  46.107  1.00  0.00     0.110 C 
HETATM    3  C3  UNL     1      10.851  16.029  47.287  1.00  0.00     0.016 C 
HETATM    4  C4  UNL     1      10.211  14.946  48.140  1.00  0.00     0.003 C 
HETATM    5  C5  UNL     1       9.265  14.201  47.228  1.00  0.00     0.023 C 
HETATM    6  C6  UNL     1       9.928  13.707  45.983  1.00  0.00     0.106 C 
ENDROOT
BRANCH   6   7
HETATM    7  C7  UNL     1       9.569  12.259  45.833  1.00  0.00     0.198 C 
HETATM    8  C8  UNL     1       8.117  11.975  46.109  1.00  0.00     0.041 C 
BRANCH   7   9
HETATM    9  N3  UNL     1      10.417  11.362  46.553  1.00  0.00    -0.074 N 
ATOM     10  H33 UNL     1      11.395  11.527  46.313  1.00  0.00     0.274 HD
ATOM     11  H32 UNL     1      10.436  11.607  47.543  1.00  0.00     0.274 HD
ATOM     12  H31 UNL     1      10.185  10.375  46.435  1.00  0.00     0.274 HD
ENDBRANCH   7   9
ENDBRANCH   6   7
BRANCH   1  13
HETATM   13  N1  UNL     1      12.060  13.464  44.974  1.00  0.00    -0.169 NA
HETATM   14  C1  UNL     1      13.032  14.385  44.413  1.00  0.00     0.152 C 
ENDBRANCH   1  13
TORSDOF 3
ENDMDL
