MODEL 1
REMARK VINA RESULT: -5.344650250      0.000      0.000
REMARK  3 active torsions:
REMARK  status: ('A' for Active; 'I' for Inactive)
REMARK    1  A    between atoms: N1_1  and  C1_5 
REMARK    2  A    between atoms: C1_5  and  C2_6 
REMARK    3  A    between atoms: C1_5  and  C7_11 
ROOT
HETATM    1  C1  UNL     1      12.164  14.932  45.244  1.00  0.00     0.218 C 
ENDROOT
BRANCH   1   2
HETATM    2  N1  UNL     1      12.717  15.319  46.528  1.00  0.00    -0.073 N 
ATOM      3  H13 UNL     1      12.455  14.662  47.263  1.00  0.00     0.274 HD
ATOM      4  H12 UNL     1      13.729  15.188  46.557  1.00  0.00     0.274 HD
ATOM      5  H11 UNL     1      12.455  16.275  46.766  1.00  0.00     0.274 HD
ENDBRANCH   1   2
BRANCH   1   6
HETATM    6  C2  UNL     1      13.062  13.932  44.545  1.00  0.00     0.018 C 
HETATM    7  C3  UNL     1      12.182  12.823  44.002  1.00  0.00     0.007 C 
HETATM    8  C4  UNL     1      13.063  12.252  42.904  1.00  0.00     0.000 C 
HETATM    9  C5  UNL     1      13.555  13.480  42.215  1.00  0.00     0.000 C 
HETATM   10  C6  UNL     1      13.733  14.475  43.342  1.00  0.00     0.007 C 
ENDBRANCH   1   6
BRANCH   1  11
HETATM   11  C7  UNL     1      10.790  14.377  45.500  1.00  0.00     0.218 C 
HETATM   12  C8  UNL     1       9.694  15.410  45.629  1.00  0.00     0.062 C 
HETATM   13  C9  UNL     1       9.144  14.411  46.638  1.00  0.00     0.235 C 
HETATM   14  N2  UNL     1      10.524  14.007  46.875  1.00  0.00    -0.069 N 
ATOM     15  H22 UNL     1      10.750  13.076  47.227  1.00  0.00     0.277 HD
ATOM     16  H21 UNL     1      11.066  14.400  47.644  1.00  0.00     0.277 HD
ENDBRANCH   1  11
TORSDOF 3
ENDMDL
MODEL 2
REMARK VINA RESULT: -5.159271634      3.172      5.041
REMARK  3 active torsions:
REMARK  status: ('A' for Active; 'I' for Inactive)
REMARK    1  A    between atoms: N1_1  and  C1_5 
REMARK    2  A    between atoms: C1_5  and  C2_6 
REMARK    3  A    between atoms: C1_5  and  C7_11 
ROOT
HETATM    1  C1  UNL     1      13.114  13.227  42.542  1.00  0.00     0.218 C 
ENDROOT
BRANCH   1   2
HETATM    2  N1  UNL     1      12.661  12.493  43.708  1.00  0.00    -0.073 N 
ATOM      3  H13 UNL     1      13.443  12.093  44.227  1.00  0.00     0.274 HD
ATOM      4  H12 UNL     1      12.301  13.119  44.430  1.00  0.00     0.274 HD
ATOM      5  H11 UNL     1      11.977  11.783  43.451  1.00  0.00     0.274 HD
ENDBRANCH   1   2
BRANCH   1   6
HETATM    6  C2  UNL     1      13.915  14.448  42.945  1.00  0.00     0.018 C 
HETATM    7  C3  UNL     1      14.936  14.709  41.856  1.00  0.00     0.007 C 
HETATM    8  C4  UNL     1      15.240  16.182  42.077  1.00  0.00     0.000 C 
HETATM    9  C5  UNL     1      13.879  16.769  42.247  1.00  0.00     0.000 C 
HETATM   10  C6  UNL     1      13.116  15.694  42.991  1.00  0.00     0.007 C 
ENDBRANCH   1   6
BRANCH   1  11
HETATM   11  C7  UNL     1      13.919  12.274  41.701  1.00  0.00     0.218 C 
HETATM   12  C8  UNL     1      13.336  11.969  40.340  1.00  0.00     0.062 C 
HETATM   13  C9  UNL     1      13.941  10.598  40.607  1.00  0.00     0.235 C 
HETATM   14  N2  UNL     1      13.746  10.873  42.025  1.00  0.00    -0.069 N 
ATOM     15  H22 UNL     1      14.319  10.419  42.737  1.00  0.00     0.277 HD
ATOM     16  H21 UNL     1      12.918  10.542  42.520  1.00  0.00     0.277 HD
ENDBRANCH   1  11
TORSDOF 3
ENDMDL
MODEL 3
REMARK VINA RESULT: -5.111073463      1.932      4.582
REMARK  3 active torsions:
REMARK  status: ('A' for Active; 'I' for Inactive)
REMARK    1  A    between atoms: N1_1  and  C1_5 
REMARK    2  A    between atoms: C1_5  and  C2_6 
REMARK    3  A    between atoms: C1_5  and  C7_11 
ROOT
HETATM    1  C1  UNL     1      12.345  12.834  44.333  1.00  0.00     0.218 C 
ENDROOT
BRANCH   1   2
HETATM    2  N1  UNL     1      13.156  13.878  44.929  1.00  0.00    -0.073 N 
ATOM      3  H13 UNL     1      12.657  14.361  45.677  1.00  0.00     0.274 HD
ATOM      4  H12 UNL     1      13.923  13.492  45.479  1.00  0.00     0.274 HD
ATOM      5  H11 UNL     1      13.493  14.530  44.220  1.00  0.00     0.274 HD
ENDBRANCH   1   2
BRANCH   1   6
HETATM    6  C2  UNL     1      10.881  13.022  44.673  1.00  0.00     0.018 C 
HETATM    7  C3  UNL     1      10.478  11.904  45.614  1.00  0.00     0.007 C 
HETATM    8  C4  UNL     1       9.258  12.506  46.290  1.00  0.00     0.000 C 
HETATM    9  C5  UNL     1       9.719  13.886  46.617  1.00  0.00     0.000 C 
HETATM   10  C6  UNL     1      10.604  14.255  45.445  1.00  0.00     0.007 C 
ENDBRANCH   1   6
BRANCH   1  11
HETATM   11  C7  UNL     1      12.591  12.870  42.849  1.00  0.00     0.218 C 
HETATM   12  C8  UNL     1      13.329  11.675  42.291  1.00  0.00     0.062 C 
HETATM   13  C9  UNL     1      13.916  12.724  41.357  1.00  0.00     0.235 C 
HETATM   14  N2  UNL     1      13.713  13.686  42.433  1.00  0.00    -0.069 N 
ATOM     15  H22 UNL     1      13.602  14.681  42.240  1.00  0.00     0.277 HD
ATOM     16  H21 UNL     1      14.465  13.922  43.080  1.00  0.00     0.277 HD
ENDBRANCH   1  11
TORSDOF 3
ENDMDL
MODEL 4
REMARK VINA RESULT: -5.090711618      3.273      5.514
REMARK  3 active torsions:
REMARK  status: ('A' for Active; 'I' for Inactive)
REMARK    1  A    between atoms: N1_1  and  C1_5 
REMARK    2  A    between atoms: C1_5  and  C2_6 
REMARK    3  A    between atoms: C1_5  and  C7_11 
ROOT
HETATM    1  C1  UNL     1      13.936  13.932  41.928  1.00  0.00     0.218 C 
ENDROOT
BRANCH   1   2
HETATM    2  N1  UNL     1      13.878  12.637  41.277  1.00  0.00    -0.073 N 
ATOM      3  H13 UNL     1      13.826  11.877  41.956  1.00  0.00     0.274 HD
ATOM      4  H12 UNL     1      12.982  12.490  40.811  1.00  0.00     0.274 HD
ATOM      5  H11 UNL     1      14.660  12.515  40.634  1.00  0.00     0.274 HD
ENDBRANCH   1   2
BRANCH   1   6
HETATM    6  C2  UNL     1      13.571  13.820  43.394  1.00  0.00     0.018 C 
HETATM    7  C3  UNL     1      12.777  15.056  43.767  1.00  0.00     0.007 C 
HETATM    8  C4  UNL     1      12.027  14.570  44.997  1.00  0.00     0.000 C 
HETATM    9  C5  UNL     1      11.531  13.232  44.563  1.00  0.00     0.000 C 
HETATM   10  C6  UNL     1      12.650  12.700  43.693  1.00  0.00     0.007 C 
ENDBRANCH   1   6
BRANCH   1  11
HETATM   11  C7  UNL     1      15.327  14.469  41.730  1.00  0.00     0.218 C 
HETATM   12  C8  UNL     1      15.402  15.910  41.281  1.00  0.00     0.062 C 
HETATM   13  C9  UNL     1      16.617  15.402  40.517  1.00  0.00     0.235 C 
HETATM   14  N2  UNL     1      15.952  14.105  40.475  1.00  0.00    -0.069 N 
ATOM     15  H22 UNL     1      16.484  13.240  40.378  1.00  0.00     0.277 HD
ATOM     16  H21 UNL     1      15.396  13.821  39.669  1.00  0.00     0.277 HD
ENDBRANCH   1  11
TORSDOF 3
ENDMDL
MODEL 5
REMARK VINA RESULT: -5.059325809      2.015      3.120
REMARK  3 active torsions:
REMARK  status: ('A' for Active; 'I' for Inactive)
REMARK    1  A    between atoms: N1_1  and  C1_5 
REMARK    2  A    between atoms: C1_5  and  C2_6 
REMARK    3  A    between atoms: C1_5  and  C7_11 
ROOT
HETATM    1  C1  UNL     1      13.500  13.706  43.614  1.00  0.00     0.218 C 
ENDROOT
BRANCH   1   2
HETATM    2  N1  UNL     1      12.723  12.483  43.558  1.00  0.00    -0.073 N 
ATOM      3  H13 UNL     1      12.095  12.399  44.358  1.00  0.00     0.274 HD
ATOM      4  H12 UNL     1      12.025  12.514  42.816  1.00  0.00     0.274 HD
ATOM      5  H11 UNL     1      13.330  11.668  43.470  1.00  0.00     0.274 HD
ENDBRANCH   1   2
BRANCH   1   6
HETATM    6  C2  UNL     1      13.905  14.157  42.226  1.00  0.00     0.018 C 
HETATM    7  C3  UNL     1      15.265  14.816  42.333  1.00  0.00     0.007 C 
HETATM    8  C4  UNL     1      15.772  14.692  40.906  1.00  0.00     0.000 C 
HETATM    9  C5  UNL     1      15.439  13.277  40.569  1.00  0.00     0.000 C 
HETATM   10  C6  UNL     1      14.123  13.041  41.278  1.00  0.00     0.007 C 
ENDBRANCH   1   6
BRANCH   1  11
HETATM   11  C7  UNL     1      12.661  14.735  44.322  1.00  0.00     0.218 C 
HETATM   12  C8  UNL     1      13.359  15.473  45.441  1.00  0.00     0.062 C 
HETATM   13  C9  UNL     1      11.970  15.437  46.064  1.00  0.00     0.235 C 
HETATM   14  N2  UNL     1      11.750  14.206  45.316  1.00  0.00    -0.069 N 
ATOM     15  H22 UNL     1      10.810  13.899  45.064  1.00  0.00     0.277 HD
ATOM     16  H21 UNL     1      11.904  13.292  45.743  1.00  0.00     0.277 HD
ENDBRANCH   1  11
TORSDOF 3
ENDMDL
