MODEL 1
REMARK VINA RESULT: -4.983687519      0.000      0.000
REMARK  2 active torsions:
REMARK  status: ('A' for Active; 'I' for Inactive)
REMARK    1  A    between atoms: C2_2  and  N1_3 
REMARK    2  A    between atoms: N1_3  and  C3_6 
ROOT
HETATM    1  C1  UNL     1       8.437  15.016  47.496  1.00  0.00     0.046 C 
HETATM    2  C2  UNL     1       9.887  14.928  47.080  1.00  0.00     0.125 C 
HETATM    3  C6  UNL     1      10.807  15.776  47.923  1.00  0.00     0.066 C 
HETATM    4  C7  UNL     1      12.236  15.466  47.476  1.00  0.00     0.235 C 
HETATM    5  N2  UNL     1      12.297  15.231  46.035  1.00  0.00    -0.075 N 
ATOM      6  H21 UNL     1      12.187  14.248  45.787  1.00  0.00     0.277 HD
ATOM      7  H22 UNL     1      13.233  15.362  45.651  1.00  0.00     0.277 HD
HETATM    8  C8  UNL     1      11.309  16.082  45.415  1.00  0.00     0.235 C 
HETATM    9  C9  UNL     1       9.967  15.454  45.664  1.00  0.00     0.066 C 
ENDROOT
BRANCH   2  10
HETATM   10  N1  UNL     1      10.309  13.548  47.178  1.00  0.00    -0.062 N 
ATOM     11  H12 UNL     1      11.323  13.451  47.234  1.00  0.00     0.278 HD
ATOM     12  H11 UNL     1      10.080  13.132  48.081  1.00  0.00     0.278 HD
BRANCH  10  13
HETATM   13  C3  UNL     1       9.745  12.821  46.078  1.00  0.00     0.187 A 
HETATM   14  C4  UNL     1       8.787  11.701  46.242  1.00  0.00     0.035 A 
HETATM   15  C5  UNL     1      10.208  11.354  46.059  1.00  0.00     0.035 A 
ENDBRANCH  10  13
ENDBRANCH   2  10
TORSDOF 2
ENDMDL
MODEL 2
REMARK VINA RESULT: -4.953045745      1.122      2.333
REMARK  2 active torsions:
REMARK  status: ('A' for Active; 'I' for Inactive)
REMARK    1  A    between atoms: C2_2  and  N1_3 
REMARK    2  A    between atoms: N1_3  and  C3_6 
ROOT
HETATM    1  C1  UNL     1      11.298  14.503  44.959  1.00  0.00     0.046 C 
HETATM    2  C2  UNL     1      10.656  14.661  46.319  1.00  0.00     0.125 C 
HETATM    3  C6  UNL     1       9.328  15.375  46.277  1.00  0.00     0.066 C 
HETATM    4  C7  UNL     1       8.748  15.323  47.691  1.00  0.00     0.235 C 
HETATM    5  N2  UNL     1       9.801  15.441  48.696  1.00  0.00    -0.075 N 
ATOM      6  H21 UNL     1      10.168  14.538  48.996  1.00  0.00     0.277 HD
ATOM      7  H22 UNL     1       9.452  15.751  49.603  1.00  0.00     0.277 HD
HETATM    8  C8  UNL     1      10.820  16.311  48.156  1.00  0.00     0.235 C 
HETATM    9  C9  UNL     1      11.593  15.511  47.147  1.00  0.00     0.066 C 
ENDROOT
BRANCH   2  10
HETATM   10  N1  UNL     1      10.458  13.346  46.887  1.00  0.00    -0.062 N 
ATOM     11  H12 UNL     1      11.317  12.951  47.270  1.00  0.00     0.278 HD
ATOM     12  H11 UNL     1       9.918  13.371  47.752  1.00  0.00     0.278 HD
BRANCH  10  13
HETATM   13  C3  UNL     1       9.862  12.505  45.890  1.00  0.00     0.187 A 
HETATM   14  C4  UNL     1       8.753  11.561  46.172  1.00  0.00     0.035 A 
HETATM   15  C5  UNL     1      10.122  11.014  46.163  1.00  0.00     0.035 A 
ENDBRANCH  10  13
ENDBRANCH   2  10
TORSDOF 2
ENDMDL
MODEL 3
REMARK VINA RESULT: -4.694677049      1.704      3.208
REMARK  2 active torsions:
REMARK  status: ('A' for Active; 'I' for Inactive)
REMARK    1  A    between atoms: C2_2  and  N1_3 
REMARK    2  A    between atoms: N1_3  and  C3_6 
ROOT
HETATM    1  C1  UNL     1      11.602  16.819  45.178  1.00  0.00     0.046 C 
HETATM    2  C2  UNL     1      11.257  15.716  46.152  1.00  0.00     0.125 C 
HETATM    3  C6  UNL     1       9.821  15.262  46.061  1.00  0.00     0.066 C 
HETATM    4  C7  UNL     1       9.673  14.059  46.993  1.00  0.00     0.235 C 
HETATM    5  N2  UNL     1      10.492  14.218  48.192  1.00  0.00    -0.075 N 
ATOM      6  H21 UNL     1      11.422  13.813  48.094  1.00  0.00     0.277 HD
ATOM      7  H22 UNL     1      10.175  13.639  48.969  1.00  0.00     0.277 HD
HETATM    8  C8  UNL     1      10.521  15.626  48.513  1.00  0.00     0.235 C 
HETATM    9  C9  UNL     1      11.460  16.281  47.540  1.00  0.00     0.066 C 
ENDROOT
BRANCH   2  10
HETATM   10  N1  UNL     1      12.118  14.585  45.887  1.00  0.00    -0.062 N 
ATOM     11  H12 UNL     1      13.095  14.775  46.109  1.00  0.00     0.278 HD
ATOM     12  H11 UNL     1      11.972  13.819  46.545  1.00  0.00     0.278 HD
BRANCH  10  13
HETATM   13  C3  UNL     1      11.932  14.182  44.523  1.00  0.00     0.187 A 
HETATM   14  C4  UNL     1      12.129  12.791  44.046  1.00  0.00     0.035 A 
HETATM   15  C5  UNL     1      13.250  13.732  43.870  1.00  0.00     0.035 A 
ENDBRANCH  10  13
ENDBRANCH   2  10
TORSDOF 2
ENDMDL
MODEL 4
REMARK VINA RESULT: -4.645319669      4.939      6.244
REMARK  2 active torsions:
REMARK  status: ('A' for Active; 'I' for Inactive)
REMARK    1  A    between atoms: C2_2  and  N1_3 
REMARK    2  A    between atoms: N1_3  and  C3_6 
ROOT
HETATM    1  C1  UNL     1      13.316  13.973  43.304  1.00  0.00     0.046 C 
HETATM    2  C2  UNL     1      14.055  15.274  43.517  1.00  0.00     0.125 C 
HETATM    3  C6  UNL     1      14.278  15.608  44.970  1.00  0.00     0.066 C 
HETATM    4  C7  UNL     1      15.155  16.859  45.013  1.00  0.00     0.235 C 
HETATM    5  N2  UNL     1      14.823  17.771  43.921  1.00  0.00    -0.075 N 
ATOM      6  H21 UNL     1      15.384  17.612  43.085  1.00  0.00     0.277 HD
ATOM      7  H22 UNL     1      15.119  18.731  44.101  1.00  0.00     0.277 HD
HETATM    8  C8  UNL     1      13.403  17.656  43.676  1.00  0.00     0.235 C 
HETATM    9  C9  UNL     1      13.188  16.368  42.935  1.00  0.00     0.066 C 
ENDROOT
BRANCH   2  10
HETATM   10  N1  UNL     1      15.340  15.183  42.859  1.00  0.00    -0.062 N 
ATOM     11  H12 UNL     1      15.919  16.008  43.017  1.00  0.00     0.278 HD
ATOM     12  H11 UNL     1      15.955  14.496  43.295  1.00  0.00     0.278 HD
BRANCH  10  13
HETATM   13  C3  UNL     1      15.121  14.922  41.466  1.00  0.00     0.187 A 
HETATM   14  C4  UNL     1      15.983  14.028  40.656  1.00  0.00     0.035 A 
HETATM   15  C5  UNL     1      16.258  15.475  40.591  1.00  0.00     0.035 A 
ENDBRANCH  10  13
ENDBRANCH   2  10
TORSDOF 2
ENDMDL
MODEL 5
REMARK VINA RESULT: -4.583735758      2.793      4.070
REMARK  2 active torsions:
REMARK  status: ('A' for Active; 'I' for Inactive)
REMARK    1  A    between atoms: C2_2  and  N1_3 
REMARK    2  A    between atoms: N1_3  and  C3_6 
ROOT
HETATM    1  C1  UNL     1      14.308  15.914  43.970  1.00  0.00     0.046 C 
HETATM    2  C2  UNL     1      14.035  15.565  45.415  1.00  0.00     0.125 C 
HETATM    3  C6  UNL     1      13.044  16.488  46.079  1.00  0.00     0.066 C 
HETATM    4  C7  UNL     1      12.767  15.920  47.471  1.00  0.00     0.235 C 
HETATM    5  N2  UNL     1      13.972  15.329  48.048  1.00  0.00    -0.075 N 
ATOM      6  H21 UNL     1      14.063  14.334  47.845  1.00  0.00     0.277 HD
ATOM      7  H22 UNL     1      13.931  15.255  49.064  1.00  0.00     0.277 HD
HETATM    8  C8  UNL     1      15.099  16.103  47.583  1.00  0.00     0.235 C 
HETATM    9  C9  UNL     1      15.345  15.710  46.155  1.00  0.00     0.066 C 
ENDROOT
BRANCH   2  10
HETATM   10  N1  UNL     1      13.518  14.215  45.470  1.00  0.00    -0.062 N 
ATOM     11  H12 UNL     1      14.255  13.511  45.412  1.00  0.00     0.278 HD
ATOM     12  H11 UNL     1      13.162  13.969  46.394  1.00  0.00     0.278 HD
BRANCH  10  13
HETATM   13  C3  UNL     1      12.530  14.064  44.441  1.00  0.00     0.187 A 
HETATM   14  C4  UNL     1      11.373  13.143  44.547  1.00  0.00     0.035 A 
HETATM   15  C5  UNL     1      12.559  12.659  43.817  1.00  0.00     0.035 A 
ENDBRANCH  10  13
ENDBRANCH   2  10
TORSDOF 2
ENDMDL
