MODEL 1
REMARK VINA RESULT: -5.687240354      0.000      0.000
REMARK  4 active torsions:
REMARK  status: ('A' for Active; 'I' for Inactive)
REMARK    1  A    between atoms: C2_2  and  C4_5 
REMARK    2  A    between atoms: C4_5  and  N2_6 
REMARK    3  A    between atoms: C4_5  and  N3_10 
REMARK    4  A    between atoms: N3_10  and  C5_13 
ROOT
HETATM    1  C1  UNL     1      14.947  15.125  43.055  1.00  0.00     0.029 C 
HETATM    2  C2  UNL     1      15.085  15.381  41.559  1.00  0.00     0.146 C 
HETATM    3  C3  UNL     1      15.352  16.783  41.357  1.00  0.00     0.067 C 
HETATM    4  N1  UNL     1      15.574  17.911  41.220  1.00  0.00    -0.197 NA
ENDROOT
BRANCH   2   5
HETATM    5  C4  UNL     1      16.175  14.522  40.962  1.00  0.00     0.397 C 
BRANCH   5   6
HETATM    6  N2  UNL     1      17.076  15.407  40.219  1.00  0.00    -0.049 N 
ATOM      7  H23 UNL     1      17.184  15.135  39.242  1.00  0.00     0.276 HD
ATOM      8  H22 UNL     1      16.679  16.332  40.057  1.00  0.00     0.276 HD
ATOM      9  H21 UNL     1      17.962  15.437  40.724  1.00  0.00     0.276 HD
ENDBRANCH   5   6
BRANCH   5  10
HETATM   10  N3  UNL     1      15.550  13.580  40.054  1.00  0.00    -0.041 N 
ATOM     11  H32 UNL     1      14.815  14.023  39.502  1.00  0.00     0.280 HD
ATOM     12  H31 UNL     1      16.179  13.317  39.295  1.00  0.00     0.280 HD
BRANCH  10  13
HETATM   13  C5  UNL     1      15.056  12.418  40.762  1.00  0.00     0.188 C 
HETATM   14  C6  UNL     1      13.590  12.114  40.470  1.00  0.00     0.033 C 
HETATM   15  C7  UNL     1      13.984  10.654  40.450  1.00  0.00     0.004 C 
HETATM   16  C8  UNL     1      15.398  11.144  40.057  1.00  0.00     0.033 C 
ENDBRANCH  10  13
ENDBRANCH   5  10
ENDBRANCH   2   5
TORSDOF 4
ENDMDL
MODEL 2
REMARK VINA RESULT: -5.196973679      2.022      2.493
REMARK  4 active torsions:
REMARK  status: ('A' for Active; 'I' for Inactive)
REMARK    1  A    between atoms: C2_2  and  C4_5 
REMARK    2  A    between atoms: C4_5  and  N2_6 
REMARK    3  A    between atoms: C4_5  and  N3_10 
REMARK    4  A    between atoms: N3_10  and  C5_13 
ROOT
HETATM    1  C1  UNL     1      13.412  17.580  43.296  1.00  0.00     0.029 C 
HETATM    2  C2  UNL     1      13.754  16.451  42.330  1.00  0.00     0.146 C 
HETATM    3  C3  UNL     1      15.012  16.757  41.696  1.00  0.00     0.067 C 
HETATM    4  N1  UNL     1      16.028  17.020  41.205  1.00  0.00    -0.197 NA
ENDROOT
BRANCH   2   5
HETATM    5  C4  UNL     1      13.810  15.123  43.049  1.00  0.00     0.397 C 
BRANCH   5   6
HETATM    6  N2  UNL     1      14.505  15.340  44.320  1.00  0.00    -0.049 N 
ATOM      7  H23 UNL     1      15.342  14.766  44.419  1.00  0.00     0.276 HD
ATOM      8  H22 UNL     1      14.960  16.251  44.374  1.00  0.00     0.276 HD
ATOM      9  H21 UNL     1      13.829  15.189  45.069  1.00  0.00     0.276 HD
ENDBRANCH   5   6
BRANCH   5  10
HETATM   10  N3  UNL     1      14.568  14.205  42.223  1.00  0.00    -0.041 N 
ATOM     11  H32 UNL     1      15.201  14.700  41.595  1.00  0.00     0.280 HD
ATOM     12  H31 UNL     1      15.260  13.692  42.770  1.00  0.00     0.280 HD
BRANCH  10  13
HETATM   13  C5  UNL     1      13.694  13.307  41.498  1.00  0.00     0.188 C 
HETATM   14  C6  UNL     1      14.443  12.357  40.569  1.00  0.00     0.033 C 
HETATM   15  C7  UNL     1      13.470  11.288  41.014  1.00  0.00     0.004 C 
HETATM   16  C8  UNL     1      13.314  12.112  42.315  1.00  0.00     0.033 C 
ENDBRANCH  10  13
ENDBRANCH   5  10
ENDBRANCH   2   5
TORSDOF 4
ENDMDL
MODEL 3
REMARK VINA RESULT: -5.171273197      5.818      6.694
REMARK  4 active torsions:
REMARK  status: ('A' for Active; 'I' for Inactive)
REMARK    1  A    between atoms: C2_2  and  C4_5 
REMARK    2  A    between atoms: C4_5  and  N2_6 
REMARK    3  A    between atoms: C4_5  and  N3_10 
REMARK    4  A    between atoms: N3_10  and  C5_13 
ROOT
HETATM    1  C1  UNL     1       9.975  16.121  45.438  1.00  0.00     0.029 C 
HETATM    2  C2  UNL     1      10.633  15.076  46.332  1.00  0.00     0.146 C 
HETATM    3  C3  UNL     1       9.884  14.988  47.560  1.00  0.00     0.067 C 
HETATM    4  N1  UNL     1       9.262  14.929  48.535  1.00  0.00    -0.197 NA
ENDROOT
BRANCH   2   5
HETATM    5  C4  UNL     1      10.706  13.738  45.635  1.00  0.00     0.397 C 
BRANCH   5   6
HETATM    6  N2  UNL     1      10.299  12.716  46.602  1.00  0.00    -0.049 N 
ATOM      7  H23 UNL     1      11.091  12.250  47.046  1.00  0.00     0.276 HD
ATOM      8  H22 UNL     1       9.885  13.110  47.447  1.00  0.00     0.276 HD
ATOM      9  H21 UNL     1       9.676  12.067  46.120  1.00  0.00     0.276 HD
ENDBRANCH   5   6
BRANCH   5  10
HETATM   10  N3  UNL     1      12.083  13.520  45.238  1.00  0.00    -0.041 N 
ATOM     11  H32 UNL     1      12.710  14.196  45.674  1.00  0.00     0.280 HD
ATOM     12  H31 UNL     1      12.461  12.667  45.650  1.00  0.00     0.280 HD
BRANCH  10  13
HETATM   13  C5  UNL     1      12.219  13.520  43.797  1.00  0.00     0.188 C 
HETATM   14  C6  UNL     1      13.400  14.352  43.305  1.00  0.00     0.033 C 
HETATM   15  C7  UNL     1      13.646  13.253  42.295  1.00  0.00     0.004 C 
HETATM   16  C8  UNL     1      12.945  12.309  43.302  1.00  0.00     0.033 C 
ENDBRANCH  10  13
ENDBRANCH   5  10
ENDBRANCH   2   5
TORSDOF 4
ENDMDL
MODEL 4
REMARK VINA RESULT: -5.098330759      1.787      4.900
REMARK  4 active torsions:
REMARK  status: ('A' for Active; 'I' for Inactive)
REMARK    1  A    between atoms: C2_2  and  C4_5 
REMARK    2  A    between atoms: C4_5  and  N2_6 
REMARK    3  A    between atoms: C4_5  and  N3_10 
REMARK    4  A    between atoms: N3_10  and  C5_13 
ROOT
HETATM    1  C1  UNL     1      13.021  12.017  40.842  1.00  0.00     0.029 C 
HETATM    2  C2  UNL     1      14.467  11.551  40.975  1.00  0.00     0.146 C 
HETATM    3  C3  UNL     1      14.514  10.131  40.736  1.00  0.00     0.067 C 
HETATM    4  N1  UNL     1      14.529   8.991  40.533  1.00  0.00    -0.197 NA
ENDROOT
BRANCH   2   5
HETATM    5  C4  UNL     1      15.365  12.300  40.017  1.00  0.00     0.397 C 
BRANCH   5   6
HETATM    6  N2  UNL     1      16.311  11.333  39.455  1.00  0.00    -0.049 N 
ATOM      7  H23 UNL     1      17.186  11.762  39.154  1.00  0.00     0.276 HD
ATOM      8  H22 UNL     1      16.704  10.707  40.157  1.00  0.00     0.276 HD
ATOM      9  H21 UNL     1      15.832  10.838  38.703  1.00  0.00     0.276 HD
ENDBRANCH   5   6
BRANCH   5  10
HETATM   10  N3  UNL     1      16.081  13.305  40.778  1.00  0.00    -0.041 N 
ATOM     11  H32 UNL     1      16.293  12.981  41.721  1.00  0.00     0.280 HD
ATOM     12  H31 UNL     1      17.034  13.425  40.435  1.00  0.00     0.280 HD
BRANCH  10  13
HETATM   13  C5  UNL     1      15.361  14.561  40.796  1.00  0.00     0.188 C 
HETATM   14  C6  UNL     1      15.187  15.134  42.198  1.00  0.00     0.033 C 
HETATM   15  C7  UNL     1      15.468  16.489  41.589  1.00  0.00     0.004 C 
HETATM   16  C8  UNL     1      16.254  15.724  40.497  1.00  0.00     0.033 C 
ENDBRANCH  10  13
ENDBRANCH   5  10
ENDBRANCH   2   5
TORSDOF 4
ENDMDL
MODEL 5
REMARK VINA RESULT: -5.054542136      3.515      5.061
REMARK  4 active torsions:
REMARK  status: ('A' for Active; 'I' for Inactive)
REMARK    1  A    between atoms: C2_2  and  C4_5 
REMARK    2  A    between atoms: C4_5  and  N2_6 
REMARK    3  A    between atoms: C4_5  and  N3_10 
REMARK    4  A    between atoms: N3_10  and  C5_13 
ROOT
HETATM    1  C1  UNL     1      13.128  11.879  42.866  1.00  0.00     0.029 C 
HETATM    2  C2  UNL     1      12.565  13.184  43.419  1.00  0.00     0.146 C 
HETATM    3  C3  UNL     1      11.638  12.870  44.476  1.00  0.00     0.067 C 
HETATM    4  N1  UNL     1      10.903  12.594  45.328  1.00  0.00    -0.197 NA
ENDROOT
BRANCH   2   5
HETATM    5  C4  UNL     1      13.674  14.085  43.909  1.00  0.00     0.397 C 
BRANCH   5   6
HETATM    6  N2  UNL     1      13.286  14.580  45.232  1.00  0.00    -0.049 N 
ATOM      7  H23 UNL     1      13.817  14.150  45.989  1.00  0.00     0.276 HD
ATOM      8  H22 UNL     1      13.577  15.544  45.396  1.00  0.00     0.276 HD
ATOM      9  H21 UNL     1      12.279  14.448  45.326  1.00  0.00     0.276 HD
ENDBRANCH   5   6
BRANCH   5  10
HETATM   10  N3  UNL     1      13.786  15.193  42.981  1.00  0.00    -0.041 N 
ATOM     11  H32 UNL     1      13.093  15.128  42.234  1.00  0.00     0.280 HD
ATOM     12  H31 UNL     1      13.479  16.069  43.404  1.00  0.00     0.280 HD
BRANCH  10  13
HETATM   13  C5  UNL     1      15.129  15.301  42.452  1.00  0.00     0.188 C 
HETATM   14  C6  UNL     1      15.403  14.335  41.303  1.00  0.00     0.033 C 
HETATM   15  C7  UNL     1      16.160  15.465  40.643  1.00  0.00     0.004 C 
HETATM   16  C8  UNL     1      15.255  16.417  41.463  1.00  0.00     0.033 C 
ENDBRANCH  10  13
ENDBRANCH   5  10
ENDBRANCH   2   5
TORSDOF 4
ENDMDL
