MODEL 1
REMARK VINA RESULT: -5.809826553      0.000      0.000
REMARK  1 active torsions:
REMARK  status: ('A' for Active; 'I' for Inactive)
REMARK    1  A    between atoms: C3_3  and  C4_4 
ROOT
HETATM    1  C4  UNL     1      15.268  18.156  40.335  1.00  0.00     0.117 A 
HETATM    2  N1  UNL     1      14.503  18.170  39.233  1.00  0.00    -0.272 N 
ATOM      3  H1  UNL     1      13.849  17.442  38.944  1.00  0.00     0.190 HD
HETATM    4  N2  UNL     1      14.750  19.297  38.590  1.00  0.00    -0.227 N 
ATOM      5  H2  UNL     1      14.308  19.575  37.714  1.00  0.00     0.210 HD
HETATM    6  N3  UNL     1      15.648  20.011  39.238  1.00  0.00    -0.227 N 
ATOM      7  H3  UNL     1      16.022  20.920  38.968  1.00  0.00     0.210 HD
HETATM    8  N4  UNL     1      15.962  19.306  40.306  1.00  0.00    -0.272 N 
ATOM      9  H4  UNL     1      16.638  19.595  41.013  1.00  0.00     0.190 HD
ENDROOT
BRANCH   1  10
HETATM   10  C3  UNL     1      15.326  17.075  41.372  1.00  0.00     0.059 C 
HETATM   11  C2  UNL     1      13.989  16.868  42.016  1.00  0.00     0.040 C 
HETATM   12  C1  UNL     1      13.850  15.494  42.620  1.00  0.00     0.233 C 
HETATM   13  N5  UNL     1      15.217  14.996  42.821  1.00  0.00    -0.075 N 
HETATM   14  C6  UNL     1      15.710  14.602  41.535  1.00  0.00     0.233 C 
ATOM     15  H52 UNL     1      15.823  15.666  43.294  1.00  0.00     0.277 HD
ATOM     16  H51 UNL     1      15.275  14.254  43.517  1.00  0.00     0.277 HD
HETATM   17  C5  UNL     1      15.834  15.830  40.679  1.00  0.00     0.040 C 
ENDBRANCH   1  10
TORSDOF 1
ENDMDL
MODEL 2
REMARK VINA RESULT: -5.680817629      4.415      5.811
REMARK  1 active torsions:
REMARK  status: ('A' for Active; 'I' for Inactive)
REMARK    1  A    between atoms: C3_3  and  C4_4 
ROOT
HETATM    1  C4  UNL     1      13.294  13.814  43.222  1.00  0.00     0.117 A 
HETATM    2  N1  UNL     1      13.630  15.107  43.351  1.00  0.00    -0.272 N 
ATOM      3  H1  UNL     1      13.973  15.717  42.609  1.00  0.00     0.190 HD
HETATM    4  N2  UNL     1      13.437  15.445  44.613  1.00  0.00    -0.227 N 
ATOM      5  H2  UNL     1      13.611  16.373  44.999  1.00  0.00     0.210 HD
HETATM    6  N3  UNL     1      12.988  14.417  45.303  1.00  0.00    -0.227 N 
ATOM      7  H3  UNL     1      12.755  14.397  46.296  1.00  0.00     0.210 HD
HETATM    8  N4  UNL     1      12.903  13.420  44.446  1.00  0.00    -0.272 N 
ATOM      9  H4  UNL     1      12.584  12.480  44.678  1.00  0.00     0.190 HD
ENDROOT
BRANCH   1  10
HETATM   10  C3  UNL     1      13.350  12.995  41.968  1.00  0.00     0.059 C 
HETATM   11  C2  UNL     1      14.585  13.299  41.176  1.00  0.00     0.040 C 
HETATM   12  C1  UNL     1      14.967  12.169  40.253  1.00  0.00     0.233 C 
HETATM   13  N5  UNL     1      13.750  11.368  40.064  1.00  0.00    -0.075 N 
HETATM   14  C6  UNL     1      13.568  10.600  41.258  1.00  0.00     0.233 C 
ATOM     15  H52 UNL     1      12.934  11.930  39.819  1.00  0.00     0.277 HD
ATOM     16  H51 UNL     1      13.773  10.798  39.219  1.00  0.00     0.277 HD
HETATM   17  C5  UNL     1      13.274  11.544  42.389  1.00  0.00     0.040 C 
ENDBRANCH   1  10
TORSDOF 1
ENDMDL
MODEL 3
REMARK VINA RESULT: -5.665166583      3.955      5.515
REMARK  1 active torsions:
REMARK  status: ('A' for Active; 'I' for Inactive)
REMARK    1  A    between atoms: C3_3  and  C4_4 
ROOT
HETATM    1  C4  UNL     1      15.125  13.119  40.607  1.00  0.00     0.117 A 
HETATM    2  N1  UNL     1      16.174  13.431  39.830  1.00  0.00    -0.272 N 
ATOM      3  H1  UNL     1      16.565  12.853  39.085  1.00  0.00     0.190 HD
HETATM    4  N2  UNL     1      16.609  14.621  40.205  1.00  0.00    -0.227 N 
ATOM      5  H2  UNL     1      17.400  15.109  39.786  1.00  0.00     0.210 HD
HETATM    6  N3  UNL     1      15.877  15.088  41.196  1.00  0.00    -0.227 N 
ATOM      7  H3  UNL     1      15.990  15.981  41.676  1.00  0.00     0.210 HD
HETATM    8  N4  UNL     1      14.970  14.163  41.438  1.00  0.00    -0.272 N 
ATOM      9  H4  UNL     1      14.250  14.231  42.157  1.00  0.00     0.190 HD
ENDROOT
BRANCH   1  10
HETATM   10  C3  UNL     1      14.308  11.864  40.547  1.00  0.00     0.059 C 
HETATM   11  C2  UNL     1      15.167  10.670  40.261  1.00  0.00     0.040 C 
HETATM   12  C1  UNL     1      14.536   9.383  40.728  1.00  0.00     0.233 C 
HETATM   13  N5  UNL     1      13.098   9.656  40.850  1.00  0.00    -0.075 N 
HETATM   14  C6  UNL     1      12.918  10.416  42.051  1.00  0.00     0.233 C 
ATOM     15  H52 UNL     1      12.704  10.109  40.025  1.00  0.00     0.277 HD
ATOM     16  H51 UNL     1      12.526   8.812  40.820  1.00  0.00     0.277 HD
HETATM   17  C5  UNL     1      13.582  11.751  41.870  1.00  0.00     0.040 C 
ENDBRANCH   1  10
TORSDOF 1
ENDMDL
MODEL 4
REMARK VINA RESULT: -5.655762450      4.380      5.716
REMARK  1 active torsions:
REMARK  status: ('A' for Active; 'I' for Inactive)
REMARK    1  A    between atoms: C3_3  and  C4_4 
ROOT
HETATM    1  C4  UNL     1      13.314  13.891  43.247  1.00  0.00     0.117 A 
HETATM    2  N1  UNL     1      12.920  13.428  44.443  1.00  0.00    -0.272 N 
ATOM      3  H1  UNL     1      12.611  12.477  44.649  1.00  0.00     0.190 HD
HETATM    4  N2  UNL     1      13.005  14.425  45.305  1.00  0.00    -0.227 N 
ATOM      5  H2  UNL     1      12.767  14.359  46.295  1.00  0.00     0.210 HD
HETATM    6  N3  UNL     1      13.439  15.516  44.708  1.00  0.00    -0.227 N 
ATOM      7  H3  UNL     1      13.598  16.429  45.134  1.00  0.00     0.210 HD
HETATM    8  N4  UNL     1      13.627  15.183  43.447  1.00  0.00    -0.272 N 
ATOM      9  H4  UNL     1      13.962  15.818  42.723  1.00  0.00     0.190 HD
ENDROOT
BRANCH   1  10
HETATM   10  C3  UNL     1      13.384  13.118  41.965  1.00  0.00     0.059 C 
HETATM   11  C2  UNL     1      14.638  13.432  41.209  1.00  0.00     0.040 C 
HETATM   12  C1  UNL     1      15.023  12.331  40.253  1.00  0.00     0.233 C 
HETATM   13  N5  UNL     1      13.799  11.556  40.011  1.00  0.00    -0.075 N 
HETATM   14  C6  UNL     1      13.582  10.747  41.173  1.00  0.00     0.233 C 
ATOM     15  H52 UNL     1      12.996  12.138  39.771  1.00  0.00     0.277 HD
ATOM     16  H51 UNL     1      13.831  11.016  39.146  1.00  0.00     0.277 HD
HETATM   17  C5  UNL     1      13.278  11.653  42.331  1.00  0.00     0.040 C 
ENDBRANCH   1  10
TORSDOF 1
ENDMDL
MODEL 5
REMARK VINA RESULT: -5.649320043      3.878      6.436
REMARK  1 active torsions:
REMARK  status: ('A' for Active; 'I' for Inactive)
REMARK    1  A    between atoms: C3_3  and  C4_4 
ROOT
HETATM    1  C4  UNL     1      11.575  15.256  45.225  1.00  0.00     0.117 A 
HETATM    2  N1  UNL     1      11.483  15.297  46.563  1.00  0.00    -0.272 N 
ATOM      3  H1  UNL     1      12.261  15.365  47.220  1.00  0.00     0.190 HD
HETATM    4  N2  UNL     1      10.201  15.231  46.877  1.00  0.00    -0.227 N 
ATOM      5  H2  UNL     1       9.834  15.242  47.828  1.00  0.00     0.210 HD
HETATM    6  N3  UNL     1       9.463  15.150  45.789  1.00  0.00    -0.227 N 
ATOM      7  H3  UNL     1       8.447  15.088  45.738  1.00  0.00     0.210 HD
HETATM    8  N4  UNL     1      10.311  15.165  44.779  1.00  0.00    -0.272 N 
ATOM      9  H4  UNL     1      10.044  15.115  43.797  1.00  0.00     0.190 HD
ENDROOT
BRANCH   1  10
HETATM   10  C3  UNL     1      12.834  15.303  44.413  1.00  0.00     0.059 C 
HETATM   11  C2  UNL     1      13.059  14.012  43.686  1.00  0.00     0.040 C 
HETATM   12  C1  UNL     1      13.943  14.182  42.476  1.00  0.00     0.233 C 
HETATM   13  N5  UNL     1      14.690  15.429  42.689  1.00  0.00    -0.075 N 
HETATM   14  C6  UNL     1      13.783  16.506  42.428  1.00  0.00     0.233 C 
ATOM     15  H52 UNL     1      15.125  15.484  43.610  1.00  0.00     0.277 HD
ATOM     16  H51 UNL     1      15.546  15.482  42.138  1.00  0.00     0.277 HD
HETATM   17  C5  UNL     1      12.706  16.482  43.473  1.00  0.00     0.040 C 
ENDBRANCH   1  10
TORSDOF 1
ENDMDL
