MODEL 1
REMARK VINA RESULT: -6.290350122      0.000      0.000
REMARK  1 active torsions:
REMARK  status: ('A' for Active; 'I' for Inactive)
REMARK    1  A    between atoms: C4_6  and  C5_7 
ROOT
HETATM    1  C5  UNL     1      14.935  12.971  40.535  1.00  0.00     0.115 A 
HETATM    2  N2  UNL     1      14.984  13.972  41.459  1.00  0.00    -0.270 N 
ATOM      3  H2  UNL     1      14.288  14.150  42.184  1.00  0.00     0.185 HD
HETATM    4  N3  UNL     1      16.086  14.672  41.254  1.00  0.00    -0.005 NA
HETATM    5  N4  UNL     1      16.760  14.167  40.232  1.00  0.00    -0.225 N 
ATOM      6  H4  UNL     1      17.645  14.505  39.852  1.00  0.00     0.205 HD
HETATM    7  N5  UNL     1      16.054  13.140  39.808  1.00  0.00    -0.275 N 
ATOM      8  H5  UNL     1      16.322  12.545  39.024  1.00  0.00     0.189 HD
ENDROOT
BRANCH   1   9
HETATM    9  C4  UNL     1      13.866  11.946  40.400  1.00  0.00     0.073 C 
HETATM   10  C3  UNL     1      14.440  10.578  40.327  1.00  0.00     0.126 C 
HETATM   11  N1  UNL     1      13.701   9.538  40.939  1.00  0.00    -0.420 N 
HETATM   12  C2  UNL     1      13.005   9.848  42.139  1.00  0.00     0.113 C 
ATOM     13  H1  UNL     1      13.670   8.602  40.535  1.00  0.00     0.153 HD
HETATM   14  C1  UNL     1      13.246  11.257  42.629  1.00  0.00     0.020 C 
HETATM   15  C6  UNL     1      12.861  12.169  41.470  1.00  0.00     0.015 C 
ENDBRANCH   1   9
TORSDOF 1
ENDMDL
MODEL 2
REMARK VINA RESULT: -6.228416128      0.104      1.075
REMARK  1 active torsions:
REMARK  status: ('A' for Active; 'I' for Inactive)
REMARK    1  A    between atoms: C4_6  and  C5_7 
ROOT
HETATM    1  C5  UNL     1      14.902  12.894  40.507  1.00  0.00     0.115 A 
HETATM    2  N2  UNL     1      16.037  12.987  39.758  1.00  0.00    -0.270 N 
ATOM      3  H2  UNL     1      16.310  12.353  39.006  1.00  0.00     0.185 HD
HETATM    4  N3  UNL     1      16.724  14.037  40.173  1.00  0.00    -0.005 NA
HETATM    5  N4  UNL     1      16.081  14.636  41.164  1.00  0.00    -0.225 N 
ATOM      6  H4  UNL     1      16.376  15.468  41.675  1.00  0.00     0.205 HD
HETATM    7  N5  UNL     1      14.982  13.935  41.355  1.00  0.00    -0.275 N 
ATOM      8  H5  UNL     1      14.278  14.154  42.060  1.00  0.00     0.189 HD
ENDROOT
BRANCH   1   9
HETATM    9  C4  UNL     1      13.842  11.859  40.378  1.00  0.00     0.073 C 
HETATM   10  C3  UNL     1      14.427  10.494  40.339  1.00  0.00     0.126 C 
HETATM   11  N1  UNL     1      13.688   9.460  40.960  1.00  0.00    -0.420 N 
HETATM   12  C2  UNL     1      12.973   9.788  42.145  1.00  0.00     0.113 C 
ATOM     13  H1  UNL     1      13.668   8.517  40.574  1.00  0.00     0.153 HD
HETATM   14  C1  UNL     1      13.197  11.207  42.611  1.00  0.00     0.020 C 
HETATM   15  C6  UNL     1      12.821  12.095  41.430  1.00  0.00     0.015 C 
ENDBRANCH   1   9
TORSDOF 1
ENDMDL
MODEL 3
REMARK VINA RESULT: -5.855972125      6.421      7.798
REMARK  1 active torsions:
REMARK  status: ('A' for Active; 'I' for Inactive)
REMARK    1  A    between atoms: C4_6  and  C5_7 
ROOT
HETATM    1  C5  UNL     1      10.354  15.515  46.214  1.00  0.00     0.115 A 
HETATM    2  N2  UNL     1      10.094  15.226  47.520  1.00  0.00    -0.270 N 
ATOM      3  H2  UNL     1      10.712  15.419  48.309  1.00  0.00     0.185 HD
HETATM    4  N3  UNL     1       8.906  14.652  47.589  1.00  0.00    -0.005 NA
HETATM    5  N4  UNL     1       8.378  14.555  46.379  1.00  0.00    -0.225 N 
ATOM      6  H4  UNL     1       7.472  14.156  46.133  1.00  0.00     0.205 HD
HETATM    7  N5  UNL     1       9.264  15.081  45.558  1.00  0.00    -0.275 N 
ATOM      8  H5  UNL     1       9.138  15.151  44.548  1.00  0.00     0.189 HD
ENDROOT
BRANCH   1   9
HETATM    9  C4  UNL     1      11.581  16.166  45.682  1.00  0.00     0.073 C 
HETATM   10  C3  UNL     1      12.699  16.082  46.657  1.00  0.00     0.126 C 
HETATM   11  N1  UNL     1      14.001  15.920  46.128  1.00  0.00    -0.420 N 
HETATM   12  C2  UNL     1      14.140  15.116  44.964  1.00  0.00     0.113 C 
ATOM     13  H1  UNL     1      14.809  16.364  46.565  1.00  0.00     0.153 HD
HETATM   14  C1  UNL     1      12.848  14.472  44.519  1.00  0.00     0.020 C 
HETATM   15  C6  UNL     1      11.859  15.616  44.330  1.00  0.00     0.015 C 
ENDBRANCH   1   9
TORSDOF 1
ENDMDL
MODEL 4
REMARK VINA RESULT: -5.636738912      1.316      1.947
REMARK  1 active torsions:
REMARK  status: ('A' for Active; 'I' for Inactive)
REMARK    1  A    between atoms: C4_6  and  C5_7 
ROOT
HETATM    1  C5  UNL     1      14.311  13.585  41.652  1.00  0.00     0.115 A 
HETATM    2  N2  UNL     1      15.467  14.293  41.508  1.00  0.00    -0.270 N 
ATOM      3  H2  UNL     1      16.162  14.159  40.772  1.00  0.00     0.185 HD
HETATM    4  N3  UNL     1      15.534  15.181  42.484  1.00  0.00    -0.005 NA
HETATM    5  N4  UNL     1      14.466  15.082  43.260  1.00  0.00    -0.225 N 
ATOM      6  H4  UNL     1      14.253  15.641  44.087  1.00  0.00     0.205 HD
HETATM    7  N5  UNL     1      13.736  14.115  42.745  1.00  0.00    -0.275 N 
ATOM      8  H5  UNL     1      12.843  13.804  43.129  1.00  0.00     0.189 HD
ENDROOT
BRANCH   1   9
HETATM    9  C4  UNL     1      13.835  12.485  40.771  1.00  0.00     0.073 C 
HETATM   10  C3  UNL     1      14.971  11.664  40.278  1.00  0.00     0.126 C 
HETATM   11  N1  UNL     1      14.739  10.276  40.121  1.00  0.00    -0.420 N 
HETATM   12  C2  UNL     1      13.890   9.643  41.069  1.00  0.00     0.113 C 
ATOM     13  H1  UNL     1      15.165   9.751  39.358  1.00  0.00     0.153 HD
HETATM   14  C1  UNL     1      13.429  10.564  42.175  1.00  0.00     0.020 C 
HETATM   15  C6  UNL     1      12.761  11.744  41.480  1.00  0.00     0.015 C 
ENDBRANCH   1   9
TORSDOF 1
ENDMDL
MODEL 5
REMARK VINA RESULT: -5.617114111      2.672      4.673
REMARK  1 active torsions:
REMARK  status: ('A' for Active; 'I' for Inactive)
REMARK    1  A    between atoms: C4_6  and  C5_7 
ROOT
HETATM    1  C5  UNL     1      14.731  13.441  41.288  1.00  0.00     0.115 A 
HETATM    2  N2  UNL     1      13.616  13.070  41.978  1.00  0.00    -0.270 N 
ATOM      3  H2  UNL     1      13.252  13.527  42.815  1.00  0.00     0.185 HD
HETATM    4  N3  UNL     1      13.088  12.018  41.378  1.00  0.00    -0.005 NA
HETATM    5  N4  UNL     1      13.814  11.687  40.321  1.00  0.00    -0.225 N 
ATOM      6  H4  UNL     1      13.642  10.918  39.673  1.00  0.00     0.205 HD
HETATM    7  N5  UNL     1      14.803  12.556  40.279  1.00  0.00    -0.275 N 
ATOM      8  H5  UNL     1      15.535  12.556  39.567  1.00  0.00     0.189 HD
ENDROOT
BRANCH   1   9
HETATM    9  C4  UNL     1      15.633  14.578  41.614  1.00  0.00     0.073 C 
HETATM   10  C3  UNL     1      16.135  15.236  40.380  1.00  0.00     0.126 C 
HETATM   11  N1  UNL     1      16.316  16.639  40.431  1.00  0.00    -0.420 N 
HETATM   12  C2  UNL     1      15.385  17.393  41.194  1.00  0.00     0.113 C 
ATOM     13  H1  UNL     1      17.086  17.091  39.938  1.00  0.00     0.153 HD
HETATM   14  C1  UNL     1      14.266  16.560  41.774  1.00  0.00     0.020 C 
HETATM   15  C6  UNL     1      14.944  15.464  42.586  1.00  0.00     0.015 C 
ENDBRANCH   1   9
TORSDOF 1
ENDMDL
