MODEL 1
REMARK VINA RESULT: -5.911028036      0.000      0.000
REMARK  1 active torsions:
REMARK  status: ('A' for Active; 'I' for Inactive)
REMARK    1  A    between atoms: C4_4  and  C5_5 
ROOT
HETATM    1  C1  UNL     1      13.100  10.004  42.469  1.00  0.00     0.027 C 
HETATM    2  C2  UNL     1      13.446   9.632  41.042  1.00  0.00     0.004 C 
HETATM    3  C3  UNL     1      14.387  10.627  40.440  1.00  0.00     0.041 C 
HETATM    4  C4  UNL     1      13.798  12.016  40.438  1.00  0.00     0.255 C 
HETATM    5  N5  UNL     1      12.874  12.224  41.528  1.00  0.00    -0.064 N 
ATOM      6  H51 UNL     1      11.918  12.015  41.240  1.00  0.00     0.278 HD
ATOM      7  H52 UNL     1      12.772  13.219  41.734  1.00  0.00     0.278 HD
HETATM    8  C6  UNL     1      13.224  11.491  42.707  1.00  0.00     0.233 C 
ENDROOT
BRANCH   4   9
HETATM    9  C5  UNL     1      14.909  13.009  40.564  1.00  0.00     0.141 A 
HETATM   10  N1  UNL     1      15.001  14.017  41.464  1.00  0.00    -0.269 N 
HETATM   11  N2  UNL     1      16.136  14.666  41.243  1.00  0.00    -0.005 NA
ATOM     12  H1  UNL     1      14.317  14.239  42.186  1.00  0.00     0.185 HD
HETATM   13  N3  UNL     1      16.783  14.111  40.227  1.00  0.00    -0.225 N 
HETATM   14  N4  UNL     1      16.032  13.111  39.827  1.00  0.00    -0.273 N 
ATOM     15  H3  UNL     1      17.679  14.402  39.837  1.00  0.00     0.205 HD
ATOM     16  H4  UNL     1      16.270  12.489  39.054  1.00  0.00     0.189 HD
ENDBRANCH   4   9
TORSDOF 1
ENDMDL
MODEL 2
REMARK VINA RESULT: -5.719827335      5.999      7.787
REMARK  1 active torsions:
REMARK  status: ('A' for Active; 'I' for Inactive)
REMARK    1  A    between atoms: C4_4  and  C5_5 
ROOT
HETATM    1  C1  UNL     1      14.009  15.000  44.936  1.00  0.00     0.027 C 
HETATM    2  C2  UNL     1      13.944  16.121  45.953  1.00  0.00     0.004 C 
HETATM    3  C3  UNL     1      12.632  16.120  46.670  1.00  0.00     0.041 C 
HETATM    4  C4  UNL     1      11.477  16.282  45.713  1.00  0.00     0.255 C 
HETATM    5  N5  UNL     1      11.766  15.744  44.405  1.00  0.00    -0.064 N 
ATOM      6  H51 UNL     1      12.141  16.465  43.789  1.00  0.00     0.278 HD
ATOM      7  H52 UNL     1      10.905  15.526  43.902  1.00  0.00     0.278 HD
HETATM    8  C6  UNL     1      12.634  14.607  44.446  1.00  0.00     0.233 C 
ENDROOT
BRANCH   4   9
HETATM    9  C5  UNL     1      10.289  15.563  46.268  1.00  0.00     0.141 A 
HETATM   10  N1  UNL     1      10.064  15.244  47.565  1.00  0.00    -0.269 N 
HETATM   11  N2  UNL     1       8.900  14.611  47.640  1.00  0.00    -0.005 NA
ATOM     12  H1  UNL     1      10.681  15.454  48.348  1.00  0.00     0.185 HD
HETATM   13  N3  UNL     1       8.365  14.509  46.431  1.00  0.00    -0.225 N 
HETATM   14  N4  UNL     1       9.212  15.087  45.612  1.00  0.00    -0.273 N 
ATOM     15  H3  UNL     1       7.477  14.070  46.188  1.00  0.00     0.205 HD
ATOM     16  H4  UNL     1       9.072  15.167  44.605  1.00  0.00     0.189 HD
ENDBRANCH   4   9
TORSDOF 1
ENDMDL
MODEL 3
REMARK VINA RESULT: -5.633619777      5.076      6.761
REMARK  1 active torsions:
REMARK  status: ('A' for Active; 'I' for Inactive)
REMARK    1  A    between atoms: C4_4  and  C5_5 
ROOT
HETATM    1  C1  UNL     1      13.661  16.563  42.378  1.00  0.00     0.027 C 
HETATM    2  C2  UNL     1      13.940  15.101  42.660  1.00  0.00     0.004 C 
HETATM    3  C3  UNL     1      12.935  14.538  43.613  1.00  0.00     0.041 C 
HETATM    4  C4  UNL     1      12.938  15.282  44.925  1.00  0.00     0.255 C 
HETATM    5  N5  UNL     1      13.330  16.663  44.775  1.00  0.00    -0.064 N 
ATOM      6  H51 UNL     1      14.334  16.774  44.918  1.00  0.00     0.278 HD
ATOM      7  H52 UNL     1      12.987  17.226  45.554  1.00  0.00     0.278 HD
HETATM    8  C6  UNL     1      12.929  17.226  43.521  1.00  0.00     0.233 C 
ENDROOT
BRANCH   4   9
HETATM    9  C5  UNL     1      11.558  15.243  45.502  1.00  0.00     0.141 A 
HETATM   10  N1  UNL     1      11.222  15.292  46.812  1.00  0.00    -0.269 N 
HETATM   11  N2  UNL     1       9.900  15.232  46.904  1.00  0.00    -0.005 NA
ATOM     12  H1  UNL     1      11.873  15.364  47.594  1.00  0.00     0.185 HD
HETATM   13  N3  UNL     1       9.369  15.143  45.692  1.00  0.00    -0.225 N 
HETATM   14  N4  UNL     1      10.379  15.151  44.855  1.00  0.00    -0.273 N 
ATOM     15  H3  UNL     1       8.378  15.081  45.459  1.00  0.00     0.205 HD
ATOM     16  H4  UNL     1      10.284  15.096  43.841  1.00  0.00     0.189 HD
ENDBRANCH   4   9
TORSDOF 1
ENDMDL
MODEL 4
REMARK VINA RESULT: -5.600405144      4.226      5.865
REMARK  1 active torsions:
REMARK  status: ('A' for Active; 'I' for Inactive)
REMARK    1  A    between atoms: C4_4  and  C5_5 
ROOT
HETATM    1  C1  UNL     1      15.007  15.852  41.971  1.00  0.00     0.027 C 
HETATM    2  C2  UNL     1      14.674  14.375  41.938  1.00  0.00     0.004 C 
HETATM    3  C3  UNL     1      13.545  14.058  42.867  1.00  0.00     0.041 C 
HETATM    4  C4  UNL     1      13.875  14.437  44.289  1.00  0.00     0.255 C 
HETATM    5  N5  UNL     1      14.791  15.550  44.365  1.00  0.00    -0.064 N 
ATOM      6  H51 UNL     1      15.756  15.224  44.420  1.00  0.00     0.278 HD
ATOM      7  H52 UNL     1      14.721  16.019  45.268  1.00  0.00     0.278 HD
HETATM    8  C6  UNL     1      14.629  16.483  43.291  1.00  0.00     0.233 C 
ENDROOT
BRANCH   4   9
HETATM    9  C5  UNL     1      12.609  14.819  44.989  1.00  0.00     0.141 A 
HETATM   10  N1  UNL     1      12.468  15.140  46.297  1.00  0.00    -0.269 N 
HETATM   11  N2  UNL     1      11.190  15.416  46.520  1.00  0.00    -0.005 NA
ATOM     12  H1  UNL     1      13.215  15.165  46.991  1.00  0.00     0.185 HD
HETATM   13  N3  UNL     1      10.498  15.282  45.398  1.00  0.00    -0.225 N 
HETATM   14  N4  UNL     1      11.366  14.923  44.481  1.00  0.00    -0.273 N 
ATOM     15  H3  UNL     1       9.496  15.429  45.272  1.00  0.00     0.205 HD
ATOM     16  H4  UNL     1      11.128  14.744  43.505  1.00  0.00     0.189 HD
ENDBRANCH   4   9
TORSDOF 1
ENDMDL
MODEL 5
REMARK VINA RESULT: -5.585390217      4.229      5.909
REMARK  1 active torsions:
REMARK  status: ('A' for Active; 'I' for Inactive)
REMARK    1  A    between atoms: C4_4  and  C5_5 
ROOT
HETATM    1  C1  UNL     1      14.999  15.862  41.962  1.00  0.00     0.027 C 
HETATM    2  C2  UNL     1      14.674  14.383  41.933  1.00  0.00     0.004 C 
HETATM    3  C3  UNL     1      13.556  14.061  42.872  1.00  0.00     0.041 C 
HETATM    4  C4  UNL     1      13.895  14.444  44.291  1.00  0.00     0.255 C 
HETATM    5  N5  UNL     1      14.806  15.563  44.357  1.00  0.00    -0.064 N 
ATOM      6  H51 UNL     1      15.773  15.242  44.405  1.00  0.00     0.278 HD
ATOM      7  H52 UNL     1      14.740  16.032  45.261  1.00  0.00     0.278 HD
HETATM    8  C6  UNL     1      14.629  16.493  43.284  1.00  0.00     0.233 C 
ENDROOT
BRANCH   4   9
HETATM    9  C5  UNL     1      12.633  14.819  45.002  1.00  0.00     0.141 A 
HETATM   10  N1  UNL     1      11.394  14.914  44.464  1.00  0.00    -0.269 N 
HETATM   11  N2  UNL     1      10.552  15.272  45.424  1.00  0.00    -0.005 NA
ATOM     12  H1  UNL     1      11.150  14.740  43.489  1.00  0.00     0.185 HD
HETATM   13  N3  UNL     1      11.208  15.413  46.568  1.00  0.00    -0.225 N 
HETATM   14  N4  UNL     1      12.463  15.136  46.300  1.00  0.00    -0.273 N 
ATOM     15  H3  UNL     1      10.817  15.681  47.471  1.00  0.00     0.205 HD
ATOM     16  H4  UNL     1      13.214  15.158  46.989  1.00  0.00     0.189 HD
ENDBRANCH   4   9
TORSDOF 1
ENDMDL
