MODEL 1
REMARK VINA RESULT: -4.476302947      0.000      0.000
REMARK  2 active torsions:
REMARK  status: ('A' for Active; 'I' for Inactive)
REMARK    1  A    between atoms: O1_2  and  C2_3 
REMARK    2  A    between atoms: C6_8  and  N1_9 
ROOT
HETATM    1  C2  UNL     1      13.898  14.641  44.940  1.00  0.00     0.331 C 
HETATM    2  C3  UNL     1      14.234  15.923  44.297  1.00  0.00     0.137 C 
HETATM    3  S1  UNL     1      12.628  16.772  44.194  1.00  0.00    -0.124 SA
HETATM    4  C4  UNL     1      11.775  15.580  45.250  1.00  0.00     0.206 A 
HETATM    5  C5  UNL     1      10.347  15.585  45.459  1.00  0.00     0.089 A 
HETATM    6  C6  UNL     1      11.326  16.025  46.573  1.00  0.00     0.233 A 
HETATM    7  N2  UNL     1      12.523  14.390  45.022  1.00  0.00    -0.028 N 
ATOM      8  H21 UNL     1      12.317  13.683  45.727  1.00  0.00     0.282 HD
ATOM      9  H22 UNL     1      12.188  13.896  44.195  1.00  0.00     0.282 HD
ENDROOT
BRANCH   6  10
HETATM   10  N1  UNL     1      11.363  15.201  47.744  1.00  0.00    -0.072 N 
ATOM     11  H13 UNL     1      11.801  14.320  47.478  1.00  0.00     0.274 HD
ATOM     12  H12 UNL     1      12.050  15.608  48.377  1.00  0.00     0.274 HD
ATOM     13  H11 UNL     1      10.539  14.971  48.301  1.00  0.00     0.274 HD
ENDBRANCH   6  10
BRANCH   1  14
HETATM   14  O1  UNL     1      14.463  14.555  46.211  1.00  0.00    -0.363 OA
HETATM   15  C1  UNL     1      15.398  15.561  46.439  1.00  0.00     0.204 C 
ENDBRANCH   1  14
TORSDOF 2
ENDMDL
MODEL 2
REMARK VINA RESULT: -4.291565541      1.835      2.618
REMARK  2 active torsions:
REMARK  status: ('A' for Active; 'I' for Inactive)
REMARK    1  A    between atoms: O1_2  and  C2_3 
REMARK    2  A    between atoms: C6_8  and  N1_9 
ROOT
HETATM    1  C2  UNL     1      12.081  14.849  45.115  1.00  0.00     0.331 C 
HETATM    2  C3  UNL     1      12.382  15.927  44.157  1.00  0.00     0.137 C 
HETATM    3  S1  UNL     1      12.747  17.350  45.230  1.00  0.00    -0.124 SA
HETATM    4  C4  UNL     1      12.801  16.368  46.746  1.00  0.00     0.206 A 
HETATM    5  C5  UNL     1      12.899  16.948  48.063  1.00  0.00     0.089 A 
HETATM    6  C6  UNL     1      14.094  16.206  47.419  1.00  0.00     0.233 A 
HETATM    7  N2  UNL     1      11.924  15.290  46.434  1.00  0.00    -0.028 N 
ATOM      8  H21 UNL     1      12.033  14.522  47.097  1.00  0.00     0.282 HD
ATOM      9  H22 UNL     1      10.953  15.535  46.629  1.00  0.00     0.282 HD
ENDROOT
BRANCH   6  10
HETATM   10  N1  UNL     1      14.507  14.995  48.063  1.00  0.00    -0.072 N 
ATOM     11  H13 UNL     1      13.857  14.825  48.830  1.00  0.00     0.274 HD
ATOM     12  H12 UNL     1      14.302  14.228  47.424  1.00  0.00     0.274 HD
ATOM     13  H11 UNL     1      15.448  14.840  48.426  1.00  0.00     0.274 HD
ENDBRANCH   6  10
BRANCH   1  14
HETATM   14  O1  UNL     1      13.054  13.853  45.070  1.00  0.00    -0.363 OA
HETATM   15  C1  UNL     1      13.335  13.451  43.767  1.00  0.00     0.204 C 
ENDBRANCH   1  14
TORSDOF 2
ENDMDL
MODEL 3
REMARK VINA RESULT: -4.255714043      2.224      4.062
REMARK  2 active torsions:
REMARK  status: ('A' for Active; 'I' for Inactive)
REMARK    1  A    between atoms: O1_2  and  C2_3 
REMARK    2  A    between atoms: C6_8  and  N1_9 
ROOT
HETATM    1  C2  UNL     1      10.993  15.992  48.063  1.00  0.00     0.331 C 
HETATM    2  C3  UNL     1      10.892  17.421  47.723  1.00  0.00     0.137 C 
HETATM    3  S1  UNL     1      12.513  17.791  46.986  1.00  0.00    -0.124 SA
HETATM    4  C4  UNL     1      13.016  16.058  46.886  1.00  0.00     0.206 A 
HETATM    5  C5  UNL     1      14.346  15.638  46.515  1.00  0.00     0.089 A 
HETATM    6  C6  UNL     1      13.145  15.450  45.558  1.00  0.00     0.233 A 
HETATM    7  N2  UNL     1      12.290  15.475  47.963  1.00  0.00    -0.028 N 
ATOM      8  H21 UNL     1      12.278  14.457  47.892  1.00  0.00     0.282 HD
ATOM      9  H22 UNL     1      12.795  15.569  48.844  1.00  0.00     0.282 HD
ENDROOT
BRANCH   6  10
HETATM   10  N1  UNL     1      12.777  14.097  45.265  1.00  0.00    -0.072 N 
ATOM     11  H13 UNL     1      13.494  13.717  44.647  1.00  0.00     0.274 HD
ATOM     12  H12 UNL     1      12.912  13.556  46.119  1.00  0.00     0.274 HD
ATOM     13  H11 UNL     1      11.873  13.828  44.878  1.00  0.00     0.274 HD
ENDBRANCH   6  10
BRANCH   1  14
HETATM   14  O1  UNL     1      10.126  15.229  47.282  1.00  0.00    -0.363 OA
HETATM   15  C1  UNL     1       8.808  15.320  47.720  1.00  0.00     0.204 C 
ENDBRANCH   1  14
TORSDOF 2
ENDMDL
MODEL 4
REMARK VINA RESULT: -4.240350516      1.942      2.350
REMARK  2 active torsions:
REMARK  status: ('A' for Active; 'I' for Inactive)
REMARK    1  A    between atoms: O1_2  and  C2_3 
REMARK    2  A    between atoms: C6_8  and  N1_9 
ROOT
HETATM    1  C2  UNL     1      12.006  15.802  44.986  1.00  0.00     0.331 C 
HETATM    2  C3  UNL     1      13.073  16.744  45.366  1.00  0.00     0.137 C 
HETATM    3  S1  UNL     1      12.252  17.846  46.558  1.00  0.00    -0.124 SA
HETATM    4  C4  UNL     1      10.771  16.819  46.696  1.00  0.00     0.206 A 
HETATM    5  C5  UNL     1       9.585  17.229  47.409  1.00  0.00     0.089 A 
HETATM    6  C6  UNL     1      10.522  16.132  47.967  1.00  0.00     0.233 A 
HETATM    7  N2  UNL     1      10.732  16.180  45.424  1.00  0.00    -0.028 N 
ATOM      8  H21 UNL     1      10.091  15.387  45.429  1.00  0.00     0.282 HD
ATOM      9  H22 UNL     1      10.261  16.763  44.732  1.00  0.00     0.282 HD
ENDROOT
BRANCH   6  10
HETATM   10  N1  UNL     1       9.966  14.816  48.063  1.00  0.00    -0.072 N 
ATOM     11  H13 UNL     1       8.966  14.922  48.225  1.00  0.00     0.274 HD
ATOM     12  H12 UNL     1       9.997  14.407  47.129  1.00  0.00     0.274 HD
ATOM     13  H11 UNL     1      10.303  14.105  48.714  1.00  0.00     0.274 HD
ENDBRANCH   6  10
BRANCH   1  14
HETATM   14  O1  UNL     1      12.291  14.515  45.440  1.00  0.00    -0.363 OA
HETATM   15  C1  UNL     1      13.106  13.815  44.554  1.00  0.00     0.204 C 
ENDBRANCH   1  14
TORSDOF 2
ENDMDL
MODEL 5
REMARK VINA RESULT: -4.140441508      1.982      2.596
REMARK  2 active torsions:
REMARK  status: ('A' for Active; 'I' for Inactive)
REMARK    1  A    between atoms: O1_2  and  C2_3 
REMARK    2  A    between atoms: C6_8  and  N1_9 
ROOT
HETATM    1  C2  UNL     1      15.019  16.048  46.384  1.00  0.00     0.331 C 
HETATM    2  C3  UNL     1      15.750  16.607  45.233  1.00  0.00     0.137 C 
HETATM    3  S1  UNL     1      15.227  15.546  43.851  1.00  0.00    -0.124 SA
HETATM    4  C4  UNL     1      13.915  14.733  44.791  1.00  0.00     0.206 A 
HETATM    5  C5  UNL     1      13.169  13.601  44.296  1.00  0.00     0.089 A 
HETATM    6  C6  UNL     1      12.525  15.003  44.413  1.00  0.00     0.233 A 
HETATM    7  N2  UNL     1      14.409  14.815  46.124  1.00  0.00    -0.028 N 
ATOM      8  H21 UNL     1      13.674  14.616  46.803  1.00  0.00     0.282 HD
ATOM      9  H22 UNL     1      15.037  14.040  46.334  1.00  0.00     0.282 HD
ENDROOT
BRANCH   6  10
HETATM   10  N1  UNL     1      11.455  15.129  45.356  1.00  0.00    -0.072 N 
ATOM     11  H13 UNL     1      11.153  14.186  45.598  1.00  0.00     0.274 HD
ATOM     12  H12 UNL     1      11.862  15.462  46.231  1.00  0.00     0.274 HD
ATOM     13  H11 UNL     1      10.613  15.681  45.188  1.00  0.00     0.274 HD
ENDBRANCH   6  10
BRANCH   1  14
HETATM   14  O1  UNL     1      14.066  16.948  46.856  1.00  0.00    -0.363 OA
HETATM   15  C1  UNL     1      13.507  16.535  48.063  1.00  0.00     0.204 C 
ENDBRANCH   1  14
TORSDOF 2
ENDMDL
