MODEL 1
REMARK VINA RESULT: -6.222456509      0.000      0.000
REMARK  1 active torsions:
REMARK  status: ('A' for Active; 'I' for Inactive)
REMARK    1  A    between atoms: N2_6  and  C5_7 
ROOT
HETATM    1  N1  UNL     1      13.620   8.874  40.782  1.00  0.00    -0.195 NA
HETATM    2  C1  UNL     1      13.482  10.008  40.824  1.00  0.00     0.086 C 
HETATM    3  C2  UNL     1      13.296  11.450  40.881  1.00  0.00     0.207 C 
HETATM    4  C3  UNL     1      14.624  12.135  40.730  1.00  0.00     0.063 C 
HETATM    5  C4  UNL     1      14.378  13.413  41.550  1.00  0.00     0.155 C 
HETATM    6  N2  UNL     1      13.409  12.977  42.521  1.00  0.00    -0.257 N 
HETATM    7  N5  UNL     1      12.830  11.913  42.144  1.00  0.00    -0.313 N 
ATOM      8  H5  UNL     1      12.108  11.440  42.688  1.00  0.00     0.182 HD
ENDROOT
BRANCH   6   9
HETATM    9  C5  UNL     1      13.074  13.595  43.769  1.00  0.00     0.281 A 
HETATM   10  N3  UNL     1      12.685  14.835  44.049  1.00  0.00    -0.242 N 
HETATM   11  N4  UNL     1      12.611  14.526  45.329  1.00  0.00    -0.195 N 
ATOM     12  H3  UNL     1      12.514  15.677  43.499  1.00  0.00     0.192 HD
HETATM   13  O1  UNL     1      12.991  13.320  45.033  1.00  0.00    -0.182 OA
ATOM     14  H4  UNL     1      12.362  15.022  46.185  1.00  0.00     0.216 HD
ENDBRANCH   6   9
TORSDOF 1
ENDMDL
MODEL 2
REMARK VINA RESULT: -5.628710619      4.983      5.738
REMARK  1 active torsions:
REMARK  status: ('A' for Active; 'I' for Inactive)
REMARK    1  A    between atoms: N2_6  and  C5_7 
ROOT
HETATM    1  N1  UNL     1      16.004  12.768  39.920  1.00  0.00    -0.195 NA
HETATM    2  C1  UNL     1      16.061  13.750  40.502  1.00  0.00     0.086 C 
HETATM    3  C2  UNL     1      16.142  15.004  41.236  1.00  0.00     0.207 C 
HETATM    4  C3  UNL     1      14.928  15.155  42.109  1.00  0.00     0.063 C 
HETATM    5  C4  UNL     1      14.794  16.688  42.143  1.00  0.00     0.155 C 
HETATM    6  N2  UNL     1      15.361  17.078  40.880  1.00  0.00    -0.257 N 
HETATM    7  N5  UNL     1      16.090  16.156  40.400  1.00  0.00    -0.313 N 
ATOM      8  H5  UNL     1      16.586  16.232  39.512  1.00  0.00     0.182 HD
ENDROOT
BRANCH   6   9
HETATM    9  C5  UNL     1      15.185  18.315  40.180  1.00  0.00     0.281 A 
HETATM   10  N3  UNL     1      14.470  18.609  39.099  1.00  0.00    -0.242 N 
HETATM   11  N4  UNL     1      14.868  19.864  39.173  1.00  0.00    -0.195 N 
ATOM     12  H3  UNL     1      13.863  18.081  38.472  1.00  0.00     0.192 HD
HETATM   13  O1  UNL     1      15.559  19.556  40.229  1.00  0.00    -0.182 OA
ATOM     14  H4  UNL     1      14.704  20.714  38.633  1.00  0.00     0.216 HD
ENDBRANCH   6   9
TORSDOF 1
ENDMDL
MODEL 3
REMARK VINA RESULT: -5.587295571      3.177      4.277
REMARK  1 active torsions:
REMARK  status: ('A' for Active; 'I' for Inactive)
REMARK    1  A    between atoms: N2_6  and  C5_7 
ROOT
HETATM    1  N1  UNL     1      16.053  17.151  41.599  1.00  0.00    -0.195 NA
HETATM    2  C1  UNL     1      15.667  16.287  42.240  1.00  0.00     0.086 C 
HETATM    3  C2  UNL     1      15.178  15.194  43.066  1.00  0.00     0.207 C 
HETATM    4  C3  UNL     1      14.447  14.203  42.206  1.00  0.00     0.063 C 
HETATM    5  C4  UNL     1      13.424  13.653  43.216  1.00  0.00     0.155 C 
HETATM    6  N2  UNL     1      13.235  14.768  44.105  1.00  0.00    -0.257 N 
HETATM    7  N5  UNL     1      14.194  15.595  44.014  1.00  0.00    -0.313 N 
ATOM      8  H5  UNL     1      14.253  16.454  44.561  1.00  0.00     0.182 HD
ENDROOT
BRANCH   6   9
HETATM    9  C5  UNL     1      12.147  15.000  45.008  1.00  0.00     0.281 A 
HETATM   10  N3  UNL     1      12.127  15.128  46.330  1.00  0.00    -0.242 N 
HETATM   11  N4  UNL     1      10.819  15.300  46.297  1.00  0.00    -0.195 N 
ATOM     12  H3  UNL     1      12.832  15.105  47.067  1.00  0.00     0.192 HD
HETATM   13  O1  UNL     1      10.862  15.173  45.005  1.00  0.00    -0.182 OA
ATOM     14  H4  UNL     1      10.088  15.463  46.989  1.00  0.00     0.216 HD
ENDBRANCH   6   9
TORSDOF 1
ENDMDL
MODEL 4
REMARK VINA RESULT: -5.440288946      1.641      1.822
REMARK  1 active torsions:
REMARK  status: ('A' for Active; 'I' for Inactive)
REMARK    1  A    between atoms: N2_6  and  C5_7 
ROOT
HETATM    1  N1  UNL     1      15.170   8.405  43.312  1.00  0.00    -0.195 NA
HETATM    2  C1  UNL     1      14.389   9.177  42.997  1.00  0.00     0.086 C 
HETATM    3  C2  UNL     1      13.390  10.160  42.607  1.00  0.00     0.207 C 
HETATM    4  C3  UNL     1      13.788  10.791  41.303  1.00  0.00     0.063 C 
HETATM    5  C4  UNL     1      13.162  12.188  41.463  1.00  0.00     0.155 C 
HETATM    6  N2  UNL     1      13.184  12.377  42.889  1.00  0.00    -0.257 N 
HETATM    7  N5  UNL     1      13.307  11.269  43.497  1.00  0.00    -0.313 N 
ATOM      8  H5  UNL     1      13.342  11.183  44.512  1.00  0.00     0.182 HD
ENDROOT
BRANCH   6   9
HETATM    9  C5  UNL     1      13.086  13.608  43.615  1.00  0.00     0.281 A 
HETATM   10  N3  UNL     1      12.892  13.840  44.909  1.00  0.00    -0.242 N 
HETATM   11  N4  UNL     1      12.939  15.139  44.686  1.00  0.00    -0.195 N 
ATOM     12  H3  UNL     1      12.761  13.255  45.735  1.00  0.00     0.192 HD
HETATM   13  O1  UNL     1      13.129  14.889  43.426  1.00  0.00    -0.182 OA
ATOM     14  H4  UNL     1      12.859  15.980  45.258  1.00  0.00     0.216 HD
ENDBRANCH   6   9
TORSDOF 1
ENDMDL
MODEL 5
REMARK VINA RESULT: -5.423582167      1.960      2.099
REMARK  1 active torsions:
REMARK  status: ('A' for Active; 'I' for Inactive)
REMARK    1  A    between atoms: N2_6  and  C5_7 
ROOT
HETATM    1  N1  UNL     1      12.298   9.142  42.507  1.00  0.00    -0.195 NA
HETATM    2  C1  UNL     1      12.588  10.093  41.944  1.00  0.00     0.086 C 
HETATM    3  C2  UNL     1      12.950  11.311  41.235  1.00  0.00     0.207 C 
HETATM    4  C3  UNL     1      14.250  11.104  40.512  1.00  0.00     0.063 C 
HETATM    5  C4  UNL     1      14.813  12.536  40.529  1.00  0.00     0.155 C 
HETATM    6  N2  UNL     1      14.235  13.084  41.726  1.00  0.00    -0.257 N 
HETATM    7  N5  UNL     1      13.225  12.410  42.097  1.00  0.00    -0.313 N 
ATOM      8  H5  UNL     1      12.670  12.633  42.924  1.00  0.00     0.182 HD
ENDROOT
BRANCH   6   9
HETATM    9  C5  UNL     1      14.669  14.229  42.469  1.00  0.00     0.281 A 
HETATM   10  N3  UNL     1      15.665  15.081  42.250  1.00  0.00    -0.242 N 
HETATM   11  N4  UNL     1      15.341  15.746  43.342  1.00  0.00    -0.195 N 
ATOM     12  H3  UNL     1      16.384  15.180  41.533  1.00  0.00     0.192 HD
HETATM   13  O1  UNL     1      14.372  14.903  43.536  1.00  0.00    -0.182 OA
ATOM     14  H4  UNL     1      15.698  16.569  43.827  1.00  0.00     0.216 HD
ENDBRANCH   6   9
TORSDOF 1
ENDMDL
