MODEL 1
REMARK VINA RESULT: -5.962369500      0.000      0.000
REMARK  1 active torsions:
REMARK  status: ('A' for Active; 'I' for Inactive)
REMARK    1  A    between atoms: C3_5  and  C4_6 
ROOT
HETATM    1  C4  UNL     1      15.224  17.975  40.719  1.00  0.00     0.141 A 
HETATM    2  N2  UNL     1      15.666  17.129  39.771  1.00  0.00    -0.268 N 
ATOM      3  H2  UNL     1      15.934  16.156  39.919  1.00  0.00     0.185 HD
HETATM    4  N3  UNL     1      15.696  17.774  38.607  1.00  0.00    -0.005 NA
HETATM    5  N4  UNL     1      15.280  19.015  38.795  1.00  0.00    -0.225 N 
ATOM      6  H4  UNL     1      15.196  19.742  38.085  1.00  0.00     0.205 HD
HETATM    7  N5  UNL     1      14.996  19.132  40.075  1.00  0.00    -0.273 N 
ATOM      8  H5  UNL     1      14.650  19.984  40.518  1.00  0.00     0.189 HD
ENDROOT
BRANCH   1   9
HETATM    9  C3  UNL     1      15.056  17.618  42.142  1.00  0.00     0.217 C 
HETATM   10  O1  UNL     1      16.065  16.760  42.595  1.00  0.00    -0.273 OA
HETATM   11  N1  UNL     1      15.774  16.473  43.887  1.00  0.00    -0.100 NA
HETATM   12  C2  UNL     1      14.763  15.437  43.990  1.00  0.00     0.143 C 
HETATM   13  C1  UNL     1      14.005  15.459  42.656  1.00  0.00     0.021 C 
HETATM   14  C5  UNL     1      13.706  16.938  42.389  1.00  0.00     0.043 C 
ENDBRANCH   1   9
TORSDOF 1
ENDMDL
MODEL 2
REMARK VINA RESULT: -5.737624197      5.003      7.149
REMARK  1 active torsions:
REMARK  status: ('A' for Active; 'I' for Inactive)
REMARK    1  A    between atoms: C3_5  and  C4_6 
ROOT
HETATM    1  C4  UNL     1      10.866  15.558  46.375  1.00  0.00     0.141 A 
HETATM    2  N2  UNL     1       9.617  15.283  45.960  1.00  0.00    -0.268 N 
ATOM      3  H2  UNL     1       9.265  15.404  45.010  1.00  0.00     0.185 HD
HETATM    4  N3  UNL     1       8.917  14.825  46.995  1.00  0.00    -0.005 NA
HETATM    5  N4  UNL     1       9.697  14.803  48.063  1.00  0.00    -0.225 N 
ATOM      6  H4  UNL     1       9.436  14.500  49.000  1.00  0.00     0.205 HD
HETATM    7  N5  UNL     1      10.876  15.248  47.682  1.00  0.00    -0.273 N 
ATOM      8  H5  UNL     1      11.685  15.345  48.296  1.00  0.00     0.189 HD
ENDROOT
BRANCH   1   9
HETATM    9  C3  UNL     1      11.936  16.088  45.505  1.00  0.00     0.217 C 
HETATM   10  O1  UNL     1      11.463  16.429  44.233  1.00  0.00    -0.273 OA
HETATM   11  N1  UNL     1      12.538  16.852  43.524  1.00  0.00    -0.100 NA
HETATM   12  C2  UNL     1      13.308  15.737  43.004  1.00  0.00     0.143 C 
HETATM   13  C1  UNL     1      12.966  14.539  43.901  1.00  0.00     0.021 C 
HETATM   14  C5  UNL     1      13.068  15.070  45.335  1.00  0.00     0.043 C 
ENDBRANCH   1   9
TORSDOF 1
ENDMDL
MODEL 3
REMARK VINA RESULT: -5.698894967      5.058      6.434
REMARK  1 active torsions:
REMARK  status: ('A' for Active; 'I' for Inactive)
REMARK    1  A    between atoms: C3_5  and  C4_6 
ROOT
HETATM    1  C4  UNL     1      13.239  12.919  43.314  1.00  0.00     0.141 A 
HETATM    2  N2  UNL     1      13.889  13.994  42.834  1.00  0.00    -0.268 N 
ATOM      3  H2  UNL     1      14.207  14.117  41.873  1.00  0.00     0.185 HD
HETATM    4  N3  UNL     1      14.048  14.871  43.823  1.00  0.00    -0.005 NA
HETATM    5  N4  UNL     1      13.510  14.375  44.925  1.00  0.00    -0.225 N 
ATOM      6  H4  UNL     1      13.479  14.822  45.841  1.00  0.00     0.205 HD
HETATM    7  N5  UNL     1      13.022  13.193  44.612  1.00  0.00    -0.273 N 
ATOM      8  H5  UNL     1      12.544  12.571  45.265  1.00  0.00     0.189 HD
ENDROOT
BRANCH   1   9
HETATM    9  C3  UNL     1      12.880  11.733  42.510  1.00  0.00     0.217 C 
HETATM   10  O1  UNL     1      13.536  10.578  42.952  1.00  0.00    -0.273 OA
HETATM   11  N1  UNL     1      13.164   9.581  42.112  1.00  0.00    -0.100 NA
HETATM   12  C2  UNL     1      13.923   9.612  40.875  1.00  0.00     0.143 C 
HETATM   13  C1  UNL     1      14.436  11.051  40.737  1.00  0.00     0.021 C 
HETATM   14  C5  UNL     1      13.223  11.940  41.032  1.00  0.00     0.043 C 
ENDBRANCH   1   9
TORSDOF 1
ENDMDL
MODEL 4
REMARK VINA RESULT: -5.648807864      2.279      2.763
REMARK  1 active torsions:
REMARK  status: ('A' for Active; 'I' for Inactive)
REMARK    1  A    between atoms: C3_5  and  C4_6 
ROOT
HETATM    1  C4  UNL     1      14.329  16.834  42.092  1.00  0.00     0.141 A 
HETATM    2  N2  UNL     1      15.537  16.246  42.038  1.00  0.00    -0.268 N 
ATOM      3  H2  UNL     1      15.775  15.338  42.437  1.00  0.00     0.185 HD
HETATM    4  N3  UNL     1      16.370  17.046  41.376  1.00  0.00    -0.005 NA
HETATM    5  N4  UNL     1      15.715  18.134  41.007  1.00  0.00    -0.225 N 
ATOM      6  H4  UNL     1      16.093  18.923  40.485  1.00  0.00     0.205 HD
HETATM    7  N5  UNL     1      14.480  18.001  41.443  1.00  0.00    -0.273 N 
ATOM      8  H5  UNL     1      13.739  18.690  41.307  1.00  0.00     0.189 HD
ENDROOT
BRANCH   1   9
HETATM    9  C3  UNL     1      13.143  16.247  42.749  1.00  0.00     0.217 C 
HETATM   10  O1  UNL     1      12.654  17.058  43.778  1.00  0.00    -0.273 OA
HETATM   11  N1  UNL     1      11.607  16.394  44.326  1.00  0.00    -0.100 NA
HETATM   12  C2  UNL     1      12.050  15.374  45.259  1.00  0.00     0.143 C 
HETATM   13  C1  UNL     1      13.494  15.043  44.860  1.00  0.00     0.021 C 
HETATM   14  C5  UNL     1      13.461  14.869  43.338  1.00  0.00     0.043 C 
ENDBRANCH   1   9
TORSDOF 1
ENDMDL
MODEL 5
REMARK VINA RESULT: -5.464164403      3.029      5.872
REMARK  1 active torsions:
REMARK  status: ('A' for Active; 'I' for Inactive)
REMARK    1  A    between atoms: C3_5  and  C4_6 
ROOT
HETATM    1  C4  UNL     1      13.468  15.281  45.814  1.00  0.00     0.141 A 
HETATM    2  N2  UNL     1      12.158  15.004  45.931  1.00  0.00    -0.268 N 
ATOM      3  H2  UNL     1      11.533  14.746  45.167  1.00  0.00     0.185 HD
HETATM    4  N3  UNL     1      11.811  15.123  47.211  1.00  0.00    -0.005 NA
HETATM    5  N4  UNL     1      12.877  15.470  47.912  1.00  0.00    -0.225 N 
ATOM      6  H4  UNL     1      12.916  15.632  48.918  1.00  0.00     0.205 HD
HETATM    7  N5  UNL     1      13.878  15.565  47.063  1.00  0.00    -0.273 N 
ATOM      8  H5  UNL     1      14.832  15.819  47.317  1.00  0.00     0.189 HD
ENDROOT
BRANCH   1   9
HETATM    9  C3  UNL     1      14.216  15.255  44.541  1.00  0.00     0.217 C 
HETATM   10  O1  UNL     1      15.096  16.337  44.423  1.00  0.00    -0.273 OA
HETATM   11  N1  UNL     1      15.680  16.225  43.205  1.00  0.00    -0.100 NA
HETATM   12  C2  UNL     1      14.820  16.730  42.150  1.00  0.00     0.143 C 
HETATM   13  C1  UNL     1      13.393  16.670  42.710  1.00  0.00     0.021 C 
HETATM   14  C5  UNL     1      13.267  15.278  43.339  1.00  0.00     0.043 C 
ENDBRANCH   1   9
TORSDOF 1
ENDMDL
