MODEL 1
REMARK VINA RESULT: -4.530373615      0.000      0.000
REMARK  3 active torsions:
REMARK  status: ('A' for Active; 'I' for Inactive)
REMARK    1  A    between atoms: C2_3  and  N2_4 
REMARK    2  A    between atoms: C2_3  and  C3_8 
REMARK    3  A    between atoms: C5_10  and  N3_11 
ROOT
HETATM    1  N1  UNL     1      16.328  16.772  41.477  1.00  0.00    -0.195 NA
HETATM    2  C1  UNL     1      15.213  16.923  41.804  1.00  0.00     0.093 C 
HETATM    3  C2  UNL     1      13.811  17.094  42.208  1.00  0.00     0.302 C 
ENDROOT
BRANCH   3   4
HETATM    4  N2  UNL     1      13.734  18.310  43.013  1.00  0.00    -0.061 N 
ATOM      5  H23 UNL     1      13.333  19.099  42.507  1.00  0.00     0.275 HD
ATOM      6  H22 UNL     1      13.031  18.256  43.751  1.00  0.00     0.275 HD
ATOM      7  H21 UNL     1      14.671  18.500  43.369  1.00  0.00     0.275 HD
ENDBRANCH   3   4
BRANCH   3   8
HETATM    8  C3  UNL     1      13.366  15.946  43.082  1.00  0.00     0.093 C 
HETATM    9  C4  UNL     1      14.493  15.311  43.834  1.00  0.00     0.051 C 
HETATM   10  C5  UNL     1      13.942  14.724  45.102  1.00  0.00     0.194 C 
HETATM   11  C6  UNL     1      13.225  15.823  45.841  1.00  0.00     0.107 C 
HETATM   12  S1  UNL     1      12.392  16.685  44.451  1.00  0.00    -0.159 SA
BRANCH  10  13
HETATM   13  N3  UNL     1      13.111  13.584  44.835  1.00  0.00    -0.074 N 
ATOM     14  H33 UNL     1      13.123  13.337  43.845  1.00  0.00     0.274 HD
ATOM     15  H32 UNL     1      13.515  12.729  45.217  1.00  0.00     0.274 HD
ATOM     16  H31 UNL     1      12.159  13.730  45.171  1.00  0.00     0.274 HD
ENDBRANCH  10  13
ENDBRANCH   3   8
TORSDOF 3
ENDMDL
MODEL 2
REMARK VINA RESULT: -4.503393920      1.472      1.709
REMARK  3 active torsions:
REMARK  status: ('A' for Active; 'I' for Inactive)
REMARK    1  A    between atoms: C2_3  and  N2_4 
REMARK    2  A    between atoms: C2_3  and  C3_8 
REMARK    3  A    between atoms: C5_10  and  N3_11 
ROOT
HETATM    1  N1  UNL     1      16.415  17.102  41.307  1.00  0.00    -0.195 NA
HETATM    2  C1  UNL     1      15.349  17.170  41.788  1.00  0.00     0.093 C 
HETATM    3  C2  UNL     1      14.011  17.233  42.392  1.00  0.00     0.302 C 
ENDROOT
BRANCH   3   4
HETATM    4  N2  UNL     1      13.788  18.614  42.815  1.00  0.00    -0.061 N 
ATOM      5  H23 UNL     1      14.398  19.279  42.340  1.00  0.00     0.275 HD
ATOM      6  H22 UNL     1      12.899  18.992  42.488  1.00  0.00     0.275 HD
ATOM      7  H21 UNL     1      13.883  18.641  43.830  1.00  0.00     0.275 HD
ENDBRANCH   3   4
BRANCH   3   8
HETATM    8  C3  UNL     1      13.943  16.367  43.627  1.00  0.00     0.093 C 
HETATM    9  C4  UNL     1      12.545  16.164  44.123  1.00  0.00     0.051 C 
HETATM   10  C5  UNL     1      12.485  14.842  44.834  1.00  0.00     0.194 C 
HETATM   11  C6  UNL     1      12.981  13.787  43.881  1.00  0.00     0.107 C 
HETATM   12  S1  UNL     1      14.385  14.668  43.092  1.00  0.00    -0.159 SA
BRANCH  10  13
HETATM   13  N3  UNL     1      13.215  14.878  46.070  1.00  0.00    -0.074 N 
ATOM     14  H33 UNL     1      14.069  14.324  46.016  1.00  0.00     0.274 HD
ATOM     15  H32 UNL     1      13.631  15.795  46.232  1.00  0.00     0.274 HD
ATOM     16  H31 UNL     1      12.632  14.589  46.855  1.00  0.00     0.274 HD
ENDBRANCH  10  13
ENDBRANCH   3   8
TORSDOF 3
ENDMDL
MODEL 3
REMARK VINA RESULT: -4.388831309      1.055      1.055
REMARK  3 active torsions:
REMARK  status: ('A' for Active; 'I' for Inactive)
REMARK    1  A    between atoms: C2_3  and  N2_4 
REMARK    2  A    between atoms: C2_3  and  C3_8 
REMARK    3  A    between atoms: C5_10  and  N3_11 
ROOT
HETATM    1  N1  UNL     1      16.268  16.773  41.673  1.00  0.00    -0.195 NA
HETATM    2  C1  UNL     1      15.185  17.085  41.990  1.00  0.00     0.093 C 
HETATM    3  C2  UNL     1      13.820  17.457  42.386  1.00  0.00     0.302 C 
ENDROOT
BRANCH   3   4
HETATM    4  N2  UNL     1      13.871  18.825  42.896  1.00  0.00    -0.061 N 
ATOM      5  H23 UNL     1      14.770  19.061  43.314  1.00  0.00     0.275 HD
ATOM      6  H22 UNL     1      13.880  19.526  42.156  1.00  0.00     0.275 HD
ATOM      7  H21 UNL     1      13.089  18.938  43.543  1.00  0.00     0.275 HD
ENDBRANCH   3   4
BRANCH   3   8
HETATM    8  C3  UNL     1      13.333  16.575  43.510  1.00  0.00     0.093 C 
HETATM    9  C4  UNL     1      13.639  15.126  43.292  1.00  0.00     0.051 C 
HETATM   10  C5  UNL     1      13.773  14.465  44.634  1.00  0.00     0.194 C 
HETATM   11  C6  UNL     1      14.813  15.223  45.416  1.00  0.00     0.107 C 
HETATM   12  S1  UNL     1      14.394  16.951  44.960  1.00  0.00    -0.159 SA
BRANCH  10  13
HETATM   13  N3  UNL     1      12.507  14.382  45.306  1.00  0.00    -0.074 N 
ATOM     14  H33 UNL     1      12.390  15.140  45.978  1.00  0.00     0.274 HD
ATOM     15  H32 UNL     1      11.735  14.606  44.678  1.00  0.00     0.274 HD
ATOM     16  H31 UNL     1      12.378  13.470  45.745  1.00  0.00     0.274 HD
ENDBRANCH  10  13
ENDBRANCH   3   8
TORSDOF 3
ENDMDL
MODEL 4
REMARK VINA RESULT: -4.341105733      1.259      1.377
REMARK  3 active torsions:
REMARK  status: ('A' for Active; 'I' for Inactive)
REMARK    1  A    between atoms: C2_3  and  N2_4 
REMARK    2  A    between atoms: C2_3  and  C3_8 
REMARK    3  A    between atoms: C5_10  and  N3_11 
ROOT
HETATM    1  N1  UNL     1      16.356  17.035  41.431  1.00  0.00    -0.195 NA
HETATM    2  C1  UNL     1      15.322  16.810  41.931  1.00  0.00     0.093 C 
HETATM    3  C2  UNL     1      14.029  16.508  42.561  1.00  0.00     0.302 C 
ENDROOT
BRANCH   3   4
HETATM    4  N2  UNL     1      13.395  17.782  42.889  1.00  0.00    -0.061 N 
ATOM      5  H23 UNL     1      12.511  17.924  42.401  1.00  0.00     0.275 HD
ATOM      6  H22 UNL     1      13.027  17.811  43.839  1.00  0.00     0.275 HD
ATOM      7  H21 UNL     1      14.076  18.518  42.702  1.00  0.00     0.275 HD
ENDBRANCH   3   4
BRANCH   3   8
HETATM    8  C3  UNL     1      14.231  15.758  43.856  1.00  0.00     0.093 C 
HETATM    9  C4  UNL     1      14.655  16.644  44.985  1.00  0.00     0.051 C 
HETATM   10  C5  UNL     1      14.175  16.032  46.271  1.00  0.00     0.194 C 
HETATM   11  C6  UNL     1      12.690  15.822  46.152  1.00  0.00     0.107 C 
HETATM   12  S1  UNL     1      12.563  15.236  44.417  1.00  0.00    -0.159 SA
BRANCH  10  13
HETATM   13  N3  UNL     1      14.896  14.828  46.578  1.00  0.00    -0.074 N 
ATOM     14  H33 UNL     1      15.611  14.632  45.878  1.00  0.00     0.274 HD
ATOM     15  H32 UNL     1      15.499  14.951  47.391  1.00  0.00     0.274 HD
ATOM     16  H31 UNL     1      14.264  14.037  46.698  1.00  0.00     0.274 HD
ENDBRANCH  10  13
ENDBRANCH   3   8
TORSDOF 3
ENDMDL
MODEL 5
REMARK VINA RESULT: -4.312829590      1.980      2.407
REMARK  3 active torsions:
REMARK  status: ('A' for Active; 'I' for Inactive)
REMARK    1  A    between atoms: C2_3  and  N2_4 
REMARK    2  A    between atoms: C2_3  and  C3_8 
REMARK    3  A    between atoms: C5_10  and  N3_11 
ROOT
HETATM    1  N1  UNL     1      16.069  16.877  40.204  1.00  0.00    -0.195 NA
HETATM    2  C1  UNL     1      15.879  16.017  40.977  1.00  0.00     0.093 C 
HETATM    3  C2  UNL     1      15.641  14.954  41.962  1.00  0.00     0.302 C 
ENDROOT
BRANCH   3   4
HETATM    4  N2  UNL     1      15.269  13.750  41.223  1.00  0.00    -0.061 N 
ATOM      5  H23 UNL     1      15.983  13.454  40.558  1.00  0.00     0.275 HD
ATOM      6  H22 UNL     1      15.270  12.910  41.801  1.00  0.00     0.275 HD
ATOM      7  H21 UNL     1      14.365  13.929  40.783  1.00  0.00     0.275 HD
ENDBRANCH   3   4
BRANCH   3   8
HETATM    8  C3  UNL     1      14.479  15.309  42.858  1.00  0.00     0.093 C 
HETATM    9  C4  UNL     1      13.713  14.111  43.327  1.00  0.00     0.051 C 
HETATM   10  C5  UNL     1      13.094  14.438  44.656  1.00  0.00     0.194 C 
HETATM   11  C6  UNL     1      14.197  14.886  45.577  1.00  0.00     0.107 C 
HETATM   12  S1  UNL     1      15.205  15.909  44.433  1.00  0.00    -0.159 SA
BRANCH  10  13
HETATM   13  N3  UNL     1      12.040  15.404  44.520  1.00  0.00    -0.074 N 
ATOM     14  H33 UNL     1      11.319  15.081  43.876  1.00  0.00     0.274 HD
ATOM     15  H32 UNL     1      11.478  15.466  45.369  1.00  0.00     0.274 HD
ATOM     16  H31 UNL     1      12.404  16.316  44.246  1.00  0.00     0.274 HD
ENDBRANCH  10  13
ENDBRANCH   3   8
TORSDOF 3
ENDMDL
