MODEL 1
REMARK VINA RESULT: -5.704228455      0.000      0.000
REMARK  1 active torsions:
REMARK  status: ('A' for Active; 'I' for Inactive)
REMARK    1  A    between atoms: C2_2  and  C3_3 
ROOT
HETATM    1  C3  UNL     1      12.808  13.782  43.323  1.00  0.00     0.253 C 
HETATM    2  N1  UNL     1      13.029  13.473  44.738  1.00  0.00    -0.103 NA
HETATM    3  N2  UNL     1      12.451  14.427  45.534  1.00  0.00    -0.100 NA
HETATM    4  O1  UNL     1      13.419  15.135  46.191  1.00  0.00    -0.287 OA
HETATM    5  C4  UNL     1      12.733  16.183  46.822  1.00  0.00     0.197 C 
HETATM    6  C5  UNL     1      11.548  16.496  45.918  1.00  0.00     0.054 C 
HETATM    7  C6  UNL     1      11.797  15.495  44.794  1.00  0.00     0.131 C 
HETATM    8  C7  UNL     1      12.821  16.044  43.823  1.00  0.00     0.194 C 
HETATM    9  O2  UNL     1      13.339  15.023  43.047  1.00  0.00    -0.363 OA
ENDROOT
BRANCH   1  10
HETATM   10  C2  UNL     1      13.525  12.791  42.463  1.00  0.00     0.013 C 
HETATM   11  C1  UNL     1      12.866  11.982  41.659  1.00  0.00     0.011 C 
ENDBRANCH   1  10
TORSDOF 1
ENDMDL
MODEL 2
REMARK VINA RESULT: -5.431312791      1.116      1.362
REMARK  1 active torsions:
REMARK  status: ('A' for Active; 'I' for Inactive)
REMARK    1  A    between atoms: C2_2  and  C3_3 
ROOT
HETATM    1  C3  UNL     1      13.147  14.476  43.432  1.00  0.00     0.253 C 
HETATM    2  N1  UNL     1      13.271  13.943  44.791  1.00  0.00    -0.103 NA
HETATM    3  N2  UNL     1      12.310  14.480  45.607  1.00  0.00    -0.100 NA
HETATM    4  O1  UNL     1      12.894  15.282  46.549  1.00  0.00    -0.287 OA
HETATM    5  C4  UNL     1      11.823  15.911  47.200  1.00  0.00     0.197 C 
HETATM    6  C5  UNL     1      10.731  16.047  46.149  1.00  0.00     0.054 C 
HETATM    7  C6  UNL     1      11.442  15.440  44.943  1.00  0.00     0.131 C 
HETATM    8  C7  UNL     1      12.344  16.470  44.296  1.00  0.00     0.194 C 
HETATM    9  O2  UNL     1      13.267  15.848  43.476  1.00  0.00    -0.363 OA
ENDROOT
BRANCH   1  10
HETATM   10  C2  UNL     1      14.257  13.959  42.574  1.00  0.00     0.013 C 
HETATM   11  C1  UNL     1      15.237  14.745  42.179  1.00  0.00     0.011 C 
ENDBRANCH   1  10
TORSDOF 1
ENDMDL
MODEL 3
REMARK VINA RESULT: -5.164496867      1.261      1.660
REMARK  1 active torsions:
REMARK  status: ('A' for Active; 'I' for Inactive)
REMARK    1  A    between atoms: C2_2  and  C3_3 
ROOT
HETATM    1  C3  UNL     1      12.934  15.246  44.113  1.00  0.00     0.253 C 
HETATM    2  N1  UNL     1      12.365  14.360  45.131  1.00  0.00    -0.103 NA
HETATM    3  N2  UNL     1      11.636  15.080  46.041  1.00  0.00    -0.100 NA
HETATM    4  O1  UNL     1      12.251  15.043  47.263  1.00  0.00    -0.287 OA
HETATM    5  C4  UNL     1      11.529  15.948  48.056  1.00  0.00     0.197 C 
HETATM    6  C5  UNL     1      11.025  17.017  47.097  1.00  0.00     0.054 C 
HETATM    7  C6  UNL     1      11.629  16.513  45.790  1.00  0.00     0.131 C 
HETATM    8  C7  UNL     1      13.077  16.945  45.683  1.00  0.00     0.194 C 
HETATM    9  O2  UNL     1      13.732  16.184  44.731  1.00  0.00    -0.363 OA
ENDROOT
BRANCH   1  10
HETATM   10  C2  UNL     1      13.806  14.466  43.182  1.00  0.00     0.013 C 
HETATM   11  C1  UNL     1      13.447  13.276  42.747  1.00  0.00     0.011 C 
ENDBRANCH   1  10
TORSDOF 1
ENDMDL
MODEL 4
REMARK VINA RESULT: -5.162274484      3.216      3.585
REMARK  1 active torsions:
REMARK  status: ('A' for Active; 'I' for Inactive)
REMARK    1  A    between atoms: C2_2  and  C3_3 
ROOT
HETATM    1  C3  UNL     1      15.842  14.694  41.843  1.00  0.00     0.253 C 
HETATM    2  N1  UNL     1      15.960  16.152  41.778  1.00  0.00    -0.103 NA
HETATM    3  N2  UNL     1      15.726  16.708  43.009  1.00  0.00    -0.100 NA
HETATM    4  O1  UNL     1      14.568  17.435  42.980  1.00  0.00    -0.287 OA
HETATM    5  C4  UNL     1      14.337  17.799  44.315  1.00  0.00     0.197 C 
HETATM    6  C5  UNL     1      14.918  16.666  45.151  1.00  0.00     0.054 C 
HETATM    7  C6  UNL     1      15.404  15.737  44.043  1.00  0.00     0.131 C 
HETATM    8  C7  UNL     1      14.254  14.904  43.517  1.00  0.00     0.194 C 
HETATM    9  O2  UNL     1      14.578  14.365  42.285  1.00  0.00    -0.363 OA
ENDROOT
BRANCH   1  10
HETATM   10  C2  UNL     1      16.001  14.104  40.478  1.00  0.00     0.013 C 
HETATM   11  C1  UNL     1      15.635  12.865  40.222  1.00  0.00     0.011 C 
ENDBRANCH   1  10
TORSDOF 1
ENDMDL
MODEL 5
REMARK VINA RESULT: -5.120043994      2.406      3.459
REMARK  1 active torsions:
REMARK  status: ('A' for Active; 'I' for Inactive)
REMARK    1  A    between atoms: C2_2  and  C3_3 
ROOT
HETATM    1  C3  UNL     1      11.888  15.521  45.315  1.00  0.00     0.253 C 
HETATM    2  N1  UNL     1      10.456  15.228  45.221  1.00  0.00    -0.103 NA
HETATM    3  N2  UNL     1       9.754  15.958  46.144  1.00  0.00    -0.100 NA
HETATM    4  O1  UNL     1       9.217  15.124  47.086  1.00  0.00    -0.287 OA
HETATM    5  C4  UNL     1       8.686  15.980  48.063  1.00  0.00     0.197 C 
HETATM    6  C5  UNL     1       9.577  17.214  48.050  1.00  0.00     0.054 C 
HETATM    7  C6  UNL     1      10.588  16.805  46.984  1.00  0.00     0.131 C 
HETATM    8  C7  UNL     1      11.651  15.911  47.587  1.00  0.00     0.194 C 
HETATM    9  O2  UNL     1      12.323  15.228  46.589  1.00  0.00    -0.363 OA
ENDROOT
BRANCH   1  10
HETATM   10  C2  UNL     1      12.654  14.650  44.372  1.00  0.00     0.013 C 
HETATM   11  C1  UNL     1      13.397  15.166  43.415  1.00  0.00     0.011 C 
ENDBRANCH   1  10
TORSDOF 1
ENDMDL
