MODEL 1
REMARK VINA RESULT: -5.156553208      0.000      0.000
REMARK  2 active torsions:
REMARK  status: ('A' for Active; 'I' for Inactive)
REMARK    1  A    between atoms: S1_2  and  C2_3 
REMARK    2  A    between atoms: C4_12  and  C5_13 
ROOT
HETATM    1  C2  UNL     1      13.273  15.437  43.204  1.00  0.00     0.169 C 
HETATM    2  N1  UNL     1      12.929  16.059  44.455  1.00  0.00    -0.347 N 
ATOM      3  H1  UNL     1      12.812  17.061  44.604  1.00  0.00     0.163 HD
HETATM    4  C3  UNL     1      12.778  15.061  45.447  1.00  0.00     0.170 C 
HETATM    5  N2  UNL     1      12.335  15.220  46.673  1.00  0.00    -0.371 N 
ATOM      6  H21 UNL     1      12.226  14.500  47.387  1.00  0.00     0.159 HD
ATOM      7  H22 UNL     1      12.030  16.095  47.099  1.00  0.00     0.159 HD
HETATM    8  N3  UNL     1      13.203  13.841  44.853  1.00  0.00    -0.355 N 
ATOM      9  H3  UNL     1      13.612  13.038  45.331  1.00  0.00     0.163 HD
HETATM   10  C4  UNL     1      12.940  13.964  43.434  1.00  0.00     0.121 C 
ENDROOT
BRANCH   1  11
HETATM   11  S1  UNL     1      15.065  15.478  42.900  1.00  0.00    -0.146 SA
HETATM   12  C1  UNL     1      15.468  16.438  41.418  1.00  0.00     0.092 C 
ENDBRANCH   1  11
BRANCH  10  13
HETATM   13  C5  UNL     1      13.850  13.045  42.693  1.00  0.00     0.011 A 
HETATM   14  C6  UNL     1      13.404  12.378  41.420  1.00  0.00     0.007 A 
HETATM   15  C7  UNL     1      13.373  11.595  42.675  1.00  0.00     0.007 A 
ENDBRANCH  10  13
TORSDOF 2
ENDMDL
MODEL 2
REMARK VINA RESULT: -4.867017536      1.094      1.213
REMARK  2 active torsions:
REMARK  status: ('A' for Active; 'I' for Inactive)
REMARK    1  A    between atoms: S1_2  and  C2_3 
REMARK    2  A    between atoms: C4_12  and  C5_13 
ROOT
HETATM    1  C2  UNL     1      13.217  15.742  43.576  1.00  0.00     0.169 C 
HETATM    2  N1  UNL     1      12.692  16.300  44.794  1.00  0.00    -0.347 N 
ATOM      3  H1  UNL     1      12.544  17.294  44.972  1.00  0.00     0.163 HD
HETATM    4  C3  UNL     1      12.415  15.254  45.706  1.00  0.00     0.170 C 
HETATM    5  N2  UNL     1      11.801  15.352  46.863  1.00  0.00    -0.371 N 
ATOM      6  H21 UNL     1      11.601  14.597  47.520  1.00  0.00     0.159 HD
ATOM      7  H22 UNL     1      11.429  16.203  47.283  1.00  0.00     0.159 HD
HETATM    8  N3  UNL     1      12.934  14.067  45.121  1.00  0.00    -0.355 N 
ATOM      9  H3  UNL     1      13.281  13.244  45.614  1.00  0.00     0.163 HD
HETATM   10  C4  UNL     1      12.873  14.257  43.687  1.00  0.00     0.121 C 
ENDROOT
BRANCH   1  11
HETATM   11  S1  UNL     1      15.033  15.806  43.531  1.00  0.00    -0.146 SA
HETATM   12  C1  UNL     1      15.716  16.432  45.087  1.00  0.00     0.092 C 
ENDBRANCH   1  11
BRANCH  10  13
HETATM   13  C5  UNL     1      13.888  13.380  43.039  1.00  0.00     0.011 A 
HETATM   14  C6  UNL     1      13.696  12.884  41.631  1.00  0.00     0.007 A 
HETATM   15  C7  UNL     1      13.385  11.968  42.751  1.00  0.00     0.007 A 
ENDBRANCH  10  13
TORSDOF 2
ENDMDL
MODEL 3
REMARK VINA RESULT: -4.718502795      2.136      3.192
REMARK  2 active torsions:
REMARK  status: ('A' for Active; 'I' for Inactive)
REMARK    1  A    between atoms: S1_2  and  C2_3 
REMARK    2  A    between atoms: C4_12  and  C5_13 
ROOT
HETATM    1  C2  UNL     1      12.809  16.926  44.934  1.00  0.00     0.169 C 
HETATM    2  N1  UNL     1      11.510  16.938  45.553  1.00  0.00    -0.347 N 
ATOM      3  H1  UNL     1      11.110  17.720  46.072  1.00  0.00     0.163 HD
HETATM    4  C3  UNL     1      10.873  15.695  45.326  1.00  0.00     0.170 C 
HETATM    5  N2  UNL     1       9.631  15.375  45.613  1.00  0.00    -0.371 N 
ATOM      6  H21 UNL     1       9.173  14.479  45.449  1.00  0.00     0.159 HD
ATOM      7  H22 UNL     1       8.933  15.979  46.045  1.00  0.00     0.159 HD
HETATM    8  N3  UNL     1      11.846  14.852  44.724  1.00  0.00    -0.355 N 
ATOM      9  H3  UNL     1      11.901  13.836  44.792  1.00  0.00     0.163 HD
HETATM   10  C4  UNL     1      12.746  15.722  43.996  1.00  0.00     0.121 C 
ENDROOT
BRANCH   1  11
HETATM   11  S1  UNL     1      14.121  16.530  46.128  1.00  0.00    -0.146 SA
HETATM   12  C1  UNL     1      13.486  16.479  47.823  1.00  0.00     0.092 C 
ENDBRANCH   1  11
BRANCH  10  13
HETATM   13  C5  UNL     1      14.062  15.039  43.844  1.00  0.00     0.011 A 
HETATM   14  C6  UNL     1      15.010  15.425  42.741  1.00  0.00     0.007 A 
HETATM   15  C7  UNL     1      14.180  14.212  42.567  1.00  0.00     0.007 A 
ENDBRANCH  10  13
TORSDOF 2
ENDMDL
MODEL 4
REMARK VINA RESULT: -4.632429263      1.818      2.089
REMARK  2 active torsions:
REMARK  status: ('A' for Active; 'I' for Inactive)
REMARK    1  A    between atoms: S1_2  and  C2_3 
REMARK    2  A    between atoms: C4_12  and  C5_13 
ROOT
HETATM    1  C2  UNL     1      13.415  16.412  44.611  1.00  0.00     0.169 C 
HETATM    2  N1  UNL     1      12.621  16.803  45.746  1.00  0.00    -0.347 N 
ATOM      3  H1  UNL     1      12.552  17.749  46.120  1.00  0.00     0.163 HD
HETATM    4  C3  UNL     1      11.951  15.668  46.261  1.00  0.00     0.170 C 
HETATM    5  N2  UNL     1      11.034  15.646  47.201  1.00  0.00    -0.371 N 
ATOM      6  H21 UNL     1      10.551  14.827  47.571  1.00  0.00     0.159 HD
ATOM      7  H22 UNL     1      10.663  16.450  47.706  1.00  0.00     0.159 HD
HETATM    8  N3  UNL     1      12.468  14.546  45.558  1.00  0.00    -0.355 N 
ATOM      9  H3  UNL     1      12.544  13.589  45.904  1.00  0.00     0.163 HD
HETATM   10  C4  UNL     1      12.868  15.031  44.253  1.00  0.00     0.121 C 
ENDROOT
BRANCH   1  11
HETATM   11  S1  UNL     1      15.152  16.132  45.066  1.00  0.00    -0.146 SA
HETATM   12  C1  UNL     1      15.877  17.593  45.854  1.00  0.00     0.092 C 
ENDBRANCH   1  11
BRANCH  10  13
HETATM   13  C5  UNL     1      13.913  14.123  43.699  1.00  0.00     0.011 A 
HETATM   14  C6  UNL     1      14.296  14.182  42.246  1.00  0.00     0.007 A 
HETATM   15  C7  UNL     1      13.375  13.113  42.690  1.00  0.00     0.007 A 
ENDBRANCH  10  13
TORSDOF 2
ENDMDL
MODEL 5
REMARK VINA RESULT: -4.623146134      1.618      1.885
REMARK  2 active torsions:
REMARK  status: ('A' for Active; 'I' for Inactive)
REMARK    1  A    between atoms: S1_2  and  C2_3 
REMARK    2  A    between atoms: C4_12  and  C5_13 
ROOT
HETATM    1  C2  UNL     1      12.422  16.478  44.398  1.00  0.00     0.169 C 
HETATM    2  N1  UNL     1      11.664  16.867  45.558  1.00  0.00    -0.347 N 
ATOM      3  H1  UNL     1      11.279  17.796  45.727  1.00  0.00     0.163 HD
HETATM    4  C3  UNL     1      11.537  15.757  46.426  1.00  0.00     0.170 C 
HETATM    5  N2  UNL     1      10.802  15.679  47.513  1.00  0.00    -0.371 N 
ATOM      6  H21 UNL     1      10.711  14.878  48.138  1.00  0.00     0.159 HD
ATOM      7  H22 UNL     1      10.208  16.412  47.897  1.00  0.00     0.159 HD
HETATM    8  N3  UNL     1      12.366  14.734  45.890  1.00  0.00    -0.355 N 
ATOM      9  H3  UNL     1      12.837  13.994  46.411  1.00  0.00     0.163 HD
HETATM   10  C4  UNL     1      12.410  14.951  44.460  1.00  0.00     0.121 C 
ENDROOT
BRANCH   1  11
HETATM   11  S1  UNL     1      14.172  16.946  44.547  1.00  0.00    -0.146 SA
HETATM   12  C1  UNL     1      14.737  17.879  43.101  1.00  0.00     0.092 C 
ENDBRANCH   1  11
BRANCH  10  13
HETATM   13  C5  UNL     1      13.657  14.343  43.916  1.00  0.00     0.011 A 
HETATM   14  C6  UNL     1      13.873  14.218  42.432  1.00  0.00     0.007 A 
HETATM   15  C7  UNL     1      13.427  13.024  43.184  1.00  0.00     0.007 A 
ENDBRANCH  10  13
TORSDOF 2
ENDMDL
