MODEL 1
REMARK VINA RESULT: -5.554238775      0.000      0.000
REMARK  2 active torsions:
REMARK  status: ('A' for Active; 'I' for Inactive)
REMARK    1  A    between atoms: N1_2  and  N2_4 
REMARK    2  A    between atoms: C9_13  and  N3_14 
ROOT
HETATM    1  N2  UNL     1      12.429  14.734  46.079  1.00  0.00    -0.311 N 
ATOM      2  H2  UNL     1      12.976  13.938  46.407  1.00  0.00     0.186 HD
HETATM    3  C2  UNL     1      12.705  15.193  44.917  1.00  0.00     0.034 C 
HETATM    4  C3  UNL     1      11.921  16.349  44.419  1.00  0.00     0.056 C 
HETATM    5  C4  UNL     1      12.827  17.376  43.748  1.00  0.00     0.007 C 
HETATM    6  C5  UNL     1      13.669  16.643  42.749  1.00  0.00     0.011 C 
HETATM    7  C6  UNL     1      14.599  15.644  43.374  1.00  0.00    -0.014 C 
HETATM    8  C7  UNL     1      15.329  14.933  42.242  1.00  0.00     0.017 C 
HETATM    9  C8  UNL     1      15.547  16.243  44.362  1.00  0.00     0.017 C 
HETATM   10  C9  UNL     1      13.770  14.585  44.098  1.00  0.00     0.238 C 
ENDROOT
BRANCH   1  11
HETATM   11  N1  UNL     1      11.461  15.221  46.924  1.00  0.00    -0.341 N 
HETATM   12  C1  UNL     1      11.877  15.955  48.106  1.00  0.00     0.167 C 
ATOM     13  H1  UNL     1      10.472  15.071  46.726  1.00  0.00     0.179 HD
ENDBRANCH   1  11
BRANCH  10  14
HETATM   14  N3  UNL     1      13.230  13.637  43.123  1.00  0.00    -0.069 N 
ATOM     15  H33 UNL     1      13.188  12.693  43.507  1.00  0.00     0.275 HD
ATOM     16  H32 UNL     1      12.234  13.791  42.967  1.00  0.00     0.275 HD
ATOM     17  H31 UNL     1      13.752  13.659  42.247  1.00  0.00     0.275 HD
ENDBRANCH  10  14
TORSDOF 2
ENDMDL
MODEL 2
REMARK VINA RESULT: -5.352274069      1.567      4.047
REMARK  2 active torsions:
REMARK  status: ('A' for Active; 'I' for Inactive)
REMARK    1  A    between atoms: N1_2  and  N2_4 
REMARK    2  A    between atoms: C9_13  and  N3_14 
ROOT
HETATM    1  N2  UNL     1      13.350  13.268  43.296  1.00  0.00    -0.311 N 
ATOM      2  H2  UNL     1      13.073  12.521  43.933  1.00  0.00     0.186 HD
HETATM    3  C2  UNL     1      13.439  14.448  43.784  1.00  0.00     0.034 C 
HETATM    4  C3  UNL     1      13.843  15.550  42.877  1.00  0.00     0.056 C 
HETATM    5  C4  UNL     1      12.987  16.790  43.108  1.00  0.00     0.007 C 
HETATM    6  C5  UNL     1      13.005  17.078  44.579  1.00  0.00     0.011 C 
HETATM    7  C6  UNL     1      12.367  15.997  45.403  1.00  0.00    -0.014 C 
HETATM    8  C7  UNL     1      12.525  16.390  46.866  1.00  0.00     0.017 C 
HETATM    9  C8  UNL     1      10.940  15.734  45.046  1.00  0.00     0.017 C 
HETATM   10  C9  UNL     1      13.149  14.700  45.208  1.00  0.00     0.238 C 
ENDROOT
BRANCH   1  11
HETATM   11  N1  UNL     1      13.596  12.921  41.990  1.00  0.00    -0.341 N 
HETATM   12  C1  UNL     1      12.816  11.848  41.399  1.00  0.00     0.167 C 
ATOM     13  H1  UNL     1      14.310  13.406  41.446  1.00  0.00     0.179 HD
ENDBRANCH   1  11
BRANCH  10  14
HETATM   14  N3  UNL     1      14.372  14.743  46.010  1.00  0.00    -0.069 N 
ATOM     15  H33 UNL     1      14.785  13.815  46.107  1.00  0.00     0.275 HD
ATOM     16  H32 UNL     1      15.130  15.204  45.508  1.00  0.00     0.275 HD
ATOM     17  H31 UNL     1      14.212  15.175  46.920  1.00  0.00     0.275 HD
ENDBRANCH  10  14
TORSDOF 2
ENDMDL
MODEL 3
REMARK VINA RESULT: -5.226231841      1.854      2.379
REMARK  2 active torsions:
REMARK  status: ('A' for Active; 'I' for Inactive)
REMARK    1  A    between atoms: N1_2  and  N2_4 
REMARK    2  A    between atoms: C9_13  and  N3_14 
ROOT
HETATM    1  N2  UNL     1      11.219  15.865  44.866  1.00  0.00    -0.311 N 
ATOM      2  H2  UNL     1      10.620  15.956  44.045  1.00  0.00     0.186 HD
HETATM    3  C2  UNL     1      12.472  16.061  44.698  1.00  0.00     0.034 C 
HETATM    4  C3  UNL     1      13.362  15.935  45.878  1.00  0.00     0.056 C 
HETATM    5  C4  UNL     1      14.631  15.168  45.527  1.00  0.00     0.007 C 
HETATM    6  C5  UNL     1      15.213  15.802  44.300  1.00  0.00     0.011 C 
HETATM    7  C6  UNL     1      14.329  15.679  43.092  1.00  0.00    -0.014 C 
HETATM    8  C7  UNL     1      15.010  16.426  41.954  1.00  0.00     0.017 C 
HETATM    9  C8  UNL     1      14.012  14.266  42.723  1.00  0.00     0.017 C 
HETATM   10  C9  UNL     1      13.012  16.401  43.369  1.00  0.00     0.238 C 
ENDROOT
BRANCH   1  11
HETATM   11  N1  UNL     1      10.610  15.543  46.055  1.00  0.00    -0.341 N 
HETATM   12  C1  UNL     1       9.828  16.562  46.732  1.00  0.00     0.167 C 
ATOM     13  H1  UNL     1      10.705  14.609  46.454  1.00  0.00     0.179 HD
ENDBRANCH   1  11
BRANCH  10  14
HETATM   14  N3  UNL     1      13.206  17.843  43.216  1.00  0.00    -0.069 N 
ATOM     15  H33 UNL     1      12.683  18.206  42.419  1.00  0.00     0.275 HD
ATOM     16  H32 UNL     1      12.741  18.362  43.962  1.00  0.00     0.275 HD
ATOM     17  H31 UNL     1      14.194  18.087  43.155  1.00  0.00     0.275 HD
ENDBRANCH  10  14
TORSDOF 2
ENDMDL
MODEL 4
REMARK VINA RESULT: -5.112218211      4.032      6.143
REMARK  2 active torsions:
REMARK  status: ('A' for Active; 'I' for Inactive)
REMARK    1  A    between atoms: N1_2  and  N2_4 
REMARK    2  A    between atoms: C9_13  and  N3_14 
ROOT
HETATM    1  N2  UNL     1      14.576  13.507  41.954  1.00  0.00    -0.311 N 
ATOM      2  H2  UNL     1      14.033  13.796  42.767  1.00  0.00     0.186 HD
HETATM    3  C2  UNL     1      14.274  12.384  41.419  1.00  0.00     0.034 C 
HETATM    4  C3  UNL     1      15.049  11.945  40.233  1.00  0.00     0.056 C 
HETATM    5  C4  UNL     1      15.407  10.467  40.330  1.00  0.00     0.007 C 
HETATM    6  C5  UNL     1      14.144   9.720  40.633  1.00  0.00     0.011 C 
HETATM    7  C6  UNL     1      13.550  10.072  41.967  1.00  0.00    -0.014 C 
HETATM    8  C7  UNL     1      12.246   9.298  42.100  1.00  0.00     0.017 C 
HETATM    9  C8  UNL     1      14.471   9.821  43.117  1.00  0.00     0.017 C 
HETATM   10  C9  UNL     1      13.186  11.555  41.968  1.00  0.00     0.238 C 
ENDROOT
BRANCH   1  11
HETATM   11  N1  UNL     1      15.568  14.357  41.527  1.00  0.00    -0.341 N 
HETATM   12  C1  UNL     1      15.413  15.780  41.769  1.00  0.00     0.167 C 
ATOM     13  H1  UNL     1      16.394  13.997  41.050  1.00  0.00     0.179 HD
ENDBRANCH   1  11
BRANCH  10  14
HETATM   14  N3  UNL     1      11.934  11.750  41.236  1.00  0.00    -0.069 N 
ATOM     15  H33 UNL     1      11.403  12.536  41.611  1.00  0.00     0.275 HD
ATOM     16  H32 UNL     1      12.105  12.106  40.296  1.00  0.00     0.275 HD
ATOM     17  H31 UNL     1      11.373  10.899  41.215  1.00  0.00     0.275 HD
ENDBRANCH  10  14
TORSDOF 2
ENDMDL
MODEL 5
REMARK VINA RESULT: -5.038252483      1.612      1.615
REMARK  2 active torsions:
REMARK  status: ('A' for Active; 'I' for Inactive)
REMARK    1  A    between atoms: N1_2  and  N2_4 
REMARK    2  A    between atoms: C9_13  and  N3_14 
ROOT
HETATM    1  N2  UNL     1      13.729  15.618  47.342  1.00  0.00    -0.311 N 
ATOM      2  H2  UNL     1      14.463  14.941  47.550  1.00  0.00     0.186 HD
HETATM    3  C2  UNL     1      13.315  15.676  46.132  1.00  0.00     0.034 C 
HETATM    4  C3  UNL     1      12.247  16.652  45.805  1.00  0.00     0.056 C 
HETATM    5  C4  UNL     1      12.547  17.376  44.498  1.00  0.00     0.007 C 
HETATM    6  C5  UNL     1      12.853  16.330  43.468  1.00  0.00     0.011 C 
HETATM    7  C6  UNL     1      14.091  15.538  43.776  1.00  0.00    -0.014 C 
HETATM    8  C7  UNL     1      14.230  14.478  42.692  1.00  0.00     0.017 C 
HETATM    9  C8  UNL     1      15.323  16.375  43.901  1.00  0.00     0.017 C 
HETATM   10  C9  UNL     1      13.887  14.797  45.095  1.00  0.00     0.238 C 
ENDROOT
BRANCH   1  11
HETATM   11  N1  UNL     1      13.269  16.387  48.384  1.00  0.00    -0.341 N 
HETATM   12  C1  UNL     1      14.129  17.434  48.905  1.00  0.00     0.167 C 
ATOM     13  H1  UNL     1      12.344  16.225  48.782  1.00  0.00     0.179 HD
ENDBRANCH   1  11
BRANCH  10  14
HETATM   14  N3  UNL     1      13.055  13.616  44.868  1.00  0.00    -0.069 N 
ATOM     15  H33 UNL     1      13.604  12.838  44.500  1.00  0.00     0.275 HD
ATOM     16  H32 UNL     1      12.754  13.197  45.748  1.00  0.00     0.275 HD
ATOM     17  H31 UNL     1      12.259  13.825  44.265  1.00  0.00     0.275 HD
ENDBRANCH  10  14
TORSDOF 2
ENDMDL
