MODEL 1
REMARK VINA RESULT: -6.131725039      0.000      0.000
REMARK  2 active torsions:
REMARK  status: ('A' for Active; 'I' for Inactive)
REMARK    1  A    between atoms: C2_8  and  N4_9 
REMARK    2  A    between atoms: N4_9  and  C3_11 
ROOT
HETATM    1  N4  UNL     1      13.890  13.348  42.707  1.00  0.00    -0.365 N 
ATOM      2  H4  UNL     1      14.823  13.582  42.368  1.00  0.00     0.162 HD
ENDROOT
BRANCH   1   3
HETATM    3  C2  UNL     1      13.325  14.143  43.734  1.00  0.00     0.134 A 
HETATM    4  C1  UNL     1      12.871  15.436  43.680  1.00  0.00     0.158 A 
HETATM    5  N1  UNL     1      12.418  15.778  44.904  1.00  0.00    -0.294 N 
HETATM    6  N2  UNL     1      12.585  14.740  45.681  1.00  0.00    -0.241 N 
ATOM      7  H1  UNL     1      12.020  16.678  45.172  1.00  0.00     0.187 HD
HETATM    8  N3  UNL     1      13.129  13.742  45.000  1.00  0.00    -0.270 N 
ATOM      9  H2  UNL     1      12.333  14.703  46.668  1.00  0.00     0.208 HD
ATOM     10  H3  UNL     1      13.362  12.823  45.376  1.00  0.00     0.190 HD
ENDBRANCH   1   3
BRANCH   1  11
HETATM   11  C3  UNL     1      13.204  12.218  42.114  1.00  0.00     0.122 C 
HETATM   12  C4  UNL     1      13.434  11.022  43.006  1.00  0.00     0.036 C 
HETATM   13  C5  UNL     1      13.025   9.801  42.170  1.00  0.00     0.047 C 
HETATM   14  C6  UNL     1      14.160   9.673  41.176  1.00  0.00     0.060 C 
HETATM   15  N5  UNL     1      14.156  10.781  40.314  1.00  0.00    -0.380 N 
HETATM   16  C7  UNL     1      13.598  12.001  40.698  1.00  0.00     0.085 C 
ATOM     17  H5  UNL     1      14.571  10.692  39.387  1.00  0.00     0.164 HD
ENDBRANCH   1  11
TORSDOF 2
ENDMDL
MODEL 2
REMARK VINA RESULT: -5.836568687      2.812      3.373
REMARK  2 active torsions:
REMARK  status: ('A' for Active; 'I' for Inactive)
REMARK    1  A    between atoms: C2_8  and  N4_9 
REMARK    2  A    between atoms: N4_9  and  C3_11 
ROOT
HETATM    1  N4  UNL     1      15.615  14.140  41.624  1.00  0.00    -0.365 N 
ATOM      2  H4  UNL     1      16.403  13.713  42.113  1.00  0.00     0.162 HD
ENDROOT
BRANCH   1   3
HETATM    3  C2  UNL     1      15.547  15.553  41.558  1.00  0.00     0.134 A 
HETATM    4  C1  UNL     1      14.936  16.433  42.416  1.00  0.00     0.158 A 
HETATM    5  N1  UNL     1      15.131  17.684  41.949  1.00  0.00    -0.294 N 
HETATM    6  N2  UNL     1      15.833  17.580  40.850  1.00  0.00    -0.241 N 
ATOM      7  H1  UNL     1      14.795  18.548  42.374  1.00  0.00     0.187 HD
HETATM    8  N3  UNL     1      16.095  16.308  40.593  1.00  0.00    -0.270 N 
ATOM      9  H2  UNL     1      16.134  18.366  40.274  1.00  0.00     0.208 HD
ATOM     10  H3  UNL     1      16.626  15.960  39.795  1.00  0.00     0.190 HD
ENDBRANCH   1   3
BRANCH   1  11
HETATM   11  C3  UNL     1      14.619  13.271  41.030  1.00  0.00     0.122 C 
HETATM   12  C4  UNL     1      13.676  12.837  42.125  1.00  0.00     0.036 C 
HETATM   13  C5  UNL     1      12.890  11.653  41.546  1.00  0.00     0.047 C 
HETATM   14  C6  UNL     1      13.910  10.533  41.548  1.00  0.00     0.060 C 
HETATM   15  N5  UNL     1      14.935  10.831  40.637  1.00  0.00    -0.380 N 
HETATM   16  C7  UNL     1      15.232  12.146  40.277  1.00  0.00     0.085 C 
ATOM     17  H5  UNL     1      15.476  10.069  40.229  1.00  0.00     0.164 HD
ENDBRANCH   1  11
TORSDOF 2
ENDMDL
MODEL 3
REMARK VINA RESULT: -5.710647984      1.672      2.006
REMARK  2 active torsions:
REMARK  status: ('A' for Active; 'I' for Inactive)
REMARK    1  A    between atoms: C2_8  and  N4_9 
REMARK    2  A    between atoms: N4_9  and  C3_11 
ROOT
HETATM    1  N4  UNL     1      14.598  14.406  43.227  1.00  0.00    -0.365 N 
ATOM      2  H4  UNL     1      15.544  14.405  43.610  1.00  0.00     0.162 HD
ENDROOT
BRANCH   1   3
HETATM    3  C2  UNL     1      13.528  14.789  44.073  1.00  0.00     0.134 A 
HETATM    4  C1  UNL     1      12.697  15.877  43.982  1.00  0.00     0.158 A 
HETATM    5  N1  UNL     1      11.824  15.831  45.010  1.00  0.00    -0.294 N 
HETATM    6  N2  UNL     1      12.105  14.759  45.706  1.00  0.00    -0.241 N 
ATOM      7  H1  UNL     1      11.085  16.505  45.208  1.00  0.00     0.187 HD
HETATM    8  N3  UNL     1      13.126  14.115  45.162  1.00  0.00    -0.270 N 
ATOM      9  H2  UNL     1      11.609  14.463  46.546  1.00  0.00     0.208 HD
ATOM     10  H3  UNL     1      13.539  13.251  45.513  1.00  0.00     0.190 HD
ENDBRANCH   1   3
BRANCH   1  11
HETATM   11  C3  UNL     1      14.412  14.017  41.844  1.00  0.00     0.122 C 
HETATM   12  C4  UNL     1      13.872  12.608  41.832  1.00  0.00     0.036 C 
HETATM   13  C5  UNL     1      14.046  12.113  40.389  1.00  0.00     0.047 C 
HETATM   14  C6  UNL     1      15.539  11.877  40.289  1.00  0.00     0.060 C 
HETATM   15  N5  UNL     1      16.215  13.102  40.387  1.00  0.00    -0.380 N 
HETATM   16  C7  UNL     1      15.648  14.198  41.039  1.00  0.00     0.085 C 
ATOM     17  H5  UNL     1      17.143  13.194  39.973  1.00  0.00     0.164 HD
ENDBRANCH   1  11
TORSDOF 2
ENDMDL
MODEL 4
REMARK VINA RESULT: -5.649868153      2.680      3.379
REMARK  2 active torsions:
REMARK  status: ('A' for Active; 'I' for Inactive)
REMARK    1  A    between atoms: C2_8  and  N4_9 
REMARK    2  A    between atoms: N4_9  and  C3_11 
ROOT
HETATM    1  N4  UNL     1      13.198  12.124  41.026  1.00  0.00    -0.365 N 
ATOM      2  H4  UNL     1      12.328  12.541  40.693  1.00  0.00     0.162 HD
ENDROOT
BRANCH   1   3
HETATM    3  C2  UNL     1      14.376  12.909  41.002  1.00  0.00     0.134 A 
HETATM    4  C1  UNL     1      15.444  12.846  40.143  1.00  0.00     0.158 A 
HETATM    5  N1  UNL     1      16.337  13.790  40.505  1.00  0.00    -0.294 N 
HETATM    6  N2  UNL     1      15.841  14.411  41.545  1.00  0.00    -0.241 N 
ATOM      7  H1  UNL     1      17.231  13.984  40.054  1.00  0.00     0.187 HD
HETATM    8  N3  UNL     1      14.662  13.899  41.863  1.00  0.00    -0.270 N 
ATOM      9  H2  UNL     1      16.296  15.178  42.038  1.00  0.00     0.208 HD
ATOM     10  H3  UNL     1      14.069  14.205  42.634  1.00  0.00     0.190 HD
ENDBRANCH   1   3
BRANCH   1  11
HETATM   11  C3  UNL     1      13.170  10.755  41.500  1.00  0.00     0.122 C 
HETATM   12  C4  UNL     1      13.543  10.767  42.962  1.00  0.00     0.036 C 
HETATM   13  C5  UNL     1      13.865   9.309  43.317  1.00  0.00     0.047 C 
HETATM   14  C6  UNL     1      15.207   9.085  42.653  1.00  0.00     0.060 C 
HETATM   15  N5  UNL     1      15.057   9.145  41.258  1.00  0.00    -0.380 N 
HETATM   16  C7  UNL     1      14.011   9.856  40.668  1.00  0.00     0.085 C 
ATOM     17  H5  UNL     1      15.727   8.659  40.664  1.00  0.00     0.164 HD
ENDBRANCH   1  11
TORSDOF 2
ENDMDL
MODEL 5
REMARK VINA RESULT: -5.604709886      2.567      5.375
REMARK  2 active torsions:
REMARK  status: ('A' for Active; 'I' for Inactive)
REMARK    1  A    between atoms: C2_8  and  N4_9 
REMARK    2  A    between atoms: N4_9  and  C3_11 
ROOT
HETATM    1  N4  UNL     1      14.660  14.880  42.818  1.00  0.00    -0.365 N 
ATOM      2  H4  UNL     1      15.373  15.494  43.212  1.00  0.00     0.162 HD
ENDROOT
BRANCH   1   3
HETATM    3  C2  UNL     1      15.010  14.054  41.721  1.00  0.00     0.134 A 
HETATM    4  C1  UNL     1      15.994  14.232  40.781  1.00  0.00     0.158 A 
HETATM    5  N1  UNL     1      15.957  13.189  39.926  1.00  0.00    -0.294 N 
HETATM    6  N2  UNL     1      14.991  12.401  40.322  1.00  0.00    -0.241 N 
ATOM      7  H1  UNL     1      16.567  13.043  39.122  1.00  0.00     0.187 HD
HETATM    8  N3  UNL     1      14.406  12.899  41.400  1.00  0.00    -0.270 N 
ATOM      9  H2  UNL     1      14.727  11.528  39.865  1.00  0.00     0.208 HD
ATOM     10  H3  UNL     1      13.626  12.477  41.903  1.00  0.00     0.190 HD
ENDBRANCH   1   3
BRANCH   1  11
HETATM   11  C3  UNL     1      13.335  14.892  43.405  1.00  0.00     0.122 C 
HETATM   12  C4  UNL     1      12.953  16.332  43.645  1.00  0.00     0.036 C 
HETATM   13  C5  UNL     1      11.744  16.285  44.590  1.00  0.00     0.047 C 
HETATM   14  C6  UNL     1      12.364  15.901  45.917  1.00  0.00     0.060 C 
HETATM   15  N5  UNL     1      12.874  14.595  45.836  1.00  0.00    -0.380 N 
HETATM   16  C7  UNL     1      13.250  14.034  44.615  1.00  0.00     0.085 C 
ATOM     17  H5  UNL     1      12.971  14.045  46.689  1.00  0.00     0.164 HD
ENDBRANCH   1  11
TORSDOF 2
ENDMDL
