MODEL 1
REMARK VINA RESULT: -8.006833957      0.000      0.000
REMARK  10 active torsions:
REMARK  status: ('A' for Active; 'I' for Inactive)
REMARK    1  A    between atoms: O1_2  and  C2_3 
REMARK    2  A    between atoms: C3_5  and  O3_7 
REMARK    3  A    between atoms: C5_10  and  C6_11 
REMARK    4  A    between atoms: C6_11  and  O5_12 
REMARK    5  A    between atoms: O5_12  and  C7_13 
REMARK    6  A    between atoms: C8_15  and  O7_17 
REMARK    7  A    between atoms: C10_19  and  O8_20 
REMARK    8  A    between atoms: C11_22  and  O9_23 
REMARK    9  A    between atoms: C12_25  and  O10_26 
REMARK   10  A    between atoms: C13_28  and  O11_29 
ROOT
HETATM    1  C7  UNL     1       7.327   6.403 -16.577  1.00  0.00     0.294 C 
HETATM    2  O6  UNL     1       7.608   6.902 -15.268  1.00  0.00    -0.320 OA
HETATM    3  C8  UNL     1       7.017   6.049 -14.378  1.00  0.00     0.189 C 
HETATM    4  C9  UNL     1       6.937   6.651 -12.974  1.00  0.00     0.082 C 
HETATM    5  C10 UNL     1       7.895   4.828 -14.257  1.00  0.00     0.211 C 
HETATM    6  C11 UNL     1       8.499   4.399 -15.545  1.00  0.00     0.185 C 
HETATM    7  C12 UNL     1       8.006   5.065 -16.768  1.00  0.00     0.204 C 
ENDROOT
BRANCH   1   8
HETATM    8  O5  UNL     1       7.650   7.348 -17.421  1.00  0.00    -0.356 OA
BRANCH   8   9
HETATM    9  C6  UNL     1       8.735   7.701 -18.039  1.00  0.00     0.206 C 
BRANCH   9  10
HETATM   10  C5  UNL     1       9.824   8.412 -17.299  1.00  0.00     0.184 C 
HETATM   11  O4  UNL     1       9.940   9.752 -17.650  1.00  0.00    -0.323 OA
HETATM   12  C3  UNL     1      11.034  10.368 -17.166  1.00  0.00     0.278 C 
HETATM   13  O2  UNL     1      11.823   9.738 -16.269  1.00  0.00    -0.300 OA
HETATM   14  C4  UNL     1      10.596  11.695 -16.529  1.00  0.00     0.115 C 
HETATM   15  C2  UNL     1      12.046   8.404 -16.423  1.00  0.00     0.296 C 
HETATM   16  C13 UNL     1      11.154   7.773 -17.497  1.00  0.00     0.204 C 
BRANCH  12  17
HETATM   17  O3  UNL     1      11.844  10.752 -18.262  1.00  0.00    -0.343 OA
ATOM     18  H3  UNL     1      11.336  10.633 -19.056  1.00  0.00     0.215 HD
ENDBRANCH  12  17
BRANCH  15  19
HETATM   19  O1  UNL     1      13.375   8.173 -16.736  1.00  0.00    -0.363 OA
HETATM   20  C1  UNL     1      14.159   8.525 -15.643  1.00  0.00     0.204 C 
ENDBRANCH  15  19
BRANCH  16  21
HETATM   21  O11 UNL     1      11.121   6.398 -17.168  1.00  0.00    -0.388 OA
ATOM     22  H11 UNL     1      10.307   6.082 -17.542  1.00  0.00     0.210 HD
ENDBRANCH  16  21
ENDBRANCH   9  10
ENDBRANCH   8   9
ENDBRANCH   1   8
BRANCH   7  23
HETATM   23  O10 UNL     1       7.112   4.215 -17.413  1.00  0.00    -0.388 OA
ATOM     24  H10 UNL     1       7.365   4.161 -18.327  1.00  0.00     0.210 HD
ENDBRANCH   7  23
BRANCH   3  25
HETATM   25  O7  UNL     1       5.748   5.629 -14.683  1.00  0.00    -0.363 OA
ATOM     26  H7  UNL     1       5.460   4.819 -14.277  1.00  0.00     0.213 HD
ENDBRANCH   3  25
BRANCH   6  27
HETATM   27  O9  UNL     1       9.903   4.552 -15.410  1.00  0.00    -0.390 OA
ATOM     28  H9  UNL     1      10.282   3.684 -15.486  1.00  0.00     0.210 HD
ENDBRANCH   6  27
BRANCH   5  29
HETATM   29  O8  UNL     1       8.857   5.105 -13.278  1.00  0.00    -0.387 OA
ATOM     30  H8  UNL     1       8.987   4.308 -12.777  1.00  0.00     0.210 HD
ENDBRANCH   5  29
TORSDOF 10
ENDMDL
MODEL 2
REMARK VINA RESULT: -7.351973642      1.395      1.779
REMARK  10 active torsions:
REMARK  status: ('A' for Active; 'I' for Inactive)
REMARK    1  A    between atoms: O1_2  and  C2_3 
REMARK    2  A    between atoms: C3_5  and  O3_7 
REMARK    3  A    between atoms: C5_10  and  C6_11 
REMARK    4  A    between atoms: C6_11  and  O5_12 
REMARK    5  A    between atoms: O5_12  and  C7_13 
REMARK    6  A    between atoms: C8_15  and  O7_17 
REMARK    7  A    between atoms: C10_19  and  O8_20 
REMARK    8  A    between atoms: C11_22  and  O9_23 
REMARK    9  A    between atoms: C12_25  and  O10_26 
REMARK   10  A    between atoms: C13_28  and  O11_29 
ROOT
HETATM    1  C7  UNL     1       8.158   4.832 -15.659  1.00  0.00     0.294 C 
HETATM    2  O6  UNL     1       8.181   6.066 -14.940  1.00  0.00    -0.320 OA
HETATM    3  C8  UNL     1       6.993   6.160 -14.268  1.00  0.00     0.189 C 
HETATM    4  C9  UNL     1       6.739   7.577 -13.748  1.00  0.00     0.082 C 
HETATM    5  C10 UNL     1       7.084   5.280 -13.046  1.00  0.00     0.211 C 
HETATM    6  C11 UNL     1       7.806   4.003 -13.284  1.00  0.00     0.185 C 
HETATM    7  C12 UNL     1       8.137   3.675 -14.686  1.00  0.00     0.204 C 
ENDROOT
BRANCH   1   8
HETATM    8  O5  UNL     1       9.156   4.868 -16.504  1.00  0.00    -0.356 OA
BRANCH   8   9
HETATM    9  C6  UNL     1       9.554   5.687 -17.427  1.00  0.00     0.206 C 
BRANCH   9  10
HETATM   10  C5  UNL     1      10.295   6.933 -17.060  1.00  0.00     0.184 C 
HETATM   11  O4  UNL     1       9.852   8.057 -17.748  1.00  0.00    -0.323 OA
HETATM   12  C3  UNL     1      10.625   9.148 -17.602  1.00  0.00     0.278 C 
HETATM   13  O2  UNL     1      11.633   9.146 -16.703  1.00  0.00    -0.300 OA
HETATM   14  C4  UNL     1       9.716  10.338 -17.259  1.00  0.00     0.115 C 
HETATM   15  C2  UNL     1      12.366   8.009 -16.550  1.00  0.00     0.296 C 
HETATM   16  C13 UNL     1      11.761   6.810 -17.287  1.00  0.00     0.204 C 
BRANCH  12  17
HETATM   17  O3  UNL     1      11.172   9.473 -18.867  1.00  0.00    -0.343 OA
ATOM     18  H3  UNL     1      11.753   8.766 -19.123  1.00  0.00     0.215 HD
ENDBRANCH  12  17
BRANCH  15  19
HETATM   19  O1  UNL     1      13.663   8.211 -16.989  1.00  0.00    -0.363 OA
HETATM   20  C1  UNL     1      14.027   9.525 -16.718  1.00  0.00     0.204 C 
ENDBRANCH  15  19
BRANCH  16  21
HETATM   21  O11 UNL     1      12.294   5.680 -16.623  1.00  0.00    -0.388 OA
ATOM     22  H11 UNL     1      12.367   5.018 -17.300  1.00  0.00     0.210 HD
ENDBRANCH  16  21
ENDBRANCH   9  10
ENDBRANCH   8   9
ENDBRANCH   1   8
BRANCH   7  23
HETATM   23  O10 UNL     1       7.225   2.733 -15.154  1.00  0.00    -0.388 OA
ATOM     24  H10 UNL     1       6.355   3.110 -15.094  1.00  0.00     0.210 HD
ENDBRANCH   7  23
BRANCH   3  25
HETATM   25  O7  UNL     1       5.867   5.803 -14.963  1.00  0.00    -0.363 OA
ATOM     26  H7  UNL     1       5.155   5.431 -14.456  1.00  0.00     0.213 HD
ENDBRANCH   3  25
BRANCH   6  27
HETATM   27  O9  UNL     1       8.973   4.036 -12.477  1.00  0.00    -0.390 OA
ATOM     28  H9  UNL     1       8.727   4.447 -11.656  1.00  0.00     0.210 HD
ENDBRANCH   6  27
BRANCH   5  29
HETATM   29  O8  UNL     1       7.665   6.044 -12.026  1.00  0.00    -0.387 OA
ATOM     30  H8  UNL     1       7.443   5.628 -11.201  1.00  0.00     0.210 HD
ENDBRANCH   5  29
TORSDOF 10
ENDMDL
MODEL 3
REMARK VINA RESULT: -7.333312377      1.415      2.571
REMARK  10 active torsions:
REMARK  status: ('A' for Active; 'I' for Inactive)
REMARK    1  A    between atoms: O1_2  and  C2_3 
REMARK    2  A    between atoms: C3_5  and  O3_7 
REMARK    3  A    between atoms: C5_10  and  C6_11 
REMARK    4  A    between atoms: C6_11  and  O5_12 
REMARK    5  A    between atoms: O5_12  and  C7_13 
REMARK    6  A    between atoms: C8_15  and  O7_17 
REMARK    7  A    between atoms: C10_19  and  O8_20 
REMARK    8  A    between atoms: C11_22  and  O9_23 
REMARK    9  A    between atoms: C12_25  and  O10_26 
REMARK   10  A    between atoms: C13_28  and  O11_29 
ROOT
HETATM    1  C7  UNL     1       7.075   6.303 -16.182  1.00  0.00     0.294 C 
HETATM    2  O6  UNL     1       7.415   6.677 -14.846  1.00  0.00    -0.320 OA
HETATM    3  C8  UNL     1       7.012   5.655 -14.030  1.00  0.00     0.189 C 
HETATM    4  C9  UNL     1       6.993   6.073 -12.558  1.00  0.00     0.082 C 
HETATM    5  C10 UNL     1       8.035   4.551 -14.135  1.00  0.00     0.211 C 
HETATM    6  C11 UNL     1       8.564   4.358 -15.510  1.00  0.00     0.185 C 
HETATM    7  C12 UNL     1       7.886   5.095 -16.595  1.00  0.00     0.204 C 
ENDROOT
BRANCH   1   8
HETATM    8  O5  UNL     1       7.206   7.375 -16.920  1.00  0.00    -0.356 OA
BRANCH   8   9
HETATM    9  C6  UNL     1       8.069   7.793 -17.794  1.00  0.00     0.206 C 
BRANCH   9  10
HETATM   10  C5  UNL     1       8.837   9.053 -17.550  1.00  0.00     0.184 C 
HETATM   11  O4  UNL     1      10.215   8.874 -17.604  1.00  0.00    -0.323 OA
HETATM   12  C3  UNL     1      10.937   9.930 -17.186  1.00  0.00     0.278 C 
HETATM   13  O2  UNL     1      10.324  11.104 -16.920  1.00  0.00    -0.300 OA
HETATM   14  C4  UNL     1      12.023  10.214 -18.233  1.00  0.00     0.115 C 
HETATM   15  C2  UNL     1       9.106  11.080 -16.315  1.00  0.00     0.296 C 
HETATM   16  C13 UNL     1       8.510   9.671 -16.235  1.00  0.00     0.204 C 
BRANCH  12  17
HETATM   17  O3  UNL     1      11.653   9.543 -16.028  1.00  0.00    -0.343 OA
ATOM     18  H3  UNL     1      11.371  10.099 -15.311  1.00  0.00     0.215 HD
ENDBRANCH  12  17
BRANCH  15  19
HETATM   19  O1  UNL     1       9.192  11.615 -15.041  1.00  0.00    -0.363 OA
HETATM   20  C1  UNL     1       9.146  13.001 -15.134  1.00  0.00     0.204 C 
ENDBRANCH  15  19
BRANCH  16  21
HETATM   21  O11 UNL     1       7.118   9.881 -16.094  1.00  0.00    -0.388 OA
ATOM     22  H11 UNL     1       7.047  10.727 -15.669  1.00  0.00     0.210 HD
ENDBRANCH  16  21
ENDBRANCH   9  10
ENDBRANCH   8   9
ENDBRANCH   1   8
BRANCH   7  23
HETATM   23  O10 UNL     1       7.041   4.220 -17.273  1.00  0.00    -0.388 OA
ATOM     24  H10 UNL     1       6.318   4.724 -17.627  1.00  0.00     0.210 HD
ENDBRANCH   7  23
BRANCH   3  25
HETATM   25  O7  UNL     1       5.779   5.116 -14.288  1.00  0.00    -0.363 OA
ATOM     26  H7  UNL     1       5.767   4.283 -14.744  1.00  0.00     0.213 HD
ENDBRANCH   3  25
BRANCH   6  27
HETATM   27  O9  UNL     1       9.947   4.672 -15.465  1.00  0.00    -0.390 OA
ATOM     28  H9  UNL     1      10.189   4.972 -16.333  1.00  0.00     0.210 HD
ENDBRANCH   6  27
BRANCH   5  29
HETATM   29  O8  UNL     1       9.045   4.831 -13.205  1.00  0.00    -0.387 OA
ATOM     30  H8  UNL     1       9.305   4.005 -12.815  1.00  0.00     0.210 HD
ENDBRANCH   5  29
TORSDOF 10
ENDMDL
MODEL 4
REMARK VINA RESULT: -7.329471197      1.955      3.411
REMARK  10 active torsions:
REMARK  status: ('A' for Active; 'I' for Inactive)
REMARK    1  A    between atoms: O1_2  and  C2_3 
REMARK    2  A    between atoms: C3_5  and  O3_7 
REMARK    3  A    between atoms: C5_10  and  C6_11 
REMARK    4  A    between atoms: C6_11  and  O5_12 
REMARK    5  A    between atoms: O5_12  and  C7_13 
REMARK    6  A    between atoms: C8_15  and  O7_17 
REMARK    7  A    between atoms: C10_19  and  O8_20 
REMARK    8  A    between atoms: C11_22  and  O9_23 
REMARK    9  A    between atoms: C12_25  and  O10_26 
REMARK   10  A    between atoms: C13_28  and  O11_29 
ROOT
HETATM    1  C7  UNL     1       7.809   6.253 -14.022  1.00  0.00     0.294 C 
HETATM    2  O6  UNL     1       7.349   5.484 -15.134  1.00  0.00    -0.320 OA
HETATM    3  C8  UNL     1       8.252   4.474 -15.323  1.00  0.00     0.189 C 
HETATM    4  C9  UNL     1       8.076   3.795 -16.683  1.00  0.00     0.082 C 
HETATM    5  C10 UNL     1       7.976   3.410 -14.289  1.00  0.00     0.211 C 
HETATM    6  C11 UNL     1       7.605   3.956 -12.958  1.00  0.00     0.185 C 
HETATM    7  C12 UNL     1       7.762   5.412 -12.766  1.00  0.00     0.204 C 
ENDROOT
BRANCH   1   8
HETATM    8  O5  UNL     1       7.110   7.359 -14.011  1.00  0.00    -0.356 OA
BRANCH   8   9
HETATM    9  C6  UNL     1       6.928   8.343 -14.836  1.00  0.00     0.206 C 
BRANCH   9  10
HETATM   10  C5  UNL     1       8.071   9.233 -15.209  1.00  0.00     0.184 C 
HETATM   11  O4  UNL     1       7.757  10.586 -15.143  1.00  0.00    -0.323 OA
HETATM   12  C3  UNL     1       8.685  11.406 -15.668  1.00  0.00     0.278 C 
HETATM   13  O2  UNL     1       9.884  10.914 -16.047  1.00  0.00    -0.300 OA
HETATM   14  C4  UNL     1       8.956  12.532 -14.659  1.00  0.00     0.115 C 
HETATM   15  C2  UNL     1       9.927   9.691 -16.641  1.00  0.00     0.296 C 
HETATM   16  C13 UNL     1       8.587   8.952 -16.577  1.00  0.00     0.204 C 
BRANCH  12  17
HETATM   17  O3  UNL     1       8.113  12.062 -16.785  1.00  0.00    -0.343 OA
ATOM     18  H3  UNL     1       8.201  11.487 -17.537  1.00  0.00     0.215 HD
ENDBRANCH  12  17
BRANCH  15  19
HETATM   19  O1  UNL     1      10.322   9.814 -17.962  1.00  0.00    -0.363 OA
HETATM   20  C1  UNL     1      11.710   9.851 -18.013  1.00  0.00     0.204 C 
ENDBRANCH  15  19
BRANCH  16  21
HETATM   21  O11 UNL     1       8.926   7.588 -16.732  1.00  0.00    -0.388 OA
ATOM     22  H11 UNL     1       8.753   7.401 -17.647  1.00  0.00     0.210 HD
ENDBRANCH  16  21
ENDBRANCH   9  10
ENDBRANCH   8   9
ENDBRANCH   1   8
BRANCH   7  23
HETATM   23  O10 UNL     1       8.929   5.647 -12.045  1.00  0.00    -0.388 OA
ATOM     24  H10 UNL     1       9.218   6.533 -12.233  1.00  0.00     0.210 HD
ENDBRANCH   7  23
BRANCH   3  25
HETATM   25  O7  UNL     1       9.577   4.814 -15.238  1.00  0.00    -0.363 OA
ATOM     26  H7  UNL     1       9.802   5.708 -15.465  1.00  0.00     0.213 HD
ENDBRANCH   3  25
BRANCH   6  27
HETATM   27  O9  UNL     1       6.270   3.547 -12.706  1.00  0.00    -0.390 OA
ATOM     28  H9  UNL     1       6.289   3.021 -11.915  1.00  0.00     0.210 HD
ENDBRANCH   6  27
BRANCH   5  29
HETATM   29  O8  UNL     1       6.993   2.564 -14.817  1.00  0.00    -0.387 OA
ATOM     30  H8  UNL     1       7.130   2.524 -15.757  1.00  0.00     0.210 HD
ENDBRANCH   5  29
TORSDOF 10
ENDMDL
MODEL 5
REMARK VINA RESULT: -7.256959749      1.514      1.947
REMARK  10 active torsions:
REMARK  status: ('A' for Active; 'I' for Inactive)
REMARK    1  A    between atoms: O1_2  and  C2_3 
REMARK    2  A    between atoms: C3_5  and  O3_7 
REMARK    3  A    between atoms: C5_10  and  C6_11 
REMARK    4  A    between atoms: C6_11  and  O5_12 
REMARK    5  A    between atoms: O5_12  and  C7_13 
REMARK    6  A    between atoms: C8_15  and  O7_17 
REMARK    7  A    between atoms: C10_19  and  O8_20 
REMARK    8  A    between atoms: C11_22  and  O9_23 
REMARK    9  A    between atoms: C12_25  and  O10_26 
REMARK   10  A    between atoms: C13_28  and  O11_29 
ROOT
HETATM    1  C7  UNL     1       7.002   6.185 -16.172  1.00  0.00     0.294 C 
HETATM    2  O6  UNL     1       7.323   6.582 -14.838  1.00  0.00    -0.320 OA
HETATM    3  C8  UNL     1       6.975   5.545 -14.017  1.00  0.00     0.189 C 
HETATM    4  C9  UNL     1       6.934   5.968 -12.546  1.00  0.00     0.082 C 
HETATM    5  C10 UNL     1       8.055   4.496 -14.117  1.00  0.00     0.211 C 
HETATM    6  C11 UNL     1       8.592   4.324 -15.491  1.00  0.00     0.185 C 
HETATM    7  C12 UNL     1       7.875   5.019 -16.580  1.00  0.00     0.204 C 
ENDROOT
BRANCH   1   8
HETATM    8  O5  UNL     1       7.076   7.259 -16.915  1.00  0.00    -0.356 OA
BRANCH   8   9
HETATM    9  C6  UNL     1       6.961   8.534 -16.707  1.00  0.00     0.206 C 
BRANCH   9  10
HETATM   10  C5  UNL     1       8.153   9.340 -16.301  1.00  0.00     0.184 C 
HETATM   11  O4  UNL     1       7.835  10.644 -15.938  1.00  0.00    -0.323 OA
HETATM   12  C3  UNL     1       8.894  11.456 -15.768  1.00  0.00     0.278 C 
HETATM   13  O2  UNL     1      10.145  10.947 -15.783  1.00  0.00    -0.300 OA
HETATM   14  C4  UNL     1       8.724  12.196 -14.433  1.00  0.00     0.115 C 
HETATM   15  C2  UNL     1      10.432   9.955 -16.669  1.00  0.00     0.296 C 
HETATM   16  C13 UNL     1       9.186   9.406 -17.371  1.00  0.00     0.204 C 
BRANCH  12  17
HETATM   17  O3  UNL     1       8.829  12.475 -16.749  1.00  0.00    -0.343 OA
ATOM     18  H3  UNL     1       8.409  13.232 -16.355  1.00  0.00     0.215 HD
ENDBRANCH  12  17
BRANCH  15  19
HETATM   19  O1  UNL     1      11.334  10.404 -17.618  1.00  0.00    -0.363 OA
HETATM   20  C1  UNL     1      12.584   9.863 -17.339  1.00  0.00     0.204 C 
ENDBRANCH  15  19
BRANCH  16  21
HETATM   21  O11 UNL     1       9.563   8.114 -17.806  1.00  0.00    -0.388 OA
ATOM     22  H11 UNL     1       8.788   7.770 -18.234  1.00  0.00     0.210 HD
ENDBRANCH  16  21
ENDBRANCH   9  10
ENDBRANCH   8   9
ENDBRANCH   1   8
BRANCH   7  23
HETATM   23  O10 UNL     1       7.077   4.098 -17.253  1.00  0.00    -0.388 OA
ATOM     24  H10 UNL     1       6.661   4.545 -17.980  1.00  0.00     0.210 HD
ENDBRANCH   7  23
BRANCH   3  25
HETATM   25  O7  UNL     1       5.771   4.940 -14.271  1.00  0.00    -0.363 OA
ATOM     26  H7  UNL     1       5.037   5.214 -13.734  1.00  0.00     0.213 HD
ENDBRANCH   3  25
BRANCH   6  27
HETATM   27  O9  UNL     1       9.957   4.710 -15.449  1.00  0.00    -0.390 OA
ATOM     28  H9  UNL     1      10.439   3.973 -15.093  1.00  0.00     0.210 HD
ENDBRANCH   6  27
BRANCH   5  29
HETATM   29  O8  UNL     1       9.048   4.834 -13.189  1.00  0.00    -0.387 OA
ATOM     30  H8  UNL     1       8.994   5.772 -13.047  1.00  0.00     0.210 HD
ENDBRANCH   5  29
TORSDOF 10
ENDMDL
