MODEL 1
REMARK VINA RESULT: -8.828504126      0.000      0.000
REMARK  6 active torsions:
REMARK  status: ('A' for Active; 'I' for Inactive)
REMARK    1  A    between atoms: N1_1  and  C1_4 
REMARK    2  A    between atoms: C2_7  and  C3_8 
REMARK    3  A    between atoms: N3_9  and  N4_11 
REMARK       I    between atoms: N4_11  and  C4_13 
REMARK    4  A    between atoms: N6_15  and  O1_17 
REMARK    5  A    between atoms: O1_17  and  S1_18 
REMARK    6  A    between atoms: S1_18  and  N7_21 
ROOT
HETATM    1  N4  UNL     1       7.211   6.298 -15.599  1.00  0.00    -0.272 N 
ATOM      2  H4  UNL     1       7.229   7.278 -15.316  1.00  0.00     0.189 HD
HETATM    3  C4  UNL     1       7.867   5.900 -16.774  1.00  0.00     0.228 C 
HETATM    4  N5  UNL     1       7.474   4.702 -17.411  1.00  0.00    -0.060 NA
HETATM    5  N6  UNL     1       8.804   6.591 -17.277  1.00  0.00    -0.218 N 
ATOM      6  H6  UNL     1       9.265   6.281 -18.133  1.00  0.00     0.198 HD
ENDROOT
BRANCH   1   7
HETATM    7  N3  UNL     1       6.540   5.371 -14.822  1.00  0.00    -0.305 N 
HETATM    8  C3  UNL     1       7.205   4.574 -14.067  1.00  0.00     0.166 C 
ATOM      9  H3  UNL     1       5.521   5.321 -14.849  1.00  0.00     0.186 HD
BRANCH   8  10
HETATM   10  C2  UNL     1       6.492   3.597 -13.249  1.00  0.00     0.202 A 
HETATM   11  N2  UNL     1       5.557   3.869 -12.306  1.00  0.00    -0.166 N 
HETATM   12  C1  UNL     1       5.164   2.694 -11.802  1.00  0.00     0.698 A 
ATOM     13  H2  UNL     1       5.219   4.791 -12.032  1.00  0.00     0.186 HD
HETATM   14  N10 UNL     1       5.842   1.735 -12.422  1.00  0.00    -0.089 N 
HETATM   15  O5  UNL     1       6.622   2.292 -13.274  1.00  0.00    -0.203 OA
ATOM     16  H10 UNL     1       5.757   0.733 -12.251  1.00  0.00     0.213 HD
BRANCH  12  17
HETATM   17  N1  UNL     1       4.295   2.538 -10.892  1.00  0.00    -0.233 N 
ATOM     18  H12 UNL     1       4.044   3.212 -10.170  1.00  0.00     0.174 HD
ATOM     19  H11 UNL     1       3.722   1.705 -10.757  1.00  0.00     0.174 HD
ENDBRANCH  12  17
ENDBRANCH   8  10
ENDBRANCH   1   7
BRANCH   5  20
HETATM   20  O1  UNL     1       9.194   7.746 -16.673  1.00  0.00    -0.135 OA
BRANCH  20  21
HETATM   21  S1  UNL     1       9.828   9.043 -17.588  1.00  0.00     0.379 S 
HETATM   22  O2  UNL     1       9.028   9.184 -18.826  1.00  0.00    -0.177 OA
HETATM   23  O3  UNL     1       9.680  10.303 -16.788  1.00  0.00    -0.177 OA
BRANCH  21  24
HETATM   24  N7  UNL     1      11.486   8.675 -17.902  1.00  0.00    -0.081 NA
HETATM   25  C5  UNL     1      12.273   9.810 -17.544  1.00  0.00     0.145 C 
HETATM   26  C6  UNL     1      12.800   9.734 -16.117  1.00  0.00     0.122 C 
HETATM   27  C7  UNL     1      13.641   8.487 -16.065  1.00  0.00     0.238 C 
HETATM   28  O4  UNL     1      14.645   8.384 -15.331  1.00  0.00    -0.272 OA
HETATM   29  N8  UNL     1      13.193   7.432 -16.928  1.00  0.00    -0.259 N 
HETATM   30  N9  UNL     1      11.889   7.479 -17.367  1.00  0.00    -0.244 N 
ATOM     31  H8  UNL     1      13.817   6.675 -17.206  1.00  0.00     0.191 HD
ATOM     32  H9  UNL     1      11.264   6.676 -17.298  1.00  0.00     0.203 HD
ENDBRANCH  21  24
ENDBRANCH  20  21
ENDBRANCH   5  20
TORSDOF 6
ENDMDL
MODEL 2
REMARK VINA RESULT: -8.807338398      1.194      1.420
REMARK  6 active torsions:
REMARK  status: ('A' for Active; 'I' for Inactive)
REMARK    1  A    between atoms: N1_1  and  C1_4 
REMARK    2  A    between atoms: C2_7  and  C3_8 
REMARK    3  A    between atoms: N3_9  and  N4_11 
REMARK       I    between atoms: N4_11  and  C4_13 
REMARK    4  A    between atoms: N6_15  and  O1_17 
REMARK    5  A    between atoms: O1_17  and  S1_18 
REMARK    6  A    between atoms: S1_18  and  N7_21 
ROOT
HETATM    1  N4  UNL     1       7.044   6.353 -16.774  1.00  0.00    -0.272 N 
ATOM      2  H4  UNL     1       6.653   7.253 -17.054  1.00  0.00     0.189 HD
HETATM    3  C4  UNL     1       8.058   5.764 -17.543  1.00  0.00     0.228 C 
HETATM    4  N5  UNL     1       8.269   4.370 -17.455  1.00  0.00    -0.060 NA
HETATM    5  N6  UNL     1       8.789   6.454 -18.317  1.00  0.00    -0.218 N 
ATOM      6  H6  UNL     1       9.520   6.002 -18.867  1.00  0.00     0.198 HD
ENDROOT
BRANCH   1   7
HETATM    7  N3  UNL     1       6.570   5.723 -15.637  1.00  0.00    -0.305 N 
HETATM    8  C3  UNL     1       7.140   5.937 -14.507  1.00  0.00     0.166 C 
ATOM      9  H3  UNL     1       5.771   5.091 -15.696  1.00  0.00     0.186 HD
BRANCH   8  10
HETATM   10  C2  UNL     1       6.636   5.270 -13.310  1.00  0.00     0.202 A 
HETATM   11  N2  UNL     1       5.897   4.134 -13.274  1.00  0.00    -0.166 N 
HETATM   12  C1  UNL     1       5.653   3.873 -11.986  1.00  0.00     0.698 A 
ATOM     13  H2  UNL     1       5.587   3.585 -14.076  1.00  0.00     0.186 HD
HETATM   14  N10 UNL     1       6.226   4.825 -11.259  1.00  0.00    -0.089 N 
HETATM   15  O5  UNL     1       6.803   5.640 -12.063  1.00  0.00    -0.203 OA
ATOM     16  H10 UNL     1       6.211   4.894 -10.242  1.00  0.00     0.213 HD
BRANCH  12  17
HETATM   17  N1  UNL     1       4.987   2.886 -11.550  1.00  0.00    -0.233 N 
ATOM     18  H12 UNL     1       4.144   2.489 -11.965  1.00  0.00     0.174 HD
ATOM     19  H11 UNL     1       5.207   2.348 -10.711  1.00  0.00     0.174 HD
ENDBRANCH  12  17
ENDBRANCH   8  10
ENDBRANCH   1   7
BRANCH   5  20
HETATM   20  O1  UNL     1       8.598   7.798 -18.411  1.00  0.00    -0.135 OA
BRANCH  20  21
HETATM   21  S1  UNL     1       9.567   8.886 -17.520  1.00  0.00     0.379 S 
HETATM   22  O2  UNL     1       9.212  10.269 -17.915  1.00  0.00    -0.177 OA
HETATM   23  O3  UNL     1       9.250   8.719 -16.064  1.00  0.00    -0.177 OA
BRANCH  21  24
HETATM   24  N7  UNL     1      11.213   8.495 -17.865  1.00  0.00    -0.081 NA
HETATM   25  C5  UNL     1      12.007   9.660 -17.649  1.00  0.00     0.145 C 
HETATM   26  C6  UNL     1      12.592   9.723 -16.244  1.00  0.00     0.122 C 
HETATM   27  C7  UNL     1      13.442   8.488 -16.108  1.00  0.00     0.238 C 
HETATM   28  O4  UNL     1      14.476   8.458 -15.408  1.00  0.00    -0.272 OA
HETATM   29  N8  UNL     1      12.966   7.355 -16.847  1.00  0.00    -0.259 N 
HETATM   30  N9  UNL     1      11.646   7.356 -17.235  1.00  0.00    -0.244 N 
ATOM     31  H8  UNL     1      13.584   6.576 -17.077  1.00  0.00     0.191 HD
ATOM     32  H9  UNL     1      11.029   6.562 -17.064  1.00  0.00     0.203 HD
ENDBRANCH  21  24
ENDBRANCH  20  21
ENDBRANCH   5  20
TORSDOF 6
ENDMDL
MODEL 3
REMARK VINA RESULT: -8.800656641      2.957      8.476
REMARK  6 active torsions:
REMARK  status: ('A' for Active; 'I' for Inactive)
REMARK    1  A    between atoms: N1_1  and  C1_4 
REMARK    2  A    between atoms: C2_7  and  C3_8 
REMARK    3  A    between atoms: N3_9  and  N4_11 
REMARK       I    between atoms: N4_11  and  C4_13 
REMARK    4  A    between atoms: N6_15  and  O1_17 
REMARK    5  A    between atoms: O1_17  and  S1_18 
REMARK    6  A    between atoms: S1_18  and  N7_21 
ROOT
HETATM    1  N4  UNL     1       9.633   4.678 -16.329  1.00  0.00    -0.272 N 
ATOM      2  H4  UNL     1      10.038   3.770 -16.100  1.00  0.00     0.189 HD
HETATM    3  C4  UNL     1       8.260   4.781 -16.594  1.00  0.00     0.228 C 
HETATM    4  N5  UNL     1       7.782   5.878 -17.345  1.00  0.00    -0.060 NA
HETATM    5  N6  UNL     1       7.436   3.911 -16.176  1.00  0.00    -0.218 N 
ATOM      6  H6  UNL     1       6.441   4.008 -16.383  1.00  0.00     0.198 HD
ENDROOT
BRANCH   1   7
HETATM    7  N3  UNL     1      10.442   5.799 -16.375  1.00  0.00    -0.305 N 
HETATM    8  C3  UNL     1      11.636   5.702 -16.836  1.00  0.00     0.166 C 
ATOM      9  H3  UNL     1      10.092   6.698 -16.044  1.00  0.00     0.186 HD
BRANCH   8  10
HETATM   10  C2  UNL     1      12.487   6.888 -16.882  1.00  0.00     0.202 A 
HETATM   11  N2  UNL     1      12.080   8.160 -17.113  1.00  0.00    -0.166 N 
HETATM   12  C1  UNL     1      13.173   8.929 -17.067  1.00  0.00     0.698 A 
ATOM     13  H2  UNL     1      11.124   8.471 -17.287  1.00  0.00     0.186 HD
HETATM   14  N10 UNL     1      14.215   8.146 -16.818  1.00  0.00    -0.089 N 
HETATM   15  O5  UNL     1      13.786   6.942 -16.712  1.00  0.00    -0.203 OA
ATOM     16  H10 UNL     1      15.185   8.448 -16.726  1.00  0.00     0.213 HD
BRANCH  12  17
HETATM   17  N1  UNL     1      13.195  10.186 -17.237  1.00  0.00    -0.233 N 
ATOM     18  H12 UNL     1      13.435  10.889 -16.539  1.00  0.00     0.174 HD
ATOM     19  H11 UNL     1      12.972  10.670 -18.107  1.00  0.00     0.174 HD
ENDBRANCH  12  17
ENDBRANCH   8  10
ENDBRANCH   1   7
BRANCH   5  20
HETATM   20  O1  UNL     1       7.880   2.849 -15.451  1.00  0.00    -0.135 OA
BRANCH  20  21
HETATM   21  S1  UNL     1       7.333   2.587 -13.854  1.00  0.00     0.379 S 
HETATM   22  O2  UNL     1       6.283   1.543 -13.879  1.00  0.00    -0.177 OA
HETATM   23  O3  UNL     1       8.482   2.076 -13.037  1.00  0.00    -0.177 OA
BRANCH  21  24
HETATM   24  N7  UNL     1       6.754   4.103 -13.264  1.00  0.00    -0.081 NA
HETATM   25  C5  UNL     1       5.366   3.967 -12.963  1.00  0.00     0.145 C 
HETATM   26  C6  UNL     1       5.113   3.603 -11.506  1.00  0.00     0.122 C 
HETATM   27  C7  UNL     1       5.707   4.728 -10.701  1.00  0.00     0.238 C 
HETATM   28  O4  UNL     1       5.235   5.092  -9.605  1.00  0.00    -0.272 OA
HETATM   29  N8  UNL     1       6.856   5.344 -11.301  1.00  0.00    -0.259 N 
HETATM   30  N9  UNL     1       7.530   4.631 -12.265  1.00  0.00    -0.244 N 
ATOM     31  H8  UNL     1       7.162   6.277 -11.022  1.00  0.00     0.191 HD
ATOM     32  H9  UNL     1       8.541   4.504 -12.239  1.00  0.00     0.203 HD
ENDBRANCH  21  24
ENDBRANCH  20  21
ENDBRANCH   5  20
TORSDOF 6
ENDMDL
MODEL 4
REMARK VINA RESULT: -8.632302034      2.109      2.377
REMARK  6 active torsions:
REMARK  status: ('A' for Active; 'I' for Inactive)
REMARK    1  A    between atoms: N1_1  and  C1_4 
REMARK    2  A    between atoms: C2_7  and  C3_8 
REMARK    3  A    between atoms: N3_9  and  N4_11 
REMARK       I    between atoms: N4_11  and  C4_13 
REMARK    4  A    between atoms: N6_15  and  O1_17 
REMARK    5  A    between atoms: O1_17  and  S1_18 
REMARK    6  A    between atoms: S1_18  and  N7_21 
ROOT
HETATM    1  N4  UNL     1       7.853   5.430 -14.662  1.00  0.00    -0.272 N 
ATOM      2  H4  UNL     1       8.106   6.388 -14.909  1.00  0.00     0.189 HD
HETATM    3  C4  UNL     1       8.368   4.360 -15.409  1.00  0.00     0.228 C 
HETATM    4  N5  UNL     1       7.692   3.120 -15.394  1.00  0.00    -0.060 NA
HETATM    5  N6  UNL     1       9.427   4.481 -16.098  1.00  0.00    -0.218 N 
ATOM      6  H6  UNL     1       9.781   3.688 -16.633  1.00  0.00     0.198 HD
ENDROOT
BRANCH   1   7
HETATM    7  N3  UNL     1       7.006   5.197 -13.594  1.00  0.00    -0.305 N 
HETATM    8  C3  UNL     1       7.303   5.660 -12.434  1.00  0.00     0.166 C 
ATOM      9  H3  UNL     1       6.149   4.659 -13.727  1.00  0.00     0.186 HD
BRANCH   8  10
HETATM   10  C2  UNL     1       6.406   5.411 -11.310  1.00  0.00     0.202 A 
HETATM   11  N2  UNL     1       5.640   4.309 -11.122  1.00  0.00    -0.166 N 
HETATM   12  C1  UNL     1       4.978   4.489  -9.974  1.00  0.00     0.698 A 
ATOM     13  H2  UNL     1       5.580   3.498 -11.738  1.00  0.00     0.186 HD
HETATM   14  N10 UNL     1       5.332   5.669  -9.478  1.00  0.00    -0.089 N 
HETATM   15  O5  UNL     1       6.178   6.197 -10.285  1.00  0.00    -0.203 OA
ATOM     16  H10 UNL     1       4.991   6.082  -8.611  1.00  0.00     0.213 HD
BRANCH  12  17
HETATM   17  N1  UNL     1       4.159   3.669  -9.461  1.00  0.00    -0.233 N 
ATOM     18  H12 UNL     1       4.100   2.668  -9.651  1.00  0.00     0.174 HD
ATOM     19  H11 UNL     1       3.437   3.902  -8.779  1.00  0.00     0.174 HD
ENDBRANCH  12  17
ENDBRANCH   8  10
ENDBRANCH   1   7
BRANCH   5  20
HETATM   20  O1  UNL     1      10.090   5.669 -16.121  1.00  0.00    -0.135 OA
BRANCH  20  21
HETATM   21  S1  UNL     1       9.659   6.892 -17.233  1.00  0.00     0.379 S 
HETATM   22  O2  UNL     1       8.822   6.291 -18.297  1.00  0.00    -0.177 OA
HETATM   23  O3  UNL     1       8.835   7.918 -16.514  1.00  0.00    -0.177 OA
BRANCH  21  24
HETATM   24  N7  UNL     1      11.130   7.563 -17.840  1.00  0.00    -0.081 NA
HETATM   25  C5  UNL     1      10.982   8.980 -17.908  1.00  0.00     0.145 C 
HETATM   26  C6  UNL     1      11.485   9.686 -16.655  1.00  0.00     0.122 C 
HETATM   27  C7  UNL     1      12.942   9.324 -16.548  1.00  0.00     0.238 C 
HETATM   28  O4  UNL     1      13.792  10.096 -16.059  1.00  0.00    -0.272 OA
HETATM   29  N8  UNL     1      13.270   8.022 -17.055  1.00  0.00    -0.259 N 
HETATM   30  N9  UNL     1      12.245   7.112 -17.182  1.00  0.00    -0.244 N 
ATOM     31  H8  UNL     1      14.227   7.780 -17.311  1.00  0.00     0.191 HD
ATOM     32  H9  UNL     1      12.312   6.164 -16.812  1.00  0.00     0.203 HD
ENDBRANCH  21  24
ENDBRANCH  20  21
ENDBRANCH   5  20
TORSDOF 6
ENDMDL
MODEL 5
REMARK VINA RESULT: -8.568261043      0.859      1.126
REMARK  6 active torsions:
REMARK  status: ('A' for Active; 'I' for Inactive)
REMARK    1  A    between atoms: N1_1  and  C1_4 
REMARK    2  A    between atoms: C2_7  and  C3_8 
REMARK    3  A    between atoms: N3_9  and  N4_11 
REMARK       I    between atoms: N4_11  and  C4_13 
REMARK    4  A    between atoms: N6_15  and  O1_17 
REMARK    5  A    between atoms: O1_17  and  S1_18 
REMARK    6  A    between atoms: S1_18  and  N7_21 
ROOT
HETATM    1  N4  UNL     1       7.500   6.157 -16.165  1.00  0.00    -0.272 N 
ATOM      2  H4  UNL     1       7.263   7.122 -15.933  1.00  0.00     0.189 HD
HETATM    3  C4  UNL     1       8.401   5.893 -17.207  1.00  0.00     0.228 C 
HETATM    4  N5  UNL     1       8.379   4.627 -17.834  1.00  0.00    -0.060 NA
HETATM    5  N6  UNL     1       9.235   6.765 -17.600  1.00  0.00    -0.218 N 
ATOM      6  H6  UNL     1       9.880   6.549 -18.360  1.00  0.00     0.198 HD
ENDROOT
BRANCH   1   7
HETATM    7  N3  UNL     1       6.931   5.119 -15.450  1.00  0.00    -0.305 N 
HETATM    8  C3  UNL     1       7.400   4.810 -14.295  1.00  0.00     0.166 C 
ATOM      9  H3  UNL     1       6.142   4.601 -15.838  1.00  0.00     0.186 HD
BRANCH   8  10
HETATM   10  C2  UNL     1       6.796   3.713 -13.545  1.00  0.00     0.202 A 
HETATM   11  N2  UNL     1       7.147   2.405 -13.610  1.00  0.00    -0.166 N 
HETATM   12  C1  UNL     1       6.346   1.748 -12.765  1.00  0.00     0.698 A 
ATOM     13  H2  UNL     1       7.880   2.001 -14.192  1.00  0.00     0.186 HD
HETATM   14  N10 UNL     1       5.529   2.631 -12.203  1.00  0.00    -0.089 N 
HETATM   15  O5  UNL     1       5.814   3.788 -12.678  1.00  0.00    -0.203 OA
ATOM     16  H10 UNL     1       4.805   2.427 -11.515  1.00  0.00     0.213 HD
BRANCH  12  17
HETATM   17  N1  UNL     1       6.371   0.498 -12.550  1.00  0.00    -0.233 N 
ATOM     18  H12 UNL     1       6.087  -0.236 -13.198  1.00  0.00     0.174 HD
ATOM     19  H11 UNL     1       6.685   0.053 -11.687  1.00  0.00     0.174 HD
ENDBRANCH  12  17
ENDBRANCH   8  10
ENDBRANCH   1   7
BRANCH   5  20
HETATM   20  O1  UNL     1       9.268   7.988 -17.005  1.00  0.00    -0.135 OA
BRANCH  20  21
HETATM   21  S1  UNL     1       9.994   9.324 -17.785  1.00  0.00     0.379 S 
HETATM   22  O2  UNL     1       9.290   9.563 -19.066  1.00  0.00    -0.177 OA
HETATM   23  O3  UNL     1       9.813  10.535 -16.918  1.00  0.00    -0.177 OA
BRANCH  21  24
HETATM   24  N7  UNL     1      11.662   8.936 -18.002  1.00  0.00    -0.081 NA
HETATM   25  C5  UNL     1      12.444  10.016 -17.494  1.00  0.00     0.145 C 
HETATM   26  C6  UNL     1      12.857   9.813 -16.042  1.00  0.00     0.122 C 
HETATM   27  C7  UNL     1      13.664   8.542 -16.029  1.00  0.00     0.238 C 
HETATM   28  O4  UNL     1      14.606   8.352 -15.231  1.00  0.00    -0.272 OA
HETATM   29  N8  UNL     1      13.261   7.572 -17.006  1.00  0.00    -0.259 N 
HETATM   30  N9  UNL     1      11.997   7.690 -17.537  1.00  0.00    -0.244 N 
ATOM     31  H8  UNL     1      13.888   6.822 -17.297  1.00  0.00     0.191 HD
ATOM     32  H9  UNL     1      11.350   6.903 -17.581  1.00  0.00     0.203 HD
ENDBRANCH  21  24
ENDBRANCH  20  21
ENDBRANCH   5  20
TORSDOF 6
ENDMDL
