MODEL 1
REMARK VINA RESULT: -8.710560693      0.000      0.000
REMARK  6 active torsions:
REMARK  status: ('A' for Active; 'I' for Inactive)
REMARK    1  A    between atoms: C2_5  and  N2_6 
REMARK    2  A    between atoms: N2_6  and  N3_8 
REMARK    3  A    between atoms: N3_8  and  C3_9 
REMARK    4  A    between atoms: C5_11  and  O2_12 
REMARK    5  A    between atoms: O2_12  and  S1_13 
REMARK    6  A    between atoms: C6_19  and  N5_20 
ROOT
HETATM    1  O1  UNL     1       4.064   2.481 -11.445  1.00  0.00    -0.247 OA
HETATM    2  C1  UNL     1       4.944   3.337 -11.736  1.00  0.00     0.328 A 
HETATM    3  N1  UNL     1       5.484   3.352 -12.964  1.00  0.00    -0.291 N 
ATOM      4  H1  UNL     1       5.176   2.667 -13.653  1.00  0.00     0.172 HD
HETATM    5  C2  UNL     1       6.424   4.252 -13.304  1.00  0.00     0.160 A 
HETATM    6  C6  UNL     1       6.803   5.162 -12.316  1.00  0.00     0.215 A 
HETATM    7  C7  UNL     1       6.239   5.135 -11.057  1.00  0.00     0.286 A 
HETATM    8  O9  UNL     1       6.577   5.957 -10.160  1.00  0.00    -0.265 OA
HETATM    9  N6  UNL     1       5.303   4.211 -10.774  1.00  0.00    -0.273 N 
ATOM     10  H6  UNL     1       4.873   4.173  -9.850  1.00  0.00     0.173 HD
ENDROOT
BRANCH   5  11
HETATM   11  N2  UNL     1       6.997   4.292 -14.592  1.00  0.00    -0.285 N 
ATOM     12  H2  UNL     1       6.860   5.153 -15.121  1.00  0.00     0.184 HD
BRANCH  11  13
HETATM   13  N3  UNL     1       7.719   3.303 -15.217  1.00  0.00    -0.105 NA
BRANCH  13  14
HETATM   14  C3  UNL     1       8.497   3.853 -16.312  1.00  0.00     0.264 C 
HETATM   15  C4  UNL     1       9.352   4.987 -15.843  1.00  0.00     0.106 C 
HETATM   16  C5  UNL     1       9.280   5.950 -16.988  1.00  0.00     0.269 C 
HETATM   17  N4  UNL     1       8.512   5.260 -17.977  1.00  0.00    -0.065 NA
HETATM   18  O6  UNL     1       7.724   4.389 -17.302  1.00  0.00    -0.260 OA
BRANCH  16  19
HETATM   19  O2  UNL     1       8.823   7.193 -16.659  1.00  0.00    -0.232 OA
BRANCH  19  20
HETATM   20  S1  UNL     1       9.620   8.502 -17.229  1.00  0.00     0.253 S 
HETATM   21  O3  UNL     1       9.122   8.978 -18.588  1.00  0.00    -0.572 OA
HETATM   22  O4  UNL     1       9.634   9.662 -16.253  1.00  0.00    -0.572 OA
HETATM   23  O5  UNL     1      11.233   8.082 -17.471  1.00  0.00    -0.572 OA
ENDBRANCH  19  20
ENDBRANCH  16  19
ENDBRANCH  13  14
ENDBRANCH  11  13
ENDBRANCH   5  11
BRANCH   6  24
HETATM   24  N5  UNL     1       7.776   6.116 -12.631  1.00  0.00    -0.106 N 
HETATM   25  O7  UNL     1       8.944   5.963 -12.258  1.00  0.00    -0.531 OA
HETATM   26  O8  UNL     1       7.439   7.221 -13.354  1.00  0.00    -0.531 OA
ENDBRANCH   6  24
TORSDOF 6
ENDMDL
MODEL 2
REMARK VINA RESULT: -8.412918244      2.219      2.927
REMARK  6 active torsions:
REMARK  status: ('A' for Active; 'I' for Inactive)
REMARK    1  A    between atoms: C2_5  and  N2_6 
REMARK    2  A    between atoms: N2_6  and  N3_8 
REMARK    3  A    between atoms: N3_8  and  C3_9 
REMARK    4  A    between atoms: C5_11  and  O2_12 
REMARK    5  A    between atoms: O2_12  and  S1_13 
REMARK    6  A    between atoms: C6_19  and  N5_20 
ROOT
HETATM    1  O1  UNL     1       6.351   0.747 -13.369  1.00  0.00    -0.247 OA
HETATM    2  C1  UNL     1       6.574   1.988 -13.420  1.00  0.00     0.328 A 
HETATM    3  N1  UNL     1       7.290   2.499 -14.433  1.00  0.00    -0.291 N 
ATOM      4  H1  UNL     1       7.648   1.875 -15.156  1.00  0.00     0.172 HD
HETATM    5  C2  UNL     1       7.546   3.817 -14.514  1.00  0.00     0.160 A 
HETATM    6  C6  UNL     1       7.028   4.616 -13.494  1.00  0.00     0.215 A 
HETATM    7  C7  UNL     1       6.293   4.077 -12.458  1.00  0.00     0.286 A 
HETATM    8  O9  UNL     1       5.821   4.797 -11.534  1.00  0.00    -0.265 OA
HETATM    9  N6  UNL     1       6.070   2.751 -12.429  1.00  0.00    -0.273 N 
ATOM     10  H6  UNL     1       5.529   2.331 -11.673  1.00  0.00     0.173 HD
ENDROOT
BRANCH   5  11
HETATM   11  N2  UNL     1       8.287   4.376 -15.576  1.00  0.00    -0.285 N 
ATOM     12  H2  UNL     1       7.809   4.444 -16.474  1.00  0.00     0.184 HD
BRANCH  11  13
HETATM   13  N3  UNL     1       9.581   4.840 -15.539  1.00  0.00    -0.105 NA
BRANCH  13  14
HETATM   14  C3  UNL     1       9.872   5.636 -16.718  1.00  0.00     0.264 C 
HETATM   15  C4  UNL     1      11.334   5.932 -16.814  1.00  0.00     0.106 C 
HETATM   16  C5  UNL     1      11.351   7.340 -17.325  1.00  0.00     0.269 C 
HETATM   17  N4  UNL     1       9.974   7.649 -17.546  1.00  0.00    -0.065 NA
HETATM   18  O6  UNL     1       9.270   6.861 -16.698  1.00  0.00    -0.260 OA
BRANCH  16  19
HETATM   19  O2  UNL     1      12.027   8.224 -16.535  1.00  0.00    -0.232 OA
BRANCH  19  20
HETATM   20  S1  UNL     1      13.662   8.211 -16.555  1.00  0.00     0.253 S 
HETATM   21  O3  UNL     1      14.292   8.275 -15.169  1.00  0.00    -0.572 OA
HETATM   22  O4  UNL     1      14.237   7.039 -17.326  1.00  0.00    -0.572 OA
HETATM   23  O5  UNL     1      14.198   9.595 -17.351  1.00  0.00    -0.572 OA
ENDBRANCH  19  20
ENDBRANCH  16  19
ENDBRANCH  13  14
ENDBRANCH  11  13
ENDBRANCH   5  11
BRANCH   6  24
HETATM   24  N5  UNL     1       7.270   5.993 -13.544  1.00  0.00    -0.106 N 
HETATM   25  O7  UNL     1       8.157   6.497 -12.848  1.00  0.00    -0.531 OA
HETATM   26  O8  UNL     1       6.525   6.787 -14.365  1.00  0.00    -0.531 OA
ENDBRANCH   6  24
TORSDOF 6
ENDMDL
MODEL 3
REMARK VINA RESULT: -8.230183104      3.144      6.836
REMARK  6 active torsions:
REMARK  status: ('A' for Active; 'I' for Inactive)
REMARK    1  A    between atoms: C2_5  and  N2_6 
REMARK    2  A    between atoms: N2_6  and  N3_8 
REMARK    3  A    between atoms: N3_8  and  C3_9 
REMARK    4  A    between atoms: C5_11  and  O2_12 
REMARK    5  A    between atoms: O2_12  and  S1_13 
REMARK    6  A    between atoms: C6_19  and  N5_20 
ROOT
HETATM    1  O1  UNL     1      12.690   9.597 -17.626  1.00  0.00    -0.247 OA
HETATM    2  C1  UNL     1      11.963   8.579 -17.456  1.00  0.00     0.328 A 
HETATM    3  N1  UNL     1      10.641   8.657 -17.667  1.00  0.00    -0.291 N 
ATOM      4  H1  UNL     1      10.234   9.544 -17.965  1.00  0.00     0.172 HD
HETATM    5  C2  UNL     1       9.840   7.590 -17.495  1.00  0.00     0.160 A 
HETATM    6  C6  UNL     1      10.458   6.407 -17.087  1.00  0.00     0.215 A 
HETATM    7  C7  UNL     1      11.820   6.341 -16.874  1.00  0.00     0.286 A 
HETATM    8  O9  UNL     1      12.383   5.272 -16.506  1.00  0.00    -0.265 OA
HETATM    9  N6  UNL     1      12.570   7.441 -17.063  1.00  0.00    -0.273 N 
ATOM     10  H6  UNL     1      13.579   7.416 -16.910  1.00  0.00     0.173 HD
ENDROOT
BRANCH   5  11
HETATM   11  N2  UNL     1       8.449   7.648 -17.721  1.00  0.00    -0.285 N 
ATOM     12  H2  UNL     1       8.054   6.902 -18.292  1.00  0.00     0.184 HD
BRANCH  11  13
HETATM   13  N3  UNL     1       7.566   8.595 -17.260  1.00  0.00    -0.105 NA
BRANCH  13  14
HETATM   14  C3  UNL     1       6.728   8.043 -16.209  1.00  0.00     0.264 C 
HETATM   15  C4  UNL     1       7.256   8.410 -14.859  1.00  0.00     0.106 C 
HETATM   16  C5  UNL     1       7.012   7.166 -14.062  1.00  0.00     0.269 C 
HETATM   17  N4  UNL     1       6.321   6.301 -14.966  1.00  0.00    -0.065 NA
HETATM   18  O6  UNL     1       6.698   6.679 -16.211  1.00  0.00    -0.260 OA
BRANCH  16  19
HETATM   19  O2  UNL     1       8.127   6.633 -13.483  1.00  0.00    -0.232 OA
BRANCH  19  20
HETATM   20  S1  UNL     1       7.951   5.407 -12.415  1.00  0.00     0.253 S 
HETATM   21  O3  UNL     1       6.830   5.629 -11.407  1.00  0.00    -0.572 OA
HETATM   22  O4  UNL     1       7.781   4.057 -13.082  1.00  0.00    -0.572 OA
HETATM   23  O5  UNL     1       9.358   5.294 -11.496  1.00  0.00    -0.572 OA
ENDBRANCH  19  20
ENDBRANCH  16  19
ENDBRANCH  13  14
ENDBRANCH  11  13
ENDBRANCH   5  11
BRANCH   6  24
HETATM   24  N5  UNL     1       9.660   5.274 -16.899  1.00  0.00    -0.106 N 
HETATM   25  O7  UNL     1       9.539   4.775 -15.774  1.00  0.00    -0.531 OA
HETATM   26  O8  UNL     1       9.009   4.714 -17.957  1.00  0.00    -0.531 OA
ENDBRANCH   6  24
TORSDOF 6
ENDMDL
MODEL 4
REMARK VINA RESULT: -8.209039279      3.305      7.154
REMARK  6 active torsions:
REMARK  status: ('A' for Active; 'I' for Inactive)
REMARK    1  A    between atoms: C2_5  and  N2_6 
REMARK    2  A    between atoms: N2_6  and  N3_8 
REMARK    3  A    between atoms: N3_8  and  C3_9 
REMARK    4  A    between atoms: C5_11  and  O2_12 
REMARK    5  A    between atoms: O2_12  and  S1_13 
REMARK    6  A    between atoms: C6_19  and  N5_20 
ROOT
HETATM    1  O1  UNL     1      11.191  11.512 -16.993  1.00  0.00    -0.247 OA
HETATM    2  C1  UNL     1      11.531  10.297 -17.020  1.00  0.00     0.328 A 
HETATM    3  N1  UNL     1      10.638   9.359 -17.370  1.00  0.00    -0.291 N 
ATOM      4  H1  UNL     1       9.687   9.640 -17.611  1.00  0.00     0.172 HD
HETATM    5  C2  UNL     1      10.970   8.057 -17.409  1.00  0.00     0.160 A 
HETATM    6  C6  UNL     1      12.285   7.738 -17.067  1.00  0.00     0.215 A 
HETATM    7  C7  UNL     1      13.193   8.713 -16.709  1.00  0.00     0.286 A 
HETATM    8  O9  UNL     1      14.385   8.430 -16.401  1.00  0.00    -0.265 OA
HETATM    9  N6  UNL     1      12.804  10.001 -16.689  1.00  0.00    -0.273 N 
ATOM     10  H6  UNL     1      13.458  10.738 -16.427  1.00  0.00     0.173 HD
ENDROOT
BRANCH   5  11
HETATM   11  N2  UNL     1      10.049   7.056 -17.783  1.00  0.00    -0.285 N 
ATOM     12  H2  UNL     1      10.447   6.166 -18.082  1.00  0.00     0.184 HD
BRANCH  11  13
HETATM   13  N3  UNL     1       8.677   7.142 -17.792  1.00  0.00    -0.105 NA
BRANCH  13  14
HETATM   14  C3  UNL     1       8.085   5.910 -17.303  1.00  0.00     0.264 C 
HETATM   15  C4  UNL     1       7.582   6.078 -15.905  1.00  0.00     0.106 C 
HETATM   16  C5  UNL     1       7.921   4.762 -15.274  1.00  0.00     0.269 C 
HETATM   17  N4  UNL     1       8.466   3.990 -16.346  1.00  0.00    -0.065 NA
HETATM   18  O6  UNL     1       8.978   4.880 -17.229  1.00  0.00    -0.260 OA
BRANCH  16  19
HETATM   19  O2  UNL     1       8.708   4.851 -14.162  1.00  0.00    -0.232 OA
BRANCH  19  20
HETATM   20  S1  UNL     1       8.066   5.468 -12.790  1.00  0.00     0.253 S 
HETATM   21  O3  UNL     1       7.735   6.952 -12.883  1.00  0.00    -0.572 OA
HETATM   22  O4  UNL     1       6.852   4.701 -12.304  1.00  0.00    -0.572 OA
HETATM   23  O5  UNL     1       9.213   5.345 -11.562  1.00  0.00    -0.572 OA
ENDBRANCH  19  20
ENDBRANCH  16  19
ENDBRANCH  13  14
ENDBRANCH  11  13
ENDBRANCH   5  11
BRANCH   6  24
HETATM   24  N5  UNL     1      12.670   6.394 -17.098  1.00  0.00    -0.106 N 
HETATM   25  O7  UNL     1      13.585   6.024 -17.841  1.00  0.00    -0.531 OA
HETATM   26  O8  UNL     1      12.037   5.484 -16.305  1.00  0.00    -0.531 OA
ENDBRANCH   6  24
TORSDOF 6
ENDMDL
MODEL 5
REMARK VINA RESULT: -8.084505475      2.612      4.459
REMARK  6 active torsions:
REMARK  status: ('A' for Active; 'I' for Inactive)
REMARK    1  A    between atoms: C2_5  and  N2_6 
REMARK    2  A    between atoms: N2_6  and  N3_8 
REMARK    3  A    between atoms: N3_8  and  C3_9 
REMARK    4  A    between atoms: C5_11  and  O2_12 
REMARK    5  A    between atoms: O2_12  and  S1_13 
REMARK    6  A    between atoms: C6_19  and  N5_20 
ROOT
HETATM    1  O1  UNL     1       7.923   3.290 -17.835  1.00  0.00    -0.247 OA
HETATM    2  C1  UNL     1       7.913   3.952 -16.760  1.00  0.00     0.328 A 
HETATM    3  N1  UNL     1       7.972   5.292 -16.799  1.00  0.00    -0.291 N 
ATOM      4  H1  UNL     1       8.024   5.764 -17.701  1.00  0.00     0.172 HD
HETATM    5  C2  UNL     1       7.963   6.025 -15.671  1.00  0.00     0.160 A 
HETATM    6  C6  UNL     1       7.890   5.319 -14.469  1.00  0.00     0.215 A 
HETATM    7  C7  UNL     1       7.830   3.941 -14.445  1.00  0.00     0.286 A 
HETATM    8  O9  UNL     1       7.762   3.298 -13.360  1.00  0.00    -0.265 OA
HETATM    9  N6  UNL     1       7.842   3.260 -15.605  1.00  0.00    -0.273 N 
ATOM     10  H6  UNL     1       7.799   2.241 -15.611  1.00  0.00     0.173 HD
ENDROOT
BRANCH   5  11
HETATM   11  N2  UNL     1       8.014   7.434 -15.689  1.00  0.00    -0.285 N 
ATOM     12  H2  UNL     1       8.336   7.885 -14.833  1.00  0.00     0.184 HD
BRANCH  11  13
HETATM   13  N3  UNL     1       7.678   8.270 -16.727  1.00  0.00    -0.105 NA
BRANCH  13  14
HETATM   14  C3  UNL     1       8.811   9.096 -17.105  1.00  0.00     0.264 C 
HETATM   15  C4  UNL     1       9.886   8.271 -17.737  1.00  0.00     0.106 C 
HETATM   16  C5  UNL     1      11.138   8.892 -17.198  1.00  0.00     0.269 C 
HETATM   17  N4  UNL     1      10.674  10.006 -16.433  1.00  0.00    -0.065 NA
HETATM   18  O6  UNL     1       9.417   9.693 -16.037  1.00  0.00    -0.260 OA
BRANCH  16  19
HETATM   19  O2  UNL     1      11.960   8.029 -16.533  1.00  0.00    -0.232 OA
BRANCH  19  20
HETATM   20  S1  UNL     1      13.578   8.221 -16.668  1.00  0.00     0.253 S 
HETATM   21  O3  UNL     1      14.283   7.036 -17.317  1.00  0.00    -0.572 OA
HETATM   22  O4  UNL     1      13.968   9.502 -17.378  1.00  0.00    -0.572 OA
HETATM   23  O5  UNL     1      14.233   8.333 -15.120  1.00  0.00    -0.572 OA
ENDBRANCH  19  20
ENDBRANCH  16  19
ENDBRANCH  13  14
ENDBRANCH  11  13
ENDBRANCH   5  11
BRANCH   6  24
HETATM   24  N5  UNL     1       7.876   6.046 -13.274  1.00  0.00    -0.106 N 
HETATM   25  O7  UNL     1       6.955   6.834 -13.034  1.00  0.00    -0.531 OA
HETATM   26  O8  UNL     1       8.880   5.886 -12.366  1.00  0.00    -0.531 OA
ENDBRANCH   6  24
TORSDOF 6
ENDMDL
