MODEL 1
REMARK VINA RESULT: -8.705032147      0.000      0.000
REMARK  12 active torsions:
REMARK  status: ('A' for Active; 'I' for Inactive)
REMARK    1  A    between atoms: C2_2  and  C9_23 
REMARK    2  A    between atoms: N1_3  and  O1_5 
REMARK    3  A    between atoms: O1_5  and  C3_6 
REMARK    4  A    between atoms: C3_6  and  C4_8 
REMARK    5  A    between atoms: C4_8  and  O3_9 
REMARK    6  A    between atoms: C4_8  and  C5_11 
REMARK    7  A    between atoms: C8_17  and  N3_18 
REMARK    8  A    between atoms: C9_23  and  O6_25 
REMARK    9  A    between atoms: O6_25  and  N5_26 
REMARK   10  A    between atoms: C10_28  and  C11_29 
REMARK   11  A    between atoms: C10_28  and  N6_31 
REMARK   12  A    between atoms: N6_31  and  N7_33 
ROOT
HETATM    1  O1  UNL     1       7.482   5.583 -17.343  1.00  0.00    -0.197 OA
ENDROOT
BRANCH   1   2
HETATM    2  N1  UNL     1       8.427   6.463 -17.794  1.00  0.00    -0.256 N 
HETATM    3  C2  UNL     1       8.517   7.623 -17.270  1.00  0.00     0.105 C 
HETATM    4  C1  UNL     1       7.636   8.096 -16.168  1.00  0.00     0.077 C 
ATOM      5  H1  UNL     1       9.059   6.192 -18.548  1.00  0.00     0.195 HD
BRANCH   3   6
HETATM    6  C9  UNL     1       9.549   8.551 -17.780  1.00  0.00     0.329 C 
HETATM    7  O5  UNL     1       9.242   9.492 -18.550  1.00  0.00    -0.256 OA
BRANCH   6   8
HETATM    8  O6  UNL     1      10.882   8.408 -17.426  1.00  0.00    -0.192 OA
BRANCH   8   9
HETATM    9  N5  UNL     1      11.387   7.145 -17.264  1.00  0.00    -0.237 N 
HETATM   10  C10 UNL     1      12.603   7.003 -16.921  1.00  0.00     0.178 C 
ATOM     11  H5  UNL     1      10.794   6.329 -17.416  1.00  0.00     0.197 HD
BRANCH  10  12
HETATM   12  C11 UNL     1      13.443   8.156 -16.704  1.00  0.00     0.310 C 
HETATM   13  O7  UNL     1      14.228   8.241 -15.731  1.00  0.00    -0.298 OA
ENDBRANCH  10  12
BRANCH  10  14
HETATM   14  N6  UNL     1      13.138   5.709 -16.751  1.00  0.00    -0.288 N 
ATOM     15  H6  UNL     1      12.594   5.024 -16.225  1.00  0.00     0.188 HD
BRANCH  14  16
HETATM   16  N7  UNL     1      14.386   5.318 -17.269  1.00  0.00    -0.343 N 
ATOM     17  H72 UNL     1      14.548   5.466 -18.266  1.00  0.00     0.176 HD
ATOM     18  H71 UNL     1      15.122   4.899 -16.700  1.00  0.00     0.176 HD
ENDBRANCH  14  16
ENDBRANCH  10  14
ENDBRANCH   8   9
ENDBRANCH   6   8
ENDBRANCH   3   6
ENDBRANCH   1   2
BRANCH   1  19
HETATM   19  C3  UNL     1       7.840   4.309 -16.950  1.00  0.00     0.315 C 
HETATM   20  O2  UNL     1       7.372   3.344 -17.605  1.00  0.00    -0.260 OA
BRANCH  19  21
HETATM   21  C4  UNL     1       8.745   4.031 -15.796  1.00  0.00     0.270 C 
BRANCH  21  22
HETATM   22  O3  UNL     1       9.748   4.989 -15.696  1.00  0.00    -0.379 OA
ATOM     23  H3  UNL     1      10.134   4.997 -14.828  1.00  0.00     0.211 HD
ENDBRANCH  21  22
BRANCH  21  24
HETATM   24  C5  UNL     1       7.912   4.022 -14.566  1.00  0.00     0.070 A 
HETATM   25  C6  UNL     1       7.748   5.161 -13.810  1.00  0.00     0.103 A 
HETATM   26  C7  UNL     1       6.966   5.115 -12.673  1.00  0.00     0.261 A 
HETATM   27  O4  UNL     1       6.784   6.137 -11.943  1.00  0.00    -0.268 OA
HETATM   28  N2  UNL     1       6.382   3.943 -12.337  1.00  0.00    -0.156 N 
HETATM   29  C8  UNL     1       6.532   2.824 -13.064  1.00  0.00     0.679 A 
ATOM     30  H2  UNL     1       5.804   3.906 -11.497  1.00  0.00     0.187 HD
HETATM   31  N4  UNL     1       7.298   2.897 -14.165  1.00  0.00    -0.192 N 
ATOM     32  H4  UNL     1       7.421   2.054 -14.726  1.00  0.00     0.184 HD
BRANCH  29  33
HETATM   33  N3  UNL     1       5.980   1.703 -12.750  1.00  0.00    -0.234 N 
ATOM     34  H32 UNL     1       5.840   1.471 -11.767  1.00  0.00     0.174 HD
ATOM     35  H31 UNL     1       5.669   1.022 -13.444  1.00  0.00     0.174 HD
ENDBRANCH  29  33
ENDBRANCH  21  24
ENDBRANCH  19  21
ENDBRANCH   1  19
TORSDOF 12
ENDMDL
MODEL 2
REMARK VINA RESULT: -8.650131026      1.214      1.340
REMARK  12 active torsions:
REMARK  status: ('A' for Active; 'I' for Inactive)
REMARK    1  A    between atoms: C2_2  and  C9_23 
REMARK    2  A    between atoms: N1_3  and  O1_5 
REMARK    3  A    between atoms: O1_5  and  C3_6 
REMARK    4  A    between atoms: C3_6  and  C4_8 
REMARK    5  A    between atoms: C4_8  and  O3_9 
REMARK    6  A    between atoms: C4_8  and  C5_11 
REMARK    7  A    between atoms: C8_17  and  N3_18 
REMARK    8  A    between atoms: C9_23  and  O6_25 
REMARK    9  A    between atoms: O6_25  and  N5_26 
REMARK   10  A    between atoms: C10_28  and  C11_29 
REMARK   11  A    between atoms: C10_28  and  N6_31 
REMARK   12  A    between atoms: N6_31  and  N7_33 
ROOT
HETATM    1  O1  UNL     1       7.534   5.607 -17.262  1.00  0.00    -0.197 OA
ENDROOT
BRANCH   1   2
HETATM    2  N1  UNL     1       8.540   6.516 -17.433  1.00  0.00    -0.256 N 
HETATM    3  C2  UNL     1       8.454   7.668 -16.889  1.00  0.00     0.105 C 
HETATM    4  C1  UNL     1       7.299   8.099 -16.058  1.00  0.00     0.077 C 
ATOM      5  H1  UNL     1       9.358   6.275 -17.993  1.00  0.00     0.195 HD
BRANCH   3   6
HETATM    6  C9  UNL     1       9.560   8.629 -17.094  1.00  0.00     0.329 C 
HETATM    7  O5  UNL     1       9.493   9.793 -16.631  1.00  0.00    -0.256 OA
BRANCH   6   8
HETATM    8  O6  UNL     1      10.699   8.274 -17.800  1.00  0.00    -0.192 OA
BRANCH   8   9
HETATM    9  N5  UNL     1      11.919   8.672 -17.321  1.00  0.00    -0.237 N 
HETATM   10  C10 UNL     1      12.795   7.792 -17.049  1.00  0.00     0.178 C 
ATOM     11  H5  UNL     1      12.122   9.663 -17.185  1.00  0.00     0.197 HD
BRANCH  10  12
HETATM   12  C11 UNL     1      12.511   6.390 -17.243  1.00  0.00     0.310 C 
HETATM   13  O7  UNL     1      12.614   5.550 -16.319  1.00  0.00    -0.298 OA
ENDBRANCH  10  12
BRANCH  10  14
HETATM   14  N6  UNL     1      14.057   8.185 -16.555  1.00  0.00    -0.288 N 
ATOM     15  H6  UNL     1      14.854   8.166 -17.192  1.00  0.00     0.188 HD
BRANCH  14  16
HETATM   16  N7  UNL     1      14.269   8.600 -15.228  1.00  0.00    -0.343 N 
ATOM     17  H72 UNL     1      13.548   9.180 -14.797  1.00  0.00     0.176 HD
ATOM     18  H71 UNL     1      15.098   8.349 -14.689  1.00  0.00     0.176 HD
ENDBRANCH  14  16
ENDBRANCH  10  14
ENDBRANCH   8   9
ENDBRANCH   6   8
ENDBRANCH   3   6
ENDBRANCH   1   2
BRANCH   1  19
HETATM   19  C3  UNL     1       7.821   4.292 -16.952  1.00  0.00     0.315 C 
HETATM   20  O2  UNL     1       7.324   3.399 -17.686  1.00  0.00    -0.260 OA
BRANCH  19  21
HETATM   21  C4  UNL     1       8.681   3.890 -15.801  1.00  0.00     0.270 C 
BRANCH  21  22
HETATM   22  O3  UNL     1       9.791   4.719 -15.684  1.00  0.00    -0.379 OA
ATOM     23  H3  UNL     1       9.918   5.002 -14.786  1.00  0.00     0.211 HD
ENDBRANCH  21  22
BRANCH  21  24
HETATM   24  C5  UNL     1       7.847   3.961 -14.573  1.00  0.00     0.070 A 
HETATM   25  C6  UNL     1       7.701   5.143 -13.881  1.00  0.00     0.103 A 
HETATM   26  C7  UNL     1       6.918   5.171 -12.744  1.00  0.00     0.261 A 
HETATM   27  O4  UNL     1       6.752   6.234 -12.071  1.00  0.00    -0.268 OA
HETATM   28  N2  UNL     1       6.316   4.028 -12.345  1.00  0.00    -0.156 N 
HETATM   29  C8  UNL     1       6.449   2.869 -13.009  1.00  0.00     0.679 A 
ATOM     30  H2  UNL     1       5.737   4.047 -11.505  1.00  0.00     0.187 HD
HETATM   31  N4  UNL     1       7.216   2.870 -14.112  1.00  0.00    -0.192 N 
ATOM     32  H4  UNL     1       7.325   1.995 -14.625  1.00  0.00     0.184 HD
BRANCH  29  33
HETATM   33  N3  UNL     1       5.878   1.775 -12.635  1.00  0.00    -0.234 N 
ATOM     34  H32 UNL     1       6.000   1.450 -11.676  1.00  0.00     0.174 HD
ATOM     35  H31 UNL     1       5.302   1.208 -13.257  1.00  0.00     0.174 HD
ENDBRANCH  29  33
ENDBRANCH  21  24
ENDBRANCH  19  21
ENDBRANCH   1  19
TORSDOF 12
ENDMDL
MODEL 3
REMARK VINA RESULT: -8.449366074      2.310      3.403
REMARK  12 active torsions:
REMARK  status: ('A' for Active; 'I' for Inactive)
REMARK    1  A    between atoms: C2_2  and  C9_23 
REMARK    2  A    between atoms: N1_3  and  O1_5 
REMARK    3  A    between atoms: O1_5  and  C3_6 
REMARK    4  A    between atoms: C3_6  and  C4_8 
REMARK    5  A    between atoms: C4_8  and  O3_9 
REMARK    6  A    between atoms: C4_8  and  C5_11 
REMARK    7  A    between atoms: C8_17  and  N3_18 
REMARK    8  A    between atoms: C9_23  and  O6_25 
REMARK    9  A    between atoms: O6_25  and  N5_26 
REMARK   10  A    between atoms: C10_28  and  C11_29 
REMARK   11  A    between atoms: C10_28  and  N6_31 
REMARK   12  A    between atoms: N6_31  and  N7_33 
ROOT
HETATM    1  O1  UNL     1       7.782   5.526 -15.693  1.00  0.00    -0.197 OA
ENDROOT
BRANCH   1   2
HETATM    2  N1  UNL     1       9.143   5.590 -15.800  1.00  0.00    -0.256 N 
HETATM    3  C2  UNL     1       9.675   6.098 -16.844  1.00  0.00     0.105 C 
HETATM    4  C1  UNL     1       8.890   6.640 -17.984  1.00  0.00     0.077 C 
ATOM      5  H1  UNL     1       9.733   5.233 -15.048  1.00  0.00     0.195 HD
BRANCH   3   6
HETATM    6  C9  UNL     1      11.151   6.152 -16.929  1.00  0.00     0.329 C 
HETATM    7  O5  UNL     1      11.861   5.337 -16.292  1.00  0.00    -0.256 OA
BRANCH   6   8
HETATM    8  O6  UNL     1      11.791   7.100 -17.711  1.00  0.00    -0.192 OA
BRANCH   8   9
HETATM    9  N5  UNL     1      11.645   8.424 -17.390  1.00  0.00    -0.237 N 
HETATM   10  C10 UNL     1      12.625   9.048 -16.873  1.00  0.00     0.178 C 
ATOM     11  H5  UNL     1      10.762   8.903 -17.564  1.00  0.00     0.197 HD
BRANCH  10  12
HETATM   12  C11 UNL     1      13.877   8.373 -16.627  1.00  0.00     0.310 C 
HETATM   13  O7  UNL     1      14.287   8.119 -15.471  1.00  0.00    -0.298 OA
ENDBRANCH  10  12
BRANCH  10  14
HETATM   14  N6  UNL     1      12.491  10.411 -16.536  1.00  0.00    -0.288 N 
ATOM     15  H6  UNL     1      13.006  10.764 -15.729  1.00  0.00     0.188 HD
BRANCH  14  16
HETATM   16  N7  UNL     1      11.683  11.307 -17.260  1.00  0.00    -0.343 N 
ATOM     17  H72 UNL     1      11.574  11.138 -18.260  1.00  0.00     0.176 HD
ATOM     18  H71 UNL     1      11.209  12.103 -16.831  1.00  0.00     0.176 HD
ENDBRANCH  14  16
ENDBRANCH  10  14
ENDBRANCH   8   9
ENDBRANCH   6   8
ENDBRANCH   3   6
ENDBRANCH   1   2
BRANCH   1  19
HETATM   19  C3  UNL     1       7.182   5.359 -14.461  1.00  0.00     0.315 C 
HETATM   20  O2  UNL     1       6.229   6.125 -14.168  1.00  0.00    -0.260 OA
BRANCH  19  21
HETATM   21  C4  UNL     1       7.609   4.324 -13.474  1.00  0.00     0.270 C 
BRANCH  21  22
HETATM   22  O3  UNL     1       8.872   4.601 -12.963  1.00  0.00    -0.379 OA
ATOM     23  H3  UNL     1       9.002   4.189 -12.117  1.00  0.00     0.211 HD
ENDBRANCH  21  22
BRANCH  21  24
HETATM   24  C5  UNL     1       6.601   4.304 -12.383  1.00  0.00     0.070 A 
HETATM   25  C6  UNL     1       5.624   3.334 -12.335  1.00  0.00     0.103 A 
HETATM   26  C7  UNL     1       4.704   3.347 -11.306  1.00  0.00     0.261 A 
HETATM   27  O4  UNL     1       3.785   2.476 -11.217  1.00  0.00    -0.268 OA
HETATM   28  N2  UNL     1       4.794   4.319 -10.370  1.00  0.00    -0.156 N 
HETATM   29  C8  UNL     1       5.740   5.270 -10.403  1.00  0.00     0.679 A 
ATOM     30  H2  UNL     1       4.115   4.331  -9.609  1.00  0.00     0.187 HD
HETATM   31  N4  UNL     1       6.622   5.235 -11.415  1.00  0.00    -0.192 N 
ATOM     32  H4  UNL     1       7.346   5.952 -11.452  1.00  0.00     0.184 HD
BRANCH  29  33
HETATM   33  N3  UNL     1       5.832   6.201  -9.515  1.00  0.00    -0.234 N 
ATOM     34  H32 UNL     1       6.351   6.023  -8.655  1.00  0.00     0.174 HD
ATOM     35  H31 UNL     1       5.408   7.122  -9.629  1.00  0.00     0.174 HD
ENDBRANCH  29  33
ENDBRANCH  21  24
ENDBRANCH  19  21
ENDBRANCH   1  19
TORSDOF 12
ENDMDL
MODEL 4
REMARK VINA RESULT: -8.400051624      1.213      1.654
REMARK  12 active torsions:
REMARK  status: ('A' for Active; 'I' for Inactive)
REMARK    1  A    between atoms: C2_2  and  C9_23 
REMARK    2  A    between atoms: N1_3  and  O1_5 
REMARK    3  A    between atoms: O1_5  and  C3_6 
REMARK    4  A    between atoms: C3_6  and  C4_8 
REMARK    5  A    between atoms: C4_8  and  O3_9 
REMARK    6  A    between atoms: C4_8  and  C5_11 
REMARK    7  A    between atoms: C8_17  and  N3_18 
REMARK    8  A    between atoms: C9_23  and  O6_25 
REMARK    9  A    between atoms: O6_25  and  N5_26 
REMARK   10  A    between atoms: C10_28  and  C11_29 
REMARK   11  A    between atoms: C10_28  and  N6_31 
REMARK   12  A    between atoms: N6_31  and  N7_33 
ROOT
HETATM    1  O1  UNL     1       7.600   5.664 -17.312  1.00  0.00    -0.197 OA
ENDROOT
BRANCH   1   2
HETATM    2  N1  UNL     1       8.569   6.537 -17.724  1.00  0.00    -0.256 N 
HETATM    3  C2  UNL     1       8.690   7.670 -17.148  1.00  0.00     0.105 C 
HETATM    4  C1  UNL     1       7.823   8.116 -16.025  1.00  0.00     0.077 C 
ATOM      5  H1  UNL     1       9.193   6.284 -18.490  1.00  0.00     0.195 HD
BRANCH   3   6
HETATM    6  C9  UNL     1       9.747   8.591 -17.618  1.00  0.00     0.329 C 
HETATM    7  O5  UNL     1       9.509   9.440 -18.509  1.00  0.00    -0.256 OA
BRANCH   6   8
HETATM    8  O6  UNL     1      11.028   8.543 -17.090  1.00  0.00    -0.192 OA
BRANCH   8   9
HETATM    9  N5  UNL     1      11.828   7.475 -17.402  1.00  0.00    -0.237 N 
HETATM   10  C10 UNL     1      13.040   7.474 -17.015  1.00  0.00     0.178 C 
ATOM     11  H5  UNL     1      11.456   6.691 -17.937  1.00  0.00     0.197 HD
BRANCH  10  12
HETATM   12  C11 UNL     1      13.568   8.582 -16.256  1.00  0.00     0.310 C 
HETATM   13  O7  UNL     1      14.295   8.420 -15.249  1.00  0.00    -0.298 OA
ENDBRANCH  10  12
BRANCH  10  14
HETATM   14  N6  UNL     1      13.876   6.382 -17.328  1.00  0.00    -0.288 N 
ATOM     15  H6  UNL     1      14.761   6.569 -17.801  1.00  0.00     0.188 HD
BRANCH  14  16
HETATM   16  N7  UNL     1      13.549   5.049 -17.020  1.00  0.00    -0.343 N 
ATOM     17  H72 UNL     1      12.559   4.805 -16.980  1.00  0.00     0.176 HD
ATOM     18  H71 UNL     1      14.250   4.330 -16.837  1.00  0.00     0.176 HD
ENDBRANCH  14  16
ENDBRANCH  10  14
ENDBRANCH   8   9
ENDBRANCH   6   8
ENDBRANCH   3   6
ENDBRANCH   1   2
BRANCH   1  19
HETATM   19  C3  UNL     1       7.913   4.348 -17.035  1.00  0.00     0.315 C 
HETATM   20  O2  UNL     1       7.480   3.469 -17.822  1.00  0.00    -0.260 OA
BRANCH  19  21
HETATM   21  C4  UNL     1       8.730   3.929 -15.859  1.00  0.00     0.270 C 
BRANCH  21  22
HETATM   22  O3  UNL     1       9.813   4.780 -15.665  1.00  0.00    -0.379 OA
ATOM     23  H3  UNL     1       9.844   5.458 -16.329  1.00  0.00     0.211 HD
ENDBRANCH  21  22
BRANCH  21  24
HETATM   24  C5  UNL     1       7.840   3.943 -14.669  1.00  0.00     0.070 A 
HETATM   25  C6  UNL     1       7.215   2.794 -14.236  1.00  0.00     0.103 A 
HETATM   26  C7  UNL     1       6.396   2.845 -13.126  1.00  0.00     0.261 A 
HETATM   27  O4  UNL     1       5.797   1.815 -12.687  1.00  0.00    -0.268 OA
HETATM   28  N2  UNL     1       6.232   4.030 -12.495  1.00  0.00    -0.156 N 
HETATM   29  C8  UNL     1       6.835   5.157 -12.905  1.00  0.00     0.679 A 
ATOM     30  H2  UNL     1       5.627   4.070 -11.676  1.00  0.00     0.187 HD
HETATM   31  N4  UNL     1       7.627   5.080 -13.988  1.00  0.00    -0.192 N 
ATOM     32  H4  UNL     1       8.090   5.930 -14.310  1.00  0.00     0.184 HD
BRANCH  29  33
HETATM   33  N3  UNL     1       6.684   6.291 -12.311  1.00  0.00    -0.234 N 
ATOM     34  H32 UNL     1       7.480   6.718 -11.838  1.00  0.00     0.174 HD
ATOM     35  H31 UNL     1       5.796   6.793 -12.287  1.00  0.00     0.174 HD
ENDBRANCH  29  33
ENDBRANCH  21  24
ENDBRANCH  19  21
ENDBRANCH   1  19
TORSDOF 12
ENDMDL
MODEL 5
REMARK VINA RESULT: -8.359087065      1.639      2.109
REMARK  12 active torsions:
REMARK  status: ('A' for Active; 'I' for Inactive)
REMARK    1  A    between atoms: C2_2  and  C9_23 
REMARK    2  A    between atoms: N1_3  and  O1_5 
REMARK    3  A    between atoms: O1_5  and  C3_6 
REMARK    4  A    between atoms: C3_6  and  C4_8 
REMARK    5  A    between atoms: C4_8  and  O3_9 
REMARK    6  A    between atoms: C4_8  and  C5_11 
REMARK    7  A    between atoms: C8_17  and  N3_18 
REMARK    8  A    between atoms: C9_23  and  O6_25 
REMARK    9  A    between atoms: O6_25  and  N5_26 
REMARK   10  A    between atoms: C10_28  and  C11_29 
REMARK   11  A    between atoms: C10_28  and  N6_31 
REMARK   12  A    between atoms: N6_31  and  N7_33 
ROOT
HETATM    1  O1  UNL     1       7.478   5.487 -17.149  1.00  0.00    -0.197 OA
ENDROOT
BRANCH   1   2
HETATM    2  N1  UNL     1       8.442   6.420 -17.408  1.00  0.00    -0.256 N 
HETATM    3  C2  UNL     1       8.414   7.547 -16.808  1.00  0.00     0.105 C 
HETATM    4  C1  UNL     1       7.371   7.922 -15.817  1.00  0.00     0.077 C 
ATOM      5  H1  UNL     1       9.183   6.217 -18.080  1.00  0.00     0.195 HD
BRANCH   3   6
HETATM    6  C9  UNL     1       9.471   8.535 -17.111  1.00  0.00     0.329 C 
HETATM    7  O5  UNL     1       9.370   9.723 -16.723  1.00  0.00    -0.256 OA
BRANCH   6   8
HETATM    8  O6  UNL     1      10.602   8.179 -17.830  1.00  0.00    -0.192 OA
BRANCH   8   9
HETATM    9  N5  UNL     1      11.831   8.536 -17.339  1.00  0.00    -0.237 N 
HETATM   10  C10 UNL     1      12.682   7.627 -17.080  1.00  0.00     0.178 C 
ATOM     11  H5  UNL     1      12.060   9.518 -17.184  1.00  0.00     0.197 HD
BRANCH  10  12
HETATM   12  C11 UNL     1      12.362   6.237 -17.300  1.00  0.00     0.310 C 
HETATM   13  O7  UNL     1      12.247   5.418 -16.359  1.00  0.00    -0.298 OA
ENDBRANCH  10  12
BRANCH  10  14
HETATM   14  N6  UNL     1      13.952   7.977 -16.575  1.00  0.00    -0.288 N 
ATOM     15  H6  UNL     1      14.779   7.582 -17.023  1.00  0.00     0.188 HD
BRANCH  14  16
HETATM   16  N7  UNL     1      14.133   8.845 -15.482  1.00  0.00    -0.343 N 
ATOM     17  H72 UNL     1      14.180   9.845 -15.679  1.00  0.00     0.176 HD
ATOM     18  H71 UNL     1      14.217   8.519 -14.519  1.00  0.00     0.176 HD
ENDBRANCH  14  16
ENDBRANCH  10  14
ENDBRANCH   8   9
ENDBRANCH   6   8
ENDBRANCH   3   6
ENDBRANCH   1   2
BRANCH   1  19
HETATM   19  C3  UNL     1       7.821   4.170 -16.910  1.00  0.00     0.315 C 
HETATM   20  O2  UNL     1       7.437   3.309 -17.742  1.00  0.00    -0.260 OA
BRANCH  19  21
HETATM   21  C4  UNL     1       8.615   3.732 -15.725  1.00  0.00     0.270 C 
BRANCH  21  22
HETATM   22  O3  UNL     1       9.742   4.526 -15.549  1.00  0.00    -0.379 OA
ATOM     23  H3  UNL     1      10.389   4.365 -16.225  1.00  0.00     0.211 HD
ENDBRANCH  21  22
BRANCH  21  24
HETATM   24  C5  UNL     1       7.728   3.818 -14.536  1.00  0.00     0.070 A 
HETATM   25  C6  UNL     1       7.047   2.713 -14.075  1.00  0.00     0.103 A 
HETATM   26  C7  UNL     1       6.232   2.831 -12.967  1.00  0.00     0.261 A 
HETATM   27  O4  UNL     1       5.585   1.843 -12.503  1.00  0.00    -0.268 OA
HETATM   28  N2  UNL     1       6.128   4.038 -12.366  1.00  0.00    -0.156 N 
HETATM   29  C8  UNL     1       6.785   5.124 -12.804  1.00  0.00     0.679 A 
ATOM     30  H2  UNL     1       5.526   4.128 -11.548  1.00  0.00     0.187 HD
HETATM   31  N4  UNL     1       7.571   4.981 -13.884  1.00  0.00    -0.192 N 
ATOM     32  H4  UNL     1       8.075   5.799 -14.227  1.00  0.00     0.184 HD
BRANCH  29  33
HETATM   33  N3  UNL     1       6.690   6.278 -12.238  1.00  0.00    -0.234 N 
ATOM     34  H32 UNL     1       7.241   7.058 -12.596  1.00  0.00     0.174 HD
ATOM     35  H31 UNL     1       6.083   6.457 -11.437  1.00  0.00     0.174 HD
ENDBRANCH  29  33
ENDBRANCH  21  24
ENDBRANCH  19  21
ENDBRANCH   1  19
TORSDOF 12
ENDMDL
