MODEL 1
REMARK VINA RESULT: -4.011018974      0.000      0.000
REMARK  1 active torsions:
REMARK  status: ('A' for Active; 'I' for Inactive)
REMARK    1  A    between atoms: C2_2  and  N1_3 
REMARK       I    between atoms: N2_6  and  C5_7 
REMARK       I    between atoms: N4_9  and  C6_11 
ROOT
HETATM    1  N1  UNL     1      44.687  27.038  39.504  1.00  0.00     0.107 N 
HETATM    2  C3  UNL     1      46.025  26.870  38.987  1.00  0.00     0.294 C 
HETATM    3  C4  UNL     1      46.337  25.448  39.390  1.00  0.00     0.157 C 
HETATM    4  N2  UNL     1      45.748  25.410  40.739  1.00  0.00    -0.328 N 
HETATM    5  C5  UNL     1      46.301  24.844  41.896  1.00  0.00     0.194 C 
HETATM    6  N3  UNL     1      46.664  23.479  41.894  1.00  0.00    -0.063 NA
HETATM    7  N4  UNL     1      46.487  25.524  42.952  1.00  0.00    -0.305 N 
ATOM      8  H4  UNL     1      46.895  25.010  43.733  1.00  0.00     0.171 HD
HETATM    9  C6  UNL     1      46.215  26.866  43.203  1.00  0.00     0.188 C 
HETATM   10  N5  UNL     1      46.739  27.855  42.579  1.00  0.00    -0.373 N 
ATOM     11  H51 UNL     1      46.540  28.838  42.763  1.00  0.00     0.158 HD
ATOM     12  H52 UNL     1      47.409  27.650  41.837  1.00  0.00     0.158 HD
HETATM   13  N6  UNL     1      45.269  27.156  44.252  1.00  0.00    -0.064 NA
HETATM   14  C7  UNL     1      44.465  26.098  40.550  1.00  0.00     0.400 C 
ENDROOT
BRANCH   1  15
HETATM   15  C2  UNL     1      43.692  26.931  38.481  1.00  0.00     0.270 C 
HETATM   16  C1  UNL     1      43.367  25.517  38.128  1.00  0.00     0.037 C 
ENDBRANCH   1  15
TORSDOF 1
ENDMDL
MODEL 2
REMARK VINA RESULT: -3.308350113      1.771      4.848
REMARK  1 active torsions:
REMARK  status: ('A' for Active; 'I' for Inactive)
REMARK    1  A    between atoms: C2_2  and  N1_3 
REMARK       I    between atoms: N2_6  and  C5_7 
REMARK       I    between atoms: N4_9  and  C6_11 
ROOT
HETATM    1  N1  UNL     1      45.844  26.429  42.777  1.00  0.00     0.107 N 
HETATM    2  C3  UNL     1      46.818  27.408  42.356  1.00  0.00     0.294 C 
HETATM    3  C4  UNL     1      45.944  28.458  41.711  1.00  0.00     0.157 C 
HETATM    4  N2  UNL     1      44.973  27.607  41.001  1.00  0.00    -0.328 N 
HETATM    5  C5  UNL     1      44.485  27.775  39.698  1.00  0.00     0.194 C 
HETATM    6  N3  UNL     1      43.851  28.988  39.347  1.00  0.00    -0.063 NA
HETATM    7  N4  UNL     1      44.595  26.866  38.819  1.00  0.00    -0.305 N 
ATOM      8  H4  UNL     1      44.204  27.096  37.905  1.00  0.00     0.171 HD
HETATM    9  C6  UNL     1      45.170  25.601  38.916  1.00  0.00     0.188 C 
HETATM   10  N5  UNL     1      46.401  25.368  39.186  1.00  0.00    -0.373 N 
ATOM     11  H51 UNL     1      46.822  24.442  39.258  1.00  0.00     0.158 HD
ATOM     12  H52 UNL     1      47.014  26.168  39.344  1.00  0.00     0.158 HD
HETATM   13  N6  UNL     1      44.302  24.471  38.693  1.00  0.00    -0.064 NA
HETATM   14  C7  UNL     1      44.662  26.575  41.996  1.00  0.00     0.400 C 
ENDROOT
BRANCH   1  15
HETATM   15  C2  UNL     1      45.562  26.511  44.178  1.00  0.00     0.270 C 
HETATM   16  C1  UNL     1      46.793  26.622  45.016  1.00  0.00     0.037 C 
ENDBRANCH   1  15
TORSDOF 1
ENDMDL
MODEL 3
REMARK VINA RESULT: -3.164596266      1.678      4.497
REMARK  1 active torsions:
REMARK  status: ('A' for Active; 'I' for Inactive)
REMARK    1  A    between atoms: C2_2  and  N1_3 
REMARK       I    between atoms: N2_6  and  C5_7 
REMARK       I    between atoms: N4_9  and  C6_11 
ROOT
HETATM    1  N1  UNL     1      45.282  26.685  41.920  1.00  0.00     0.107 N 
HETATM    2  C3  UNL     1      45.317  25.256  42.129  1.00  0.00     0.294 C 
HETATM    3  C4  UNL     1      46.384  24.825  41.152  1.00  0.00     0.157 C 
HETATM    4  N2  UNL     1      46.063  25.685  40.000  1.00  0.00    -0.328 N 
HETATM    5  C5  UNL     1      46.029  25.320  38.647  1.00  0.00     0.194 C 
HETATM    6  N3  UNL     1      47.180  24.758  38.051  1.00  0.00    -0.063 NA
HETATM    7  N4  UNL     1      44.989  25.479  37.935  1.00  0.00    -0.305 N 
ATOM      8  H4  UNL     1      45.077  25.178  36.965  1.00  0.00     0.171 HD
HETATM    9  C6  UNL     1      43.747  26.003  38.284  1.00  0.00     0.188 C 
HETATM   10  N5  UNL     1      42.960  25.514  39.169  1.00  0.00    -0.373 N 
ATOM     11  H51 UNL     1      42.051  25.898  39.424  1.00  0.00     0.158 HD
ATOM     12  H52 UNL     1      43.262  24.674  39.663  1.00  0.00     0.158 HD
HETATM   13  N6  UNL     1      43.321  27.191  37.585  1.00  0.00    -0.064 NA
HETATM   14  C7  UNL     1      45.803  26.984  40.629  1.00  0.00     0.400 C 
ENDROOT
BRANCH   1  15
HETATM   15  C2  UNL     1      45.977  27.402  42.946  1.00  0.00     0.270 C 
HETATM   16  C1  UNL     1      46.026  26.663  44.243  1.00  0.00     0.037 C 
ENDBRANCH   1  15
TORSDOF 1
ENDMDL
MODEL 4
REMARK VINA RESULT: -2.718993399      1.697      4.618
REMARK  1 active torsions:
REMARK  status: ('A' for Active; 'I' for Inactive)
REMARK    1  A    between atoms: C2_2  and  N1_3 
REMARK       I    between atoms: N2_6  and  C5_7 
REMARK       I    between atoms: N4_9  and  C6_11 
ROOT
HETATM    1  N1  UNL     1      46.819  26.227  42.786  1.00  0.00     0.107 N 
HETATM    2  C3  UNL     1      45.658  27.071  42.950  1.00  0.00     0.294 C 
HETATM    3  C4  UNL     1      44.529  26.080  42.791  1.00  0.00     0.157 C 
HETATM    4  N2  UNL     1      45.046  25.251  41.689  1.00  0.00    -0.328 N 
HETATM    5  C5  UNL     1      44.341  24.778  40.574  1.00  0.00     0.194 C 
HETATM    6  N3  UNL     1      43.181  23.995  40.770  1.00  0.00    -0.063 NA
HETATM    7  N4  UNL     1      44.713  25.033  39.387  1.00  0.00    -0.305 N 
ATOM      8  H4  UNL     1      44.124  24.638  38.653  1.00  0.00     0.171 HD
HETATM    9  C6  UNL     1      45.805  25.771  38.938  1.00  0.00     0.188 C 
HETATM   10  N5  UNL     1      46.004  27.015  39.174  1.00  0.00    -0.373 N 
ATOM     11  H51 UNL     1      46.803  27.555  38.846  1.00  0.00     0.158 HD
ATOM     12  H52 UNL     1      45.311  27.510  39.736  1.00  0.00     0.158 HD
HETATM   13  N6  UNL     1      46.784  25.070  38.143  1.00  0.00    -0.064 NA
HETATM   14  C7  UNL     1      46.452  25.057  42.062  1.00  0.00     0.400 C 
ENDROOT
BRANCH   1  15
HETATM   15  C2  UNL     1      47.435  25.900  44.036  1.00  0.00     0.270 C 
HETATM   16  C1  UNL     1      46.925  26.726  45.172  1.00  0.00     0.037 C 
ENDBRANCH   1  15
TORSDOF 1
ENDMDL
MODEL 5
REMARK VINA RESULT: -2.469150575      1.606      2.935
REMARK  1 active torsions:
REMARK  status: ('A' for Active; 'I' for Inactive)
REMARK    1  A    between atoms: C2_2  and  N1_3 
REMARK       I    between atoms: N2_6  and  C5_7 
REMARK       I    between atoms: N4_9  and  C6_11 
ROOT
HETATM    1  N1  UNL     1      45.942  25.385  39.443  1.00  0.00     0.107 N 
HETATM    2  C3  UNL     1      44.528  25.149  39.625  1.00  0.00     0.294 C 
HETATM    3  C4  UNL     1      43.989  26.557  39.715  1.00  0.00     0.157 C 
HETATM    4  N2  UNL     1      45.034  27.199  40.531  1.00  0.00    -0.328 N 
HETATM    5  C5  UNL     1      44.855  28.087  41.600  1.00  0.00     0.194 C 
HETATM    6  N3  UNL     1      44.123  29.278  41.396  1.00  0.00    -0.063 NA
HETATM    7  N4  UNL     1      45.333  27.854  42.753  1.00  0.00    -0.305 N 
ATOM      8  H4  UNL     1      45.142  28.568  43.455  1.00  0.00     0.171 HD
HETATM    9  C6  UNL     1      46.080  26.767  43.200  1.00  0.00     0.188 C 
HETATM   10  N5  UNL     1      45.679  25.550  43.216  1.00  0.00    -0.373 N 
ATOM     11  H51 UNL     1      46.225  24.755  43.544  1.00  0.00     0.158 HD
ATOM     12  H52 UNL     1      44.737  25.354  42.874  1.00  0.00     0.158 HD
HETATM   13  N6  UNL     1      47.411  27.044  43.684  1.00  0.00    -0.064 NA
HETATM   14  C7  UNL     1      46.271  26.679  39.938  1.00  0.00     0.400 C 
ENDROOT
BRANCH   1  15
HETATM   15  C2  UNL     1      46.349  25.223  38.081  1.00  0.00     0.270 C 
HETATM   16  C1  UNL     1      45.345  24.489  37.254  1.00  0.00     0.037 C 
ENDBRANCH   1  15
TORSDOF 1
ENDMDL
