MODEL 1
REMARK VINA RESULT: -7.206500589      0.000      0.000
REMARK  5 active torsions:
REMARK  status: ('A' for Active; 'I' for Inactive)
REMARK    1  A    between atoms: C4_5  and  C5_6 
REMARK    2  A    between atoms: N2_7  and  O1_9 
REMARK    3  A    between atoms: C6_11  and  N3_12 
REMARK    4  A    between atoms: N3_12  and  N4_13 
REMARK    5  A    between atoms: N3_12  and  O2_16 
ROOT
HETATM    1  C1  UNL     1      44.676  25.472  38.308  1.00  0.00     0.154 C 
HETATM    2  N1  UNL     1      45.086  25.605  39.701  1.00  0.00    -0.369 N 
HETATM    3  C2  UNL     1      45.423  24.514  40.386  1.00  0.00     0.091 A 
HETATM    4  C3  UNL     1      45.815  24.633  41.715  1.00  0.00     0.032 A 
HETATM    5  C4  UNL     1      45.844  25.886  42.288  1.00  0.00     0.009 A 
HETATM    6  C6  UNL     1      45.492  27.013  41.571  1.00  0.00     0.086 A 
HETATM    7  C7  UNL     1      45.113  26.822  40.257  1.00  0.00     0.118 A 
ENDROOT
BRANCH   6   8
HETATM    8  N3  UNL     1      45.545  28.256  42.218  1.00  0.00    -0.075 NA
BRANCH   8   9
HETATM    9  N4  UNL     1      44.603  29.171  41.741  1.00  0.00    -0.336 NA
ATOM     10  H42 UNL     1      43.744  28.637  41.607  1.00  0.00     0.173 HD
ATOM     11  H41 UNL     1      44.386  29.914  42.406  1.00  0.00     0.173 HD
ENDBRANCH   8   9
BRANCH   8  12
HETATM   12  O2  UNL     1      46.772  28.803  41.926  1.00  0.00    -0.289 OA
ATOM     13  H2  UNL     1      46.673  29.746  41.988  1.00  0.00     0.239 HD
ENDBRANCH   8  12
ENDBRANCH   6   8
BRANCH   5  14
HETATM   14  C5  UNL     1      46.252  26.023  43.677  1.00  0.00     0.127 C 
HETATM   15  N2  UNL     1      47.272  26.746  43.997  1.00  0.00    -0.280 N 
ATOM     16  H2  UNL     1      47.780  27.217  43.248  1.00  0.00     0.193 HD
BRANCH  15  17
HETATM   17  O1  UNL     1      47.709  26.917  45.274  1.00  0.00    -0.290 OA
ATOM     18  H1  UNL     1      48.593  26.720  45.562  1.00  0.00     0.244 HD
ENDBRANCH  15  17
ENDBRANCH   5  14
TORSDOF 5
ENDMDL
MODEL 2
REMARK VINA RESULT: -5.917029885      1.100      1.226
REMARK  5 active torsions:
REMARK  status: ('A' for Active; 'I' for Inactive)
REMARK    1  A    between atoms: C4_5  and  C5_6 
REMARK    2  A    between atoms: N2_7  and  O1_9 
REMARK    3  A    between atoms: C6_11  and  N3_12 
REMARK    4  A    between atoms: N3_12  and  N4_13 
REMARK    5  A    between atoms: N3_12  and  O2_16 
ROOT
HETATM    1  C1  UNL     1      44.000  25.543  37.975  1.00  0.00     0.154 C 
HETATM    2  N1  UNL     1      44.595  25.640  39.303  1.00  0.00    -0.369 N 
HETATM    3  C2  UNL     1      44.755  24.533  40.025  1.00  0.00     0.091 A 
HETATM    4  C3  UNL     1      45.322  24.618  41.292  1.00  0.00     0.032 A 
HETATM    5  C4  UNL     1      45.703  25.855  41.766  1.00  0.00     0.009 A 
HETATM    6  C6  UNL     1      45.534  26.999  41.011  1.00  0.00     0.086 A 
HETATM    7  C7  UNL     1      44.966  26.841  39.762  1.00  0.00     0.118 A 
ENDROOT
BRANCH   6   8
HETATM    8  N3  UNL     1      45.946  28.223  41.556  1.00  0.00    -0.075 NA
BRANCH   8   9
HETATM    9  N4  UNL     1      46.705  28.086  42.721  1.00  0.00    -0.336 NA
ATOM     10  H42 UNL     1      47.080  27.138  42.694  1.00  0.00     0.173 HD
ATOM     11  H41 UNL     1      47.505  28.718  42.761  1.00  0.00     0.173 HD
ENDBRANCH   8   9
BRANCH   8  12
HETATM   12  O2  UNL     1      44.806  28.892  41.935  1.00  0.00    -0.289 OA
ATOM     13  H2  UNL     1      44.719  28.775  42.874  1.00  0.00     0.239 HD
ENDBRANCH   8  12
ENDBRANCH   6   8
BRANCH   5  14
HETATM   14  C5  UNL     1      46.297  25.956  43.090  1.00  0.00     0.127 C 
HETATM   15  N2  UNL     1      47.390  25.331  43.372  1.00  0.00    -0.280 N 
ATOM     16  H2  UNL     1      47.823  24.767  42.642  1.00  0.00     0.193 HD
BRANCH  15  17
HETATM   17  O1  UNL     1      48.000  25.381  44.589  1.00  0.00    -0.290 OA
ATOM     18  H1  UNL     1      48.899  25.114  44.741  1.00  0.00     0.244 HD
ENDBRANCH  15  17
ENDBRANCH   5  14
TORSDOF 5
ENDMDL
MODEL 3
REMARK VINA RESULT: -5.271010119      2.998      4.962
REMARK  5 active torsions:
REMARK  status: ('A' for Active; 'I' for Inactive)
REMARK    1  A    between atoms: C4_5  and  C5_6 
REMARK    2  A    between atoms: N2_7  and  O1_9 
REMARK    3  A    between atoms: C6_11  and  N3_12 
REMARK    4  A    between atoms: N3_12  and  N4_13 
REMARK    5  A    between atoms: N3_12  and  O2_16 
ROOT
HETATM    1  C1  UNL     1      46.609  25.206  43.170  1.00  0.00     0.154 C 
HETATM    2  N1  UNL     1      46.035  26.008  42.096  1.00  0.00    -0.369 N 
HETATM    3  C2  UNL     1      45.531  27.207  42.380  1.00  0.00     0.091 A 
HETATM    4  C3  UNL     1      44.982  27.978  41.361  1.00  0.00     0.032 A 
HETATM    5  C4  UNL     1      44.975  27.473  40.078  1.00  0.00     0.009 A 
HETATM    6  C6  UNL     1      45.500  26.228  39.792  1.00  0.00     0.086 A 
HETATM    7  C7  UNL     1      46.029  25.518  40.851  1.00  0.00     0.118 A 
ENDROOT
BRANCH   6   8
HETATM    8  N3  UNL     1      45.460  25.778  38.464  1.00  0.00    -0.075 NA
BRANCH   8   9
HETATM    9  N4  UNL     1      44.428  24.870  38.216  1.00  0.00    -0.336 NA
ATOM     10  H42 UNL     1      43.702  25.084  38.900  1.00  0.00     0.173 HD
ATOM     11  H41 UNL     1      44.005  24.978  37.294  1.00  0.00     0.173 HD
ENDBRANCH   8   9
BRANCH   8  12
HETATM   12  O2  UNL     1      46.625  25.083  38.247  1.00  0.00    -0.289 OA
ATOM     13  H2  UNL     1      46.466  24.507  37.507  1.00  0.00     0.239 HD
ENDBRANCH   8  12
ENDBRANCH   6   8
BRANCH   5  14
HETATM   14  C5  UNL     1      44.403  28.270  39.004  1.00  0.00     0.127 C 
HETATM   15  N2  UNL     1      43.465  27.795  38.257  1.00  0.00    -0.280 N 
ATOM     16  H2  UNL     1      43.138  26.847  38.442  1.00  0.00     0.193 HD
BRANCH  15  17
HETATM   17  O1  UNL     1      42.886  28.484  37.236  1.00  0.00    -0.290 OA
ATOM     18  H1  UNL     1      42.666  29.408  37.278  1.00  0.00     0.244 HD
ENDBRANCH  15  17
ENDBRANCH   5  14
TORSDOF 5
ENDMDL
MODEL 4
REMARK VINA RESULT: -5.230364689      1.851      2.788
REMARK  5 active torsions:
REMARK  status: ('A' for Active; 'I' for Inactive)
REMARK    1  A    between atoms: C4_5  and  C5_6 
REMARK    2  A    between atoms: N2_7  and  O1_9 
REMARK    3  A    between atoms: C6_11  and  N3_12 
REMARK    4  A    between atoms: N3_12  and  N4_13 
REMARK    5  A    between atoms: N3_12  and  O2_16 
ROOT
HETATM    1  C1  UNL     1      44.521  25.324  38.341  1.00  0.00     0.154 C 
HETATM    2  N1  UNL     1      44.969  25.886  39.609  1.00  0.00    -0.369 N 
HETATM    3  C2  UNL     1      44.791  27.185  39.843  1.00  0.00     0.091 A 
HETATM    4  C3  UNL     1      45.216  27.728  41.051  1.00  0.00     0.032 A 
HETATM    5  C4  UNL     1      45.813  26.900  41.977  1.00  0.00     0.009 A 
HETATM    6  C6  UNL     1      45.993  25.554  41.727  1.00  0.00     0.086 A 
HETATM    7  C7  UNL     1      45.548  25.081  40.508  1.00  0.00     0.118 A 
ENDROOT
BRANCH   6   8
HETATM    8  N3  UNL     1      46.608  24.770  42.715  1.00  0.00    -0.075 NA
BRANCH   8   9
HETATM    9  N4  UNL     1      47.821  25.296  43.166  1.00  0.00    -0.336 NA
ATOM     10  H42 UNL     1      48.023  26.086  42.554  1.00  0.00     0.173 HD
ATOM     11  H41 UNL     1      47.775  25.664  44.116  1.00  0.00     0.173 HD
ENDBRANCH   8   9
BRANCH   8  12
HETATM   12  O2  UNL     1      46.921  23.567  42.128  1.00  0.00    -0.289 OA
ATOM     13  H2  UNL     1      47.868  23.540  42.049  1.00  0.00     0.239 HD
ENDBRANCH   8  12
ENDBRANCH   6   8
BRANCH   5  14
HETATM   14  C5  UNL     1      46.261  27.457  43.243  1.00  0.00     0.127 C 
HETATM   15  N2  UNL     1      45.791  27.016  44.361  1.00  0.00    -0.280 N 
ATOM     16  H2  UNL     1      45.098  26.268  44.329  1.00  0.00     0.193 HD
BRANCH  15  17
HETATM   17  O1  UNL     1      46.165  27.491  45.581  1.00  0.00    -0.290 OA
ATOM     18  H1  UNL     1      46.946  27.209  46.042  1.00  0.00     0.244 HD
ENDBRANCH  15  17
ENDBRANCH   5  14
TORSDOF 5
ENDMDL
MODEL 5
REMARK VINA RESULT: -5.178297465      2.241      4.171
REMARK  5 active torsions:
REMARK  status: ('A' for Active; 'I' for Inactive)
REMARK    1  A    between atoms: C4_5  and  C5_6 
REMARK    2  A    between atoms: N2_7  and  O1_9 
REMARK    3  A    between atoms: C6_11  and  N3_12 
REMARK    4  A    between atoms: N3_12  and  N4_13 
REMARK    5  A    between atoms: N3_12  and  O2_16 
ROOT
HETATM    1  C1  UNL     1      46.675  26.831  44.910  1.00  0.00     0.154 C 
HETATM    2  N1  UNL     1      46.350  26.391  43.558  1.00  0.00    -0.369 N 
HETATM    3  C2  UNL     1      46.684  25.159  43.178  1.00  0.00     0.091 A 
HETATM    4  C3  UNL     1      46.377  24.733  41.891  1.00  0.00     0.032 A 
HETATM    5  C4  UNL     1      45.731  25.604  41.040  1.00  0.00     0.009 A 
HETATM    6  C6  UNL     1      45.387  26.880  41.442  1.00  0.00     0.086 A 
HETATM    7  C7  UNL     1      45.722  27.237  42.733  1.00  0.00     0.118 A 
ENDROOT
BRANCH   6   8
HETATM    8  N3  UNL     1      44.730  27.712  40.524  1.00  0.00    -0.075 NA
BRANCH   8   9
HETATM    9  N4  UNL     1      45.485  27.982  39.380  1.00  0.00    -0.336 NA
ATOM     10  H42 UNL     1      44.838  27.893  38.597  1.00  0.00     0.173 HD
ATOM     11  H41 UNL     1      45.852  28.933  39.351  1.00  0.00     0.173 HD
ENDBRANCH   8   9
BRANCH   8  12
HETATM   12  O2  UNL     1      44.554  28.925  41.146  1.00  0.00    -0.289 OA
ATOM     13  H2  UNL     1      43.745  29.292  40.806  1.00  0.00     0.239 HD
ENDBRANCH   8  12
ENDBRANCH   6   8
BRANCH   5  14
HETATM   14  C5  UNL     1      45.404  25.169  39.691  1.00  0.00     0.127 C 
HETATM   15  N2  UNL     1      44.184  25.179  39.272  1.00  0.00    -0.280 N 
ATOM     16  H2  UNL     1      43.459  25.500  39.912  1.00  0.00     0.193 HD
BRANCH  15  17
HETATM   17  O1  UNL     1      43.808  24.785  38.024  1.00  0.00    -0.290 OA
ATOM     18  H1  UNL     1      42.946  24.942  37.657  1.00  0.00     0.244 HD
ENDBRANCH  15  17
ENDBRANCH   5  14
TORSDOF 5
ENDMDL
