MODEL 1
REMARK VINA RESULT: -4.579788994      0.000      0.000
REMARK  2 active torsions:
REMARK  status: ('A' for Active; 'I' for Inactive)
REMARK       I    between atoms: C2_4  and  N3_6 
REMARK    1  A    between atoms: C5_9  and  O1_11 
REMARK    2  A    between atoms: O1_11  and  N4_12 
ROOT
HETATM    1  C1  UNL     1      46.699  24.945  38.285  1.00  0.00     0.148 C 
HETATM    2  N1  UNL     1      45.424  25.592  38.031  1.00  0.00    -0.369 N 
ATOM      3  H1  UNL     1      45.061  25.593  37.078  1.00  0.00     0.161 HD
HETATM    4  C2  UNL     1      44.742  26.154  38.939  1.00  0.00     0.185 C 
HETATM    5  N2  UNL     1      43.501  26.756  38.563  1.00  0.00    -0.064 NA
HETATM    6  N3  UNL     1      45.128  26.225  40.309  1.00  0.00    -0.356 N 
HETATM    7  C3  UNL     1      45.195  27.514  40.984  1.00  0.00     0.128 C 
HETATM    8  C4  UNL     1      46.305  27.517  42.005  1.00  0.00     0.060 C 
HETATM    9  C5  UNL     1      46.185  26.403  43.010  1.00  0.00     0.087 C 
HETATM   10  C6  UNL     1      45.782  27.048  44.334  1.00  0.00     0.049 C 
HETATM   11  C7  UNL     1      45.152  25.414  42.546  1.00  0.00     0.060 C 
HETATM   12  C8  UNL     1      45.469  25.060  41.097  1.00  0.00     0.128 C 
ENDROOT
BRANCH   9  13
HETATM   13  O1  UNL     1      47.444  25.833  43.153  1.00  0.00    -0.276 OA
BRANCH  13  14
HETATM   14  N4  UNL     1      47.670  25.499  44.425  1.00  0.00    -0.310 N 
ATOM     15  H42 UNL     1      46.932  25.334  45.108  1.00  0.00     0.184 HD
ATOM     16  H41 UNL     1      48.671  25.434  44.609  1.00  0.00     0.184 HD
ENDBRANCH  13  14
ENDBRANCH   9  13
TORSDOF 2
ENDMDL
MODEL 2
REMARK VINA RESULT: -4.496856892      1.084      1.108
REMARK  2 active torsions:
REMARK  status: ('A' for Active; 'I' for Inactive)
REMARK       I    between atoms: C2_4  and  N3_6 
REMARK    1  A    between atoms: C5_9  and  O1_11 
REMARK    2  A    between atoms: O1_11  and  N4_12 
ROOT
HETATM    1  C1  UNL     1      46.174  25.185  38.833  1.00  0.00     0.148 C 
HETATM    2  N1  UNL     1      45.453  26.426  38.613  1.00  0.00    -0.369 N 
ATOM      3  H1  UNL     1      45.215  26.686  37.656  1.00  0.00     0.161 HD
HETATM    4  C2  UNL     1      45.106  27.200  39.554  1.00  0.00     0.185 C 
HETATM    5  N2  UNL     1      44.399  28.393  39.209  1.00  0.00    -0.064 NA
HETATM    6  N3  UNL     1      45.372  26.960  40.934  1.00  0.00    -0.356 N 
HETATM    7  C3  UNL     1      46.059  27.965  41.732  1.00  0.00     0.128 C 
HETATM    8  C4  UNL     1      46.927  27.307  42.775  1.00  0.00     0.060 C 
HETATM    9  C5  UNL     1      46.166  26.361  43.664  1.00  0.00     0.087 C 
HETATM   10  C6  UNL     1      46.069  27.027  45.034  1.00  0.00     0.049 C 
HETATM   11  C7  UNL     1      44.804  26.106  43.081  1.00  0.00     0.060 C 
HETATM   12  C8  UNL     1      44.991  25.740  41.612  1.00  0.00     0.128 C 
ENDROOT
BRANCH   9  13
HETATM   13  O1  UNL     1      46.921  25.200  43.781  1.00  0.00    -0.276 OA
BRANCH  13  14
HETATM   14  N4  UNL     1      48.178  25.411  43.382  1.00  0.00    -0.310 N 
ATOM     15  H42 UNL     1      48.494  25.293  42.420  1.00  0.00     0.184 HD
ATOM     16  H41 UNL     1      48.762  25.701  44.165  1.00  0.00     0.184 HD
ENDBRANCH  13  14
ENDBRANCH   9  13
TORSDOF 2
ENDMDL
MODEL 3
REMARK VINA RESULT: -3.665952006      1.613      2.469
REMARK  2 active torsions:
REMARK  status: ('A' for Active; 'I' for Inactive)
REMARK       I    between atoms: C2_4  and  N3_6 
REMARK    1  A    between atoms: C5_9  and  O1_11 
REMARK    2  A    between atoms: O1_11  and  N4_12 
ROOT
HETATM    1  C1  UNL     1      43.074  25.761  38.499  1.00  0.00     0.148 C 
HETATM    2  N1  UNL     1      44.302  25.319  37.862  1.00  0.00    -0.369 N 
ATOM      3  H1  UNL     1      44.257  24.987  36.898  1.00  0.00     0.161 HD
HETATM    4  C2  UNL     1      45.426  25.326  38.447  1.00  0.00     0.185 C 
HETATM    5  N2  UNL     1      46.562  24.865  37.713  1.00  0.00    -0.064 NA
HETATM    6  N3  UNL     1      45.633  25.763  39.788  1.00  0.00    -0.356 N 
HETATM    7  C3  UNL     1      46.286  24.887  40.751  1.00  0.00     0.128 C 
HETATM    8  C4  UNL     1      45.718  25.104  42.130  1.00  0.00     0.060 C 
HETATM    9  C5  UNL     1      45.801  26.537  42.584  1.00  0.00     0.087 C 
HETATM   10  C6  UNL     1      46.870  26.593  43.672  1.00  0.00     0.049 C 
HETATM   11  C7  UNL     1      46.159  27.415  41.418  1.00  0.00     0.060 C 
HETATM   12  C8  UNL     1      45.220  27.064  40.268  1.00  0.00     0.128 C 
ENDROOT
BRANCH   9  13
HETATM   13  O1  UNL     1      44.573  26.869  43.143  1.00  0.00    -0.276 OA
BRANCH  13  14
HETATM   14  N4  UNL     1      44.689  27.066  44.458  1.00  0.00    -0.310 N 
ATOM     15  H42 UNL     1      43.914  27.339  45.062  1.00  0.00     0.184 HD
ATOM     16  H41 UNL     1      45.649  26.905  44.765  1.00  0.00     0.184 HD
ENDBRANCH  13  14
ENDBRANCH   9  13
TORSDOF 2
ENDMDL
MODEL 4
REMARK VINA RESULT: -3.099148879      2.140      4.950
REMARK  2 active torsions:
REMARK  status: ('A' for Active; 'I' for Inactive)
REMARK       I    between atoms: C2_4  and  N3_6 
REMARK    1  A    between atoms: C5_9  and  O1_11 
REMARK    2  A    between atoms: O1_11  and  N4_12 
ROOT
HETATM    1  C1  UNL     1      43.754  26.858  43.975  1.00  0.00     0.148 C 
HETATM    2  N1  UNL     1      45.180  27.053  44.174  1.00  0.00    -0.369 N 
ATOM      3  H1  UNL     1      45.501  27.394  45.080  1.00  0.00     0.161 HD
HETATM    4  C2  UNL     1      46.041  26.819  43.275  1.00  0.00     0.185 C 
HETATM    5  N2  UNL     1      47.416  27.050  43.594  1.00  0.00    -0.064 NA
HETATM    6  N3  UNL     1      45.733  26.339  41.969  1.00  0.00    -0.356 N 
HETATM    7  C3  UNL     1      46.203  27.061  40.795  1.00  0.00     0.128 C 
HETATM    8  C4  UNL     1      45.201  26.951  39.673  1.00  0.00     0.060 C 
HETATM    9  C5  UNL     1      44.870  25.527  39.316  1.00  0.00     0.087 C 
HETATM   10  C6  UNL     1      45.515  25.252  37.960  1.00  0.00     0.049 C 
HETATM   11  C7  UNL     1      45.406  24.603  40.374  1.00  0.00     0.060 C 
HETATM   12  C8  UNL     1      44.956  25.142  41.729  1.00  0.00     0.128 C 
ENDROOT
BRANCH   9  13
HETATM   13  O1  UNL     1      43.490  25.441  39.183  1.00  0.00    -0.276 OA
BRANCH  13  14
HETATM   14  N4  UNL     1      43.136  25.462  37.896  1.00  0.00    -0.310 N 
ATOM     15  H42 UNL     1      43.760  25.203  37.132  1.00  0.00     0.184 HD
ATOM     16  H41 UNL     1      42.169  25.769  37.791  1.00  0.00     0.184 HD
ENDBRANCH  13  14
ENDBRANCH   9  13
TORSDOF 2
ENDMDL
MODEL 5
REMARK VINA RESULT: -2.886716759      1.665      2.577
REMARK  2 active torsions:
REMARK  status: ('A' for Active; 'I' for Inactive)
REMARK       I    between atoms: C2_4  and  N3_6 
REMARK    1  A    between atoms: C5_9  and  O1_11 
REMARK    2  A    between atoms: O1_11  and  N4_12 
ROOT
HETATM    1  C1  UNL     1      43.819  27.996  39.321  1.00  0.00     0.148 C 
HETATM    2  N1  UNL     1      44.694  27.083  38.606  1.00  0.00    -0.369 N 
ATOM      3  H1  UNL     1      44.570  26.981  37.599  1.00  0.00     0.161 HD
HETATM    4  C2  UNL     1      45.603  26.409  39.175  1.00  0.00     0.185 C 
HETATM    5  N2  UNL     1      46.399  25.544  38.362  1.00  0.00    -0.064 NA
HETATM    6  N3  UNL     1      45.885  26.455  40.572  1.00  0.00    -0.356 N 
HETATM    7  C3  UNL     1      45.905  25.228  41.356  1.00  0.00     0.128 C 
HETATM    8  C4  UNL     1      45.410  25.489  42.755  1.00  0.00     0.060 C 
HETATM    9  C5  UNL     1      46.179  26.574  43.460  1.00  0.00     0.087 C 
HETATM   10  C6  UNL     1      47.021  25.890  44.533  1.00  0.00     0.049 C 
HETATM   11  C7  UNL     1      47.041  27.306  42.470  1.00  0.00     0.060 C 
HETATM   12  C8  UNL     1      46.162  27.685  41.282  1.00  0.00     0.128 C 
ENDROOT
BRANCH   9  13
HETATM   13  O1  UNL     1      45.253  27.406  44.079  1.00  0.00    -0.276 OA
BRANCH  13  14
HETATM   14  N4  UNL     1      44.009  26.974  43.863  1.00  0.00    -0.310 N 
ATOM     15  H42 UNL     1      43.787  26.068  43.452  1.00  0.00     0.184 HD
ATOM     16  H41 UNL     1      43.327  27.669  44.164  1.00  0.00     0.184 HD
ENDBRANCH  13  14
ENDBRANCH   9  13
TORSDOF 2
ENDMDL
