MODEL 1
REMARK VINA RESULT: -5.032293950      0.000      0.000
REMARK  2 active torsions:
REMARK  status: ('A' for Active; 'I' for Inactive)
REMARK    1  A    between atoms: C3_3  and  C4_4 
REMARK    2  A    between atoms: C4_4  and  N1_5 
REMARK       I    between atoms: N1_5  and  C5_7 
REMARK       I    between atoms: C5_7  and  N2_8 
ROOT
HETATM    1  C1  UNL     1      58.973  26.326  40.748  1.00  0.00     0.112 C 
HETATM    2  C2  UNL     1      57.836  26.348  41.678  1.00  0.00    -0.109 C 
HETATM    3  C3  UNL     1      56.913  26.366  42.456  1.00  0.00    -0.087 C 
ENDROOT
BRANCH   3   4
HETATM    4  C4  UNL     1      55.817  26.400  43.413  1.00  0.00     0.232 C 
BRANCH   4   5
HETATM    5  N1  UNL     1      56.198  25.844  44.708  1.00  0.00    -0.215 N 
HETATM    6  C5  UNL     1      56.375  26.744  45.772  1.00  0.00     0.690 C 
HETATM    7  N2  UNL     1      55.257  27.229  46.468  1.00  0.00    -0.165 N 
HETATM    8  N5  UNL     1      57.539  27.125  46.110  1.00  0.00    -0.126 N 
HETATM    9  C6  UNL     1      54.888  26.809  47.622  1.00  0.00     0.215 C 
ATOM     10  H2  UNL     1      54.702  27.962  46.027  1.00  0.00     0.186 HD
HETATM   11  N3  UNL     1      53.744  27.380  48.217  1.00  0.00    -0.066 NA
HETATM   12  N4  UNL     1      55.654  25.792  48.234  1.00  0.00    -0.066 NA
HETATM   13  C7  UNL     1      57.749  28.028  47.175  1.00  0.00     0.196 C 
ATOM     14  H5  UNL     1      58.346  26.767  45.597  1.00  0.00     0.197 HD
HETATM   15  N6  UNL     1      57.912  28.782  48.037  1.00  0.00    -0.171 NA
ATOM     16  H1  UNL     1      56.331  24.841  44.834  1.00  0.00     0.178 HD
ENDBRANCH   4   5
ENDBRANCH   3   4
TORSDOF 2
ENDMDL
MODEL 2
REMARK VINA RESULT: -4.836695044      1.704      2.209
REMARK  2 active torsions:
REMARK  status: ('A' for Active; 'I' for Inactive)
REMARK    1  A    between atoms: C3_3  and  C4_4 
REMARK    2  A    between atoms: C4_4  and  N1_5 
REMARK       I    between atoms: N1_5  and  C5_7 
REMARK       I    between atoms: C5_7  and  N2_8 
ROOT
HETATM    1  C1  UNL     1      57.684  25.771  41.137  1.00  0.00     0.112 C 
HETATM    2  C2  UNL     1      58.232  26.498  42.291  1.00  0.00    -0.109 C 
HETATM    3  C3  UNL     1      58.677  27.112  43.229  1.00  0.00    -0.087 C 
ENDROOT
BRANCH   3   4
HETATM    4  C4  UNL     1      59.196  27.872  44.357  1.00  0.00     0.232 C 
BRANCH   4   5
HETATM    5  N1  UNL     1      58.701  27.369  45.635  1.00  0.00    -0.215 N 
HETATM    6  C5  UNL     1      57.470  27.867  46.093  1.00  0.00     0.690 C 
HETATM    7  N2  UNL     1      56.272  27.344  45.582  1.00  0.00    -0.165 N 
HETATM    8  N5  UNL     1      57.431  28.789  46.967  1.00  0.00    -0.126 N 
HETATM    9  C6  UNL     1      55.527  26.507  46.205  1.00  0.00     0.215 C 
ATOM     10  H2  UNL     1      55.975  27.650  44.656  1.00  0.00     0.186 HD
HETATM   11  N3  UNL     1      54.345  26.057  45.582  1.00  0.00    -0.066 NA
HETATM   12  N4  UNL     1      55.936  26.081  47.488  1.00  0.00    -0.066 NA
HETATM   13  C7  UNL     1      56.210  29.311  47.447  1.00  0.00     0.196 C 
ATOM     14  H5  UNL     1      58.307  29.164  47.331  1.00  0.00     0.197 HD
HETATM   15  N6  UNL     1      55.206  29.745  47.823  1.00  0.00    -0.171 NA
ATOM     16  H1  UNL     1      59.228  26.682  46.173  1.00  0.00     0.178 HD
ENDBRANCH   4   5
ENDBRANCH   3   4
TORSDOF 2
ENDMDL
MODEL 3
REMARK VINA RESULT: -4.395574980      1.037      2.638
REMARK  2 active torsions:
REMARK  status: ('A' for Active; 'I' for Inactive)
REMARK    1  A    between atoms: C3_3  and  C4_4 
REMARK    2  A    between atoms: C4_4  and  N1_5 
REMARK       I    between atoms: N1_5  and  C5_7 
REMARK       I    between atoms: C5_7  and  N2_8 
ROOT
HETATM    1  C1  UNL     1      58.943  26.331  40.576  1.00  0.00     0.112 C 
HETATM    2  C2  UNL     1      58.165  26.133  41.806  1.00  0.00    -0.109 C 
HETATM    3  C3  UNL     1      57.521  25.953  42.812  1.00  0.00    -0.087 C 
ENDROOT
BRANCH   3   4
HETATM    4  C4  UNL     1      56.752  25.710  44.023  1.00  0.00     0.232 C 
BRANCH   4   5
HETATM    5  N1  UNL     1      56.132  26.929  44.535  1.00  0.00    -0.215 N 
HETATM    6  C5  UNL     1      55.735  26.937  45.882  1.00  0.00     0.690 C 
HETATM    7  N2  UNL     1      56.686  27.165  46.888  1.00  0.00    -0.165 N 
HETATM    8  N5  UNL     1      54.521  26.737  46.200  1.00  0.00    -0.126 N 
HETATM    9  C6  UNL     1      56.829  28.279  47.507  1.00  0.00     0.215 C 
ATOM     10  H2  UNL     1      57.304  26.396  47.144  1.00  0.00     0.186 HD
HETATM   11  N3  UNL     1      57.823  28.381  48.501  1.00  0.00    -0.066 NA
HETATM   12  N4  UNL     1      55.974  29.348  47.154  1.00  0.00    -0.066 NA
HETATM   13  C7  UNL     1      54.091  26.739  47.544  1.00  0.00     0.196 C 
ATOM     14  H5  UNL     1      53.837  26.570  45.461  1.00  0.00     0.197 HD
HETATM   15  N6  UNL     1      53.749  26.724  48.650  1.00  0.00    -0.171 NA
ATOM     16  H1  UNL     1      55.994  27.743  43.937  1.00  0.00     0.178 HD
ENDBRANCH   4   5
ENDBRANCH   3   4
TORSDOF 2
ENDMDL
MODEL 4
REMARK VINA RESULT: -3.884795332      1.578      2.911
REMARK  2 active torsions:
REMARK  status: ('A' for Active; 'I' for Inactive)
REMARK    1  A    between atoms: C3_3  and  C4_4 
REMARK    2  A    between atoms: C4_4  and  N1_5 
REMARK       I    between atoms: N1_5  and  C5_7 
REMARK       I    between atoms: C5_7  and  N2_8 
ROOT
HETATM    1  C1  UNL     1      58.265  25.933  40.950  1.00  0.00     0.112 C 
HETATM    2  C2  UNL     1      58.466  26.578  42.255  1.00  0.00    -0.109 C 
HETATM    3  C3  UNL     1      58.620  27.121  43.322  1.00  0.00    -0.087 C 
ENDROOT
BRANCH   3   4
HETATM    4  C4  UNL     1      58.779  27.785  44.608  1.00  0.00     0.232 C 
BRANCH   4   5
HETATM    5  N1  UNL     1      57.511  28.282  45.131  1.00  0.00    -0.215 N 
HETATM    6  C5  UNL     1      56.449  27.369  45.229  1.00  0.00     0.690 C 
HETATM    7  N2  UNL     1      56.389  26.483  46.316  1.00  0.00    -0.165 N 
HETATM    8  N5  UNL     1      55.540  27.335  44.342  1.00  0.00    -0.126 N 
HETATM    9  C6  UNL     1      55.614  26.632  47.327  1.00  0.00     0.215 C 
ATOM     10  H2  UNL     1      57.001  25.668  46.301  1.00  0.00     0.186 HD
HETATM   11  N3  UNL     1      55.649  25.669  48.356  1.00  0.00    -0.066 NA
HETATM   12  N4  UNL     1      54.765  27.762  47.351  1.00  0.00    -0.066 NA
HETATM   13  C7  UNL     1      54.460  26.428  44.412  1.00  0.00     0.196 C 
ATOM     14  H5  UNL     1      55.593  27.982  43.554  1.00  0.00     0.197 HD
HETATM   15  N6  UNL     1      53.588  25.670  44.468  1.00  0.00    -0.171 NA
ATOM     16  H1  UNL     1      57.400  29.255  45.415  1.00  0.00     0.178 HD
ENDBRANCH   4   5
ENDBRANCH   3   4
TORSDOF 2
ENDMDL
MODEL 5
REMARK VINA RESULT: -3.828523710      1.508      3.001
REMARK  2 active torsions:
REMARK  status: ('A' for Active; 'I' for Inactive)
REMARK    1  A    between atoms: C3_3  and  C4_4 
REMARK    2  A    between atoms: C4_4  and  N1_5 
REMARK       I    between atoms: N1_5  and  C5_7 
REMARK       I    between atoms: C5_7  and  N2_8 
ROOT
HETATM    1  C1  UNL     1      57.478  25.660  40.821  1.00  0.00     0.112 C 
HETATM    2  C2  UNL     1      58.118  26.324  41.965  1.00  0.00    -0.109 C 
HETATM    3  C3  UNL     1      58.637  26.887  42.899  1.00  0.00    -0.087 C 
ENDROOT
BRANCH   3   4
HETATM    4  C4  UNL     1      59.243  27.582  44.025  1.00  0.00     0.232 C 
BRANCH   4   5
HETATM    5  N1  UNL     1      58.280  28.414  44.739  1.00  0.00    -0.215 N 
HETATM    6  C5  UNL     1      57.552  27.814  45.780  1.00  0.00     0.690 C 
HETATM    7  N2  UNL     1      58.142  27.658  47.044  1.00  0.00    -0.165 N 
HETATM    8  N5  UNL     1      56.363  27.409  45.588  1.00  0.00    -0.126 N 
HETATM    9  C6  UNL     1      57.891  28.405  48.055  1.00  0.00     0.215 C 
ATOM     10  H2  UNL     1      58.813  26.900  47.166  1.00  0.00     0.186 HD
HETATM   11  N3  UNL     1      58.551  28.142  49.273  1.00  0.00    -0.066 NA
HETATM   12  N4  UNL     1      56.961  29.456  47.888  1.00  0.00    -0.066 NA
HETATM   13  C7  UNL     1      55.606  26.802  46.613  1.00  0.00     0.196 C 
ATOM     14  H5  UNL     1      55.943  27.526  44.665  1.00  0.00     0.197 HD
HETATM   15  N6  UNL     1      54.998  26.289  47.453  1.00  0.00    -0.171 NA
ATOM     16  H1  UNL     1      58.141  29.394  44.493  1.00  0.00     0.178 HD
ENDBRANCH   4   5
ENDBRANCH   3   4
TORSDOF 2
ENDMDL
