MODEL 1
REMARK VINA RESULT: -8.454400599      0.000      0.000
REMARK  5 active torsions:
REMARK  status: ('A' for Active; 'I' for Inactive)
REMARK    1  A    between atoms: N1_5  and  O1_7 
REMARK    2  A    between atoms: C7_12  and  N2_13 
REMARK    3  A    between atoms: C10_16  and  O2_17 
REMARK    4  A    between atoms: O2_17  and  C11_18 
REMARK    5  A    between atoms: C11_18  and  C12_19 
ROOT
HETATM    1  N2  UNL     1      20.946 -34.208  21.395  1.00  0.00    -0.406 N 
HETATM    2  C8  UNL     1      22.172 -34.034  20.725  1.00  0.00     0.119 C 
HETATM    3  C9  UNL     1      21.944 -32.929  19.687  1.00  0.00     0.051 C 
HETATM    4  C10 UNL     1      21.987 -31.641  20.466  1.00  0.00     0.124 C 
HETATM    5  C18 UNL     1      21.163 -31.784  21.696  1.00  0.00     0.051 C 
HETATM    6  C19 UNL     1      20.212 -32.987  21.633  1.00  0.00     0.119 C 
ENDROOT
BRANCH   1   7
HETATM    7  C7  UNL     1      20.787 -35.198  22.377  1.00  0.00     0.108 C 
HETATM    8  C2  UNL     1      19.467 -35.923  22.380  1.00  0.00     0.093 C 
HETATM    9  C1  UNL     1      19.345 -36.586  23.757  1.00  0.00     0.041 C 
HETATM   10 CL1  UNL     1      18.108 -34.809  22.178  1.00  0.00    -0.111 Cl
HETATM   11  C3  UNL     1      19.477 -36.991  21.384  1.00  0.00     0.035 C 
HETATM   12  N1  UNL     1      18.355 -37.281  20.814  1.00  0.00    -0.275 N 
HETATM   13  C4  UNL     1      20.674 -37.740  21.008  1.00  0.00     0.057 C 
ATOM     14  H1  UNL     1      17.511 -36.767  21.068  1.00  0.00     0.193 HD
HETATM   15  C5  UNL     1      21.951 -37.299  21.589  1.00  0.00     0.008 C 
HETATM   16  C6  UNL     1      21.923 -36.162  22.540  1.00  0.00     0.028 C 
BRANCH  12  17
HETATM   17  O1  UNL     1      18.289 -38.260  19.881  1.00  0.00    -0.290 OA
ATOM     18  H1  UNL     1      18.389 -39.172  20.131  1.00  0.00     0.244 HD
ENDBRANCH  12  17
ENDBRANCH   1   7
BRANCH   4  19
HETATM   19  O2  UNL     1      21.670 -30.534  19.698  1.00  0.00    -0.381 OA
BRANCH  19  20
HETATM   20  C11 UNL     1      22.741 -29.726  19.406  1.00  0.00     0.206 C 
BRANCH  20  21
HETATM   21  C12 UNL     1      22.757 -29.509  17.932  1.00  0.00    -0.035 A 
HETATM   22  C13 UNL     1      23.113 -28.256  17.471  1.00  0.00     0.009 A 
HETATM   23  C14 UNL     1      23.136 -28.021  16.107  1.00  0.00     0.001 A 
HETATM   24  C15 UNL     1      22.809 -29.022  15.239  1.00  0.00     0.000 A 
HETATM   25  C16 UNL     1      22.455 -30.267  15.697  1.00  0.00     0.001 A 
HETATM   26  C17 UNL     1      22.424 -30.528  17.051  1.00  0.00     0.009 A 
ENDBRANCH  20  21
ENDBRANCH  19  20
ENDBRANCH   4  19
TORSDOF 5
ENDMDL
MODEL 2
REMARK VINA RESULT: -8.262933379      9.417     12.784
REMARK  5 active torsions:
REMARK  status: ('A' for Active; 'I' for Inactive)
REMARK    1  A    between atoms: N1_5  and  O1_7 
REMARK    2  A    between atoms: C7_12  and  N2_13 
REMARK    3  A    between atoms: C10_16  and  O2_17 
REMARK    4  A    between atoms: O2_17  and  C11_18 
REMARK    5  A    between atoms: C11_18  and  C12_19 
ROOT
HETATM    1  N2  UNL     1      22.957 -24.488  13.302  1.00  0.00    -0.406 N 
HETATM    2  C8  UNL     1      22.645 -25.665  14.007  1.00  0.00     0.119 C 
HETATM    3  C9  UNL     1      22.202 -26.692  12.959  1.00  0.00     0.051 C 
HETATM    4  C10 UNL     1      23.477 -27.195  12.336  1.00  0.00     0.124 C 
HETATM    5  C18 UNL     1      24.358 -26.039  12.020  1.00  0.00     0.051 C 
HETATM    6  C19 UNL     1      23.603 -24.703  12.028  1.00  0.00     0.119 C 
ENDROOT
BRANCH   1   7
HETATM    7  C7  UNL     1      23.342 -23.316  13.973  1.00  0.00     0.108 C 
HETATM    8  C2  UNL     1      22.798 -22.026  13.420  1.00  0.00     0.093 C 
HETATM    9  C1  UNL     1      23.683 -20.909  13.987  1.00  0.00     0.041 C 
HETATM   10 CL1  UNL     1      22.902 -21.974  11.655  1.00  0.00    -0.111 Cl
HETATM   11  C3  UNL     1      21.443 -21.797  13.915  1.00  0.00     0.035 C 
HETATM   12  N1  UNL     1      20.627 -21.165  13.138  1.00  0.00    -0.275 N 
HETATM   13  C4  UNL     1      20.972 -22.240  15.225  1.00  0.00     0.057 C 
ATOM     14  H1  UNL     1      20.943 -20.849  12.221  1.00  0.00     0.193 HD
HETATM   15  C5  UNL     1      21.891 -23.060  16.028  1.00  0.00     0.008 C 
HETATM   16  C6  UNL     1      23.235 -23.341  15.468  1.00  0.00     0.028 C 
BRANCH  12  17
HETATM   17  O1  UNL     1      19.355 -20.918  13.532  1.00  0.00    -0.290 OA
ATOM     18  H1  UNL     1      18.994 -20.040  13.476  1.00  0.00     0.244 HD
ENDBRANCH  12  17
ENDBRANCH   1   7
BRANCH   4  19
HETATM   19  O2  UNL     1      23.257 -28.047  11.268  1.00  0.00    -0.381 OA
BRANCH  19  20
HETATM   20  C11 UNL     1      22.111 -28.796  11.371  1.00  0.00     0.206 C 
BRANCH  20  21
HETATM   21  C12 UNL     1      22.500 -30.159  11.831  1.00  0.00    -0.035 A 
HETATM   22  C13 UNL     1      22.868 -31.081  10.870  1.00  0.00     0.009 A 
HETATM   23  C14 UNL     1      23.235 -32.356  11.264  1.00  0.00     0.001 A 
HETATM   24  C15 UNL     1      23.227 -32.687  12.588  1.00  0.00     0.000 A 
HETATM   25  C16 UNL     1      22.860 -31.771  13.543  1.00  0.00     0.001 A 
HETATM   26  C17 UNL     1      22.492 -30.493  13.178  1.00  0.00     0.009 A 
ENDBRANCH  20  21
ENDBRANCH  19  20
ENDBRANCH   4  19
TORSDOF 5
ENDMDL
MODEL 3
REMARK VINA RESULT: -8.255018707      3.699      5.156
REMARK  5 active torsions:
REMARK  status: ('A' for Active; 'I' for Inactive)
REMARK    1  A    between atoms: N1_5  and  O1_7 
REMARK    2  A    between atoms: C7_12  and  N2_13 
REMARK    3  A    between atoms: C10_16  and  O2_17 
REMARK    4  A    between atoms: O2_17  and  C11_18 
REMARK    5  A    between atoms: C11_18  and  C12_19 
ROOT
HETATM    1  N2  UNL     1      21.315 -32.319  20.073  1.00  0.00    -0.406 N 
HETATM    2  C8  UNL     1      20.501 -32.637  18.970  1.00  0.00     0.119 C 
HETATM    3  C9  UNL     1      21.328 -32.326  17.718  1.00  0.00     0.051 C 
HETATM    4  C10 UNL     1      22.278 -33.485  17.574  1.00  0.00     0.124 C 
HETATM    5  C18 UNL     1      22.888 -33.787  18.896  1.00  0.00     0.051 C 
HETATM    6  C19 UNL     1      22.712 -32.642  19.902  1.00  0.00     0.119 C 
ENDROOT
BRANCH   1   7
HETATM    7  C7  UNL     1      20.836 -32.429  21.388  1.00  0.00     0.108 C 
HETATM    8  C2  UNL     1      20.514 -31.135  22.087  1.00  0.00     0.093 C 
HETATM    9  C1  UNL     1      20.466 -31.457  23.586  1.00  0.00     0.041 C 
HETATM   10 CL1  UNL     1      21.769 -29.917  21.821  1.00  0.00    -0.111 Cl
HETATM   11  C3  UNL     1      19.184 -30.672  21.702  1.00  0.00     0.035 C 
HETATM   12  N1  UNL     1      18.988 -29.396  21.665  1.00  0.00    -0.275 N 
HETATM   13  C4  UNL     1      18.079 -31.566  21.362  1.00  0.00     0.057 C 
ATOM     14  H1  UNL     1      19.750 -28.760  21.901  1.00  0.00     0.193 HD
HETATM   15  C5  UNL     1      18.376 -33.005  21.297  1.00  0.00     0.008 C 
HETATM   16  C6  UNL     1      19.755 -33.442  21.621  1.00  0.00     0.028 C 
BRANCH  12  17
HETATM   17  O1  UNL     1      17.779 -28.895  21.316  1.00  0.00    -0.290 OA
ATOM     18  H1  UNL     1      17.681 -27.973  21.107  1.00  0.00     0.244 HD
ENDBRANCH  12  17
ENDBRANCH   1   7
BRANCH   4  19
HETATM   19  O2  UNL     1      23.197 -33.306  16.555  1.00  0.00    -0.381 OA
BRANCH  19  20
HETATM   20  C11 UNL     1      22.957 -32.209  15.765  1.00  0.00     0.206 C 
BRANCH  20  21
HETATM   21  C12 UNL     1      22.880 -32.676  14.352  1.00  0.00    -0.035 A 
HETATM   22  C13 UNL     1      23.194 -31.769  13.358  1.00  0.00     0.009 A 
HETATM   23  C14 UNL     1      23.132 -32.171  12.035  1.00  0.00     0.001 A 
HETATM   24  C15 UNL     1      22.761 -33.449  11.729  1.00  0.00     0.000 A 
HETATM   25  C16 UNL     1      22.448 -34.349  12.717  1.00  0.00     0.001 A 
HETATM   26  C17 UNL     1      22.503 -33.975  14.043  1.00  0.00     0.009 A 
ENDBRANCH  20  21
ENDBRANCH  19  20
ENDBRANCH   4  19
TORSDOF 5
ENDMDL
MODEL 4
REMARK VINA RESULT: -8.174962453      1.167      1.458
REMARK  5 active torsions:
REMARK  status: ('A' for Active; 'I' for Inactive)
REMARK    1  A    between atoms: N1_5  and  O1_7 
REMARK    2  A    between atoms: C7_12  and  N2_13 
REMARK    3  A    between atoms: C10_16  and  O2_17 
REMARK    4  A    between atoms: O2_17  and  C11_18 
REMARK    5  A    between atoms: C11_18  and  C12_19 
ROOT
HETATM    1  N2  UNL     1      20.334 -33.659  21.072  1.00  0.00    -0.406 N 
HETATM    2  C8  UNL     1      21.737 -33.766  21.081  1.00  0.00     0.119 C 
HETATM    3  C9  UNL     1      22.229 -33.117  19.782  1.00  0.00     0.051 C 
HETATM    4  C10 UNL     1      22.165 -31.634  20.033  1.00  0.00     0.124 C 
HETATM    5  C18 UNL     1      20.862 -31.299  20.666  1.00  0.00     0.051 C 
HETATM    6  C19 UNL     1      19.828 -32.424  20.520  1.00  0.00     0.119 C 
ENDROOT
BRANCH   1   7
HETATM    7  C7  UNL     1      19.554 -34.215  22.098  1.00  0.00     0.108 C 
HETATM    8  C2  UNL     1      18.457 -35.151  21.664  1.00  0.00     0.093 C 
HETATM    9  C1  UNL     1      17.489 -35.255  22.850  1.00  0.00     0.041 C 
HETATM   10 CL1  UNL     1      17.566 -34.517  20.274  1.00  0.00    -0.111 Cl
HETATM   11  C3  UNL     1      18.999 -36.487  21.429  1.00  0.00     0.035 C 
HETATM   12  N1  UNL     1      18.432 -37.205  20.518  1.00  0.00    -0.275 N 
HETATM   13  C4  UNL     1      20.132 -37.044  22.165  1.00  0.00     0.057 C 
ATOM     14  H1  UNL     1      17.639 -36.829  19.998  1.00  0.00     0.193 HD
HETATM   15  C5  UNL     1      20.825 -36.153  23.107  1.00  0.00     0.008 C 
HETATM   16  C6  UNL     1      20.300 -34.777  23.271  1.00  0.00     0.028 C 
BRANCH  12  17
HETATM   17  O1  UNL     1      18.881 -38.453  20.247  1.00  0.00    -0.290 OA
ATOM     18  H1  UNL     1      19.455 -38.903  20.856  1.00  0.00     0.244 HD
ENDBRANCH  12  17
ENDBRANCH   1   7
BRANCH   4  19
HETATM   19  O2  UNL     1      22.456 -30.882  18.908  1.00  0.00    -0.381 OA
BRANCH  19  20
HETATM   20  C11 UNL     1      22.102 -31.480  17.723  1.00  0.00     0.206 C 
BRANCH  20  21
HETATM   21  C12 UNL     1      22.533 -30.582  16.615  1.00  0.00    -0.035 A 
HETATM   22  C13 UNL     1      22.739 -29.248  16.913  1.00  0.00     0.009 A 
HETATM   23  C14 UNL     1      23.139 -28.387  15.905  1.00  0.00     0.001 A 
HETATM   24  C15 UNL     1      23.323 -28.861  14.638  1.00  0.00     0.000 A 
HETATM   25  C16 UNL     1      23.117 -30.186  14.343  1.00  0.00     0.001 A 
HETATM   26  C17 UNL     1      22.719 -31.066  15.328  1.00  0.00     0.009 A 
ENDBRANCH  20  21
ENDBRANCH  19  20
ENDBRANCH   4  19
TORSDOF 5
ENDMDL
MODEL 5
REMARK VINA RESULT: -8.158799024      3.077      4.880
REMARK  5 active torsions:
REMARK  status: ('A' for Active; 'I' for Inactive)
REMARK    1  A    between atoms: N1_5  and  O1_7 
REMARK    2  A    between atoms: C7_12  and  N2_13 
REMARK    3  A    between atoms: C10_16  and  O2_17 
REMARK    4  A    between atoms: O2_17  and  C11_18 
REMARK    5  A    between atoms: C11_18  and  C12_19 
ROOT
HETATM    1  N2  UNL     1      21.653 -32.367  18.115  1.00  0.00    -0.406 N 
HETATM    2  C8  UNL     1      22.508 -33.424  17.749  1.00  0.00     0.119 C 
HETATM    3  C9  UNL     1      22.201 -33.739  16.281  1.00  0.00     0.051 C 
HETATM    4  C10 UNL     1      22.902 -32.666  15.491  1.00  0.00     0.124 C 
HETATM    5  C18 UNL     1      22.629 -31.342  16.113  1.00  0.00     0.051 C 
HETATM    6  C19 UNL     1      21.441 -31.380  17.083  1.00  0.00     0.119 C 
ENDROOT
BRANCH   1   7
HETATM    7  C7  UNL     1      21.631 -31.869  19.428  1.00  0.00     0.108 C 
HETATM    8  C2  UNL     1      20.648 -32.517  20.366  1.00  0.00     0.093 C 
HETATM    9  C1  UNL     1      20.474 -31.547  21.542  1.00  0.00     0.041 C 
HETATM   10 CL1  UNL     1      19.070 -32.751  19.602  1.00  0.00    -0.111 Cl
HETATM   11  C3  UNL     1      21.206 -33.754  20.905  1.00  0.00     0.035 C 
HETATM   12  N1  UNL     1      20.378 -34.707  21.181  1.00  0.00    -0.275 N 
HETATM   13  C4  UNL     1      22.632 -33.965  21.147  1.00  0.00     0.057 C 
ATOM     14  H1  UNL     1      19.380 -34.573  21.018  1.00  0.00     0.193 HD
HETATM   15  C5  UNL     1      23.551 -32.905  20.707  1.00  0.00     0.008 C 
HETATM   16  C6  UNL     1      22.962 -31.690  20.094  1.00  0.00     0.028 C 
BRANCH  12  17
HETATM   17  O1  UNL     1      20.825 -35.883  21.683  1.00  0.00    -0.290 OA
ATOM     18  H1  UNL     1      21.757 -36.051  21.763  1.00  0.00     0.244 HD
ENDBRANCH  12  17
ENDBRANCH   1   7
BRANCH   4  19
HETATM   19  O2  UNL     1      22.624 -32.722  14.137  1.00  0.00    -0.381 OA
BRANCH  19  20
HETATM   20  C11 UNL     1      23.658 -32.312  13.332  1.00  0.00     0.206 C 
BRANCH  20  21
HETATM   21  C12 UNL     1      23.130 -31.265  12.413  1.00  0.00    -0.035 A 
HETATM   22  C13 UNL     1      23.289 -31.463  11.055  1.00  0.00     0.009 A 
HETATM   23  C14 UNL     1      22.811 -30.508  10.174  1.00  0.00     0.001 A 
HETATM   24  C15 UNL     1      22.192 -29.390  10.653  1.00  0.00     0.000 A 
HETATM   25  C16 UNL     1      22.035 -29.193  12.003  1.00  0.00     0.001 A 
HETATM   26  C17 UNL     1      22.502 -30.129  12.902  1.00  0.00     0.009 A 
ENDBRANCH  20  21
ENDBRANCH  19  20
ENDBRANCH   4  19
TORSDOF 5
ENDMDL
