MODEL 1
REMARK VINA RESULT: -9.074870446      0.000      0.000
REMARK  2 active torsions:
REMARK  status: ('A' for Active; 'I' for Inactive)
REMARK    1  A    between atoms: C2_2  and  C4_4 
REMARK    2  A    between atoms: N2_11  and  C9_12 
ROOT
HETATM    1  C4  UNL     1      20.804 -33.245  20.479  1.00  0.00     0.028 C 
HETATM    2  C5  UNL     1      22.293 -33.127  20.710  1.00  0.00     0.012 C 
HETATM    3  C6  UNL     1      22.841 -33.314  19.251  1.00  0.00     0.040 C 
HETATM    4  C7  UNL     1      21.835 -32.431  18.511  1.00  0.00    -0.017 C 
HETATM    5  C8  UNL     1      22.378 -31.615  17.455  1.00  0.00     0.071 A 
HETATM    6  N1  UNL     1      22.646 -32.034  16.163  1.00  0.00    -0.295 N 
ATOM      7  H1  UNL     1      22.601 -33.009  15.867  1.00  0.00     0.187 HD
HETATM    8  N2  UNL     1      22.958 -31.061  15.369  1.00  0.00    -0.270 N 
HETATM    9  C15 UNL     1      22.930 -29.916  16.063  1.00  0.00     0.140 A 
HETATM   10  N3  UNL     1      23.232 -28.664  15.739  1.00  0.00    -0.337 N 
ATOM     11  H3  UNL     1      23.491 -28.440  14.778  1.00  0.00     0.168 HD
HETATM   12  C16 UNL     1      23.197 -27.695  16.658  1.00  0.00     0.183 A 
HETATM   13  N4  UNL     1      22.847 -27.992  17.947  1.00  0.00    -0.338 N 
ATOM     14  H4  UNL     1      22.818 -27.258  18.654  1.00  0.00     0.168 HD
HETATM   15  C17 UNL     1      22.543 -29.253  18.272  1.00  0.00     0.116 A 
HETATM   16  N5  UNL     1      22.249 -29.520  19.450  1.00  0.00    -0.385 N 
ATOM     17  H51 UNL     1      22.017 -30.482  19.698  1.00  0.00     0.157 HD
ATOM     18  H52 UNL     1      22.225 -28.770  20.141  1.00  0.00     0.157 HD
HETATM   19  C18 UNL     1      22.574 -30.258  17.348  1.00  0.00     0.081 A 
HETATM   20  C19 UNL     1      20.592 -32.305  19.216  1.00  0.00     0.206 C 
HETATM   21  F1  UNL     1      19.469 -32.966  18.637  1.00  0.00    -0.244 F 
ENDROOT
BRANCH   8  22
HETATM   22  C9  UNL     1      23.270 -31.225  13.953  1.00  0.00     0.110 C 
HETATM   23  C10 UNL     1      22.119 -30.830  13.044  1.00  0.00     0.027 C 
HETATM   24  C11 UNL     1      22.619 -30.985  11.606  1.00  0.00     0.002 C 
HETATM   25  C12 UNL     1      23.067 -32.391  11.308  1.00  0.00     0.000 C 
HETATM   26  C13 UNL     1      22.792 -33.231  12.545  1.00  0.00     0.002 C 
HETATM   27  C14 UNL     1      23.618 -32.664  13.653  1.00  0.00     0.027 C 
ENDBRANCH   8  22
BRANCH   1  28
HETATM   28  C2  UNL     1      19.958 -32.673  21.558  1.00  0.00    -0.016 C 
HETATM   29  C1  UNL     1      19.689 -31.215  21.380  1.00  0.00     0.010 C 
HETATM   30  C3  UNL     1      18.705 -33.423  21.805  1.00  0.00     0.010 C 
ENDBRANCH   1  28
TORSDOF 2
ENDMDL
MODEL 2
REMARK VINA RESULT: -8.647244568      0.674      1.181
REMARK  2 active torsions:
REMARK  status: ('A' for Active; 'I' for Inactive)
REMARK    1  A    between atoms: C2_2  and  C4_4 
REMARK    2  A    between atoms: N2_11  and  C9_12 
ROOT
HETATM    1  C4  UNL     1      21.189 -33.236  20.683  1.00  0.00     0.028 C 
HETATM    2  C5  UNL     1      22.694 -33.299  20.566  1.00  0.00     0.012 C 
HETATM    3  C6  UNL     1      22.866 -33.580  19.031  1.00  0.00     0.040 C 
HETATM    4  C7  UNL     1      21.826 -32.593  18.497  1.00  0.00    -0.017 C 
HETATM    5  C8  UNL     1      22.203 -31.872  17.309  1.00  0.00     0.071 A 
HETATM    6  N1  UNL     1      22.116 -32.345  16.011  1.00  0.00    -0.295 N 
ATOM      7  H1  UNL     1      21.891 -33.312  15.779  1.00  0.00     0.187 HD
HETATM    8  N2  UNL     1      22.348 -31.433  15.122  1.00  0.00    -0.270 N 
HETATM    9  C15 UNL     1      22.614 -30.281  15.750  1.00  0.00     0.140 A 
HETATM   10  N3  UNL     1      22.976 -29.082  15.308  1.00  0.00    -0.337 N 
ATOM     11  H3  UNL     1      23.032 -28.910  14.304  1.00  0.00     0.168 HD
HETATM   12  C16 UNL     1      23.267 -28.099  16.165  1.00  0.00     0.183 A 
HETATM   13  N4  UNL     1      23.190 -28.326  17.512  1.00  0.00    -0.338 N 
ATOM     14  H4  UNL     1      23.410 -27.580  18.172  1.00  0.00     0.168 HD
HETATM   15  C17 UNL     1      22.824 -29.533  17.955  1.00  0.00     0.116 A 
HETATM   16  N5  UNL     1      22.781 -29.739  19.181  1.00  0.00    -0.385 N 
ATOM     17  H51 UNL     1      22.501 -30.660  19.520  1.00  0.00     0.157 HD
ATOM     18  H52 UNL     1      23.004 -28.979  19.823  1.00  0.00     0.157 HD
HETATM   19  C18 UNL     1      22.525 -30.551  17.096  1.00  0.00     0.081 A 
HETATM   20  C19 UNL     1      20.802 -32.302  19.458  1.00  0.00     0.206 C 
HETATM   21  F1  UNL     1      19.507 -32.830  19.180  1.00  0.00    -0.244 F 
ENDROOT
BRANCH   8  22
HETATM   22  C9  UNL     1      22.305 -31.661  13.681  1.00  0.00     0.110 C 
HETATM   23  C10 UNL     1      23.523 -32.406  13.163  1.00  0.00     0.027 C 
HETATM   24  C11 UNL     1      23.298 -32.632  11.667  1.00  0.00     0.002 C 
HETATM   25  C12 UNL     1      23.113 -31.339  10.918  1.00  0.00     0.000 C 
HETATM   26  C13 UNL     1      23.295 -30.204  11.912  1.00  0.00     0.002 C 
HETATM   27  C14 UNL     1      22.222 -30.346  12.942  1.00  0.00     0.027 C 
ENDBRANCH   8  22
BRANCH   1  28
HETATM   28  C2  UNL     1      20.685 -32.543  21.897  1.00  0.00    -0.016 C 
HETATM   29  C1  UNL     1      20.611 -31.061  21.737  1.00  0.00     0.010 C 
HETATM   30  C3  UNL     1      19.413 -33.090  22.421  1.00  0.00     0.010 C 
ENDBRANCH   1  28
TORSDOF 2
ENDMDL
MODEL 3
REMARK VINA RESULT: -8.329481436      5.303      6.532
REMARK  2 active torsions:
REMARK  status: ('A' for Active; 'I' for Inactive)
REMARK    1  A    between atoms: C2_2  and  C4_4 
REMARK    2  A    between atoms: N2_11  and  C9_12 
ROOT
HETATM    1  C4  UNL     1      20.495 -24.964  18.037  1.00  0.00     0.028 C 
HETATM    2  C5  UNL     1      21.987 -24.933  18.280  1.00  0.00     0.012 C 
HETATM    3  C6  UNL     1      22.464 -26.132  17.387  1.00  0.00     0.040 C 
HETATM    4  C7  UNL     1      21.609 -25.853  16.149  1.00  0.00    -0.017 C 
HETATM    5  C8  UNL     1      22.263 -26.055  14.881  1.00  0.00     0.071 A 
HETATM    6  N1  UNL     1      22.427 -27.269  14.237  1.00  0.00    -0.295 N 
ATOM      7  H1  UNL     1      22.209 -28.167  14.668  1.00  0.00     0.187 HD
HETATM    8  N2  UNL     1      22.886 -27.148  13.033  1.00  0.00    -0.270 N 
HETATM    9  C15 UNL     1      23.071 -25.846  12.776  1.00  0.00     0.140 A 
HETATM   10  N3  UNL     1      23.577 -25.203  11.729  1.00  0.00    -0.337 N 
ATOM     11  H3  UNL     1      23.851 -25.728  10.899  1.00  0.00     0.168 HD
HETATM   12  C16 UNL     1      23.730 -23.876  11.755  1.00  0.00     0.183 A 
HETATM   13  N4  UNL     1      23.360 -23.169  12.866  1.00  0.00    -0.338 N 
ATOM     14  H4  UNL     1      23.473 -22.156  12.892  1.00  0.00     0.168 HD
HETATM   15  C17 UNL     1      22.850 -23.819  13.918  1.00  0.00     0.116 A 
HETATM   16  N5  UNL     1      22.539 -23.172  14.934  1.00  0.00    -0.385 N 
ATOM     17  H51 UNL     1      22.149 -23.667  15.737  1.00  0.00     0.157 HD
ATOM     18  H52 UNL     1      22.660 -22.160  14.938  1.00  0.00     0.157 HD
HETATM   19  C18 UNL     1      22.688 -25.174  13.913  1.00  0.00     0.081 A 
HETATM   20  C19 UNL     1      20.422 -25.110  16.457  1.00  0.00     0.206 C 
HETATM   21  F1  UNL     1      19.190 -25.821  16.360  1.00  0.00    -0.244 F 
ENDROOT
BRANCH   8  22
HETATM   22  C9  UNL     1      23.135 -28.268  12.132  1.00  0.00     0.110 C 
HETATM   23  C10 UNL     1      22.016 -28.479  11.127  1.00  0.00     0.027 C 
HETATM   24  C11 UNL     1      22.453 -29.628  10.216  1.00  0.00     0.002 C 
HETATM   25  C12 UNL     1      22.715 -30.895  10.985  1.00  0.00     0.000 C 
HETATM   26  C13 UNL     1      22.373 -30.626  12.442  1.00  0.00     0.002 C 
HETATM   27  C14 UNL     1      23.294 -29.550  12.917  1.00  0.00     0.027 C 
ENDBRANCH   8  22
BRANCH   1  28
HETATM   28  C2  UNL     1      19.783 -23.702  18.363  1.00  0.00    -0.016 C 
HETATM   29  C1  UNL     1      19.725 -22.750  17.214  1.00  0.00     0.010 C 
HETATM   30  C3  UNL     1      18.443 -23.901  18.962  1.00  0.00     0.010 C 
ENDBRANCH   1  28
TORSDOF 2
ENDMDL
MODEL 4
REMARK VINA RESULT: -8.086027305      4.826      6.610
REMARK  2 active torsions:
REMARK  status: ('A' for Active; 'I' for Inactive)
REMARK    1  A    between atoms: C2_2  and  C4_4 
REMARK    2  A    between atoms: N2_11  and  C9_12 
ROOT
HETATM    1  C4  UNL     1      21.303 -24.281  17.026  1.00  0.00     0.028 C 
HETATM    2  C5  UNL     1      22.806 -24.428  17.097  1.00  0.00     0.012 C 
HETATM    3  C6  UNL     1      22.965 -25.982  16.945  1.00  0.00     0.040 C 
HETATM    4  C7  UNL     1      21.954 -26.209  15.820  1.00  0.00    -0.017 C 
HETATM    5  C8  UNL     1      22.349 -27.155  14.808  1.00  0.00     0.071 A 
HETATM    6  N1  UNL     1      22.245 -28.532  14.899  1.00  0.00    -0.295 N 
ATOM      7  H1  UNL     1      21.990 -29.021  15.757  1.00  0.00     0.187 HD
HETATM    8  N2  UNL     1      22.502 -29.136  13.783  1.00  0.00    -0.270 N 
HETATM    9  C15 UNL     1      22.805 -28.215  12.859  1.00  0.00     0.140 A 
HETATM   10  N3  UNL     1      23.202 -28.312  11.595  1.00  0.00    -0.337 N 
ATOM     11  H3  UNL     1      23.261 -29.229  11.153  1.00  0.00     0.168 HD
HETATM   12  C16 UNL     1      23.526 -27.219  10.898  1.00  0.00     0.183 A 
HETATM   13  N4  UNL     1      23.446 -25.987  11.487  1.00  0.00    -0.338 N 
ATOM     14  H4  UNL     1      23.690 -25.148  10.961  1.00  0.00     0.168 HD
HETATM   15  C17 UNL     1      23.044 -25.892  12.760  1.00  0.00     0.116 A 
HETATM   16  N5  UNL     1      22.998 -24.771  13.296  1.00  0.00    -0.385 N 
ATOM     17  H51 UNL     1      22.691 -24.698  14.267  1.00  0.00     0.157 HD
ATOM     18  H52 UNL     1      23.246 -23.946  12.751  1.00  0.00     0.157 HD
HETATM   19  C18 UNL     1      22.712 -26.996  13.490  1.00  0.00     0.081 A 
HETATM   20  C19 UNL     1      20.942 -25.194  15.777  1.00  0.00     0.206 C 
HETATM   21  F1  UNL     1      19.631 -25.593  16.170  1.00  0.00    -0.244 F 
ENDROOT
BRANCH   8  22
HETATM   22  C9  UNL     1      22.448 -30.583  13.601  1.00  0.00     0.110 C 
HETATM   23  C10 UNL     1      23.757 -31.272  13.945  1.00  0.00     0.027 C 
HETATM   24  C11 UNL     1      23.521 -32.774  13.777  1.00  0.00     0.002 C 
HETATM   25  C12 UNL     1      23.091 -33.129  12.379  1.00  0.00     0.000 C 
HETATM   26  C13 UNL     1      23.110 -31.852  11.555  1.00  0.00     0.002 C 
HETATM   27  C14 UNL     1      22.115 -30.921  12.166  1.00  0.00     0.027 C 
ENDBRANCH   8  22
BRANCH   1  28
HETATM   28  C2  UNL     1      20.825 -22.916  16.683  1.00  0.00    -0.016 C 
HETATM   29  C1  UNL     1      20.752 -22.674  15.212  1.00  0.00     0.010 C 
HETATM   30  C3  UNL     1      19.560 -22.534  17.352  1.00  0.00     0.010 C 
ENDBRANCH   1  28
TORSDOF 2
ENDMDL
MODEL 5
REMARK VINA RESULT: -8.080377959      1.089      1.422
REMARK  2 active torsions:
REMARK  status: ('A' for Active; 'I' for Inactive)
REMARK    1  A    between atoms: C2_2  and  C4_4 
REMARK    2  A    between atoms: N2_11  and  C9_12 
ROOT
HETATM    1  C4  UNL     1      19.738 -33.411  21.303  1.00  0.00     0.028 C 
HETATM    2  C5  UNL     1      21.187 -33.425  21.730  1.00  0.00     0.012 C 
HETATM    3  C6  UNL     1      21.904 -33.703  20.362  1.00  0.00     0.040 C 
HETATM    4  C7  UNL     1      21.093 -32.753  19.479  1.00  0.00    -0.017 C 
HETATM    5  C8  UNL     1      21.847 -32.022  18.493  1.00  0.00     0.071 A 
HETATM    6  N1  UNL     1      22.242 -32.500  17.255  1.00  0.00    -0.295 N 
ATOM      7  H1  UNL     1      22.144 -33.475  16.972  1.00  0.00     0.187 HD
HETATM    8  N2  UNL     1      22.749 -31.583  16.495  1.00  0.00    -0.270 N 
HETATM    9  C15 UNL     1      22.738 -30.422  17.161  1.00  0.00     0.140 A 
HETATM   10  N3  UNL     1      23.198 -29.212  16.860  1.00  0.00    -0.337 N 
ATOM     11  H3  UNL     1      23.604 -29.041  15.940  1.00  0.00     0.168 HD
HETATM   12  C16 UNL     1      23.135 -28.219  17.751  1.00  0.00     0.183 A 
HETATM   13  N4  UNL     1      22.590 -28.445  18.985  1.00  0.00    -0.338 N 
ATOM     14  H4  UNL     1      22.538 -27.691  19.670  1.00  0.00     0.168 HD
HETATM   15  C17 UNL     1      22.126 -29.663  19.286  1.00  0.00     0.116 A 
HETATM   16  N5  UNL     1      21.655 -29.867  20.418  1.00  0.00    -0.385 N 
ATOM     17  H51 UNL     1      21.301 -30.796  20.648  1.00  0.00     0.157 HD
ATOM     18  H52 UNL     1      21.612 -29.098  21.087  1.00  0.00     0.157 HD
HETATM   19  C18 UNL     1      22.184 -30.692  18.391  1.00  0.00     0.081 A 
HETATM   20  C19 UNL     1      19.786 -32.493  20.008  1.00  0.00     0.206 C 
HETATM   21  F1  UNL     1      18.691 -33.064  19.294  1.00  0.00    -0.244 F 
ENDROOT
BRANCH   8  22
HETATM   22  C9  UNL     1      23.229 -31.816  15.137  1.00  0.00     0.110 C 
HETATM   23  C10 UNL     1      22.379 -31.127  14.083  1.00  0.00     0.027 C 
HETATM   24  C11 UNL     1      23.044 -31.401  12.732  1.00  0.00     0.002 C 
HETATM   25  C12 UNL     1      23.154 -32.873  12.440  1.00  0.00     0.000 C 
HETATM   26  C13 UNL     1      22.477 -33.618  13.580  1.00  0.00     0.002 C 
HETATM   27  C14 UNL     1      23.235 -33.295  14.826  1.00  0.00     0.027 C 
ENDBRANCH   8  22
BRANCH   1  28
HETATM   28  C2  UNL     1      18.814 -32.733  22.248  1.00  0.00    -0.016 C 
HETATM   29  C1  UNL     1      19.023 -33.146  23.668  1.00  0.00     0.010 C 
HETATM   30  C3  UNL     1      18.791 -31.258  22.117  1.00  0.00     0.010 C 
ENDBRANCH   1  28
TORSDOF 2
ENDMDL
