MODEL 1
REMARK VINA RESULT: -9.158520840      0.000      0.000
REMARK  4 active torsions:
REMARK  status: ('A' for Active; 'I' for Inactive)
REMARK    1  A    between atoms: C2_3  and  O1_4 
REMARK    2  A    between atoms: O1_4  and  C3_5 
REMARK    3  A    between atoms: C3_5  and  N2_6 
REMARK       I    between atoms: N2_6  and  C4_8 
REMARK       I    between atoms: C4_8  and  N3_10 
REMARK    4  A    between atoms: N3_10  and  C5_12 
ROOT
HETATM    1  N1  UNL     1      26.730 -20.048  10.251  1.00  0.00    -0.195 NA
HETATM    2  C1  UNL     1      25.690 -20.594  10.351  1.00  0.00     0.085 C 
HETATM    3  C2  UNL     1      24.391 -21.230  10.456  1.00  0.00     0.294 C 
ENDROOT
BRANCH   3   4
HETATM    4  O1  UNL     1      24.377 -22.422  11.058  1.00  0.00    -0.347 OA
BRANCH   4   5
HETATM    5  C3  UNL     1      23.580 -22.670  12.145  1.00  0.00     0.139 A 
HETATM    6  C15 UNL     1      24.193 -22.574  13.492  1.00  0.00     0.061 A 
HETATM    7  C16 UNL     1      23.453 -21.269  13.779  1.00  0.00     0.010 A 
HETATM    8  C17 UNL     1      22.792 -21.385  12.439  1.00  0.00     0.061 A 
BRANCH   5   9
HETATM    9  N2  UNL     1      22.716 -23.813  11.922  1.00  0.00    -0.310 N 
HETATM   10  C4  UNL     1      23.076 -25.155  12.046  1.00  0.00     0.323 C 
HETATM   11  O2  UNL     1      24.231 -25.486  12.370  1.00  0.00    -0.247 OA
HETATM   12  N3  UNL     1      22.138 -26.192  11.808  1.00  0.00    -0.302 N 
ATOM     13  H3  UNL     1      21.182 -25.952  11.542  1.00  0.00     0.171 HD
ATOM     14  H2  UNL     1      21.753 -23.617  11.648  1.00  0.00     0.167 HD
BRANCH  12  15
HETATM   15  C5  UNL     1      22.508 -27.569  11.936  1.00  0.00     0.100 A 
HETATM   16  S1  UNL     1      22.807 -28.630  10.634  1.00  0.00    -0.074 SA
HETATM   17  C6  UNL     1      23.173 -30.021  11.496  1.00  0.00     0.003 A 
HETATM   18  C7  UNL     1      23.062 -29.657  12.821  1.00  0.00    -0.021 A 
HETATM   19  C14 UNL     1      23.524 -31.375  10.932  1.00  0.00     0.126 C 
HETATM   20  C8  UNL     1      22.708 -28.353  13.031  1.00  0.00     0.086 A 
HETATM   21  C10 UNL     1      23.300 -30.545  14.030  1.00  0.00     0.042 C 
HETATM   22  C9  UNL     1      22.523 -27.716  14.358  1.00  0.00     0.103 C 
HETATM   23  N4  UNL     1      22.382 -27.232  15.411  1.00  0.00    -0.191 NA
HETATM   24  C11 UNL     1      22.530 -31.800  14.172  1.00  0.00     0.016 C 
HETATM   25  C12 UNL     1      22.982 -32.945  13.199  1.00  0.00     0.080 C 
HETATM   26  C13 UNL     1      23.265 -32.349  11.953  1.00  0.00    -0.178 C 
ENDBRANCH  12  15
ENDBRANCH   5   9
ENDBRANCH   4   5
ENDBRANCH   3   4
TORSDOF 4
ENDMDL
MODEL 2
REMARK VINA RESULT: -9.062268753      6.751      9.771
REMARK  4 active torsions:
REMARK  status: ('A' for Active; 'I' for Inactive)
REMARK    1  A    between atoms: C2_3  and  O1_4 
REMARK    2  A    between atoms: O1_4  and  C3_5 
REMARK    3  A    between atoms: C3_5  and  N2_6 
REMARK       I    between atoms: N2_6  and  C4_8 
REMARK       I    between atoms: C4_8  and  N3_10 
REMARK    4  A    between atoms: N3_10  and  C5_12 
ROOT
HETATM    1  N1  UNL     1      23.469 -29.731  20.473  1.00  0.00    -0.195 NA
HETATM    2  C1  UNL     1      22.451 -30.146  20.901  1.00  0.00     0.085 C 
HETATM    3  C2  UNL     1      21.216 -30.649  21.469  1.00  0.00     0.294 C 
ENDROOT
BRANCH   3   4
HETATM    4  O1  UNL     1      20.335 -31.141  20.594  1.00  0.00    -0.347 OA
BRANCH   4   5
HETATM    5  C3  UNL     1      20.146 -32.491  20.445  1.00  0.00     0.139 A 
HETATM    6  C15 UNL     1      20.047 -33.318  21.671  1.00  0.00     0.061 A 
HETATM    7  C16 UNL     1      18.547 -33.514  21.466  1.00  0.00     0.010 A 
HETATM    8  C17 UNL     1      18.647 -32.720  20.199  1.00  0.00     0.061 A 
BRANCH   5   9
HETATM    9  N2  UNL     1      20.972 -33.030  19.382  1.00  0.00    -0.310 N 
HETATM   10  C4  UNL     1      21.326 -32.376  18.201  1.00  0.00     0.323 C 
HETATM   11  O2  UNL     1      20.931 -31.221  17.959  1.00  0.00    -0.247 OA
HETATM   12  N3  UNL     1      22.150 -33.006  17.232  1.00  0.00    -0.302 N 
ATOM     13  H3  UNL     1      22.490 -33.953  17.402  1.00  0.00     0.171 HD
ATOM     14  H2  UNL     1      21.328 -33.977  19.510  1.00  0.00     0.167 HD
BRANCH  12  15
HETATM   15  C5  UNL     1      22.512 -32.335  16.021  1.00  0.00     0.100 A 
HETATM   16  S1  UNL     1      22.735 -30.651  15.860  1.00  0.00    -0.074 SA
HETATM   17  C6  UNL     1      23.131 -30.584  14.232  1.00  0.00     0.003 A 
HETATM   18  C7  UNL     1      23.090 -31.894  13.803  1.00  0.00    -0.021 A 
HETATM   19  C14 UNL     1      23.440 -29.351  13.420  1.00  0.00     0.126 C 
HETATM   20  C8  UNL     1      22.760 -32.805  14.768  1.00  0.00     0.086 A 
HETATM   21  C10 UNL     1      23.381 -32.399  12.400  1.00  0.00     0.042 C 
HETATM   22  C9  UNL     1      22.650 -34.269  14.563  1.00  0.00     0.103 C 
HETATM   23  N4  UNL     1      22.567 -35.420  14.383  1.00  0.00    -0.191 NA
HETATM   24  C11 UNL     1      22.607 -31.862  11.260  1.00  0.00     0.016 C 
HETATM   25  C12 UNL     1      22.998 -30.398  10.850  1.00  0.00     0.080 C 
HETATM   26  C13 UNL     1      23.223 -29.676  12.040  1.00  0.00    -0.178 C 
ENDBRANCH  12  15
ENDBRANCH   5   9
ENDBRANCH   4   5
ENDBRANCH   3   4
TORSDOF 4
ENDMDL
MODEL 3
REMARK VINA RESULT: -9.017386974      6.735     10.530
REMARK  4 active torsions:
REMARK  status: ('A' for Active; 'I' for Inactive)
REMARK    1  A    between atoms: C2_3  and  O1_4 
REMARK    2  A    between atoms: O1_4  and  C3_5 
REMARK    3  A    between atoms: C3_5  and  N2_6 
REMARK       I    between atoms: N2_6  and  C4_8 
REMARK       I    between atoms: C4_8  and  N3_10 
REMARK    4  A    between atoms: N3_10  and  C5_12 
ROOT
HETATM    1  N1  UNL     1      21.555 -36.123  23.033  1.00  0.00    -0.195 NA
HETATM    2  C1  UNL     1      21.896 -35.427  22.145  1.00  0.00     0.085 C 
HETATM    3  C2  UNL     1      22.327 -34.608  21.028  1.00  0.00     0.294 C 
ENDROOT
BRANCH   3   4
HETATM    4  O1  UNL     1      22.291 -33.288  21.231  1.00  0.00    -0.347 OA
BRANCH   4   5
HETATM    5  C3  UNL     1      21.231 -32.525  20.817  1.00  0.00     0.139 A 
HETATM    6  C15 UNL     1      20.082 -32.372  21.741  1.00  0.00     0.061 A 
HETATM    7  C16 UNL     1      20.464 -30.924  22.040  1.00  0.00     0.010 A 
HETATM    8  C17 UNL     1      21.598 -31.054  21.070  1.00  0.00     0.061 A 
BRANCH   5   9
HETATM    9  N2  UNL     1      20.898 -32.783  19.429  1.00  0.00    -0.310 N 
HETATM   10  C4  UNL     1      21.520 -32.222  18.314  1.00  0.00     0.323 C 
HETATM   11  O2  UNL     1      22.454 -31.409  18.436  1.00  0.00    -0.247 OA
HETATM   12  N3  UNL     1      21.110 -32.559  16.998  1.00  0.00    -0.302 N 
ATOM     13  H3  UNL     1      20.347 -33.223  16.865  1.00  0.00     0.171 HD
ATOM     14  H2  UNL     1      20.136 -33.438  19.253  1.00  0.00     0.167 HD
BRANCH  12  15
HETATM   15  C5  UNL     1      21.748 -31.982  15.854  1.00  0.00     0.100 A 
HETATM   16  S1  UNL     1      21.938 -30.311  15.573  1.00  0.00    -0.074 SA
HETATM   17  C6  UNL     1      22.741 -30.371  14.102  1.00  0.00     0.003 A 
HETATM   18  C7  UNL     1      22.865 -31.715  13.822  1.00  0.00    -0.021 A 
HETATM   19  C14 UNL     1      23.201 -29.202  13.268  1.00  0.00     0.126 C 
HETATM   20  C8  UNL     1      22.332 -32.551  14.763  1.00  0.00     0.086 A 
HETATM   21  C10 UNL     1      23.531 -32.330  12.602  1.00  0.00     0.042 C 
HETATM   22  C9  UNL     1      22.337 -34.032  14.697  1.00  0.00     0.103 C 
HETATM   23  N4  UNL     1      22.349 -35.198  14.628  1.00  0.00    -0.191 NA
HETATM   24  C11 UNL     1      23.059 -31.955  11.251  1.00  0.00     0.016 C 
HETATM   25  C12 UNL     1      23.485 -30.514  10.799  1.00  0.00     0.080 C 
HETATM   26  C13 UNL     1      23.363 -29.670  11.922  1.00  0.00    -0.178 C 
ENDBRANCH  12  15
ENDBRANCH   5   9
ENDBRANCH   4   5
ENDBRANCH   3   4
TORSDOF 4
ENDMDL
MODEL 4
REMARK VINA RESULT: -9.016819606      6.724     10.340
REMARK  4 active torsions:
REMARK  status: ('A' for Active; 'I' for Inactive)
REMARK    1  A    between atoms: C2_3  and  O1_4 
REMARK    2  A    between atoms: O1_4  and  C3_5 
REMARK    3  A    between atoms: C3_5  and  N2_6 
REMARK       I    between atoms: N2_6  and  C4_8 
REMARK       I    between atoms: C4_8  and  N3_10 
REMARK    4  A    between atoms: N3_10  and  C5_12 
ROOT
HETATM    1  N1  UNL     1      16.275 -29.968  21.999  1.00  0.00    -0.195 NA
HETATM    2  C1  UNL     1      17.404 -30.307  21.955  1.00  0.00     0.085 C 
HETATM    3  C2  UNL     1      18.798 -30.706  21.942  1.00  0.00     0.294 C 
ENDROOT
BRANCH   3   4
HETATM    4  O1  UNL     1      19.232 -31.256  20.805  1.00  0.00    -0.347 OA
BRANCH   4   5
HETATM    5  C3  UNL     1      19.660 -32.557  20.752  1.00  0.00     0.139 A 
HETATM    6  C15 UNL     1      19.625 -33.351  22.004  1.00  0.00     0.061 A 
HETATM    7  C16 UNL     1      18.436 -34.166  21.501  1.00  0.00     0.010 A 
HETATM    8  C17 UNL     1      18.495 -33.402  20.214  1.00  0.00     0.061 A 
BRANCH   5   9
HETATM    9  N2  UNL     1      20.861 -32.690  19.950  1.00  0.00    -0.310 N 
HETATM   10  C4  UNL     1      20.942 -32.578  18.562  1.00  0.00     0.323 C 
HETATM   11  O2  UNL     1      19.931 -32.348  17.873  1.00  0.00    -0.247 OA
HETATM   12  N3  UNL     1      22.180 -32.722  17.885  1.00  0.00    -0.302 N 
ATOM     13  H3  UNL     1      23.027 -32.910  18.422  1.00  0.00     0.171 HD
ATOM     14  H2  UNL     1      21.729 -32.885  20.449  1.00  0.00     0.167 HD
BRANCH  12  15
HETATM   15  C5  UNL     1      22.262 -32.607  16.461  1.00  0.00     0.100 A 
HETATM   16  S1  UNL     1      22.338 -33.917  15.372  1.00  0.00    -0.074 SA
HETATM   17  C6  UNL     1      22.415 -33.069  13.928  1.00  0.00     0.003 A 
HETATM   18  C7  UNL     1      22.381 -31.740  14.296  1.00  0.00    -0.021 A 
HETATM   19  C14 UNL     1      22.521 -33.644  12.538  1.00  0.00     0.126 C 
HETATM   20  C8  UNL     1      22.300 -31.518  15.643  1.00  0.00     0.086 A 
HETATM   21  C10 UNL     1      22.413 -30.539  13.366  1.00  0.00     0.042 C 
HETATM   22  C9  UNL     1      22.249 -30.186  16.292  1.00  0.00     0.103 C 
HETATM   23  N4  UNL     1      22.210 -29.129  16.786  1.00  0.00    -0.191 NA
HETATM   24  C11 UNL     1      23.538 -30.385  12.418  1.00  0.00     0.016 C 
HETATM   25  C12 UNL     1      23.490 -31.371  11.198  1.00  0.00     0.080 C 
HETATM   26  C13 UNL     1      23.056 -32.621  11.687  1.00  0.00    -0.178 C 
ENDBRANCH  12  15
ENDBRANCH   5   9
ENDBRANCH   4   5
ENDBRANCH   3   4
TORSDOF 4
ENDMDL
MODEL 5
REMARK VINA RESULT: -8.930035849      6.752     10.067
REMARK  4 active torsions:
REMARK  status: ('A' for Active; 'I' for Inactive)
REMARK    1  A    between atoms: C2_3  and  O1_4 
REMARK    2  A    between atoms: O1_4  and  C3_5 
REMARK    3  A    between atoms: C3_5  and  N2_6 
REMARK       I    between atoms: N2_6  and  C4_8 
REMARK       I    between atoms: C4_8  and  N3_10 
REMARK    4  A    between atoms: N3_10  and  C5_12 
ROOT
HETATM    1  N1  UNL     1      22.294 -28.693  21.614  1.00  0.00    -0.195 NA
HETATM    2  C1  UNL     1      21.783 -29.756  21.585  1.00  0.00     0.085 C 
HETATM    3  C2  UNL     1      21.116 -31.043  21.560  1.00  0.00     0.294 C 
ENDROOT
BRANCH   3   4
HETATM    4  O1  UNL     1      21.906 -32.101  21.362  1.00  0.00    -0.347 OA
BRANCH   4   5
HETATM    5  C3  UNL     1      21.424 -33.273  20.840  1.00  0.00     0.139 A 
HETATM    6  C15 UNL     1      22.229 -34.503  21.036  1.00  0.00     0.061 A 
HETATM    7  C16 UNL     1      21.230 -35.041  22.058  1.00  0.00     0.010 A 
HETATM    8  C17 UNL     1      20.387 -33.824  21.830  1.00  0.00     0.061 A 
BRANCH   5   9
HETATM    9  N2  UNL     1      20.876 -33.078  19.512  1.00  0.00    -0.310 N 
HETATM   10  C4  UNL     1      21.544 -32.530  18.417  1.00  0.00     0.323 C 
HETATM   11  O2  UNL     1      22.723 -32.141  18.508  1.00  0.00    -0.247 OA
HETATM   12  N3  UNL     1      20.903 -32.396  17.158  1.00  0.00    -0.302 N 
ATOM     13  H3  UNL     1      19.937 -32.706  17.051  1.00  0.00     0.171 HD
ATOM     14  H2  UNL     1      19.910 -33.370  19.364  1.00  0.00     0.167 HD
BRANCH  12  15
HETATM   15  C5  UNL     1      21.589 -31.833  16.035  1.00  0.00     0.100 A 
HETATM   16  S1  UNL     1      21.796 -30.165  15.745  1.00  0.00    -0.074 SA
HETATM   17  C6  UNL     1      22.658 -30.243  14.309  1.00  0.00     0.003 A 
HETATM   18  C7  UNL     1      22.788 -31.590  14.047  1.00  0.00    -0.021 A 
HETATM   19  C14 UNL     1      23.155 -29.084  13.482  1.00  0.00     0.126 C 
HETATM   20  C8  UNL     1      22.215 -32.415  14.974  1.00  0.00     0.086 A 
HETATM   21  C10 UNL     1      23.500 -32.219  12.861  1.00  0.00     0.042 C 
HETATM   22  C9  UNL     1      22.216 -33.897  14.923  1.00  0.00     0.103 C 
HETATM   23  N4  UNL     1      22.227 -35.063  14.866  1.00  0.00    -0.191 NA
HETATM   24  C11 UNL     1      23.084 -31.857  11.489  1.00  0.00     0.016 C 
HETATM   25  C12 UNL     1      23.534 -30.422  11.039  1.00  0.00     0.080 C 
HETATM   26  C13 UNL     1      23.370 -29.566  12.148  1.00  0.00    -0.178 C 
ENDBRANCH  12  15
ENDBRANCH   5   9
ENDBRANCH   4   5
ENDBRANCH   3   4
TORSDOF 4
ENDMDL
