MODEL 1
REMARK VINA RESULT: -8.829631143      0.000      0.000
REMARK  5 active torsions:
REMARK  status: ('A' for Active; 'I' for Inactive)
REMARK    1  A    between atoms: O1_2  and  C2_3 
REMARK    2  A    between atoms: C7_8  and  O2_9 
REMARK    3  A    between atoms: O2_9  and  C8_10 
REMARK    4  A    between atoms: C11_13  and  O3_14 
REMARK    5  A    between atoms: N1_22  and  O4_23 
ROOT
HETATM    1  C2  UNL     1      22.565 -29.996  12.576  1.00  0.00     0.102 A 
HETATM    2  C3  UNL     1      22.782 -31.328  12.908  1.00  0.00     0.049 A 
HETATM    3  C4  UNL     1      22.795 -31.788  14.200  1.00  0.00    -0.025 A 
HETATM    4  C5  UNL     1      22.581 -30.863  15.199  1.00  0.00    -0.045 A 
HETATM    5  C6  UNL     1      22.367 -29.554  14.880  1.00  0.00     0.047 A 
HETATM    6  C7  UNL     1      22.350 -29.060  13.553  1.00  0.00     0.103 A 
HETATM    7  C14 UNL     1      22.585 -31.315  16.644  1.00  0.00     0.066 C 
HETATM    8  C15 UNL     1      22.140 -32.726  16.811  1.00  0.00     0.036 C 
HETATM    9  C16 UNL     1      22.944 -33.412  17.924  1.00  0.00     0.034 C 
HETATM   10  C17 UNL     1      20.711 -32.671  17.382  1.00  0.00     0.034 C 
HETATM   11  N1  UNL     1      22.078 -33.510  15.631  1.00  0.00    -0.177 NA
HETATM   12  C18 UNL     1      23.018 -33.185  14.606  1.00  0.00     0.059 C 
HETATM   13  C19 UNL     1      24.445 -33.378  14.975  1.00  0.00     0.040 C 
HETATM   14  C20 UNL     1      22.724 -34.109  13.417  1.00  0.00     0.040 C 
ENDROOT
BRANCH   6  15
HETATM   15  O2  UNL     1      22.131 -27.750  13.332  1.00  0.00    -0.343 OA
BRANCH  15  16
HETATM   16  C8  UNL     1      22.880 -26.627  13.482  1.00  0.00     0.129 C 
HETATM   17  C9  UNL     1      23.295 -26.043  12.135  1.00  0.00     0.035 C 
HETATM   18  C10 UNL     1      23.779 -24.661  12.177  1.00  0.00     0.034 C 
HETATM   19  C11 UNL     1      23.290 -23.783  13.273  1.00  0.00     0.118 C 
HETATM   20  C12 UNL     1      22.977 -24.479  14.554  1.00  0.00     0.034 C 
HETATM   21  C13 UNL     1      22.011 -25.599  14.232  1.00  0.00     0.035 C 
BRANCH  19  22
HETATM   22  O3  UNL     1      24.263 -22.798  13.565  1.00  0.00    -0.396 OA
ATOM     23  H3  UNL     1      23.884 -22.129  14.123  1.00  0.00     0.210 HD
ENDBRANCH  19  22
ENDBRANCH  15  16
ENDBRANCH   6  15
BRANCH   1  24
HETATM   24  O1  UNL     1      22.584 -29.705  11.227  1.00  0.00    -0.353 OA
HETATM   25  C1  UNL     1      21.449 -29.591  10.425  1.00  0.00     0.210 C 
ENDBRANCH   1  24
BRANCH  11  26
HETATM   26  O4  UNL     1      20.828 -33.378  15.078  1.00  0.00    -0.311 OA
ATOM     27  H4  UNL     1      20.810 -33.845  14.251  1.00  0.00     0.237 HD
ENDBRANCH  11  26
TORSDOF 5
ENDMDL
MODEL 2
REMARK VINA RESULT: -7.798525698      1.097      1.574
REMARK  5 active torsions:
REMARK  status: ('A' for Active; 'I' for Inactive)
REMARK    1  A    between atoms: O1_2  and  C2_3 
REMARK    2  A    between atoms: C7_8  and  O2_9 
REMARK    3  A    between atoms: O2_9  and  C8_10 
REMARK    4  A    between atoms: C11_13  and  O3_14 
REMARK    5  A    between atoms: N1_22  and  O4_23 
ROOT
HETATM    1  C2  UNL     1      22.838 -29.868  12.702  1.00  0.00     0.102 A 
HETATM    2  C3  UNL     1      22.980 -31.221  12.985  1.00  0.00     0.049 A 
HETATM    3  C4  UNL     1      22.907 -31.736  14.254  1.00  0.00    -0.025 A 
HETATM    4  C5  UNL     1      22.680 -30.845  15.281  1.00  0.00    -0.045 A 
HETATM    5  C6  UNL     1      22.540 -29.515  15.011  1.00  0.00     0.047 A 
HETATM    6  C7  UNL     1      22.612 -28.965  13.707  1.00  0.00     0.103 A 
HETATM    7  C14 UNL     1      22.590 -31.357  16.703  1.00  0.00     0.066 C 
HETATM    8  C15 UNL     1      22.077 -32.753  16.784  1.00  0.00     0.036 C 
HETATM    9  C16 UNL     1      22.793 -33.520  17.905  1.00  0.00     0.034 C 
HETATM   10  C17 UNL     1      20.624 -32.658  17.285  1.00  0.00     0.034 C 
HETATM   11  N1  UNL     1      22.043 -33.483  15.569  1.00  0.00    -0.177 NA
HETATM   12  C18 UNL     1      23.049 -33.157  14.609  1.00  0.00     0.059 C 
HETATM   13  C19 UNL     1      24.444 -33.429  15.040  1.00  0.00     0.040 C 
HETATM   14  C20 UNL     1      22.777 -34.016  13.367  1.00  0.00     0.040 C 
ENDROOT
BRANCH   6  15
HETATM   15  O2  UNL     1      22.461 -27.639  13.535  1.00  0.00    -0.343 OA
BRANCH  15  16
HETATM   16  C8  UNL     1      22.156 -26.605  14.362  1.00  0.00     0.129 C 
HETATM   17  C9  UNL     1      22.697 -26.830  15.769  1.00  0.00     0.035 C 
HETATM   18  C10 UNL     1      22.743 -25.638  16.619  1.00  0.00     0.034 C 
HETATM   19  C11 UNL     1      22.867 -24.313  15.956  1.00  0.00     0.118 C 
HETATM   20  C12 UNL     1      22.240 -24.217  14.606  1.00  0.00     0.034 C 
HETATM   21  C13 UNL     1      22.806 -25.341  13.767  1.00  0.00     0.035 C 
BRANCH  19  22
HETATM   22  O3  UNL     1      22.265 -23.318  16.763  1.00  0.00    -0.396 OA
ATOM     23  H3  UNL     1      21.709 -23.728  17.414  1.00  0.00     0.210 HD
ENDBRANCH  19  22
ENDBRANCH  15  16
ENDBRANCH   6  15
BRANCH   1  24
HETATM   24  O1  UNL     1      22.940 -29.521  11.370  1.00  0.00    -0.353 OA
HETATM   25  C1  UNL     1      21.865 -29.455  10.485  1.00  0.00     0.210 C 
ENDBRANCH   1  24
BRANCH  11  26
HETATM   26  O4  UNL     1      20.831 -33.271  14.961  1.00  0.00    -0.311 OA
ATOM     27  H4  UNL     1      20.963 -33.239  14.021  1.00  0.00     0.237 HD
ENDBRANCH  11  26
TORSDOF 5
ENDMDL
MODEL 3
REMARK VINA RESULT: -7.669866179      2.936      5.420
REMARK  5 active torsions:
REMARK  status: ('A' for Active; 'I' for Inactive)
REMARK    1  A    between atoms: O1_2  and  C2_3 
REMARK    2  A    between atoms: C7_8  and  O2_9 
REMARK    3  A    between atoms: O2_9  and  C8_10 
REMARK    4  A    between atoms: C11_13  and  O3_14 
REMARK    5  A    between atoms: N1_22  and  O4_23 
ROOT
HETATM    1  C2  UNL     1      22.607 -29.924  16.700  1.00  0.00     0.102 A 
HETATM    2  C3  UNL     1      22.560 -29.749  18.078  1.00  0.00     0.049 A 
HETATM    3  C4  UNL     1      22.033 -30.678  18.937  1.00  0.00    -0.025 A 
HETATM    4  C5  UNL     1      21.532 -31.835  18.381  1.00  0.00    -0.045 A 
HETATM    5  C6  UNL     1      21.574 -32.014  17.028  1.00  0.00     0.047 A 
HETATM    6  C7  UNL     1      22.115 -31.066  16.126  1.00  0.00     0.103 A 
HETATM    7  C14 UNL     1      20.937 -32.897  19.281  1.00  0.00     0.066 C 
HETATM    8  C15 UNL     1      21.549 -32.914  20.639  1.00  0.00     0.036 C 
HETATM    9  C16 UNL     1      20.485 -33.228  21.700  1.00  0.00     0.034 C 
HETATM   10  C17 UNL     1      22.477 -34.142  20.686  1.00  0.00     0.034 C 
HETATM   11  N1  UNL     1      22.341 -31.790  20.986  1.00  0.00    -0.177 NA
HETATM   12  C18 UNL     1      21.960 -30.544  20.402  1.00  0.00     0.059 C 
HETATM   13  C19 UNL     1      20.614 -30.049  20.792  1.00  0.00     0.040 C 
HETATM   14  C20 UNL     1      22.984 -29.500  20.863  1.00  0.00     0.040 C 
ENDROOT
BRANCH   6  15
HETATM   15  O2  UNL     1      22.115 -31.328  14.806  1.00  0.00    -0.343 OA
BRANCH  15  16
HETATM   16  C8  UNL     1      22.718 -30.762  13.728  1.00  0.00     0.129 C 
HETATM   17  C9  UNL     1      23.109 -31.807  12.688  1.00  0.00     0.035 C 
HETATM   18  C10 UNL     1      23.423 -31.277  11.359  1.00  0.00     0.034 C 
HETATM   19  C11 UNL     1      22.792 -29.993  10.952  1.00  0.00     0.118 C 
HETATM   20  C12 UNL     1      22.518 -29.039  12.065  1.00  0.00     0.034 C 
HETATM   21  C13 UNL     1      21.706 -29.782  13.104  1.00  0.00     0.035 C 
BRANCH  19  22
HETATM   22  O3  UNL     1      23.629 -29.322  10.030  1.00  0.00    -0.396 OA
ATOM     23  H3  UNL     1      23.490 -29.672   9.158  1.00  0.00     0.210 HD
ENDBRANCH  19  22
ENDBRANCH  15  16
ENDBRANCH   6  15
BRANCH   1  24
HETATM   24  O1  UNL     1      23.172 -28.888  15.984  1.00  0.00    -0.353 OA
HETATM   25  C1  UNL     1      22.691 -27.580  15.972  1.00  0.00     0.210 C 
ENDBRANCH   1  24
BRANCH  11  26
HETATM   26  O4  UNL     1      23.637 -32.028  20.603  1.00  0.00    -0.311 OA
ATOM     27  H4  UNL     1      23.789 -32.966  20.608  1.00  0.00     0.237 HD
ENDBRANCH  11  26
TORSDOF 5
ENDMDL
MODEL 4
REMARK VINA RESULT: -7.654602099      2.932      7.047
REMARK  5 active torsions:
REMARK  status: ('A' for Active; 'I' for Inactive)
REMARK    1  A    between atoms: O1_2  and  C2_3 
REMARK    2  A    between atoms: C7_8  and  O2_9 
REMARK    3  A    between atoms: O2_9  and  C8_10 
REMARK    4  A    between atoms: C11_13  and  O3_14 
REMARK    5  A    between atoms: N1_22  and  O4_23 
ROOT
HETATM    1  C2  UNL     1      23.119 -27.234  13.359  1.00  0.00     0.102 A 
HETATM    2  C3  UNL     1      22.629 -26.026  13.842  1.00  0.00     0.049 A 
HETATM    3  C4  UNL     1      22.004 -25.899  15.056  1.00  0.00    -0.025 A 
HETATM    4  C5  UNL     1      21.866 -27.042  15.814  1.00  0.00    -0.045 A 
HETATM    5  C6  UNL     1      22.345 -28.231  15.347  1.00  0.00     0.047 A 
HETATM    6  C7  UNL     1      22.994 -28.382  14.097  1.00  0.00     0.103 A 
HETATM    7  C14 UNL     1      21.184 -26.961  17.163  1.00  0.00     0.066 C 
HETATM    8  C15 UNL     1      21.348 -25.633  17.817  1.00  0.00     0.036 C 
HETATM    9  C16 UNL     1      20.067 -25.247  18.571  1.00  0.00     0.034 C 
HETATM   10  C17 UNL     1      22.382 -25.823  18.941  1.00  0.00     0.034 C 
HETATM   11  N1  UNL     1      21.827 -24.582  16.995  1.00  0.00    -0.177 NA
HETATM   12  C18 UNL     1      21.468 -24.647  15.614  1.00  0.00     0.059 C 
HETATM   13  C19 UNL     1      20.012 -24.556  15.335  1.00  0.00     0.040 C 
HETATM   14  C20 UNL     1      22.143 -23.457  14.919  1.00  0.00     0.040 C 
ENDROOT
BRANCH   6  15
HETATM   15  O2  UNL     1      23.434 -29.595  13.717  1.00  0.00    -0.343 OA
BRANCH  15  16
HETATM   16  C8  UNL     1      22.830 -30.787  13.467  1.00  0.00     0.129 C 
HETATM   17  C9  UNL     1      23.184 -31.318  12.082  1.00  0.00     0.035 C 
HETATM   18  C10 UNL     1      22.890 -32.736  11.865  1.00  0.00     0.034 C 
HETATM   19  C11 UNL     1      22.877 -33.637  13.048  1.00  0.00     0.118 C 
HETATM   20  C12 UNL     1      22.454 -32.998  14.327  1.00  0.00     0.034 C 
HETATM   21  C13 UNL     1      23.329 -31.781  14.533  1.00  0.00     0.035 C 
BRANCH  19  22
HETATM   22  O3  UNL     1      21.995 -34.718  12.815  1.00  0.00    -0.396 OA
ATOM     23  H3  UNL     1      21.683 -35.061  13.644  1.00  0.00     0.210 HD
ENDBRANCH  19  22
ENDBRANCH  15  16
ENDBRANCH   6  15
BRANCH   1  24
HETATM   24  O1  UNL     1      23.721 -27.183  12.119  1.00  0.00    -0.353 OA
HETATM   25  C1  UNL     1      23.122 -27.597  10.930  1.00  0.00     0.210 C 
ENDBRANCH   1  24
BRANCH  11  26
HETATM   26  O4  UNL     1      23.198 -24.569  17.049  1.00  0.00    -0.311 OA
ATOM     27  H4  UNL     1      23.479 -23.765  17.469  1.00  0.00     0.237 HD
ENDBRANCH  11  26
TORSDOF 5
ENDMDL
MODEL 5
REMARK VINA RESULT: -7.648216883      1.071      1.327
REMARK  5 active torsions:
REMARK  status: ('A' for Active; 'I' for Inactive)
REMARK    1  A    between atoms: O1_2  and  C2_3 
REMARK    2  A    between atoms: C7_8  and  O2_9 
REMARK    3  A    between atoms: O2_9  and  C8_10 
REMARK    4  A    between atoms: C11_13  and  O3_14 
REMARK    5  A    between atoms: N1_22  and  O4_23 
ROOT
HETATM    1  C2  UNL     1      22.848 -29.776  12.747  1.00  0.00     0.102 A 
HETATM    2  C3  UNL     1      22.939 -31.145  12.972  1.00  0.00     0.049 A 
HETATM    3  C4  UNL     1      22.889 -31.706  14.222  1.00  0.00    -0.025 A 
HETATM    4  C5  UNL     1      22.742 -30.849  15.291  1.00  0.00    -0.045 A 
HETATM    5  C6  UNL     1      22.652 -29.504  15.077  1.00  0.00     0.047 A 
HETATM    6  C7  UNL     1      22.701 -28.906  13.794  1.00  0.00     0.103 A 
HETATM    7  C14 UNL     1      22.681 -31.413  16.694  1.00  0.00     0.066 C 
HETATM    8  C15 UNL     1      22.108 -32.787  16.741  1.00  0.00     0.036 C 
HETATM    9  C16 UNL     1      22.829 -33.630  17.803  1.00  0.00     0.034 C 
HETATM   10  C17 UNL     1      20.681 -32.648  17.302  1.00  0.00     0.034 C 
HETATM   11  N1  UNL     1      21.996 -33.465  15.501  1.00  0.00    -0.177 NA
HETATM   12  C18 UNL     1      22.979 -33.146  14.516  1.00  0.00     0.059 C 
HETATM   13  C19 UNL     1      24.376 -33.496  14.881  1.00  0.00     0.040 C 
HETATM   14  C20 UNL     1      22.623 -33.941  13.253  1.00  0.00     0.040 C 
ENDROOT
BRANCH   6  15
HETATM   15  O2  UNL     1      22.604 -27.568  13.679  1.00  0.00    -0.343 OA
BRANCH  15  16
HETATM   16  C8  UNL     1      22.925 -26.522  14.485  1.00  0.00     0.129 C 
HETATM   17  C9  UNL     1      22.832 -25.192  13.745  1.00  0.00     0.035 C 
HETATM   18  C10 UNL     1      22.798 -24.004  14.601  1.00  0.00     0.034 C 
HETATM   19  C11 UNL     1      22.259 -24.151  15.979  1.00  0.00     0.118 C 
HETATM   20  C12 UNL     1      22.472 -25.487  16.605  1.00  0.00     0.034 C 
HETATM   21  C13 UNL     1      21.918 -26.523  15.651  1.00  0.00     0.035 C 
BRANCH  19  22
HETATM   22  O3  UNL     1      22.862 -23.195  16.831  1.00  0.00    -0.396 OA
ATOM     23  H3  UNL     1      23.801 -23.337  16.857  1.00  0.00     0.210 HD
ENDBRANCH  19  22
ENDBRANCH  15  16
ENDBRANCH   6  15
BRANCH   1  24
HETATM   24  O1  UNL     1      22.916 -29.381  11.426  1.00  0.00    -0.353 OA
HETATM   25  C1  UNL     1      22.326 -30.064  10.364  1.00  0.00     0.210 C 
ENDBRANCH   1  24
BRANCH  11  26
HETATM   26  O4  UNL     1      20.773 -33.176  14.949  1.00  0.00    -0.311 OA
ATOM     27  H4  UNL     1      20.383 -32.458  15.433  1.00  0.00     0.237 HD
ENDBRANCH  11  26
TORSDOF 5
ENDMDL
