MODEL 1
REMARK VINA RESULT: -7.447767378      0.000      0.000
REMARK  4 active torsions:
REMARK  status: ('A' for Active; 'I' for Inactive)
REMARK    1  A    between atoms: C2_2  and  N1_4 
REMARK    2  A    between atoms: C2_2  and  C4_8 
REMARK    3  A    between atoms: C4_8  and  C5_9 
REMARK    4  A    between atoms: C11_16  and  N2_17 
ROOT
HETATM    1  N2  UNL     1      23.523 -24.837  12.306  1.00  0.00    -0.338 N 
HETATM    2  C12 UNL     1      24.846 -24.815  12.570  1.00  0.00     0.095 A 
HETATM    3  C13 UNL     1      25.309 -23.536  12.283  1.00  0.00     0.041 A 
HETATM    4  C14 UNL     1      24.256 -22.779  11.842  1.00  0.00     0.061 A 
HETATM    5  C15 UNL     1      24.252 -21.405  11.431  1.00  0.00     0.101 C 
HETATM    6  N3  UNL     1      24.261 -20.293  11.107  1.00  0.00    -0.191 NA
HETATM    7  C16 UNL     1      23.149 -23.626  11.868  1.00  0.00     0.115 A 
ENDROOT
BRANCH   1   8
HETATM    8  C11 UNL     1      22.667 -25.992  12.476  1.00  0.00     0.231 C 
HETATM    9  O1  UNL     1      21.676 -26.028  11.531  1.00  0.00    -0.365 OA
HETATM   10  C10 UNL     1      21.429 -27.333  11.183  1.00  0.00     0.176 C 
HETATM   11  C9  UNL     1      22.683 -28.133  11.459  1.00  0.00     0.023 C 
HETATM   12  C8  UNL     1      22.390 -29.524  11.815  1.00  0.00     0.001 C 
HETATM   13  C17 UNL     1      23.429 -27.296  12.404  1.00  0.00     0.041 C 
HETATM   14  C7  UNL     1      22.965 -30.515  10.791  1.00  0.00     0.006 C 
HETATM   15  C20 UNL     1      22.837 -30.030  13.124  1.00  0.00    -0.036 C 
HETATM   16  C6  UNL     1      24.048 -31.266  11.583  1.00  0.00     0.006 C 
HETATM   17  C5  UNL     1      23.374 -31.465  12.879  1.00  0.00    -0.004 C 
HETATM   18  C19 UNL     1      23.913 -29.287  13.812  1.00  0.00     0.010 C 
HETATM   19  C21 UNL     1      21.656 -30.136  14.096  1.00  0.00     0.016 C 
HETATM   20  C18 UNL     1      23.605 -27.815  13.779  1.00  0.00     0.010 C 
BRANCH  17  21
HETATM   21  C4  UNL     1      22.308 -32.460  13.028  1.00  0.00     0.043 C 
BRANCH  21  22
HETATM   22  C2  UNL     1      22.494 -33.576  13.982  1.00  0.00     0.117 C 
HETATM   23  C1  UNL     1      23.948 -33.525  14.553  1.00  0.00     0.045 C 
HETATM   24  C3  UNL     1      21.623 -33.588  15.206  1.00  0.00     0.045 C 
BRANCH  22  25
HETATM   25  N1  UNL     1      22.386 -34.886  13.362  1.00  0.00    -0.071 N 
ATOM     26  H13 UNL     1      22.354 -34.861  12.343  1.00  0.00     0.275 HD
ATOM     27  H12 UNL     1      23.232 -35.451  13.437  1.00  0.00     0.275 HD
ATOM     28  H11 UNL     1      21.564 -35.309  13.792  1.00  0.00     0.275 HD
ENDBRANCH  22  25
ENDBRANCH  21  22
ENDBRANCH  17  21
ENDBRANCH   1   8
TORSDOF 4
ENDMDL
MODEL 2
REMARK VINA RESULT: -7.223439452      4.357      7.911
REMARK  4 active torsions:
REMARK  status: ('A' for Active; 'I' for Inactive)
REMARK    1  A    between atoms: C2_2  and  N1_4 
REMARK    2  A    between atoms: C2_2  and  C4_8 
REMARK    3  A    between atoms: C4_8  and  C5_9 
REMARK    4  A    between atoms: C11_16  and  N2_17 
ROOT
HETATM    1  N2  UNL     1      23.188 -28.809  12.537  1.00  0.00    -0.338 N 
HETATM    2  C12 UNL     1      23.035 -28.799  11.196  1.00  0.00     0.095 A 
HETATM    3  C13 UNL     1      22.880 -30.117  10.783  1.00  0.00     0.041 A 
HETATM    4  C14 UNL     1      22.940 -30.930  11.885  1.00  0.00     0.061 A 
HETATM    5  C15 UNL     1      22.830 -32.359  11.950  1.00  0.00     0.101 C 
HETATM    6  N3  UNL     1      22.735 -33.512  11.990  1.00  0.00    -0.191 NA
HETATM    7  C16 UNL     1      23.134 -30.076  12.970  1.00  0.00     0.115 A 
ENDROOT
BRANCH   1   8
HETATM    8  C11 UNL     1      23.378 -27.628  13.353  1.00  0.00     0.231 C 
HETATM    9  O1  UNL     1      23.589 -26.514  12.585  1.00  0.00    -0.365 OA
HETATM   10  C10 UNL     1      23.001 -25.430  13.187  1.00  0.00     0.176 C 
HETATM   11  C9  UNL     1      21.874 -25.938  14.059  1.00  0.00     0.023 C 
HETATM   12  C8  UNL     1      21.645 -25.085  15.229  1.00  0.00     0.001 C 
HETATM   13  C17 UNL     1      22.200 -27.353  14.261  1.00  0.00     0.041 C 
HETATM   14  C7  UNL     1      20.249 -24.442  15.211  1.00  0.00     0.006 C 
HETATM   15  C20 UNL     1      21.774 -25.674  16.573  1.00  0.00    -0.036 C 
HETATM   16  C6  UNL     1      19.537 -25.091  16.409  1.00  0.00     0.006 C 
HETATM   17  C5  UNL     1      20.611 -25.093  17.419  1.00  0.00    -0.004 C 
HETATM   18  C19 UNL     1      21.685 -27.144  16.684  1.00  0.00     0.010 C 
HETATM   19  C21 UNL     1      23.089 -25.241  17.231  1.00  0.00     0.016 C 
HETATM   20  C18 UNL     1      22.554 -27.780  15.633  1.00  0.00     0.010 C 
BRANCH  17  21
HETATM   21  C4  UNL     1      21.015 -23.853  18.090  1.00  0.00     0.043 C 
BRANCH  21  22
HETATM   22  C2  UNL     1      20.430 -23.526  19.409  1.00  0.00     0.117 C 
HETATM   23  C1  UNL     1      20.262 -24.841  20.236  1.00  0.00     0.045 C 
HETATM   24  C3  UNL     1      21.227 -22.628  20.312  1.00  0.00     0.045 C 
BRANCH  22  25
HETATM   25  N1  UNL     1      19.090 -22.970  19.321  1.00  0.00    -0.071 N 
ATOM     26  H13 UNL     1      18.420 -23.577  18.849  1.00  0.00     0.275 HD
ATOM     27  H12 UNL     1      18.599 -22.930  20.215  1.00  0.00     0.275 HD
ATOM     28  H11 UNL     1      19.214 -22.062  18.874  1.00  0.00     0.275 HD
ENDBRANCH  22  25
ENDBRANCH  21  22
ENDBRANCH  17  21
ENDBRANCH   1   8
TORSDOF 4
ENDMDL
MODEL 3
REMARK VINA RESULT: -7.147241592      5.398      7.504
REMARK  4 active torsions:
REMARK  status: ('A' for Active; 'I' for Inactive)
REMARK    1  A    between atoms: C2_2  and  N1_4 
REMARK    2  A    between atoms: C2_2  and  C4_8 
REMARK    3  A    between atoms: C4_8  and  C5_9 
REMARK    4  A    between atoms: C11_16  and  N2_17 
ROOT
HETATM    1  N2  UNL     1      22.838 -28.145  16.509  1.00  0.00    -0.338 N 
HETATM    2  C12 UNL     1      22.184 -26.985  16.732  1.00  0.00     0.095 A 
HETATM    3  C13 UNL     1      22.039 -26.345  15.507  1.00  0.00     0.041 A 
HETATM    4  C14 UNL     1      22.609 -27.125  14.536  1.00  0.00     0.061 A 
HETATM    5  C15 UNL     1      22.700 -26.875  13.126  1.00  0.00     0.101 C 
HETATM    6  N3  UNL     1      22.763 -26.665  11.989  1.00  0.00    -0.191 NA
HETATM    7  C16 UNL     1      23.102 -28.249  15.199  1.00  0.00     0.115 A 
ENDROOT
BRANCH   1   8
HETATM    8  C11 UNL     1      23.186 -29.106  17.535  1.00  0.00     0.231 C 
HETATM    9  O1  UNL     1      23.813 -28.506  18.594  1.00  0.00    -0.365 OA
HETATM   10  C10 UNL     1      23.433 -29.129  19.757  1.00  0.00     0.176 C 
HETATM   11  C9  UNL     1      22.079 -29.761  19.526  1.00  0.00     0.023 C 
HETATM   12  C8  UNL     1      21.882 -30.970  20.330  1.00  0.00     0.001 C 
HETATM   13  C17 UNL     1      21.982 -29.852  18.065  1.00  0.00     0.041 C 
HETATM   14  C7  UNL     1      20.729 -30.814  21.334  1.00  0.00     0.006 C 
HETATM   15  C20 UNL     1      21.616 -32.245  19.641  1.00  0.00    -0.036 C 
HETATM   16  C6  UNL     1      19.674 -31.813  20.830  1.00  0.00     0.006 C 
HETATM   17  C5  UNL     1      20.517 -32.966  20.465  1.00  0.00    -0.004 C 
HETATM   18  C19 UNL     1      21.127 -32.179  18.249  1.00  0.00     0.010 C 
HETATM   19  C21 UNL     1      22.863 -33.136  19.650  1.00  0.00     0.016 C 
HETATM   20  C18 UNL     1      21.967 -31.206  17.468  1.00  0.00     0.010 C 
BRANCH  17  21
HETATM   21  C4  UNL     1      21.109 -33.822  21.498  1.00  0.00     0.043 C 
BRANCH  21  22
HETATM   22  C2  UNL     1      20.246 -34.789  22.213  1.00  0.00     0.117 C 
HETATM   23  C1  UNL     1      21.108 -36.013  22.659  1.00  0.00     0.045 C 
HETATM   24  C3  UNL     1      19.594 -34.321  23.483  1.00  0.00     0.045 C 
BRANCH  22  25
HETATM   25  N1  UNL     1      19.203 -35.357  21.375  1.00  0.00    -0.071 N 
ATOM     26  H13 UNL     1      19.153 -36.375  21.408  1.00  0.00     0.275 HD
ATOM     27  H12 UNL     1      18.257 -35.184  21.716  1.00  0.00     0.275 HD
ATOM     28  H11 UNL     1      19.385 -34.981  20.444  1.00  0.00     0.275 HD
ENDBRANCH  22  25
ENDBRANCH  21  22
ENDBRANCH  17  21
ENDBRANCH   1   8
TORSDOF 4
ENDMDL
MODEL 4
REMARK VINA RESULT: -6.868155082      4.081      4.552
REMARK  4 active torsions:
REMARK  status: ('A' for Active; 'I' for Inactive)
REMARK    1  A    between atoms: C2_2  and  N1_4 
REMARK    2  A    between atoms: C2_2  and  C4_8 
REMARK    3  A    between atoms: C4_8  and  C5_9 
REMARK    4  A    between atoms: C11_16  and  N2_17 
ROOT
HETATM    1  N2  UNL     1      22.220 -23.875  17.695  1.00  0.00    -0.338 N 
HETATM    2  C12 UNL     1      21.647 -23.180  18.700  1.00  0.00     0.095 A 
HETATM    3  C13 UNL     1      22.542 -22.190  19.087  1.00  0.00     0.041 A 
HETATM    4  C14 UNL     1      23.665 -22.287  18.309  1.00  0.00     0.061 A 
HETATM    5  C15 UNL     1      24.851 -21.481  18.343  1.00  0.00     0.101 C 
HETATM    6  N3  UNL     1      25.801 -20.819  18.378  1.00  0.00    -0.191 NA
HETATM    7  C16 UNL     1      23.430 -23.356  17.445  1.00  0.00     0.115 A 
ENDROOT
BRANCH   1   8
HETATM    8  C11 UNL     1      21.606 -24.995  17.013  1.00  0.00     0.231 C 
HETATM    9  O1  UNL     1      20.787 -24.579  15.998  1.00  0.00    -0.365 OA
HETATM   10  C10 UNL     1      20.867 -25.471  14.957  1.00  0.00     0.176 C 
HETATM   11  C9  UNL     1      22.208 -26.166  15.042  1.00  0.00     0.023 C 
HETATM   12  C8  UNL     1      22.162 -27.532  14.515  1.00  0.00     0.001 C 
HETATM   13  C17 UNL     1      22.624 -25.950  16.431  1.00  0.00     0.041 C 
HETATM   14  C7  UNL     1      23.068 -27.707  13.285  1.00  0.00     0.006 C 
HETATM   15  C20 UNL     1      22.516 -28.649  15.408  1.00  0.00    -0.036 C 
HETATM   16  C6  UNL     1      24.160 -28.672  13.775  1.00  0.00     0.006 C 
HETATM   17  C5  UNL     1      23.367 -29.633  14.563  1.00  0.00    -0.004 C 
HETATM   18  C19 UNL     1      23.307 -28.333  16.615  1.00  0.00     0.010 C 
HETATM   19  C21 UNL     1      21.258 -29.398  15.865  1.00  0.00     0.016 C 
HETATM   20  C18 UNL     1      22.709 -27.140  17.308  1.00  0.00     0.010 C 
BRANCH  17  21
HETATM   21  C4  UNL     1      22.519 -30.630  13.901  1.00  0.00     0.043 C 
BRANCH  21  22
HETATM   22  C2  UNL     1      22.978 -32.035  13.837  1.00  0.00     0.117 C 
HETATM   23  C1  UNL     1      23.288 -32.406  12.351  1.00  0.00     0.045 C 
HETATM   24  C3  UNL     1      24.243 -32.381  14.570  1.00  0.00     0.045 C 
BRANCH  22  25
HETATM   25  N1  UNL     1      21.964 -32.990  14.252  1.00  0.00    -0.071 N 
ATOM     26  H13 UNL     1      21.023 -32.601  14.302  1.00  0.00     0.275 HD
ATOM     27  H12 UNL     1      21.757 -33.704  13.554  1.00  0.00     0.275 HD
ATOM     28  H11 UNL     1      22.306 -33.362  15.138  1.00  0.00     0.275 HD
ENDBRANCH  22  25
ENDBRANCH  21  22
ENDBRANCH  17  21
ENDBRANCH   1   8
TORSDOF 4
ENDMDL
MODEL 5
REMARK VINA RESULT: -6.716674653      4.339      4.762
REMARK  4 active torsions:
REMARK  status: ('A' for Active; 'I' for Inactive)
REMARK    1  A    between atoms: C2_2  and  N1_4 
REMARK    2  A    between atoms: C2_2  and  C4_8 
REMARK    3  A    between atoms: C4_8  and  C5_9 
REMARK    4  A    between atoms: C11_16  and  N2_17 
ROOT
HETATM    1  N2  UNL     1      22.346 -23.880  17.572  1.00  0.00    -0.338 N 
HETATM    2  C12 UNL     1      23.434 -23.251  17.080  1.00  0.00     0.095 A 
HETATM    3  C13 UNL     1      23.755 -22.223  17.958  1.00  0.00     0.041 A 
HETATM    4  C14 UNL     1      22.853 -22.231  18.989  1.00  0.00     0.061 A 
HETATM    5  C15 UNL     1      22.784 -21.359  20.126  1.00  0.00     0.101 C 
HETATM    6  N3  UNL     1      22.744 -20.652  21.043  1.00  0.00    -0.191 NA
HETATM    7  C16 UNL     1      21.981 -23.285  18.715  1.00  0.00     0.115 A 
ENDROOT
BRANCH   1   8
HETATM    8  C11 UNL     1      21.696 -25.013  16.946  1.00  0.00     0.231 C 
HETATM    9  O1  UNL     1      20.844 -24.618  15.950  1.00  0.00    -0.365 OA
HETATM   10  C10 UNL     1      20.875 -25.540  14.934  1.00  0.00     0.176 C 
HETATM   11  C9  UNL     1      22.211 -26.247  14.990  1.00  0.00     0.023 C 
HETATM   12  C8  UNL     1      22.132 -27.628  14.505  1.00  0.00     0.001 C 
HETATM   13  C17 UNL     1      22.682 -25.995  16.356  1.00  0.00     0.041 C 
HETATM   14  C7  UNL     1      22.989 -27.849  13.249  1.00  0.00     0.006 C 
HETATM   15  C20 UNL     1      22.508 -28.722  15.417  1.00  0.00    -0.036 C 
HETATM   16  C6  UNL     1      24.090 -28.811  13.726  1.00  0.00     0.006 C 
HETATM   17  C5  UNL     1      23.317 -29.740  14.571  1.00  0.00    -0.004 C 
HETATM   18  C19 UNL     1      23.347 -28.380  16.584  1.00  0.00     0.010 C 
HETATM   19  C21 UNL     1      21.260 -29.443  15.942  1.00  0.00     0.016 C 
HETATM   20  C18 UNL     1      22.787 -27.160  17.263  1.00  0.00     0.010 C 
BRANCH  17  21
HETATM   21  C4  UNL     1      22.435 -30.746  13.971  1.00  0.00     0.043 C 
BRANCH  21  22
HETATM   22  C2  UNL     1      22.874 -32.159  13.937  1.00  0.00     0.117 C 
HETATM   23  C1  UNL     1      22.962 -32.632  12.450  1.00  0.00     0.045 C 
HETATM   24  C3  UNL     1      24.232 -32.472  14.500  1.00  0.00     0.045 C 
BRANCH  22  25
HETATM   25  N1  UNL     1      21.928 -33.070  14.560  1.00  0.00    -0.071 N 
ATOM     26  H13 UNL     1      22.354 -33.728  15.212  1.00  0.00     0.275 HD
ATOM     27  H12 UNL     1      21.306 -32.624  15.234  1.00  0.00     0.275 HD
ATOM     28  H11 UNL     1      21.445 -33.514  13.779  1.00  0.00     0.275 HD
ENDBRANCH  22  25
ENDBRANCH  21  22
ENDBRANCH  17  21
ENDBRANCH   1   8
TORSDOF 4
ENDMDL
