MODEL 1
REMARK VINA RESULT: -8.998178711      0.000      0.000
REMARK  5 active torsions:
REMARK  status: ('A' for Active; 'I' for Inactive)
REMARK    1  A    between atoms: O1_1  and  N1_3 
REMARK    2  A    between atoms: C5_9  and  C6_10 
REMARK    3  A    between atoms: C6_10  and  N2_11 
REMARK    4  A    between atoms: C9_14  and  N3_15 
REMARK    5  A    between atoms: C13_19  and  O2_20 
ROOT
HETATM    1  N2  UNL     1      22.387 -26.991  17.581  1.00  0.00    -0.393 N 
HETATM    2  C7  UNL     1      21.604 -27.082  16.436  1.00  0.00     0.123 C 
HETATM    3  C8  UNL     1      22.220 -28.139  15.497  1.00  0.00     0.045 C 
HETATM    4  C9  UNL     1      22.044 -29.461  16.180  1.00  0.00     0.094 C 
HETATM    5  C18 UNL     1      22.797 -29.411  17.478  1.00  0.00     0.045 C 
HETATM    6  C19 UNL     1      23.363 -28.045  17.764  1.00  0.00     0.123 C 
ENDROOT
BRANCH   1   7
HETATM    7  C6  UNL     1      21.943 -26.400  18.766  1.00  0.00     0.063 C 
BRANCH   7   8
HETATM    8  C5  UNL     1      21.857 -24.909  18.721  1.00  0.00     0.029 C 
HETATM    9  C4  UNL     1      22.756 -24.260  17.737  1.00  0.00     0.010 C 
HETATM   10  C3  UNL     1      22.110 -23.075  17.017  1.00  0.00     0.006 C 
HETATM   11  C2  UNL     1      20.898 -23.549  16.269  1.00  0.00     0.054 C 
HETATM   12  C1  UNL     1      19.991 -24.236  17.203  1.00  0.00     0.010 C 
HETATM   13  N1  UNL     1      18.845 -24.661  16.809  1.00  0.00    -0.277 N 
HETATM   14  C20 UNL     1      20.418 -24.430  18.611  1.00  0.00     0.064 C 
ATOM     15  H1  UNL     1      18.223 -25.138  17.463  1.00  0.00     0.193 HD
BRANCH  13  16
HETATM   16  O1  UNL     1      18.460 -24.473  15.507  1.00  0.00    -0.290 OA
ATOM     17  H1  UNL     1      18.323 -25.225  14.942  1.00  0.00     0.244 HD
ENDBRANCH  13  16
ENDBRANCH   7   8
ENDBRANCH   1   7
BRANCH   4  18
HETATM   18  N3  UNL     1      22.420 -30.569  15.329  1.00  0.00    -0.332 N 
HETATM   19  C10 UNL     1      22.841 -30.490  14.055  1.00  0.00     0.101 A 
HETATM   20  C11 UNL     1      23.123 -31.754  13.581  1.00  0.00    -0.032 A 
HETATM   21  C12 UNL     1      22.839 -32.587  14.665  1.00  0.00     0.001 A 
HETATM   22  C17 UNL     1      23.601 -32.411  12.360  1.00  0.00     0.040 C 
HETATM   23  C13 UNL     1      22.409 -31.834  15.726  1.00  0.00     0.149 A 
HETATM   24  C14 UNL     1      23.054 -34.042  14.444  1.00  0.00     0.043 C 
HETATM   25  C15 UNL     1      22.386 -34.459  13.161  1.00  0.00     0.005 C 
HETATM   26  C16 UNL     1      22.605 -33.520  12.025  1.00  0.00     0.005 C 
BRANCH  23  27
HETATM   27  O2  UNL     1      22.048 -32.372  16.952  1.00  0.00    -0.346 OA
ATOM     28  H2  UNL     1      21.628 -33.200  17.149  1.00  0.00     0.219 HD
ENDBRANCH  23  27
ENDBRANCH   4  18
TORSDOF 5
ENDMDL
MODEL 2
REMARK VINA RESULT: -8.947458358      1.846      2.214
REMARK  5 active torsions:
REMARK  status: ('A' for Active; 'I' for Inactive)
REMARK    1  A    between atoms: O1_1  and  N1_3 
REMARK    2  A    between atoms: C5_9  and  C6_10 
REMARK    3  A    between atoms: C6_10  and  N2_11 
REMARK    4  A    between atoms: C9_14  and  N3_15 
REMARK    5  A    between atoms: C13_19  and  O2_20 
ROOT
HETATM    1  N2  UNL     1      22.519 -26.148  15.424  1.00  0.00    -0.393 N 
HETATM    2  C7  UNL     1      22.275 -26.391  14.077  1.00  0.00     0.123 C 
HETATM    3  C8  UNL     1      22.872 -27.764  13.705  1.00  0.00     0.045 C 
HETATM    4  C9  UNL     1      22.050 -28.788  14.428  1.00  0.00     0.094 C 
HETATM    5  C18 UNL     1      22.194 -28.536  15.901  1.00  0.00     0.045 C 
HETATM    6  C19 UNL     1      22.976 -27.283  16.198  1.00  0.00     0.123 C 
ENDROOT
BRANCH   1   7
HETATM    7  C6  UNL     1      21.833 -25.181  16.163  1.00  0.00     0.063 C 
BRANCH   7   8
HETATM    8  C5  UNL     1      22.466 -23.828  16.150  1.00  0.00     0.029 C 
HETATM    9  C4  UNL     1      23.368 -23.569  15.003  1.00  0.00     0.010 C 
HETATM   10  C3  UNL     1      23.249 -22.148  14.448  1.00  0.00     0.006 C 
HETATM   11  C2  UNL     1      21.845 -21.915  13.974  1.00  0.00     0.054 C 
HETATM   12  C1  UNL     1      20.909 -22.198  15.075  1.00  0.00     0.010 C 
HETATM   13  N1  UNL     1      19.649 -21.993  14.932  1.00  0.00    -0.277 N 
HETATM   14  C20 UNL     1      21.442 -22.723  16.356  1.00  0.00     0.064 C 
ATOM     15  H1  UNL     1      19.008 -22.192  15.700  1.00  0.00     0.193 HD
BRANCH  13  16
HETATM   16  O1  UNL     1      19.170 -21.504  13.744  1.00  0.00    -0.290 OA
ATOM     17  H1  UNL     1      18.984 -20.576  13.656  1.00  0.00     0.244 HD
ENDBRANCH  13  16
ENDBRANCH   7   8
ENDBRANCH   1   7
BRANCH   4  18
HETATM   18  N3  UNL     1      22.389 -30.137  14.031  1.00  0.00    -0.332 N 
HETATM   19  C10 UNL     1      22.401 -30.621  12.777  1.00  0.00     0.101 A 
HETATM   20  C11 UNL     1      22.791 -31.944  12.794  1.00  0.00    -0.032 A 
HETATM   21  C12 UNL     1      23.008 -32.208  14.148  1.00  0.00     0.001 A 
HETATM   22  C17 UNL     1      23.025 -33.055  11.866  1.00  0.00     0.040 C 
HETATM   23  C13 UNL     1      22.754 -31.083  14.886  1.00  0.00     0.149 A 
HETATM   24  C14 UNL     1      23.448 -33.590  14.481  1.00  0.00     0.043 C 
HETATM   25  C15 UNL     1      22.542 -34.582  13.801  1.00  0.00     0.005 C 
HETATM   26  C16 UNL     1      22.227 -34.251  12.383  1.00  0.00     0.005 C 
BRANCH  23  27
HETATM   27  O2  UNL     1      22.879 -31.025  16.266  1.00  0.00    -0.346 OA
ATOM     28  H2  UNL     1      23.060 -31.720  16.886  1.00  0.00     0.219 HD
ENDBRANCH  23  27
ENDBRANCH   4  18
TORSDOF 5
ENDMDL
MODEL 3
REMARK VINA RESULT: -8.913910003      3.583      4.222
REMARK  5 active torsions:
REMARK  status: ('A' for Active; 'I' for Inactive)
REMARK    1  A    between atoms: O1_1  and  N1_3 
REMARK    2  A    between atoms: C5_9  and  C6_10 
REMARK    3  A    between atoms: C6_10  and  N2_11 
REMARK    4  A    between atoms: C9_14  and  N3_15 
REMARK    5  A    between atoms: C13_19  and  O2_20 
ROOT
HETATM    1  N2  UNL     1      22.957 -26.126  13.041  1.00  0.00    -0.393 N 
HETATM    2  C7  UNL     1      22.512 -26.765  11.889  1.00  0.00     0.123 C 
HETATM    3  C8  UNL     1      23.010 -28.224  11.906  1.00  0.00     0.045 C 
HETATM    4  C9  UNL     1      22.276 -28.904  13.021  1.00  0.00     0.094 C 
HETATM    5  C18 UNL     1      22.641 -28.211  14.302  1.00  0.00     0.045 C 
HETATM    6  C19 UNL     1      23.492 -26.989  14.074  1.00  0.00     0.123 C 
ENDROOT
BRANCH   1   7
HETATM    7  C6  UNL     1      22.414 -24.928  13.511  1.00  0.00     0.063 C 
BRANCH   7   8
HETATM    8  C5  UNL     1      23.404 -23.821  13.672  1.00  0.00     0.029 C 
HETATM    9  C4  UNL     1      24.605 -23.924  12.809  1.00  0.00     0.010 C 
HETATM   10  C3  UNL     1      25.063 -22.577  12.246  1.00  0.00     0.006 C 
HETATM   11  C2  UNL     1      23.964 -21.986  11.413  1.00  0.00     0.054 C 
HETATM   12  C1  UNL     1      22.736 -21.900  12.222  1.00  0.00     0.010 C 
HETATM   13  N1  UNL     1      21.677 -21.351  11.746  1.00  0.00    -0.277 N 
HETATM   14  C20 UNL     1      22.740 -22.455  13.598  1.00  0.00     0.064 C 
ATOM     15  H1  UNL     1      20.830 -21.297  12.313  1.00  0.00     0.193 HD
BRANCH  13  16
HETATM   16  O1  UNL     1      21.687 -20.839  10.475  1.00  0.00    -0.290 OA
ATOM     17  H1  UNL     1      22.438 -20.341  10.172  1.00  0.00     0.244 HD
ENDBRANCH  13  16
ENDBRANCH   7   8
ENDBRANCH   1   7
BRANCH   4  18
HETATM   18  N3  UNL     1      22.516 -30.331  13.041  1.00  0.00    -0.332 N 
HETATM   19  C10 UNL     1      22.305 -31.190  12.030  1.00  0.00     0.101 A 
HETATM   20  C11 UNL     1      22.666 -32.463  12.419  1.00  0.00    -0.032 A 
HETATM   21  C12 UNL     1      23.106 -32.295  13.734  1.00  0.00     0.001 A 
HETATM   22  C17 UNL     1      22.716 -33.826  11.882  1.00  0.00     0.040 C 
HETATM   23  C13 UNL     1      23.003 -30.977  14.092  1.00  0.00     0.149 A 
HETATM   24  C14 UNL     1      23.570 -33.527  14.428  1.00  0.00     0.043 C 
HETATM   25  C15 UNL     1      22.542 -34.614  14.261  1.00  0.00     0.005 C 
HETATM   26  C16 UNL     1      21.996 -34.732  12.879  1.00  0.00     0.005 C 
BRANCH  23  27
HETATM   27  O2  UNL     1      23.363 -30.490  15.339  1.00  0.00    -0.346 OA
ATOM     28  H2  UNL     1      23.923 -29.757  15.564  1.00  0.00     0.219 HD
ENDBRANCH  23  27
ENDBRANCH   4  18
TORSDOF 5
ENDMDL
MODEL 4
REMARK VINA RESULT: -8.795208111      3.451      8.802
REMARK  5 active torsions:
REMARK  status: ('A' for Active; 'I' for Inactive)
REMARK    1  A    between atoms: O1_1  and  N1_3 
REMARK    2  A    between atoms: C5_9  and  C6_10 
REMARK    3  A    between atoms: C6_10  and  N2_11 
REMARK    4  A    between atoms: C9_14  and  N3_15 
REMARK    5  A    between atoms: C13_19  and  O2_20 
ROOT
HETATM    1  N2  UNL     1      22.843 -29.119  14.807  1.00  0.00    -0.393 N 
HETATM    2  C7  UNL     1      21.992 -28.212  15.429  1.00  0.00     0.123 C 
HETATM    3  C8  UNL     1      22.609 -26.803  15.328  1.00  0.00     0.045 C 
HETATM    4  C9  UNL     1      22.565 -26.429  13.877  1.00  0.00     0.094 C 
HETATM    5  C18 UNL     1      23.399 -27.421  13.120  1.00  0.00     0.045 C 
HETATM    6  C19 UNL     1      23.894 -28.543  13.994  1.00  0.00     0.123 C 
ENDROOT
BRANCH   1   7
HETATM    7  C6  UNL     1      22.443 -30.399  14.414  1.00  0.00     0.063 C 
BRANCH   7   8
HETATM    8  C5  UNL     1      23.148 -31.511  15.119  1.00  0.00     0.029 C 
HETATM    9  C4  UNL     1      22.368 -32.166  16.196  1.00  0.00     0.010 C 
HETATM   10  C3  UNL     1      22.556 -33.683  16.244  1.00  0.00     0.006 C 
HETATM   11  C2  UNL     1      22.110 -34.281  14.941  1.00  0.00     0.054 C 
HETATM   12  C1  UNL     1      22.835 -33.631  13.837  1.00  0.00     0.010 C 
HETATM   13  N1  UNL     1      22.679 -34.032  12.627  1.00  0.00    -0.277 N 
HETATM   14  C20 UNL     1      23.753 -32.506  14.141  1.00  0.00     0.064 C 
ATOM     15  H1  UNL     1      23.185 -33.575  11.867  1.00  0.00     0.193 HD
BRANCH  13  16
HETATM   16  O1  UNL     1      21.831 -35.075  12.359  1.00  0.00    -0.290 OA
ATOM     17  H1  UNL     1      22.015 -35.937  12.714  1.00  0.00     0.244 HD
ENDBRANCH  13  16
ENDBRANCH   7   8
ENDBRANCH   1   7
BRANCH   4  18
HETATM   18  N3  UNL     1      22.953 -25.052  13.657  1.00  0.00    -0.332 N 
HETATM   19  C10 UNL     1      22.985 -24.075  14.579  1.00  0.00     0.101 A 
HETATM   20  C11 UNL     1      23.423 -22.903  13.998  1.00  0.00    -0.032 A 
HETATM   21  C12 UNL     1      23.648 -23.257  12.666  1.00  0.00     0.001 A 
HETATM   22  C17 UNL     1      23.698 -21.509  14.359  1.00  0.00     0.040 C 
HETATM   23  C13 UNL     1      23.352 -24.582  12.483  1.00  0.00     0.149 A 
HETATM   24  C14 UNL     1      24.139 -22.171  11.776  1.00  0.00     0.043 C 
HETATM   25  C15 UNL     1      23.270 -20.953  11.947  1.00  0.00     0.005 C 
HETATM   26  C16 UNL     1      22.945 -20.627  13.365  1.00  0.00     0.005 C 
BRANCH  23  27
HETATM   27  O2  UNL     1      23.473 -25.235  11.266  1.00  0.00    -0.346 OA
ATOM     28  H2  UNL     1      24.245 -25.379  10.731  1.00  0.00     0.219 HD
ENDBRANCH  23  27
ENDBRANCH   4  18
TORSDOF 5
ENDMDL
MODEL 5
REMARK VINA RESULT: -8.657321376      3.482      4.355
REMARK  5 active torsions:
REMARK  status: ('A' for Active; 'I' for Inactive)
REMARK    1  A    between atoms: O1_1  and  N1_3 
REMARK    2  A    between atoms: C5_9  and  C6_10 
REMARK    3  A    between atoms: C6_10  and  N2_11 
REMARK    4  A    between atoms: C9_14  and  N3_15 
REMARK    5  A    between atoms: C13_19  and  O2_20 
ROOT
HETATM    1  N2  UNL     1      23.672 -24.159  13.084  1.00  0.00    -0.393 N 
HETATM    2  C7  UNL     1      23.852 -24.805  11.866  1.00  0.00     0.123 C 
HETATM    3  C8  UNL     1      24.007 -26.317  12.125  1.00  0.00     0.045 C 
HETATM    4  C9  UNL     1      22.674 -26.797  12.613  1.00  0.00     0.094 C 
HETATM    5  C18 UNL     1      22.366 -26.076  13.893  1.00  0.00     0.045 C 
HETATM    6  C19 UNL     1      23.384 -25.014  14.215  1.00  0.00     0.123 C 
ENDROOT
BRANCH   1   7
HETATM    7  C6  UNL     1      23.164 -22.862  13.194  1.00  0.00     0.063 C 
BRANCH   7   8
HETATM    8  C5  UNL     1      22.774 -22.465  14.580  1.00  0.00     0.029 C 
HETATM    9  C4  UNL     1      23.362 -21.191  15.057  1.00  0.00     0.010 C 
HETATM   10  C3  UNL     1      22.388 -20.344  15.878  1.00  0.00     0.006 C 
HETATM   11  C2  UNL     1      21.196 -19.998  15.034  1.00  0.00     0.054 C 
HETATM   12  C1  UNL     1      20.601 -21.237  14.507  1.00  0.00     0.010 C 
HETATM   13  N1  UNL     1      19.517 -21.200  13.818  1.00  0.00    -0.277 N 
HETATM   14  C20 UNL     1      21.269 -22.533  14.784  1.00  0.00     0.064 C 
ATOM     15  H1  UNL     1      19.112 -22.064  13.455  1.00  0.00     0.193 HD
BRANCH  13  16
HETATM   16  O1  UNL     1      18.907 -19.998  13.572  1.00  0.00    -0.290 OA
ATOM     17  H1  UNL     1      17.961 -19.928  13.626  1.00  0.00     0.244 HD
ENDBRANCH  13  16
ENDBRANCH   7   8
ENDBRANCH   1   7
BRANCH   4  18
HETATM   18  N3  UNL     1      22.623 -28.239  12.729  1.00  0.00    -0.332 N 
HETATM   19  C10 UNL     1      22.703 -28.951  13.866  1.00  0.00     0.101 A 
HETATM   20  C11 UNL     1      22.599 -30.296  13.578  1.00  0.00    -0.032 A 
HETATM   21  C12 UNL     1      22.452 -30.328  12.190  1.00  0.00     0.001 A 
HETATM   22  C17 UNL     1      22.597 -31.591  14.267  1.00  0.00     0.040 C 
HETATM   23  C13 UNL     1      22.469 -29.052  11.693  1.00  0.00     0.149 A 
HETATM   24  C14 UNL     1      22.313 -31.678  11.580  1.00  0.00     0.043 C 
HETATM   25  C15 UNL     1      23.402 -32.578  12.101  1.00  0.00     0.005 C 
HETATM   26  C16 UNL     1      23.631 -32.474  13.570  1.00  0.00     0.005 C 
BRANCH  23  27
HETATM   27  O2  UNL     1      22.344 -28.752  10.345  1.00  0.00    -0.346 OA
ATOM     28  H2  UNL     1      22.686 -29.213   9.589  1.00  0.00     0.219 HD
ENDBRANCH  23  27
ENDBRANCH   4  18
TORSDOF 5
ENDMDL
