MODEL 1
REMARK VINA RESULT: -7.951510239      0.000      0.000
REMARK  5 active torsions:
REMARK  status: ('A' for Active; 'I' for Inactive)
REMARK    1  A    between atoms: C2_3  and  C3_4 
REMARK    2  A    between atoms: C3_4  and  C4_5 
REMARK    3  A    between atoms: C9_10  and  O1_11 
REMARK    4  A    between atoms: C11_15  and  O2_16 
REMARK    5  A    between atoms: C12_18  and  C13_19 
ROOT
HETATM    1  C1  UNL     1      21.616 -28.529  12.564  1.00  0.00     0.312 C 
HETATM    2  N1  UNL     1      23.049 -28.439  12.405  1.00  0.00     0.107 N 
HETATM    3  C2  UNL     1      23.496 -27.183  12.971  1.00  0.00     0.262 C 
HETATM    4  C7  UNL     1      23.039 -27.347  14.389  1.00  0.00     0.039 A 
HETATM    5  C8  UNL     1      23.144 -28.719  14.659  1.00  0.00     0.044 A 
HETATM    6  C9  UNL     1      22.734 -28.905  15.957  1.00  0.00     0.153 A 
HETATM    7  N2  UNL     1      22.395 -27.729  16.461  1.00  0.00    -0.312 N 
HETATM    8  C10 UNL     1      21.898 -27.417  17.809  1.00  0.00     0.160 C 
HETATM    9  C11 UNL     1      22.568 -26.761  15.542  1.00  0.00     0.153 A 
HETATM   10  C12 UNL     1      23.642 -29.321  13.428  1.00  0.00     0.301 C 
ENDROOT
BRANCH  10  11
HETATM   11  C13 UNL     1      23.299 -30.738  13.222  1.00  0.00     0.021 A 
HETATM   12  C14 UNL     1      23.258 -31.672  14.220  1.00  0.00     0.025 A 
HETATM   13  C15 UNL     1      22.928 -32.935  13.867  1.00  0.00    -0.044 A 
HETATM   14  C16 UNL     1      22.662 -33.191  12.567  1.00  0.00    -0.010 A 
HETATM   15  C18 UNL     1      22.651 -34.409  14.132  1.00  0.00     0.045 A 
HETATM   16  S1  UNL     1      22.878 -31.660  11.857  1.00  0.00    -0.096 SA
HETATM   17  C17 UNL     1      22.361 -34.657  12.678  1.00  0.00     0.051 A 
ENDBRANCH  10  11
BRANCH   3  18
HETATM   18  C3  UNL     1      22.974 -25.958  12.328  1.00  0.00     0.045 C 
BRANCH  18  19
HETATM   19  C4  UNL     1      23.993 -24.877  12.260  1.00  0.00    -0.012 A 
HETATM   20  C5  UNL     1      23.623 -23.534  11.778  1.00  0.00     0.005 A 
HETATM   21  C6  UNL     1      23.816 -23.735  13.250  1.00  0.00     0.005 A 
ENDBRANCH  18  19
ENDBRANCH   3  18
BRANCH   6  22
HETATM   22  O1  UNL     1      22.669 -30.103  16.653  1.00  0.00    -0.345 OA
ATOM     23  H1  UNL     1      22.466 -30.962  16.301  1.00  0.00     0.219 HD
ENDBRANCH   6  22
BRANCH   9  24
HETATM   24  O2  UNL     1      22.337 -25.391  15.649  1.00  0.00    -0.345 OA
ATOM     25  H2  UNL     1      21.568 -24.972  15.282  1.00  0.00     0.219 HD
ENDBRANCH   9  24
TORSDOF 5
ENDMDL
MODEL 2
REMARK VINA RESULT: -7.751396297      1.798      6.203
REMARK  5 active torsions:
REMARK  status: ('A' for Active; 'I' for Inactive)
REMARK    1  A    between atoms: C2_3  and  C3_4 
REMARK    2  A    between atoms: C3_4  and  C4_5 
REMARK    3  A    between atoms: C9_10  and  O1_11 
REMARK    4  A    between atoms: C11_15  and  O2_16 
REMARK    5  A    between atoms: C12_18  and  C13_19 
ROOT
HETATM    1  C1  UNL     1      24.230 -28.596  13.736  1.00  0.00     0.312 C 
HETATM    2  N1  UNL     1      22.859 -28.560  13.284  1.00  0.00     0.107 N 
HETATM    3  C2  UNL     1      22.111 -29.569  14.004  1.00  0.00     0.262 C 
HETATM    4  C7  UNL     1      22.312 -29.100  15.414  1.00  0.00     0.039 A 
HETATM    5  C8  UNL     1      22.387 -27.702  15.336  1.00  0.00     0.044 A 
HETATM    6  C9  UNL     1      22.569 -27.236  16.615  1.00  0.00     0.153 A 
HETATM    7  N2  UNL     1      22.606 -28.275  17.436  1.00  0.00    -0.312 N 
HETATM    8  C10 UNL     1      22.780 -28.285  18.895  1.00  0.00     0.160 C 
HETATM    9  C11 UNL     1      22.452 -29.420  16.745  1.00  0.00     0.153 A 
HETATM   10  C12 UNL     1      22.237 -27.383  13.921  1.00  0.00     0.301 C 
ENDROOT
BRANCH  10  11
HETATM   11  C13 UNL     1      22.843 -26.115  13.481  1.00  0.00     0.021 A 
HETATM   12  C14 UNL     1      22.802 -24.953  14.200  1.00  0.00     0.025 A 
HETATM   13  C15 UNL     1      23.405 -23.871  13.657  1.00  0.00    -0.044 A 
HETATM   14  C16 UNL     1      24.003 -24.006  12.453  1.00  0.00    -0.010 A 
HETATM   15  C18 UNL     1      23.847 -22.414  13.626  1.00  0.00     0.045 A 
HETATM   16  S1  UNL     1      23.712 -25.644  12.098  1.00  0.00    -0.096 SA
HETATM   17  C17 UNL     1      24.503 -22.600  12.285  1.00  0.00     0.051 A 
ENDBRANCH  10  11
BRANCH   3  18
HETATM   18  C3  UNL     1      22.535 -30.969  13.790  1.00  0.00     0.045 C 
BRANCH  18  19
HETATM   19  C4  UNL     1      22.360 -31.403  12.379  1.00  0.00    -0.012 A 
HETATM   20  C5  UNL     1      23.532 -31.574  11.501  1.00  0.00     0.005 A 
HETATM   21  C6  UNL     1      22.863 -32.800  12.045  1.00  0.00     0.005 A 
ENDBRANCH  18  19
ENDBRANCH   3  18
BRANCH   6  22
HETATM   22  O1  UNL     1      22.698 -25.916  17.017  1.00  0.00    -0.345 OA
ATOM     23  H1  UNL     1      22.831 -25.594  17.902  1.00  0.00     0.219 HD
ENDBRANCH   6  22
BRANCH   9  24
HETATM   24  O2  UNL     1      22.428 -30.733  17.209  1.00  0.00    -0.345 OA
ATOM     25  H2  UNL     1      23.160 -31.127  17.668  1.00  0.00     0.219 HD
ENDBRANCH   9  24
TORSDOF 5
ENDMDL
MODEL 3
REMARK VINA RESULT: -7.735372254      1.137      1.371
REMARK  5 active torsions:
REMARK  status: ('A' for Active; 'I' for Inactive)
REMARK    1  A    between atoms: C2_3  and  C3_4 
REMARK    2  A    between atoms: C3_4  and  C4_5 
REMARK    3  A    between atoms: C9_10  and  O1_11 
REMARK    4  A    between atoms: C11_15  and  O2_16 
REMARK    5  A    between atoms: C12_18  and  C13_19 
ROOT
HETATM    1  C1  UNL     1      21.928 -28.055  12.363  1.00  0.00     0.312 C 
HETATM    2  N1  UNL     1      23.343 -27.967  12.638  1.00  0.00     0.107 N 
HETATM    3  C2  UNL     1      23.628 -26.647  13.162  1.00  0.00     0.262 C 
HETATM    4  C7  UNL     1      22.757 -26.646  14.382  1.00  0.00     0.039 A 
HETATM    5  C8  UNL     1      22.741 -27.975  14.831  1.00  0.00     0.044 A 
HETATM    6  C9  UNL     1      21.952 -28.011  15.954  1.00  0.00     0.153 A 
HETATM    7  N2  UNL     1      21.505 -26.787  16.190  1.00  0.00    -0.312 N 
HETATM    8  C10 UNL     1      20.629 -26.323  17.275  1.00  0.00     0.160 C 
HETATM    9  C11 UNL     1      21.972 -25.933  15.260  1.00  0.00     0.153 A 
HETATM   10  C12 UNL     1      23.576 -28.713  13.890  1.00  0.00     0.301 C 
ENDROOT
BRANCH  10  11
HETATM   11  C13 UNL     1      23.277 -30.149  13.757  1.00  0.00     0.021 A 
HETATM   12  C14 UNL     1      23.182 -30.806  12.562  1.00  0.00     0.025 A 
HETATM   13  C15 UNL     1      22.897 -32.127  12.607  1.00  0.00    -0.044 A 
HETATM   14  C16 UNL     1      22.728 -32.707  13.816  1.00  0.00    -0.010 A 
HETATM   15  C18 UNL     1      22.628 -33.498  12.000  1.00  0.00     0.045 A 
HETATM   16  S1  UNL     1      22.969 -31.394  14.872  1.00  0.00    -0.096 SA
HETATM   17  C17 UNL     1      22.446 -34.110  13.362  1.00  0.00     0.051 A 
ENDBRANCH  10  11
BRANCH   3  18
HETATM   18  C3  UNL     1      23.356 -25.514  12.251  1.00  0.00     0.045 C 
BRANCH  18  19
HETATM   19  C4  UNL     1      23.813 -24.215  12.813  1.00  0.00    -0.012 A 
HETATM   20  C5  UNL     1      25.090 -23.622  12.374  1.00  0.00     0.005 A 
HETATM   21  C6  UNL     1      23.814 -23.038  11.849  1.00  0.00     0.005 A 
ENDBRANCH  18  19
ENDBRANCH   3  18
BRANCH   6  22
HETATM   22  O1  UNL     1      21.650 -29.117  16.733  1.00  0.00    -0.345 OA
ATOM     23  H1  UNL     1      21.097 -29.854  16.496  1.00  0.00     0.219 HD
ENDBRANCH   6  22
BRANCH   9  24
HETATM   24  O2  UNL     1      21.754 -24.564  15.130  1.00  0.00    -0.345 OA
ATOM     25  H2  UNL     1      22.455 -23.926  15.185  1.00  0.00     0.219 HD
ENDBRANCH   9  24
TORSDOF 5
ENDMDL
MODEL 4
REMARK VINA RESULT: -7.726840271      1.969      6.402
REMARK  5 active torsions:
REMARK  status: ('A' for Active; 'I' for Inactive)
REMARK    1  A    between atoms: C2_3  and  C3_4 
REMARK    2  A    between atoms: C3_4  and  C4_5 
REMARK    3  A    between atoms: C9_10  and  O1_11 
REMARK    4  A    between atoms: C11_15  and  O2_16 
REMARK    5  A    between atoms: C12_18  and  C13_19 
ROOT
HETATM    1  C1  UNL     1      24.298 -28.962  13.935  1.00  0.00     0.312 C 
HETATM    2  N1  UNL     1      23.003 -29.076  13.306  1.00  0.00     0.107 N 
HETATM    3  C2  UNL     1      22.419 -30.346  13.686  1.00  0.00     0.262 C 
HETATM    4  C7  UNL     1      22.372 -30.188  15.176  1.00  0.00     0.039 A 
HETATM    5  C8  UNL     1      22.155 -28.821  15.400  1.00  0.00     0.044 A 
HETATM    6  C9  UNL     1      22.104 -28.640  16.761  1.00  0.00     0.153 A 
HETATM    7  N2  UNL     1      22.279 -29.815  17.345  1.00  0.00    -0.312 N 
HETATM    8  C10 UNL     1      22.305 -30.132  18.780  1.00  0.00     0.160 C 
HETATM    9  C11 UNL     1      22.444 -30.776  16.418  1.00  0.00     0.153 A 
HETATM   10  C12 UNL     1      22.083 -28.216  14.075  1.00  0.00     0.301 C 
ENDROOT
BRANCH  10  11
HETATM   11  C13 UNL     1      22.447 -26.790  14.000  1.00  0.00     0.021 A 
HETATM   12  C14 UNL     1      22.383 -25.925  15.057  1.00  0.00     0.025 A 
HETATM   13  C15 UNL     1      22.748 -24.644  14.825  1.00  0.00    -0.044 A 
HETATM   14  C16 UNL     1      23.149 -24.304  13.580  1.00  0.00    -0.010 A 
HETATM   15  C18 UNL     1      22.996 -23.192  15.214  1.00  0.00     0.045 A 
HETATM   16  S1  UNL     1      23.008 -25.784  12.751  1.00  0.00    -0.096 SA
HETATM   17  C17 UNL     1      23.436 -22.851  13.817  1.00  0.00     0.051 A 
ENDBRANCH  10  11
BRANCH   3  18
HETATM   18  C3  UNL     1      23.151 -31.555  13.250  1.00  0.00     0.045 C 
BRANCH  18  19
HETATM   19  C4  UNL     1      22.283 -32.761  13.221  1.00  0.00    -0.012 A 
HETATM   20  C5  UNL     1      22.556 -33.853  12.268  1.00  0.00     0.005 A 
HETATM   21  C6  UNL     1      22.924 -34.053  13.706  1.00  0.00     0.005 A 
ENDBRANCH  18  19
ENDBRANCH   3  18
BRANCH   6  22
HETATM   22  O1  UNL     1      21.908 -27.449  17.442  1.00  0.00    -0.345 OA
ATOM     23  H1  UNL     1      21.557 -27.338  18.319  1.00  0.00     0.219 HD
ENDBRANCH   6  22
BRANCH   9  24
HETATM   24  O2  UNL     1      22.654 -32.143  16.591  1.00  0.00    -0.345 OA
ATOM     25  H2  UNL     1      21.960 -32.739  16.848  1.00  0.00     0.219 HD
ENDBRANCH   9  24
TORSDOF 5
ENDMDL
MODEL 5
REMARK VINA RESULT: -7.709259717      2.023      6.416
REMARK  5 active torsions:
REMARK  status: ('A' for Active; 'I' for Inactive)
REMARK    1  A    between atoms: C2_3  and  C3_4 
REMARK    2  A    between atoms: C3_4  and  C4_5 
REMARK    3  A    between atoms: C9_10  and  O1_11 
REMARK    4  A    between atoms: C11_15  and  O2_16 
REMARK    5  A    between atoms: C12_18  and  C13_19 
ROOT
HETATM    1  C1  UNL     1      24.194 -29.527  13.958  1.00  0.00     0.312 C 
HETATM    2  N1  UNL     1      22.884 -29.668  13.367  1.00  0.00     0.107 N 
HETATM    3  C2  UNL     1      22.290 -30.897  13.853  1.00  0.00     0.262 C 
HETATM    4  C7  UNL     1      22.279 -30.627  15.328  1.00  0.00     0.039 A 
HETATM    5  C8  UNL     1      22.086 -29.244  15.453  1.00  0.00     0.044 A 
HETATM    6  C9  UNL     1      22.068 -28.961  16.797  1.00  0.00     0.153 A 
HETATM    7  N2  UNL     1      22.240 -30.091  17.465  1.00  0.00    -0.312 N 
HETATM    8  C10 UNL     1      22.293 -30.300  18.918  1.00  0.00     0.160 C 
HETATM    9  C11 UNL     1      22.370 -31.122  16.609  1.00  0.00     0.153 A 
HETATM   10  C12 UNL     1      21.993 -28.738  14.088  1.00  0.00     0.301 C 
ENDROOT
BRANCH  10  11
HETATM   11  C13 UNL     1      22.374 -27.328  13.899  1.00  0.00     0.021 A 
HETATM   12  C14 UNL     1      22.973 -26.840  12.772  1.00  0.00     0.025 A 
HETATM   13  C15 UNL     1      23.264 -25.519  12.753  1.00  0.00    -0.044 A 
HETATM   14  C16 UNL     1      22.946 -24.775  13.836  1.00  0.00    -0.010 A 
HETATM   15  C18 UNL     1      23.809 -24.239  12.132  1.00  0.00     0.045 A 
HETATM   16  S1  UNL     1      22.247 -25.936  14.865  1.00  0.00    -0.096 SA
HETATM   17  C17 UNL     1      23.442 -23.443  13.354  1.00  0.00     0.051 A 
ENDBRANCH  10  11
BRANCH   3  18
HETATM   18  C3  UNL     1      22.996 -32.146  13.494  1.00  0.00     0.045 C 
BRANCH  18  19
HETATM   19  C4  UNL     1      22.106 -33.335  13.553  1.00  0.00    -0.012 A 
HETATM   20  C5  UNL     1      22.346 -34.491  12.670  1.00  0.00     0.005 A 
HETATM   21  C6  UNL     1      22.730 -34.605  14.113  1.00  0.00     0.005 A 
ENDBRANCH  18  19
ENDBRANCH   3  18
BRANCH   6  22
HETATM   22  O1  UNL     1      21.903 -27.719  17.391  1.00  0.00    -0.345 OA
ATOM     23  H1  UNL     1      22.170 -26.875  17.044  1.00  0.00     0.219 HD
ENDBRANCH   6  22
BRANCH   9  24
HETATM   24  O2  UNL     1      22.565 -32.474  16.880  1.00  0.00    -0.345 OA
ATOM     25  H2  UNL     1      21.884 -33.124  16.757  1.00  0.00     0.219 HD
ENDBRANCH   9  24
TORSDOF 5
ENDMDL
