MODEL 1
REMARK VINA RESULT: -9.151835104      0.000      0.000
REMARK  5 active torsions:
REMARK  status: ('A' for Active; 'I' for Inactive)
REMARK    1  A    between atoms: C2_2  and  C3_3 
REMARK    2  A    between atoms: C3_3  and  C4_4 
REMARK    3  A    between atoms: C4_4  and  C5_5 
REMARK    4  A    between atoms: C7_8  and  O2_9 
REMARK    5  A    between atoms: C17_20  and  O3_21 
ROOT
HETATM    1  C5  UNL     1      22.718 -30.671  13.842  1.00  0.00    -0.021 C 
HETATM    2  C6  UNL     1      22.823 -29.417  13.461  1.00  0.00     0.093 A 
HETATM    3  O1  UNL     1      22.639 -29.228  12.104  1.00  0.00    -0.286 OA
HETATM    4  C7  UNL     1      22.751 -28.009  11.805  1.00  0.00     0.190 A 
HETATM    5  C8  UNL     1      23.017 -27.292  12.932  1.00  0.00     0.009 A 
HETATM    6  C9  UNL     1      23.196 -25.822  12.897  1.00  0.00     0.054 C 
HETATM    7  C10 UNL     1      23.069 -28.216  14.045  1.00  0.00     0.005 A 
HETATM    8  C11 UNL     1      23.324 -27.739  15.229  1.00  0.00    -0.012 C 
HETATM    9  C12 UNL     1      23.490 -28.221  16.584  1.00  0.00     0.028 C 
HETATM   10  C13 UNL     1      22.193 -27.974  17.377  1.00  0.00     0.004 C 
HETATM   11  C14 UNL     1      22.528 -27.921  18.821  1.00  0.00     0.000 C 
HETATM   12  C15 UNL     1      22.783 -29.257  19.464  1.00  0.00     0.003 C 
HETATM   13  C16 UNL     1      21.812 -30.313  19.077  1.00  0.00     0.042 C 
HETATM   14  C17 UNL     1      22.444 -31.445  18.263  1.00  0.00     0.217 C 
HETATM   15  C18 UNL     1      21.475 -31.739  17.177  1.00  0.00     0.288 C 
HETATM   16  O4  UNL     1      20.475 -32.461  17.518  1.00  0.00    -0.262 OA
HETATM   17  O5  UNL     1      21.690 -31.243  15.931  1.00  0.00    -0.315 OA
HETATM   18  C19 UNL     1      22.830 -31.329  15.164  1.00  0.00     0.215 C 
ENDROOT
BRANCH   1  19
HETATM   19  C4  UNL     1      22.416 -31.776  12.840  1.00  0.00     0.039 C 
BRANCH  19  20
HETATM   20  C3  UNL     1      23.318 -32.899  12.702  1.00  0.00     0.004 C 
BRANCH  20  21
HETATM   21  C2  UNL     1      22.413 -34.183  12.762  1.00  0.00    -0.004 C 
HETATM   22  C1  UNL     1      22.584 -34.778  14.126  1.00  0.00     0.005 C 
ENDBRANCH  20  21
ENDBRANCH  19  20
ENDBRANCH   1  19
BRANCH   4  23
HETATM   23  O2  UNL     1      22.626 -27.427  10.513  1.00  0.00    -0.340 OA
ATOM     24  H2  UNL     1      22.673 -26.504  10.293  1.00  0.00     0.220 HD
ENDBRANCH   4  23
BRANCH  14  25
HETATM   25  O3  UNL     1      22.621 -32.584  19.074  1.00  0.00    -0.386 OA
ATOM     26  H3  UNL     1      22.515 -33.373  18.557  1.00  0.00     0.210 HD
ENDBRANCH  14  25
TORSDOF 5
ENDMDL
MODEL 2
REMARK VINA RESULT: -9.109452476      1.664      7.009
REMARK  5 active torsions:
REMARK  status: ('A' for Active; 'I' for Inactive)
REMARK    1  A    between atoms: C2_2  and  C3_3 
REMARK    2  A    between atoms: C3_3  and  C4_4 
REMARK    3  A    between atoms: C4_4  and  C5_5 
REMARK    4  A    between atoms: C7_8  and  O2_9 
REMARK    5  A    between atoms: C17_20  and  O3_21 
ROOT
HETATM    1  C5  UNL     1      22.794 -28.492  15.553  1.00  0.00    -0.021 C 
HETATM    2  C6  UNL     1      22.574 -29.520  16.344  1.00  0.00     0.093 A 
HETATM    3  O1  UNL     1      22.146 -29.167  17.611  1.00  0.00    -0.286 OA
HETATM    4  C7  UNL     1      21.953 -30.193  18.317  1.00  0.00     0.190 A 
HETATM    5  C8  UNL     1      22.234 -31.304  17.581  1.00  0.00     0.009 A 
HETATM    6  C9  UNL     1      22.094 -32.668  18.143  1.00  0.00     0.054 C 
HETATM    7  C10 UNL     1      22.651 -30.873  16.263  1.00  0.00     0.005 A 
HETATM    8  C11 UNL     1      22.980 -31.783  15.394  1.00  0.00    -0.012 C 
HETATM    9  C12 UNL     1      23.450 -31.862  14.027  1.00  0.00     0.028 C 
HETATM   10  C13 UNL     1      22.269 -32.199  13.098  1.00  0.00     0.004 C 
HETATM   11  C14 UNL     1      22.805 -32.828  11.865  1.00  0.00     0.000 C 
HETATM   12  C15 UNL     1      23.430 -31.872  10.885  1.00  0.00     0.003 C 
HETATM   13  C16 UNL     1      22.653 -30.622  10.674  1.00  0.00     0.042 C 
HETATM   14  C17 UNL     1      23.375 -29.371  11.181  1.00  0.00     0.217 C 
HETATM   15  C18 UNL     1      22.332 -28.566  11.866  1.00  0.00     0.288 C 
HETATM   16  O4  UNL     1      21.571 -27.887  11.093  1.00  0.00    -0.262 OA
HETATM   17  O5  UNL     1      22.244 -28.593  13.221  1.00  0.00    -0.315 OA
HETATM   18  C19 UNL     1      23.243 -28.390  14.145  1.00  0.00     0.215 C 
ENDROOT
BRANCH   1  19
HETATM   19  C4  UNL     1      22.578 -27.066  16.036  1.00  0.00     0.039 C 
BRANCH  19  20
HETATM   20  C3  UNL     1      21.883 -26.112  15.198  1.00  0.00     0.004 C 
BRANCH  20  21
HETATM   21  C2  UNL     1      22.732 -24.790  15.264  1.00  0.00    -0.004 C 
HETATM   22  C1  UNL     1      23.146 -24.462  13.862  1.00  0.00     0.005 C 
ENDBRANCH  20  21
ENDBRANCH  19  20
ENDBRANCH   1  19
BRANCH   4  23
HETATM   23  O2  UNL     1      21.511 -30.235  19.668  1.00  0.00    -0.340 OA
ATOM     24  H2  UNL     1      20.642 -30.035  19.994  1.00  0.00     0.220 HD
ENDBRANCH   4  23
BRANCH  14  25
HETATM   25  O3  UNL     1      23.910 -28.648  10.096  1.00  0.00    -0.386 OA
ATOM     26  H3  UNL     1      24.533 -29.186   9.621  1.00  0.00     0.210 HD
ENDBRANCH  14  25
TORSDOF 5
ENDMDL
MODEL 3
REMARK VINA RESULT: -8.953931865      2.313      5.316
REMARK  5 active torsions:
REMARK  status: ('A' for Active; 'I' for Inactive)
REMARK    1  A    between atoms: C2_2  and  C3_3 
REMARK    2  A    between atoms: C3_3  and  C4_4 
REMARK    3  A    between atoms: C4_4  and  C5_5 
REMARK    4  A    between atoms: C7_8  and  O2_9 
REMARK    5  A    between atoms: C17_20  and  O3_21 
ROOT
HETATM    1  C5  UNL     1      22.296 -29.744  16.796  1.00  0.00    -0.021 C 
HETATM    2  C6  UNL     1      22.404 -28.487  16.425  1.00  0.00     0.093 A 
HETATM    3  O1  UNL     1      22.582 -27.608  17.477  1.00  0.00    -0.286 OA
HETATM    4  C7  UNL     1      22.679 -26.424  17.056  1.00  0.00     0.190 A 
HETATM    5  C8  UNL     1      22.575 -26.420  15.698  1.00  0.00     0.009 A 
HETATM    6  C9  UNL     1      22.657 -25.166  14.912  1.00  0.00     0.054 C 
HETATM    7  C10 UNL     1      22.390 -27.788  15.261  1.00  0.00     0.005 A 
HETATM    8  C11 UNL     1      22.255 -28.014  13.987  1.00  0.00    -0.012 C 
HETATM    9  C12 UNL     1      22.044 -29.136  13.097  1.00  0.00     0.028 C 
HETATM   10  C13 UNL     1      23.385 -29.543  12.458  1.00  0.00     0.004 C 
HETATM   11  C14 UNL     1      23.104 -30.251  11.185  1.00  0.00     0.000 C 
HETATM   12  C15 UNL     1      22.635 -31.672  11.339  1.00  0.00     0.003 C 
HETATM   13  C16 UNL     1      23.393 -32.457  12.347  1.00  0.00     0.042 C 
HETATM   14  C17 UNL     1      22.548 -32.856  13.560  1.00  0.00     0.217 C 
HETATM   15  C18 UNL     1      23.421 -32.628  14.740  1.00  0.00     0.288 C 
HETATM   16  O4  UNL     1      24.286 -33.544  14.965  1.00  0.00    -0.262 OA
HETATM   17  O5  UNL     1      23.263 -31.504  15.485  1.00  0.00    -0.315 OA
HETATM   18  C19 UNL     1      22.106 -31.001  16.035  1.00  0.00     0.215 C 
ENDROOT
BRANCH   1  19
HETATM   19  C4  UNL     1      22.371 -30.141  18.263  1.00  0.00     0.039 C 
BRANCH  19  20
HETATM   20  C3  UNL     1      21.955 -31.464  18.680  1.00  0.00     0.004 C 
BRANCH  20  21
HETATM   21  C2  UNL     1      22.412 -31.601  20.178  1.00  0.00    -0.004 C 
HETATM   22  C1  UNL     1      23.236 -30.392  20.500  1.00  0.00     0.005 C 
ENDBRANCH  20  21
ENDBRANCH  19  20
ENDBRANCH   1  19
BRANCH   4  23
HETATM   23  O2  UNL     1      22.869 -25.249  17.834  1.00  0.00    -0.340 OA
ATOM     24  H2  UNL     1      23.296 -25.184  18.680  1.00  0.00     0.220 HD
ENDBRANCH   4  23
BRANCH  14  25
HETATM   25  O3  UNL     1      22.195 -34.218  13.476  1.00  0.00    -0.386 OA
ATOM     26  H3  UNL     1      21.252 -34.315  13.541  1.00  0.00     0.210 HD
ENDBRANCH  14  25
TORSDOF 5
ENDMDL
MODEL 4
REMARK VINA RESULT: -8.950287216      2.048      5.025
REMARK  5 active torsions:
REMARK  status: ('A' for Active; 'I' for Inactive)
REMARK    1  A    between atoms: C2_2  and  C3_3 
REMARK    2  A    between atoms: C3_3  and  C4_4 
REMARK    3  A    between atoms: C4_4  and  C5_5 
REMARK    4  A    between atoms: C7_8  and  O2_9 
REMARK    5  A    between atoms: C17_20  and  O3_21 
ROOT
HETATM    1  C5  UNL     1      22.174 -28.820  15.892  1.00  0.00    -0.021 C 
HETATM    2  C6  UNL     1      22.420 -27.843  15.047  1.00  0.00     0.093 A 
HETATM    3  O1  UNL     1      22.634 -26.619  15.655  1.00  0.00    -0.286 OA
HETATM    4  C7  UNL     1      22.864 -25.728  14.794  1.00  0.00     0.190 A 
HETATM    5  C8  UNL     1      22.821 -26.283  13.551  1.00  0.00     0.009 A 
HETATM    6  C9  UNL     1      23.059 -25.480  12.329  1.00  0.00     0.054 C 
HETATM    7  C10 UNL     1      22.525 -27.692  13.702  1.00  0.00     0.005 A 
HETATM    8  C11 UNL     1      22.427 -28.418  12.627  1.00  0.00    -0.012 C 
HETATM    9  C12 UNL     1      22.148 -29.792  12.263  1.00  0.00     0.028 C 
HETATM   10  C13 UNL     1      23.471 -30.520  11.958  1.00  0.00     0.004 C 
HETATM   11  C14 UNL     1      23.180 -31.672  11.070  1.00  0.00     0.000 C 
HETATM   12  C15 UNL     1      22.570 -32.864  11.757  1.00  0.00     0.003 C 
HETATM   13  C16 UNL     1      23.203 -33.208  13.056  1.00  0.00     0.042 C 
HETATM   14  C17 UNL     1      22.270 -33.006  14.253  1.00  0.00     0.217 C 
HETATM   15  C18 UNL     1      23.107 -32.368  15.301  1.00  0.00     0.288 C 
HETATM   16  O4  UNL     1      23.869 -33.164  15.952  1.00  0.00    -0.262 OA
HETATM   17  O5  UNL     1      23.025 -31.028  15.503  1.00  0.00    -0.315 OA
HETATM   18  C19 UNL     1      21.898 -30.263  15.702  1.00  0.00     0.215 C 
ENDROOT
BRANCH   1  19
HETATM   19  C4  UNL     1      22.145 -28.574  17.393  1.00  0.00     0.039 C 
BRANCH  19  20
HETATM   20  C3  UNL     1      23.380 -28.522  18.145  1.00  0.00     0.004 C 
BRANCH  20  21
HETATM   21  C2  UNL     1      23.042 -29.112  19.563  1.00  0.00    -0.004 C 
HETATM   22  C1  UNL     1      22.414 -30.454  19.343  1.00  0.00     0.005 C 
ENDBRANCH  20  21
ENDBRANCH  19  20
ENDBRANCH   1  19
BRANCH   4  23
HETATM   23  O2  UNL     1      23.131 -24.352  15.033  1.00  0.00    -0.340 OA
ATOM     24  H2  UNL     1      23.706 -23.784  14.534  1.00  0.00     0.220 HD
ENDBRANCH   4  23
BRANCH  14  25
HETATM   25  O3  UNL     1      21.791 -34.251  14.708  1.00  0.00    -0.386 OA
ATOM     26  H3  UNL     1      20.875 -34.352  14.478  1.00  0.00     0.210 HD
ENDBRANCH  14  25
TORSDOF 5
ENDMDL
MODEL 5
REMARK VINA RESULT: -8.895348353      2.281      5.812
REMARK  5 active torsions:
REMARK  status: ('A' for Active; 'I' for Inactive)
REMARK    1  A    between atoms: C2_2  and  C3_3 
REMARK    2  A    between atoms: C3_3  and  C4_4 
REMARK    3  A    between atoms: C4_4  and  C5_5 
REMARK    4  A    between atoms: C7_8  and  O2_9 
REMARK    5  A    between atoms: C17_20  and  O3_21 
ROOT
HETATM    1  C5  UNL     1      22.513 -30.367  16.810  1.00  0.00    -0.021 C 
HETATM    2  C6  UNL     1      22.575 -31.224  15.814  1.00  0.00     0.093 A 
HETATM    3  O1  UNL     1      22.272 -32.523  16.176  1.00  0.00    -0.286 OA
HETATM    4  C7  UNL     1      22.348 -33.292  15.181  1.00  0.00     0.190 A 
HETATM    5  C8  UNL     1      22.708 -32.571  14.083  1.00  0.00     0.009 A 
HETATM    6  C9  UNL     1      22.874 -33.203  12.753  1.00  0.00     0.054 C 
HETATM    7  C10 UNL     1      22.864 -31.190  14.489  1.00  0.00     0.005 A 
HETATM    8  C11 UNL     1      23.219 -30.320  13.587  1.00  0.00    -0.012 C 
HETATM    9  C12 UNL     1      23.506 -28.904  13.495  1.00  0.00     0.028 C 
HETATM   10  C13 UNL     1      22.282 -28.170  12.916  1.00  0.00     0.004 C 
HETATM   11  C14 UNL     1      22.743 -26.901  12.302  1.00  0.00     0.000 C 
HETATM   12  C15 UNL     1      23.062 -25.802  13.279  1.00  0.00     0.003 C 
HETATM   13  C16 UNL     1      22.068 -25.653  14.373  1.00  0.00     0.042 C 
HETATM   14  C17 UNL     1      22.633 -25.998  15.753  1.00  0.00     0.217 C 
HETATM   15  C18 UNL     1      21.574 -26.792  16.426  1.00  0.00     0.288 C 
HETATM   16  O4  UNL     1      20.613 -26.109  16.924  1.00  0.00    -0.262 OA
HETATM   17  O5  UNL     1      21.676 -28.145  16.473  1.00  0.00    -0.315 OA
HETATM   18  C19 UNL     1      22.744 -28.906  16.891  1.00  0.00     0.215 C 
ENDROOT
BRANCH   1  19
HETATM   19  C4  UNL     1      22.131 -30.816  18.213  1.00  0.00     0.039 C 
BRANCH  19  20
HETATM   20  C3  UNL     1      22.466 -29.994  19.356  1.00  0.00     0.004 C 
BRANCH  20  21
HETATM   21  C2  UNL     1      22.976 -30.988  20.462  1.00  0.00    -0.004 C 
HETATM   22  C1  UNL     1      22.607 -32.370  20.015  1.00  0.00     0.005 C 
ENDBRANCH  20  21
ENDBRANCH  19  20
ENDBRANCH   1  19
BRANCH   4  23
HETATM   23  O2  UNL     1      22.107 -34.693  15.157  1.00  0.00    -0.340 OA
ATOM     24  H2  UNL     1      21.330 -35.147  15.462  1.00  0.00     0.220 HD
ENDBRANCH   4  23
BRANCH  14  25
HETATM   25  O3  UNL     1      22.889 -24.818  16.480  1.00  0.00    -0.386 OA
ATOM     26  H3  UNL     1      23.797 -24.794  16.755  1.00  0.00     0.210 HD
ENDBRANCH  14  25
TORSDOF 5
ENDMDL
