MODEL 1
REMARK VINA RESULT: -6.877964415      0.000      0.000
REMARK  15 active torsions:
REMARK  status: ('A' for Active; 'I' for Inactive)
REMARK    1  A    between atoms: C2_2  and  C3_3 
REMARK    2  A    between atoms: C2_2  and  N2_13 
REMARK    3  A    between atoms: C3_3  and  C4_4 
REMARK    4  A    between atoms: C4_4  and  O1_5 
REMARK    5  A    between atoms: C4_4  and  C5_7 
REMARK    6  A    between atoms: N2_13  and  C8_15 
REMARK    7  A    between atoms: C8_15  and  C9_16 
REMARK    8  A    between atoms: C8_15  and  C10_21 
REMARK    9  A    between atoms: C9_16  and  O3_17 
REMARK   10  A    between atoms: C9_16  and  O4_19 
REMARK   11  A    between atoms: C10_21  and  O5_22 
REMARK   12  A    between atoms: C10_21  and  N3_24 
REMARK   13  A    between atoms: N3_24  and  C11_27 
REMARK   14  A    between atoms: C11_27  and  N4_28 
REMARK   15  A    between atoms: C11_27  and  C12_32 
ROOT
HETATM    1  C8  UNL     1       6.762  87.626  -7.766  1.00  0.00     0.189 C 
ENDROOT
BRANCH   1   2
HETATM    2  N2  UNL     1       6.208  86.407  -7.371  1.00  0.00    -0.405 N 
ATOM      3  H2  UNL     1       6.801  85.578  -7.340  1.00  0.00     0.154 HD
BRANCH   2   4
HETATM    4  C2  UNL     1       4.843  86.294  -7.014  1.00  0.00     0.076 C 
HETATM    5  C1  UNL     1       4.456  84.847  -7.391  1.00  0.00     0.032 C 
BRANCH   4   6
HETATM    6  C3  UNL     1       3.977  87.215  -7.835  1.00  0.00     0.063 C 
BRANCH   6   7
HETATM    7  C4  UNL     1       3.283  88.294  -7.098  1.00  0.00     0.178 C 
BRANCH   7   8
HETATM    8  O1  UNL     1       3.600  89.568  -7.638  1.00  0.00    -0.389 OA
ATOM      9  H1  UNL     1       4.255  90.011  -7.112  1.00  0.00     0.210 HD
ENDBRANCH   7   8
BRANCH   7  10
HETATM   10  C5  UNL     1       1.848  88.155  -6.894  1.00  0.00     0.098 A 
HETATM   11  C6  UNL     1       1.116  87.023  -6.641  1.00  0.00     0.124 A 
HETATM   12  N1  UNL     1      -0.187  87.386  -6.525  1.00  0.00    -0.354 N 
HETATM   13  C7  UNL     1      -0.208  88.714  -6.708  1.00  0.00     0.233 A 
ATOM     14  H1  UNL     1      -0.983  86.777  -6.338  1.00  0.00     0.166 HD
HETATM   15  O2  UNL     1       1.001  89.148  -6.924  1.00  0.00    -0.306 OA
ENDBRANCH   7  10
ENDBRANCH   6   7
ENDBRANCH   4   6
ENDBRANCH   2   4
ENDBRANCH   1   2
BRANCH   1  16
HETATM   16  C9  UNL     1       7.024  88.672  -6.756  1.00  0.00     0.280 C 
BRANCH  16  17
HETATM   17  O3  UNL     1       8.291  88.772  -6.262  1.00  0.00    -0.369 OA
ATOM     18  H3  UNL     1       8.391  88.893  -5.325  1.00  0.00     0.212 HD
ENDBRANCH  16  17
BRANCH  16  19
HETATM   19  O4  UNL     1       6.636  89.952  -7.154  1.00  0.00    -0.369 OA
ATOM     20  H4  UNL     1       7.206  90.642  -6.838  1.00  0.00     0.212 HD
ENDBRANCH  16  19
ENDBRANCH   1  16
BRANCH   1  21
HETATM   21  C10 UNL     1       8.040  87.377  -8.553  1.00  0.00     0.348 C 
BRANCH  21  22
HETATM   22  O5  UNL     1       7.669  86.563  -9.634  1.00  0.00    -0.368 OA
ATOM     23  H5  UNL     1       7.698  87.124 -10.400  1.00  0.00     0.212 HD
ENDBRANCH  21  22
BRANCH  21  24
HETATM   24  N3  UNL     1       8.683  88.552  -9.030  1.00  0.00    -0.018 N 
ATOM     25  H32 UNL     1       8.169  89.002  -9.787  1.00  0.00     0.282 HD
ATOM     26  H31 UNL     1       8.644  89.321  -8.361  1.00  0.00     0.282 HD
BRANCH  24  27
HETATM   27  C11 UNL     1      10.050  88.199  -9.407  1.00  0.00     0.386 C 
BRANCH  27  28
HETATM   28  N4  UNL     1      10.120  87.556 -10.676  1.00  0.00    -0.050 N 
ATOM     29  H43 UNL     1       9.719  88.143 -11.407  1.00  0.00     0.276 HD
ATOM     30  H42 UNL     1      11.083  87.511 -11.011  1.00  0.00     0.276 HD
ATOM     31  H41 UNL     1       9.690  86.630 -10.671  1.00  0.00     0.276 HD
ENDBRANCH  27  28
BRANCH  27  32
HETATM   32  C12 UNL     1      10.936  89.429  -9.430  1.00  0.00     0.036 C 
HETATM   33  C13 UNL     1      11.987  89.414  -8.358  1.00  0.00     0.013 C 
HETATM   34  C14 UNL     1      11.586  89.624 -10.772  1.00  0.00     0.013 C 
ENDBRANCH  27  32
ENDBRANCH  24  27
ENDBRANCH  21  24
ENDBRANCH   1  21
TORSDOF 15
ENDMDL
MODEL 2
REMARK VINA RESULT: -6.854731303      3.131      7.600
REMARK  15 active torsions:
REMARK  status: ('A' for Active; 'I' for Inactive)
REMARK    1  A    between atoms: C2_2  and  C3_3 
REMARK    2  A    between atoms: C2_2  and  N2_13 
REMARK    3  A    between atoms: C3_3  and  C4_4 
REMARK    4  A    between atoms: C4_4  and  O1_5 
REMARK    5  A    between atoms: C4_4  and  C5_7 
REMARK    6  A    between atoms: N2_13  and  C8_15 
REMARK    7  A    between atoms: C8_15  and  C9_16 
REMARK    8  A    between atoms: C8_15  and  C10_21 
REMARK    9  A    between atoms: C9_16  and  O3_17 
REMARK   10  A    between atoms: C9_16  and  O4_19 
REMARK   11  A    between atoms: C10_21  and  O5_22 
REMARK   12  A    between atoms: C10_21  and  N3_24 
REMARK   13  A    between atoms: N3_24  and  C11_27 
REMARK   14  A    between atoms: C11_27  and  N4_28 
REMARK   15  A    between atoms: C11_27  and  C12_32 
ROOT
HETATM    1  C8  UNL     1       6.368  85.408  -8.369  1.00  0.00     0.189 C 
ENDROOT
BRANCH   1   2
HETATM    2  N2  UNL     1       6.956  86.280  -7.452  1.00  0.00    -0.405 N 
ATOM      3  H2  UNL     1       7.739  85.953  -6.885  1.00  0.00     0.154 HD
BRANCH   2   4
HETATM    4  C2  UNL     1       6.494  87.608  -7.290  1.00  0.00     0.076 C 
HETATM    5  C1  UNL     1       5.002  87.556  -7.687  1.00  0.00     0.032 C 
BRANCH   4   6
HETATM    6  C3  UNL     1       7.177  88.553  -8.244  1.00  0.00     0.063 C 
BRANCH   6   7
HETATM    7  C4  UNL     1       8.516  89.039  -7.842  1.00  0.00     0.178 C 
BRANCH   7   8
HETATM    8  O1  UNL     1       9.102  88.183  -6.873  1.00  0.00    -0.389 OA
ATOM      9  H1  UNL     1       9.952  87.871  -7.160  1.00  0.00     0.210 HD
ENDBRANCH   7   8
BRANCH   7  10
HETATM   10  C5  UNL     1       9.463  89.353  -8.903  1.00  0.00     0.098 A 
HETATM   11  C6  UNL     1      10.807  89.613  -8.814  1.00  0.00     0.124 A 
HETATM   12  N1  UNL     1      11.269  89.853 -10.068  1.00  0.00    -0.354 N 
HETATM   13  C7  UNL     1      10.204  89.732 -10.873  1.00  0.00     0.233 A 
ATOM     14  H1  UNL     1      12.226  90.078 -10.341  1.00  0.00     0.166 HD
HETATM   15  O2  UNL     1       9.150  89.438 -10.167  1.00  0.00    -0.306 OA
ENDBRANCH   7  10
ENDBRANCH   6   7
ENDBRANCH   4   6
ENDBRANCH   2   4
ENDBRANCH   1   2
BRANCH   1  16
HETATM   16  C9  UNL     1       7.113  85.008  -9.581  1.00  0.00     0.280 C 
BRANCH  16  17
HETATM   17  O3  UNL     1       6.451  84.268 -10.515  1.00  0.00    -0.369 OA
ATOM     18  H3  UNL     1       5.936  84.734 -11.163  1.00  0.00     0.212 HD
ENDBRANCH  16  17
BRANCH  16  19
HETATM   19  O4  UNL     1       7.716  86.073 -10.250  1.00  0.00    -0.369 OA
ATOM     20  H4  UNL     1       7.495  86.925  -9.895  1.00  0.00     0.212 HD
ENDBRANCH  16  19
ENDBRANCH   1  16
BRANCH   1  21
HETATM   21  C10 UNL     1       5.896  84.152  -7.651  1.00  0.00     0.348 C 
BRANCH  21  22
HETATM   22  O5  UNL     1       6.887  83.861  -6.702  1.00  0.00    -0.368 OA
ATOM     23  H5  UNL     1       7.535  83.338  -7.159  1.00  0.00     0.212 HD
ENDBRANCH  21  22
BRANCH  21  24
HETATM   24  N3  UNL     1       4.633  84.273  -7.010  1.00  0.00    -0.018 N 
ATOM     25  H32 UNL     1       4.637  83.907  -6.058  1.00  0.00     0.282 HD
ATOM     26  H31 UNL     1       4.397  85.239  -6.784  1.00  0.00     0.282 HD
BRANCH  24  27
HETATM   27  C11 UNL     1       3.631  83.630  -7.857  1.00  0.00     0.386 C 
BRANCH  27  28
HETATM   28  N4  UNL     1       4.203  82.705  -8.778  1.00  0.00    -0.050 N 
ATOM     29  H43 UNL     1       3.498  82.062  -9.137  1.00  0.00     0.276 HD
ATOM     30  H42 UNL     1       4.462  83.169  -9.650  1.00  0.00     0.276 HD
ATOM     31  H41 UNL     1       4.996  82.198  -8.383  1.00  0.00     0.276 HD
ENDBRANCH  27  28
BRANCH  27  32
HETATM   32  C12 UNL     1       2.597  82.909  -7.016  1.00  0.00     0.036 C 
HETATM   33  C13 UNL     1       1.389  83.751  -6.723  1.00  0.00     0.013 C 
HETATM   34  C14 UNL     1       2.169  81.613  -7.647  1.00  0.00     0.013 C 
ENDBRANCH  27  32
ENDBRANCH  24  27
ENDBRANCH  21  24
ENDBRANCH   1  21
TORSDOF 15
ENDMDL
MODEL 3
REMARK VINA RESULT: -6.804196150      2.939      7.892
REMARK  15 active torsions:
REMARK  status: ('A' for Active; 'I' for Inactive)
REMARK    1  A    between atoms: C2_2  and  C3_3 
REMARK    2  A    between atoms: C2_2  and  N2_13 
REMARK    3  A    between atoms: C3_3  and  C4_4 
REMARK    4  A    between atoms: C4_4  and  O1_5 
REMARK    5  A    between atoms: C4_4  and  C5_7 
REMARK    6  A    between atoms: N2_13  and  C8_15 
REMARK    7  A    between atoms: C8_15  and  C9_16 
REMARK    8  A    between atoms: C8_15  and  C10_21 
REMARK    9  A    between atoms: C9_16  and  O3_17 
REMARK   10  A    between atoms: C9_16  and  O4_19 
REMARK   11  A    between atoms: C10_21  and  O5_22 
REMARK   12  A    between atoms: C10_21  and  N3_24 
REMARK   13  A    between atoms: N3_24  and  C11_27 
REMARK   14  A    between atoms: C11_27  and  N4_28 
REMARK   15  A    between atoms: C11_27  and  C12_32 
ROOT
HETATM    1  C8  UNL     1       5.729  85.742  -7.903  1.00  0.00     0.189 C 
ENDROOT
BRANCH   1   2
HETATM    2  N2  UNL     1       5.932  86.710  -6.918  1.00  0.00    -0.405 N 
ATOM      3  H2  UNL     1       5.674  86.500  -5.954  1.00  0.00     0.154 HD
BRANCH   2   4
HETATM    4  C2  UNL     1       6.488  87.975  -7.225  1.00  0.00     0.076 C 
HETATM    5  C1  UNL     1       5.398  88.694  -8.049  1.00  0.00     0.032 C 
BRANCH   4   6
HETATM    6  C3  UNL     1       7.703  87.847  -8.107  1.00  0.00     0.063 C 
BRANCH   6   7
HETATM    7  C4  UNL     1       8.800  88.808  -7.858  1.00  0.00     0.178 C 
BRANCH   7   8
HETATM    8  O1  UNL     1       9.640  88.365  -6.802  1.00  0.00    -0.389 OA
ATOM      9  H1  UNL     1      10.284  89.025  -6.576  1.00  0.00     0.210 HD
ENDBRANCH   7   8
BRANCH   7  10
HETATM   10  C5  UNL     1       9.587  89.242  -9.005  1.00  0.00     0.098 A 
HETATM   11  C6  UNL     1      10.938  89.459  -9.095  1.00  0.00     0.124 A 
HETATM   12  N1  UNL     1      11.213  89.856 -10.363  1.00  0.00    -0.354 N 
HETATM   13  C7  UNL     1      10.034  89.867 -11.000  1.00  0.00     0.233 A 
ATOM     14  H1  UNL     1      12.126  90.095 -10.751  1.00  0.00     0.166 HD
HETATM   15  O2  UNL     1       9.088  89.502 -10.182  1.00  0.00    -0.306 OA
ENDBRANCH   7  10
ENDBRANCH   6   7
ENDBRANCH   4   6
ENDBRANCH   2   4
ENDBRANCH   1   2
BRANCH   1  16
HETATM   16  C9  UNL     1       6.624  84.568  -7.972  1.00  0.00     0.280 C 
BRANCH  16  17
HETATM   17  O3  UNL     1       6.863  83.886  -6.815  1.00  0.00    -0.369 OA
ATOM     18  H3  UNL     1       7.737  83.937  -6.446  1.00  0.00     0.212 HD
ENDBRANCH  16  17
BRANCH  16  19
HETATM   19  O4  UNL     1       6.251  83.629  -8.933  1.00  0.00    -0.369 OA
ATOM     20  H4  UNL     1       6.735  83.700  -9.748  1.00  0.00     0.212 HD
ENDBRANCH  16  19
ENDBRANCH   1  16
BRANCH   1  21
HETATM   21  C10 UNL     1       4.289  85.254  -7.853  1.00  0.00     0.348 C 
BRANCH  21  22
HETATM   22  O5  UNL     1       3.916  85.032  -9.187  1.00  0.00    -0.368 OA
ATOM     23  H5  UNL     1       3.057  84.628  -9.150  1.00  0.00     0.212 HD
ENDBRANCH  21  22
BRANCH  21  24
HETATM   24  N3  UNL     1       4.087  84.071  -7.091  1.00  0.00    -0.018 N 
ATOM     25  H32 UNL     1       4.938  83.516  -6.993  1.00  0.00     0.282 HD
ATOM     26  H31 UNL     1       3.934  84.262  -6.101  1.00  0.00     0.282 HD
BRANCH  24  27
HETATM   27  C11 UNL     1       2.990  83.321  -7.699  1.00  0.00     0.386 C 
BRANCH  27  28
HETATM   28  N4  UNL     1       3.448  82.283  -8.561  1.00  0.00    -0.050 N 
ATOM     29  H43 UNL     1       3.693  82.652  -9.480  1.00  0.00     0.276 HD
ATOM     30  H42 UNL     1       4.364  81.942  -8.270  1.00  0.00     0.276 HD
ATOM     31  H41 UNL     1       2.779  81.516  -8.640  1.00  0.00     0.276 HD
ENDBRANCH  27  28
BRANCH  27  32
HETATM   32  C12 UNL     1       2.096  82.717  -6.635  1.00  0.00     0.036 C 
HETATM   33  C13 UNL     1       0.896  83.565  -6.328  1.00  0.00     0.013 C 
HETATM   34  C14 UNL     1       1.654  81.327  -7.000  1.00  0.00     0.013 C 
ENDBRANCH  27  32
ENDBRANCH  24  27
ENDBRANCH  21  24
ENDBRANCH   1  21
TORSDOF 15
ENDMDL
MODEL 4
REMARK VINA RESULT: -6.764546141      2.274      7.338
REMARK  15 active torsions:
REMARK  status: ('A' for Active; 'I' for Inactive)
REMARK    1  A    between atoms: C2_2  and  C3_3 
REMARK    2  A    between atoms: C2_2  and  N2_13 
REMARK    3  A    between atoms: C3_3  and  C4_4 
REMARK    4  A    between atoms: C4_4  and  O1_5 
REMARK    5  A    between atoms: C4_4  and  C5_7 
REMARK    6  A    between atoms: N2_13  and  C8_15 
REMARK    7  A    between atoms: C8_15  and  C9_16 
REMARK    8  A    between atoms: C8_15  and  C10_21 
REMARK    9  A    between atoms: C9_16  and  O3_17 
REMARK   10  A    between atoms: C9_16  and  O4_19 
REMARK   11  A    between atoms: C10_21  and  O5_22 
REMARK   12  A    between atoms: C10_21  and  N3_24 
REMARK   13  A    between atoms: N3_24  and  C11_27 
REMARK   14  A    between atoms: C11_27  and  N4_28 
REMARK   15  A    between atoms: C11_27  and  C12_32 
ROOT
HETATM    1  C8  UNL     1       4.547  87.938  -7.279  1.00  0.00     0.189 C 
ENDROOT
BRANCH   1   2
HETATM    2  N2  UNL     1       5.815  87.801  -7.846  1.00  0.00    -0.405 N 
ATOM      3  H2  UNL     1       5.897  87.480  -8.811  1.00  0.00     0.154 HD
BRANCH   2   4
HETATM    4  C2  UNL     1       6.990  88.098  -7.115  1.00  0.00     0.076 C 
HETATM    5  C1  UNL     1       6.921  89.619  -6.857  1.00  0.00     0.032 C 
BRANCH   4   6
HETATM    6  C3  UNL     1       8.230  87.840  -7.931  1.00  0.00     0.063 C 
BRANCH   6   7
HETATM    7  C4  UNL     1       9.322  88.830  -7.800  1.00  0.00     0.178 C 
BRANCH   7   8
HETATM    8  O1  UNL     1      10.275  88.418  -6.833  1.00  0.00    -0.389 OA
ATOM      9  H1  UNL     1      10.766  87.663  -7.135  1.00  0.00     0.210 HD
ENDBRANCH   7   8
BRANCH   7  10
HETATM   10  C5  UNL     1       9.976  89.275  -9.023  1.00  0.00     0.098 A 
HETATM   11  C6  UNL     1      11.310  89.489  -9.262  1.00  0.00     0.124 A 
HETATM   12  N1  UNL     1      11.442  89.899 -10.550  1.00  0.00    -0.354 N 
HETATM   13  C7  UNL     1      10.199  89.921 -11.049  1.00  0.00     0.233 A 
ATOM     14  H1  UNL     1      12.306  90.140 -11.035  1.00  0.00     0.166 HD
HETATM   15  O2  UNL     1       9.349  89.550 -10.134  1.00  0.00    -0.306 OA
ENDBRANCH   7  10
ENDBRANCH   6   7
ENDBRANCH   4   6
ENDBRANCH   2   4
ENDBRANCH   1   2
BRANCH   1  16
HETATM   16  C9  UNL     1       3.648  89.013  -7.747  1.00  0.00     0.280 C 
BRANCH  16  17
HETATM   17  O3  UNL     1       3.695  89.347  -9.069  1.00  0.00    -0.369 OA
ATOM     18  H3  UNL     1       3.350  90.194  -9.322  1.00  0.00     0.212 HD
ENDBRANCH  16  17
BRANCH  16  19
HETATM   19  O4  UNL     1       2.307  88.809  -7.422  1.00  0.00    -0.369 OA
ATOM     20  H4  UNL     1       1.916  88.060  -7.855  1.00  0.00     0.212 HD
ENDBRANCH  16  19
ENDBRANCH   1  16
BRANCH   1  21
HETATM   21  C10 UNL     1       3.805  86.612  -7.358  1.00  0.00     0.348 C 
BRANCH  21  22
HETATM   22  O5  UNL     1       3.311  86.531  -8.669  1.00  0.00    -0.368 OA
ATOM     23  H5  UNL     1       2.883  85.686  -8.731  1.00  0.00     0.212 HD
ENDBRANCH  21  22
BRANCH  21  24
HETATM   24  N3  UNL     1       4.597  85.469  -7.068  1.00  0.00    -0.018 N 
ATOM     25  H32 UNL     1       5.549  85.709  -6.791  1.00  0.00     0.282 HD
ATOM     26  H31 UNL     1       4.316  85.003  -6.205  1.00  0.00     0.282 HD
BRANCH  24  27
HETATM   27  C11 UNL     1       4.554  84.581  -8.228  1.00  0.00     0.386 C 
BRANCH  27  28
HETATM   28  N4  UNL     1       5.818  84.461  -8.875  1.00  0.00    -0.050 N 
ATOM     29  H43 UNL     1       6.350  85.329  -8.803  1.00  0.00     0.276 HD
ATOM     30  H42 UNL     1       6.440  83.843  -8.352  1.00  0.00     0.276 HD
ATOM     31  H41 UNL     1       5.735  84.161  -9.846  1.00  0.00     0.276 HD
ENDBRANCH  27  28
BRANCH  27  32
HETATM   32  C12 UNL     1       4.072  83.199  -7.832  1.00  0.00     0.036 C 
HETATM   33  C13 UNL     1       2.810  83.229  -7.020  1.00  0.00     0.013 C 
HETATM   34  C14 UNL     1       3.883  82.309  -9.029  1.00  0.00     0.013 C 
ENDBRANCH  27  32
ENDBRANCH  24  27
ENDBRANCH  21  24
ENDBRANCH   1  21
TORSDOF 15
ENDMDL
MODEL 5
REMARK VINA RESULT: -6.592122029      2.252      7.166
REMARK  15 active torsions:
REMARK  status: ('A' for Active; 'I' for Inactive)
REMARK    1  A    between atoms: C2_2  and  C3_3 
REMARK    2  A    between atoms: C2_2  and  N2_13 
REMARK    3  A    between atoms: C3_3  and  C4_4 
REMARK    4  A    between atoms: C4_4  and  O1_5 
REMARK    5  A    between atoms: C4_4  and  C5_7 
REMARK    6  A    between atoms: N2_13  and  C8_15 
REMARK    7  A    between atoms: C8_15  and  C9_16 
REMARK    8  A    between atoms: C8_15  and  C10_21 
REMARK    9  A    between atoms: C9_16  and  O3_17 
REMARK   10  A    between atoms: C9_16  and  O4_19 
REMARK   11  A    between atoms: C10_21  and  O5_22 
REMARK   12  A    between atoms: C10_21  and  N3_24 
REMARK   13  A    between atoms: N3_24  and  C11_27 
REMARK   14  A    between atoms: C11_27  and  N4_28 
REMARK   15  A    between atoms: C11_27  and  C12_32 
ROOT
HETATM    1  C8  UNL     1       4.638  87.734  -6.797  1.00  0.00     0.189 C 
ENDROOT
BRANCH   1   2
HETATM    2  N2  UNL     1       5.713  88.219  -7.542  1.00  0.00    -0.405 N 
ATOM      3  H2  UNL     1       5.593  88.381  -8.542  1.00  0.00     0.154 HD
BRANCH   2   4
HETATM    4  C2  UNL     1       6.967  88.491  -6.944  1.00  0.00     0.076 C 
HETATM    5  C1  UNL     1       7.008  90.028  -6.798  1.00  0.00     0.032 C 
BRANCH   4   6
HETATM    6  C3  UNL     1       8.108  88.098  -7.846  1.00  0.00     0.063 C 
BRANCH   6   7
HETATM    7  C4  UNL     1       9.326  88.934  -7.768  1.00  0.00     0.178 C 
BRANCH   7   8
HETATM    8  O1  UNL     1      10.277  88.375  -6.875  1.00  0.00    -0.389 OA
ATOM      9  H1  UNL     1      11.158  88.658  -7.090  1.00  0.00     0.210 HD
ENDBRANCH   7   8
BRANCH   7  10
HETATM   10  C5  UNL     1       9.955  89.326  -9.023  1.00  0.00     0.098 A 
HETATM   11  C6  UNL     1      11.286  89.487  -9.311  1.00  0.00     0.124 A 
HETATM   12  N1  UNL     1      11.389  89.860 -10.612  1.00  0.00    -0.354 N 
HETATM   13  C7  UNL     1      10.131  89.913 -11.071  1.00  0.00     0.233 A 
ATOM     14  H1  UNL     1      12.244  90.059 -11.131  1.00  0.00     0.166 HD
HETATM   15  O2  UNL     1       9.301  89.595 -10.120  1.00  0.00    -0.306 OA
ENDBRANCH   7  10
ENDBRANCH   6   7
ENDBRANCH   4   6
ENDBRANCH   2   4
ENDBRANCH   1   2
BRANCH   1  16
HETATM   16  C9  UNL     1       3.368  88.489  -6.768  1.00  0.00     0.280 C 
BRANCH  16  17
HETATM   17  O3  UNL     1       2.834  88.877  -7.962  1.00  0.00    -0.369 OA
ATOM     18  H3  UNL     1       2.487  89.758  -8.024  1.00  0.00     0.212 HD
ENDBRANCH  16  17
BRANCH  16  19
HETATM   19  O4  UNL     1       2.352  87.860  -6.048  1.00  0.00    -0.369 OA
ATOM     20  H4  UNL     1       2.439  87.945  -5.106  1.00  0.00     0.212 HD
ENDBRANCH  16  19
ENDBRANCH   1  16
BRANCH   1  21
HETATM   21  C10 UNL     1       4.340  86.297  -7.201  1.00  0.00     0.348 C 
BRANCH  21  22
HETATM   22  O5  UNL     1       3.759  86.373  -8.475  1.00  0.00    -0.368 OA
ATOM     23  H5  UNL     1       4.401  86.010  -9.073  1.00  0.00     0.212 HD
ENDBRANCH  21  22
BRANCH  21  24
HETATM   24  N3  UNL     1       5.476  85.443  -7.237  1.00  0.00    -0.018 N 
ATOM     25  H32 UNL     1       6.084  85.628  -8.035  1.00  0.00     0.282 HD
ATOM     26  H31 UNL     1       6.150  85.652  -6.500  1.00  0.00     0.282 HD
BRANCH  24  27
HETATM   27  C11 UNL     1       5.004  84.060  -7.196  1.00  0.00     0.386 C 
BRANCH  27  28
HETATM   28  N4  UNL     1       3.589  83.967  -7.056  1.00  0.00    -0.050 N 
ATOM     29  H43 UNL     1       3.115  84.586  -7.713  1.00  0.00     0.276 HD
ATOM     30  H42 UNL     1       3.246  83.070  -7.398  1.00  0.00     0.276 HD
ATOM     31  H41 UNL     1       3.278  84.139  -6.099  1.00  0.00     0.276 HD
ENDBRANCH  27  28
BRANCH  27  32
HETATM   32  C12 UNL     1       5.424  83.310  -8.444  1.00  0.00     0.036 C 
HETATM   33  C13 UNL     1       4.259  82.808  -9.246  1.00  0.00     0.013 C 
HETATM   34  C14 UNL     1       6.321  84.141  -9.320  1.00  0.00     0.013 C 
ENDBRANCH  27  32
ENDBRANCH  24  27
ENDBRANCH  21  24
ENDBRANCH   1  21
TORSDOF 15
ENDMDL
