MODEL 1
REMARK VINA RESULT: -6.929403359      0.000      0.000
REMARK  13 active torsions:
REMARK  status: ('A' for Active; 'I' for Inactive)
REMARK    1  A    between atoms: N1_1  and  C1_5 
REMARK    2  A    between atoms: C1_5  and  C2_6 
REMARK    3  A    between atoms: C2_6  and  N2_7 
REMARK    4  A    between atoms: N2_7  and  C3_10 
REMARK    5  A    between atoms: C3_10  and  C4_11 
REMARK    6  A    between atoms: C4_11  and  N3_12 
REMARK    7  A    between atoms: C5_19  and  C6_20 
REMARK    8  A    between atoms: C6_20  and  N7_21 
REMARK    9  A    between atoms: N7_21  and  C7_23 
REMARK   10  A    between atoms: C10_29  and  N10_30 
REMARK   11  A    between atoms: N10_30  and  C11_32 
REMARK   12  A    between atoms: C11_32  and  C12_33 
REMARK   13  A    between atoms: C12_33  and  O1_34 
ROOT
HETATM    1  N3  UNL     1       5.424  87.230  -7.042  1.00  0.00    -0.260 N 
HETATM    2  N4  UNL     1       5.028  85.964  -6.879  1.00  0.00    -0.225 N 
ATOM      3  H4  UNL     1       4.179  85.647  -6.410  1.00  0.00     0.210 HD
HETATM    4  N5  UNL     1       5.945  85.206  -7.440  1.00  0.00    -0.227 N 
ATOM      5  H5  UNL     1       5.922  84.187  -7.476  1.00  0.00     0.210 HD
HETATM    6  N6  UNL     1       6.898  85.963  -7.949  1.00  0.00    -0.271 N 
ATOM      7  H6  UNL     1       7.728  85.630  -8.441  1.00  0.00     0.190 HD
HETATM    8  C5  UNL     1       6.587  87.259  -7.706  1.00  0.00     0.133 A 
ENDROOT
BRANCH   8   9
HETATM    9  C6  UNL     1       7.373  88.466  -8.084  1.00  0.00     0.201 C 
BRANCH   9  10
HETATM   10  N7  UNL     1       8.762  88.087  -8.183  1.00  0.00    -0.367 N 
ATOM     11  H7  UNL     1       9.246  87.745  -7.352  1.00  0.00     0.161 HD
BRANCH  10  12
HETATM   12  C7  UNL     1       9.472  88.179  -9.411  1.00  0.00     0.129 A 
HETATM   13  N8  UNL     1       9.413  87.307 -10.458  1.00  0.00    -0.329 N 
HETATM   14  C8  UNL     1      10.224  87.735 -11.456  1.00  0.00     0.120 A 
ATOM     15  H8  UNL     1       8.845  86.461 -10.485  1.00  0.00     0.168 HD
HETATM   16  N9  UNL     1      10.423  87.098 -12.701  1.00  0.00    -0.083 NA
HETATM   17  C9  UNL     1      10.814  88.913 -11.026  1.00  0.00     0.078 A 
HETATM   18  C10 UNL     1      10.346  89.190  -9.753  1.00  0.00     0.075 A 
BRANCH  18  19
HETATM   19  N10 UNL     1      10.728  90.331  -8.985  1.00  0.00    -0.385 N 
ATOM     20  H10 UNL     1      10.156  91.176  -9.016  1.00  0.00     0.159 HD
BRANCH  19  21
HETATM   21  C11 UNL     1      11.920  90.304  -8.160  1.00  0.00     0.146 C 
BRANCH  21  22
HETATM   22  C12 UNL     1      12.209  88.871  -7.716  1.00  0.00     0.183 C 
BRANCH  22  23
HETATM   23  O1  UNL     1      11.492  88.585  -6.567  1.00  0.00    -0.399 OA
ATOM     24  H1  UNL     1      11.885  87.845  -6.121  1.00  0.00     0.209 HD
ENDBRANCH  22  23
ENDBRANCH  21  22
ENDBRANCH  19  21
ENDBRANCH  18  19
ENDBRANCH  10  12
ENDBRANCH   9  10
ENDBRANCH   8   9
BRANCH   1  25
HETATM   25  C4  UNL     1       4.654  88.373  -6.561  1.00  0.00     0.179 C 
BRANCH  25  26
HETATM   26  C3  UNL     1       3.768  88.879  -7.658  1.00  0.00     0.254 C 
BRANCH  26  27
HETATM   27  N2  UNL     1       2.626  88.020  -7.862  1.00  0.00    -0.072 N 
ATOM     28  H22 UNL     1       2.884  87.133  -8.294  1.00  0.00     0.277 HD
ATOM     29  H21 UNL     1       2.010  88.367  -8.597  1.00  0.00     0.277 HD
BRANCH  27  30
HETATM   30  C2  UNL     1       1.935  87.835  -6.623  1.00  0.00     0.259 C 
BRANCH  30  31
HETATM   31  C1  UNL     1       1.152  86.535  -6.580  1.00  0.00     0.257 C 
BRANCH  31  32
HETATM   32  N1  UNL     1       1.147  85.870  -7.867  1.00  0.00    -0.078 N 
ATOM     33  H13 UNL     1       1.207  86.541  -8.633  1.00  0.00     0.274 HD
ATOM     34  H12 UNL     1       2.020  85.367  -8.029  1.00  0.00     0.274 HD
ATOM     35  H11 UNL     1       0.339  85.257  -7.972  1.00  0.00     0.274 HD
ENDBRANCH  31  32
ENDBRANCH  30  31
ENDBRANCH  27  30
ENDBRANCH  26  27
ENDBRANCH  25  26
ENDBRANCH   1  25
TORSDOF 13
ENDMDL
MODEL 2
REMARK VINA RESULT: -6.858735285      1.722      2.731
REMARK  13 active torsions:
REMARK  status: ('A' for Active; 'I' for Inactive)
REMARK    1  A    between atoms: N1_1  and  C1_5 
REMARK    2  A    between atoms: C1_5  and  C2_6 
REMARK    3  A    between atoms: C2_6  and  N2_7 
REMARK    4  A    between atoms: N2_7  and  C3_10 
REMARK    5  A    between atoms: C3_10  and  C4_11 
REMARK    6  A    between atoms: C4_11  and  N3_12 
REMARK    7  A    between atoms: C5_19  and  C6_20 
REMARK    8  A    between atoms: C6_20  and  N7_21 
REMARK    9  A    between atoms: N7_21  and  C7_23 
REMARK   10  A    between atoms: C10_29  and  N10_30 
REMARK   11  A    between atoms: N10_30  and  C11_32 
REMARK   12  A    between atoms: C11_32  and  C12_33 
REMARK   13  A    between atoms: C12_33  and  O1_34 
ROOT
HETATM    1  N3  UNL     1       5.167  88.215  -7.502  1.00  0.00    -0.260 N 
HETATM    2  N4  UNL     1       4.651  89.226  -6.795  1.00  0.00    -0.225 N 
ATOM      3  H4  UNL     1       3.663  89.396  -6.608  1.00  0.00     0.210 HD
HETATM    4  N5  UNL     1       5.665  89.958  -6.389  1.00  0.00    -0.227 N 
ATOM      5  H5  UNL     1       5.589  90.805  -5.825  1.00  0.00     0.210 HD
HETATM    6  N6  UNL     1       6.796  89.433  -6.819  1.00  0.00    -0.271 N 
ATOM      7  H6  UNL     1       7.732  89.801  -6.645  1.00  0.00     0.190 HD
HETATM    8  C5  UNL     1       6.502  88.319  -7.533  1.00  0.00     0.133 A 
ENDROOT
BRANCH   8   9
HETATM    9  C6  UNL     1       7.456  87.406  -8.221  1.00  0.00     0.201 C 
BRANCH   9  10
HETATM   10  N7  UNL     1       8.744  88.054  -8.272  1.00  0.00    -0.367 N 
ATOM     11  H7  UNL     1       9.140  88.445  -7.416  1.00  0.00     0.161 HD
BRANCH  10  12
HETATM   12  C7  UNL     1       9.475  88.162  -9.487  1.00  0.00     0.129 A 
HETATM   13  N8  UNL     1       9.429  87.306 -10.548  1.00  0.00    -0.329 N 
HETATM   14  C8  UNL     1      10.257  87.746 -11.526  1.00  0.00     0.120 A 
ATOM     15  H8  UNL     1       8.858  86.462 -10.597  1.00  0.00     0.168 HD
HETATM   16  N9  UNL     1      10.474  87.127 -12.778  1.00  0.00    -0.083 NA
HETATM   17  C9  UNL     1      10.844  88.914 -11.069  1.00  0.00     0.078 A 
HETATM   18  C10 UNL     1      10.357  89.175  -9.800  1.00  0.00     0.075 A 
BRANCH  18  19
HETATM   19  N10 UNL     1      10.731  90.303  -9.009  1.00  0.00    -0.385 N 
ATOM     20  H10 UNL     1      10.160  91.148  -9.033  1.00  0.00     0.159 HD
BRANCH  19  21
HETATM   21  C11 UNL     1      11.914  90.261  -8.171  1.00  0.00     0.146 C 
BRANCH  21  22
HETATM   22  C12 UNL     1      12.158  88.831  -7.693  1.00  0.00     0.183 C 
BRANCH  22  23
HETATM   23  O1  UNL     1      11.397  88.579  -6.565  1.00  0.00    -0.399 OA
ATOM     24  H1  UNL     1      11.003  89.387  -6.257  1.00  0.00     0.209 HD
ENDBRANCH  22  23
ENDBRANCH  21  22
ENDBRANCH  19  21
ENDBRANCH  18  19
ENDBRANCH  10  12
ENDBRANCH   9  10
ENDBRANCH   8   9
BRANCH   1  25
HETATM   25  C4  UNL     1       4.350  87.173  -8.113  1.00  0.00     0.179 C 
BRANCH  25  26
HETATM   26  C3  UNL     1       3.941  86.179  -7.069  1.00  0.00     0.254 C 
BRANCH  26  27
HETATM   27  N2  UNL     1       4.987  85.220  -6.805  1.00  0.00    -0.072 N 
ATOM     28  H22 UNL     1       5.228  85.177  -5.815  1.00  0.00     0.277 HD
ATOM     29  H21 UNL     1       5.891  85.528  -7.163  1.00  0.00     0.277 HD
BRANCH  27  30
HETATM   30  C2  UNL     1       4.611  83.941  -7.324  1.00  0.00     0.259 C 
BRANCH  30  31
HETATM   31  C1  UNL     1       5.500  83.490  -8.469  1.00  0.00     0.257 C 
BRANCH  31  32
HETATM   32  N1  UNL     1       6.876  83.323  -8.044  1.00  0.00    -0.078 N 
ATOM     33  H13 UNL     1       7.517  83.359  -8.836  1.00  0.00     0.274 HD
ATOM     34  H12 UNL     1       7.209  84.140  -7.532  1.00  0.00     0.274 HD
ATOM     35  H11 UNL     1       7.001  82.468  -7.502  1.00  0.00     0.274 HD
ENDBRANCH  31  32
ENDBRANCH  30  31
ENDBRANCH  27  30
ENDBRANCH  26  27
ENDBRANCH  25  26
ENDBRANCH   1  25
TORSDOF 13
ENDMDL
MODEL 3
REMARK VINA RESULT: -6.588170756      2.917      7.299
REMARK  13 active torsions:
REMARK  status: ('A' for Active; 'I' for Inactive)
REMARK    1  A    between atoms: N1_1  and  C1_5 
REMARK    2  A    between atoms: C1_5  and  C2_6 
REMARK    3  A    between atoms: C2_6  and  N2_7 
REMARK    4  A    between atoms: N2_7  and  C3_10 
REMARK    5  A    between atoms: C3_10  and  C4_11 
REMARK    6  A    between atoms: C4_11  and  N3_12 
REMARK    7  A    between atoms: C5_19  and  C6_20 
REMARK    8  A    between atoms: C6_20  and  N7_21 
REMARK    9  A    between atoms: N7_21  and  C7_23 
REMARK   10  A    between atoms: C10_29  and  N10_30 
REMARK   11  A    between atoms: N10_30  and  C11_32 
REMARK   12  A    between atoms: C11_32  and  C12_33 
REMARK   13  A    between atoms: C12_33  and  O1_34 
ROOT
HETATM    1  N3  UNL     1       7.673  88.876  -7.446  1.00  0.00    -0.260 N 
HETATM    2  N4  UNL     1       7.069  89.949  -6.927  1.00  0.00    -0.225 N 
ATOM      3  H4  UNL     1       7.512  90.828  -6.659  1.00  0.00     0.210 HD
HETATM    4  N5  UNL     1       5.791  89.653  -6.831  1.00  0.00    -0.227 N 
ATOM      5  H5  UNL     1       5.070  90.276  -6.468  1.00  0.00     0.210 HD
HETATM    6  N6  UNL     1       5.582  88.428  -7.275  1.00  0.00    -0.271 N 
ATOM      7  H6  UNL     1       4.681  87.951  -7.314  1.00  0.00     0.190 HD
HETATM    8  C5  UNL     1       6.771  87.912  -7.672  1.00  0.00     0.133 A 
ENDROOT
BRANCH   8   9
HETATM    9  C6  UNL     1       7.028  86.557  -8.232  1.00  0.00     0.201 C 
BRANCH   9  10
HETATM   10  N7  UNL     1       6.243  85.604  -7.485  1.00  0.00    -0.367 N 
ATOM     11  H7  UNL     1       6.306  85.595  -6.466  1.00  0.00     0.161 HD
BRANCH  10  12
HETATM   12  C7  UNL     1       5.384  84.675  -8.135  1.00  0.00     0.129 A 
HETATM   13  N8  UNL     1       5.700  83.410  -8.533  1.00  0.00    -0.329 N 
HETATM   14  C8  UNL     1       4.618  82.828  -9.107  1.00  0.00     0.120 A 
ATOM     15  H8  UNL     1       6.611  82.968  -8.416  1.00  0.00     0.168 HD
HETATM   16  N9  UNL     1       4.556  81.519  -9.636  1.00  0.00    -0.083 NA
HETATM   17  C9  UNL     1       3.589  83.755  -9.071  1.00  0.00     0.078 A 
HETATM   18  C10 UNL     1       4.066  84.906  -8.465  1.00  0.00     0.075 A 
BRANCH  18  19
HETATM   19  N10 UNL     1       3.287  86.082  -8.244  1.00  0.00    -0.385 N 
ATOM     20  H10 UNL     1       3.380  86.875  -8.879  1.00  0.00     0.159 HD
BRANCH  19  21
HETATM   21  C11 UNL     1       2.364  86.160  -7.129  1.00  0.00     0.146 C 
BRANCH  21  22
HETATM   22  C12 UNL     1       2.061  87.622  -6.810  1.00  0.00     0.183 C 
BRANCH  22  23
HETATM   23  O1  UNL     1       3.076  88.150  -6.030  1.00  0.00    -0.399 OA
ATOM     24  H1  UNL     1       3.355  87.508  -5.389  1.00  0.00     0.209 HD
ENDBRANCH  22  23
ENDBRANCH  21  22
ENDBRANCH  19  21
ENDBRANCH  18  19
ENDBRANCH  10  12
ENDBRANCH   9  10
ENDBRANCH   8   9
BRANCH   1  25
HETATM   25  C4  UNL     1       9.106  88.823  -7.717  1.00  0.00     0.179 C 
BRANCH  25  26
HETATM   26  C3  UNL     1       9.406  89.574  -8.978  1.00  0.00     0.254 C 
BRANCH  26  27
HETATM   27  N2  UNL     1      10.807  89.907  -9.081  1.00  0.00    -0.072 N 
ATOM     28  H22 UNL     1      11.351  89.524  -8.309  1.00  0.00     0.277 HD
ATOM     29  H21 UNL     1      10.981  90.897  -8.906  1.00  0.00     0.277 HD
BRANCH  27  30
HETATM   30  C2  UNL     1      11.309  89.489 -10.354  1.00  0.00     0.259 C 
BRANCH  30  31
HETATM   31  C1  UNL     1      10.212  89.004 -11.284  1.00  0.00     0.257 C 
BRANCH  31  32
HETATM   32  N1  UNL     1      10.544  87.728 -11.885  1.00  0.00    -0.078 N 
ATOM     33  H13 UNL     1      11.263  87.830 -12.601  1.00  0.00     0.274 HD
ATOM     34  H12 UNL     1      11.054  87.132 -11.233  1.00  0.00     0.274 HD
ATOM     35  H11 UNL     1       9.718  87.257 -12.252  1.00  0.00     0.274 HD
ENDBRANCH  31  32
ENDBRANCH  30  31
ENDBRANCH  27  30
ENDBRANCH  26  27
ENDBRANCH  25  26
ENDBRANCH   1  25
TORSDOF 13
ENDMDL
MODEL 4
REMARK VINA RESULT: -6.524816940      3.023      7.489
REMARK  13 active torsions:
REMARK  status: ('A' for Active; 'I' for Inactive)
REMARK    1  A    between atoms: N1_1  and  C1_5 
REMARK    2  A    between atoms: C1_5  and  C2_6 
REMARK    3  A    between atoms: C2_6  and  N2_7 
REMARK    4  A    between atoms: N2_7  and  C3_10 
REMARK    5  A    between atoms: C3_10  and  C4_11 
REMARK    6  A    between atoms: C4_11  and  N3_12 
REMARK    7  A    between atoms: C5_19  and  C6_20 
REMARK    8  A    between atoms: C6_20  and  N7_21 
REMARK    9  A    between atoms: N7_21  and  C7_23 
REMARK   10  A    between atoms: C10_29  and  N10_30 
REMARK   11  A    between atoms: N10_30  and  C11_32 
REMARK   12  A    between atoms: C11_32  and  C12_33 
REMARK   13  A    between atoms: C12_33  and  O1_34 
ROOT
HETATM    1  N3  UNL     1       7.328  88.882  -7.380  1.00  0.00    -0.260 N 
HETATM    2  N4  UNL     1       6.685  89.913  -6.821  1.00  0.00    -0.225 N 
ATOM      3  H4  UNL     1       7.082  90.821  -6.583  1.00  0.00     0.210 HD
HETATM    4  N5  UNL     1       5.441  89.526  -6.639  1.00  0.00    -0.227 N 
ATOM      5  H5  UNL     1       4.703  90.098  -6.227  1.00  0.00     0.210 HD
HETATM    6  N6  UNL     1       5.290  88.288  -7.069  1.00  0.00    -0.271 N 
ATOM      7  H6  UNL     1       4.425  87.748  -7.047  1.00  0.00     0.190 HD
HETATM    8  C5  UNL     1       6.483  87.856  -7.546  1.00  0.00     0.133 A 
ENDROOT
BRANCH   8   9
HETATM    9  C6  UNL     1       6.798  86.520  -8.123  1.00  0.00     0.201 C 
BRANCH   9  10
HETATM   10  N7  UNL     1       6.005  85.532  -7.431  1.00  0.00    -0.367 N 
ATOM     11  H7  UNL     1       6.022  85.505  -6.411  1.00  0.00     0.161 HD
BRANCH  10  12
HETATM   12  C7  UNL     1       5.202  84.595  -8.138  1.00  0.00     0.129 A 
HETATM   13  N8  UNL     1       5.573  83.352  -8.557  1.00  0.00    -0.329 N 
HETATM   14  C8  UNL     1       4.533  82.753  -9.187  1.00  0.00     0.120 A 
ATOM     15  H8  UNL     1       6.494  82.936  -8.418  1.00  0.00     0.168 HD
HETATM   16  N9  UNL     1       4.534  81.458  -9.753  1.00  0.00    -0.083 NA
HETATM   17  C9  UNL     1       3.474  83.645  -9.165  1.00  0.00     0.078 A 
HETATM   18  C10 UNL     1       3.890  84.793  -8.512  1.00  0.00     0.075 A 
BRANCH  18  19
HETATM   19  N10 UNL     1       3.065  85.937  -8.289  1.00  0.00    -0.385 N 
ATOM     20  H10 UNL     1       3.109  86.724  -8.937  1.00  0.00     0.159 HD
BRANCH  19  21
HETATM   21  C11 UNL     1       2.166  85.992  -7.153  1.00  0.00     0.146 C 
BRANCH  21  22
HETATM   22  C12 UNL     1       1.793  87.443  -6.858  1.00  0.00     0.183 C 
BRANCH  22  23
HETATM   23  O1  UNL     1       2.718  87.996  -5.989  1.00  0.00    -0.399 OA
ATOM     24  H1  UNL     1       2.489  88.899  -5.809  1.00  0.00     0.209 HD
ENDBRANCH  22  23
ENDBRANCH  21  22
ENDBRANCH  19  21
ENDBRANCH  18  19
ENDBRANCH  10  12
ENDBRANCH   9  10
ENDBRANCH   8   9
BRANCH   1  25
HETATM   25  C4  UNL     1       8.739  88.930  -7.749  1.00  0.00     0.179 C 
BRANCH  25  26
HETATM   26  C3  UNL     1       8.880  89.508  -9.123  1.00  0.00     0.254 C 
BRANCH  26  27
HETATM   27  N2  UNL     1      10.252  89.843  -9.425  1.00  0.00    -0.072 N 
ATOM     28  H22 UNL     1      10.525  90.740  -9.024  1.00  0.00     0.277 HD
ATOM     29  H21 UNL     1      10.383  90.076 -10.409  1.00  0.00     0.277 HD
BRANCH  27  30
HETATM   30  C2  UNL     1      11.111  88.779  -9.004  1.00  0.00     0.259 C 
BRANCH  30  31
HETATM   31  C1  UNL     1      12.313  89.276  -8.221  1.00  0.00     0.257 C 
BRANCH  31  32
HETATM   32  N1  UNL     1      12.266  90.710  -8.021  1.00  0.00    -0.078 N 
ATOM     33  H13 UNL     1      11.344  91.087  -8.238  1.00  0.00     0.274 HD
ATOM     34  H12 UNL     1      12.306  90.949  -7.030  1.00  0.00     0.274 HD
ATOM     35  H11 UNL     1      12.996  91.189  -8.549  1.00  0.00     0.274 HD
ENDBRANCH  31  32
ENDBRANCH  30  31
ENDBRANCH  27  30
ENDBRANCH  26  27
ENDBRANCH  25  26
ENDBRANCH   1  25
TORSDOF 13
ENDMDL
MODEL 5
REMARK VINA RESULT: -6.478243791      1.235      1.807
REMARK  13 active torsions:
REMARK  status: ('A' for Active; 'I' for Inactive)
REMARK    1  A    between atoms: N1_1  and  C1_5 
REMARK    2  A    between atoms: C1_5  and  C2_6 
REMARK    3  A    between atoms: C2_6  and  N2_7 
REMARK    4  A    between atoms: N2_7  and  C3_10 
REMARK    5  A    between atoms: C3_10  and  C4_11 
REMARK    6  A    between atoms: C4_11  and  N3_12 
REMARK    7  A    between atoms: C5_19  and  C6_20 
REMARK    8  A    between atoms: C6_20  and  N7_21 
REMARK    9  A    between atoms: N7_21  and  C7_23 
REMARK   10  A    between atoms: C10_29  and  N10_30 
REMARK   11  A    between atoms: N10_30  and  C11_32 
REMARK   12  A    between atoms: C11_32  and  C12_33 
REMARK   13  A    between atoms: C12_33  and  O1_34 
ROOT
HETATM    1  N3  UNL     1       5.144  87.336  -7.162  1.00  0.00    -0.260 N 
HETATM    2  N4  UNL     1       4.397  88.301  -6.617  1.00  0.00    -0.225 N 
ATOM      3  H4  UNL     1       3.474  88.192  -6.195  1.00  0.00     0.210 HD
HETATM    4  N5  UNL     1       5.083  89.418  -6.729  1.00  0.00    -0.227 N 
ATOM      5  H5  UNL     1       4.771  90.333  -6.403  1.00  0.00     0.210 HD
HETATM    6  N6  UNL     1       6.234  89.176  -7.327  1.00  0.00    -0.271 N 
ATOM      7  H6  UNL     1       6.955  89.867  -7.537  1.00  0.00     0.190 HD
HETATM    8  C5  UNL     1       6.294  87.853  -7.613  1.00  0.00     0.133 A 
ENDROOT
BRANCH   8   9
HETATM    9  C6  UNL     1       7.398  87.124  -8.296  1.00  0.00     0.201 C 
BRANCH   9  10
HETATM   10  N7  UNL     1       8.551  87.991  -8.343  1.00  0.00    -0.367 N 
ATOM     11  H7  UNL     1       8.807  88.525  -7.512  1.00  0.00     0.161 HD
BRANCH  10  12
HETATM   12  C7  UNL     1       9.338  88.119  -9.520  1.00  0.00     0.129 A 
HETATM   13  N8  UNL     1       9.354  87.272 -10.589  1.00  0.00    -0.329 N 
HETATM   14  C8  UNL     1      10.223  87.731 -11.523  1.00  0.00     0.120 A 
ATOM     15  H8  UNL     1       8.797  86.421 -10.672  1.00  0.00     0.168 HD
HETATM   16  N9  UNL     1      10.508  87.126 -12.767  1.00  0.00    -0.083 NA
HETATM   17  C9  UNL     1      10.772  88.902 -11.028  1.00  0.00     0.078 A 
HETATM   18  C10 UNL     1      10.221  89.145  -9.781  1.00  0.00     0.075 A 
BRANCH  18  19
HETATM   19  N10 UNL     1      10.542  90.270  -8.963  1.00  0.00    -0.385 N 
ATOM     20  H10 UNL     1       9.903  91.065  -8.925  1.00  0.00     0.159 HD
BRANCH  19  21
HETATM   21  C11 UNL     1      11.766  90.297  -8.187  1.00  0.00     0.146 C 
BRANCH  21  22
HETATM   22  C12 UNL     1      12.112  88.885  -7.719  1.00  0.00     0.183 C 
BRANCH  22  23
HETATM   23  O1  UNL     1      11.405  88.589  -6.566  1.00  0.00    -0.399 OA
ATOM     24  H1  UNL     1      11.215  87.659  -6.537  1.00  0.00     0.209 HD
ENDBRANCH  22  23
ENDBRANCH  21  22
ENDBRANCH  19  21
ENDBRANCH  18  19
ENDBRANCH  10  12
ENDBRANCH   9  10
ENDBRANCH   8   9
BRANCH   1  25
HETATM   25  C4  UNL     1       4.724  85.940  -7.217  1.00  0.00     0.179 C 
BRANCH  25  26
HETATM   26  C3  UNL     1       3.448  85.829  -7.995  1.00  0.00     0.254 C 
BRANCH  26  27
HETATM   27  N2  UNL     1       2.422  85.145  -7.245  1.00  0.00    -0.072 N 
ATOM     28  H22 UNL     1       2.667  85.048  -6.259  1.00  0.00     0.277 HD
ATOM     29  H21 UNL     1       2.369  84.154  -7.480  1.00  0.00     0.277 HD
BRANCH  27  30
HETATM   30  C2  UNL     1       1.168  85.810  -7.427  1.00  0.00     0.259 C 
BRANCH  30  31
HETATM   31  C1  UNL     1       0.929  86.897  -6.395  1.00  0.00     0.257 C 
BRANCH  31  32
HETATM   32  N1  UNL     1       0.986  88.219  -6.988  1.00  0.00    -0.078 N 
ATOM     33  H13 UNL     1       1.156  88.936  -6.283  1.00  0.00     0.274 HD
ATOM     34  H12 UNL     1       1.831  88.340  -7.545  1.00  0.00     0.274 HD
ATOM     35  H11 UNL     1       0.148  88.424  -7.532  1.00  0.00     0.274 HD
ENDBRANCH  31  32
ENDBRANCH  30  31
ENDBRANCH  27  30
ENDBRANCH  26  27
ENDBRANCH  25  26
ENDBRANCH   1  25
TORSDOF 13
ENDMDL
