MODEL 1
REMARK VINA RESULT: -7.178189906      0.000      0.000
REMARK  14 active torsions:
REMARK  status: ('A' for Active; 'I' for Inactive)
REMARK    1  A    between atoms: C2_2  and  C4_4 
REMARK    2  A    between atoms: C4_4  and  C5_5 
REMARK    3  A    between atoms: C5_5  and  O1_6 
REMARK    4  A    between atoms: C5_5  and  N1_8 
REMARK    5  A    between atoms: N1_8  and  C6_10 
REMARK    6  A    between atoms: C6_10  and  C8_13 
REMARK    7  A    between atoms: C8_13  and  N3_14 
REMARK    8  A    between atoms: N3_14  and  C9_17 
REMARK    9  A    between atoms: C9_17  and  O2_18 
REMARK   10  A    between atoms: C9_17  and  N4_20 
REMARK   11  A    between atoms: N4_20  and  C10_23 
REMARK   12  A    between atoms: C10_23  and  C11_24 
REMARK   13  A    between atoms: C10_23  and  C12_27 
REMARK   14  A    between atoms: C11_24  and  O3_25 
ROOT
HETATM    1  C6  UNL     1       6.226  86.135  -8.149  1.00  0.00     0.216 C 
HETATM    2  C7  UNL     1       7.133  86.065  -9.267  1.00  0.00     0.086 C 
HETATM    3  N2  UNL     1       7.866  86.041 -10.163  1.00  0.00    -0.195 NA
ENDROOT
BRANCH   1   4
HETATM    4  N1  UNL     1       6.299  85.173  -7.132  1.00  0.00    -0.356 N 
ATOM      5  H1  UNL     1       6.629  85.463  -6.211  1.00  0.00     0.162 HD
BRANCH   4   6
HETATM    6  C5  UNL     1       5.943  83.841  -7.322  1.00  0.00     0.112 C 
BRANCH   6   7
HETATM    7  C4  UNL     1       4.683  83.418  -7.940  1.00  0.00     0.087 C 
BRANCH   7   8
HETATM    8  C2  UNL     1       4.739  82.619  -9.196  1.00  0.00    -0.015 C 
HETATM    9  C1  UNL     1       3.672  81.565  -9.272  1.00  0.00     0.010 C 
HETATM   10  C3  UNL     1       4.820  83.444 -10.445  1.00  0.00     0.010 C 
ENDBRANCH   7   8
ENDBRANCH   6   7
BRANCH   6  11
HETATM   11  O1  UNL     1       7.048  83.068  -7.732  1.00  0.00    -0.350 OA
ATOM     12  H1  UNL     1       7.240  83.153  -8.658  1.00  0.00     0.219 HD
ENDBRANCH   6  11
ENDBRANCH   4   6
ENDBRANCH   1   4
BRANCH   1  13
HETATM   13  C8  UNL     1       6.279  87.559  -7.544  1.00  0.00     0.277 C 
BRANCH  13  14
HETATM   14  N3  UNL     1       7.227  88.321  -8.298  1.00  0.00    -0.020 N 
ATOM     15  H32 UNL     1       7.697  87.747  -8.997  1.00  0.00     0.282 HD
ATOM     16  H31 UNL     1       6.765  88.982  -8.922  1.00  0.00     0.282 HD
BRANCH  14  17
HETATM   17  C9  UNL     1       8.188  88.992  -7.421  1.00  0.00     0.522 C 
BRANCH  17  18
HETATM   18  O2  UNL     1       7.668  88.768  -6.115  1.00  0.00    -0.349 OA
ATOM     19  H2  UNL     1       8.421  88.463  -5.622  1.00  0.00     0.213 HD
ENDBRANCH  17  18
BRANCH  17  20
HETATM   20  N4  UNL     1       9.479  88.393  -7.542  1.00  0.00    -0.011 N 
ATOM     21  H42 UNL     1       9.913  88.252  -6.629  1.00  0.00     0.283 HD
ATOM     22  H41 UNL     1       9.413  87.419  -7.837  1.00  0.00     0.283 HD
BRANCH  20  23
HETATM   23  C10 UNL     1      10.328  89.148  -8.415  1.00  0.00     0.273 C 
BRANCH  23  24
HETATM   24  C11 UNL     1      11.720  89.258  -7.862  1.00  0.00     0.204 C 
BRANCH  24  25
HETATM   25  O3  UNL     1      11.784  88.533  -6.677  1.00  0.00    -0.398 OA
ATOM     26  H3  UNL     1      12.228  87.711  -6.848  1.00  0.00     0.209 HD
ENDBRANCH  24  25
ENDBRANCH  23  24
BRANCH  23  27
HETATM   27  C12 UNL     1      10.364  88.527  -9.786  1.00  0.00     0.110 A 
HETATM   28  C13 UNL     1      10.078  89.149 -10.964  1.00  0.00     0.056 A 
HETATM   29  C14 UNL     1      10.245  88.195 -11.946  1.00  0.00     0.117 A 
HETATM   30  N5  UNL     1      10.622  87.044 -11.322  1.00  0.00    -0.272 N 
HETATM   31  O4  UNL     1      10.683  87.276 -10.037  1.00  0.00    -0.241 OA
ATOM     32  H5  UNL     1      10.823  86.155 -11.779  1.00  0.00     0.193 HD
ENDBRANCH  23  27
ENDBRANCH  20  23
ENDBRANCH  17  20
ENDBRANCH  14  17
ENDBRANCH  13  14
ENDBRANCH   1  13
TORSDOF 14
ENDMDL
MODEL 2
REMARK VINA RESULT: -7.066754887      2.162      7.355
REMARK  14 active torsions:
REMARK  status: ('A' for Active; 'I' for Inactive)
REMARK    1  A    between atoms: C2_2  and  C4_4 
REMARK    2  A    between atoms: C4_4  and  C5_5 
REMARK    3  A    between atoms: C5_5  and  O1_6 
REMARK    4  A    between atoms: C5_5  and  N1_8 
REMARK    5  A    between atoms: N1_8  and  C6_10 
REMARK    6  A    between atoms: C6_10  and  C8_13 
REMARK    7  A    between atoms: C8_13  and  N3_14 
REMARK    8  A    between atoms: N3_14  and  C9_17 
REMARK    9  A    between atoms: C9_17  and  O2_18 
REMARK   10  A    between atoms: C9_17  and  N4_20 
REMARK   11  A    between atoms: N4_20  and  C10_23 
REMARK   12  A    between atoms: C10_23  and  C11_24 
REMARK   13  A    between atoms: C10_23  and  C12_27 
REMARK   14  A    between atoms: C11_24  and  O3_25 
ROOT
HETATM    1  C6  UNL     1       6.709  87.685  -7.755  1.00  0.00     0.216 C 
HETATM    2  C7  UNL     1       5.451  87.614  -7.053  1.00  0.00     0.086 C 
HETATM    3  N2  UNL     1       4.438  87.525  -6.500  1.00  0.00    -0.195 NA
ENDROOT
BRANCH   1   4
HETATM    4  N1  UNL     1       7.815  88.286  -7.138  1.00  0.00    -0.356 N 
ATOM      5  H1  UNL     1       7.721  88.606  -6.174  1.00  0.00     0.162 HD
BRANCH   4   6
HETATM    6  C5  UNL     1       9.036  88.466  -7.781  1.00  0.00     0.112 C 
BRANCH   6   7
HETATM    7  C4  UNL     1       9.248  89.430  -8.865  1.00  0.00     0.087 C 
BRANCH   7   8
HETATM    8  C2  UNL     1       9.961  88.976 -10.092  1.00  0.00    -0.015 C 
HETATM    9  C1  UNL     1      11.335  89.566 -10.227  1.00  0.00     0.010 C 
HETATM   10  C3  UNL     1       9.954  87.490 -10.291  1.00  0.00     0.010 C 
ENDBRANCH   7   8
ENDBRANCH   6   7
BRANCH   6  11
HETATM   11  O1  UNL     1      10.109  88.415  -6.868  1.00  0.00    -0.350 OA
ATOM     12  H1  UNL     1      10.819  89.007  -7.091  1.00  0.00     0.219 HD
ENDBRANCH   6  11
ENDBRANCH   4   6
ENDBRANCH   1   4
BRANCH   1  13
HETATM   13  C8  UNL     1       7.082  86.274  -8.269  1.00  0.00     0.277 C 
BRANCH  13  14
HETATM   14  N3  UNL     1       6.143  85.344  -7.719  1.00  0.00    -0.020 N 
ATOM     15  H32 UNL     1       5.765  85.675  -6.832  1.00  0.00     0.282 HD
ATOM     16  H31 UNL     1       5.278  85.323  -8.259  1.00  0.00     0.282 HD
BRANCH  14  17
HETATM   17  C9  UNL     1       6.728  84.010  -7.590  1.00  0.00     0.522 C 
BRANCH  17  18
HETATM   18  O2  UNL     1       6.345  83.597  -6.283  1.00  0.00    -0.349 OA
ATOM     19  H2  UNL     1       5.442  83.321  -6.389  1.00  0.00     0.213 HD
ENDBRANCH  17  18
BRANCH  17  20
HETATM   20  N4  UNL     1       6.173  83.123  -8.564  1.00  0.00    -0.011 N 
ATOM     21  H42 UNL     1       6.824  82.956  -9.331  1.00  0.00     0.283 HD
ATOM     22  H41 UNL     1       6.105  82.171  -8.205  1.00  0.00     0.283 HD
BRANCH  20  23
HETATM   23  C10 UNL     1       4.908  83.596  -9.042  1.00  0.00     0.273 C 
BRANCH  23  24
HETATM   24  C11 UNL     1       4.854  83.583 -10.543  1.00  0.00     0.204 C 
BRANCH  24  25
HETATM   25  O3  UNL     1       6.078  84.023 -11.034  1.00  0.00    -0.398 OA
ATOM     26  H3  UNL     1       6.691  84.084 -10.311  1.00  0.00     0.209 HD
ENDBRANCH  24  25
ENDBRANCH  23  24
BRANCH  23  27
HETATM   27  C12 UNL     1       3.785  82.766  -8.477  1.00  0.00     0.110 A 
HETATM   28  C13 UNL     1       2.986  83.096  -7.425  1.00  0.00     0.056 A 
HETATM   29  C14 UNL     1       2.108  82.043  -7.271  1.00  0.00     0.117 A 
HETATM   30  N5  UNL     1       2.415  81.128  -8.232  1.00  0.00    -0.272 N 
HETATM   31  O4  UNL     1       3.418  81.588  -8.932  1.00  0.00    -0.241 OA
ATOM     32  H5  UNL     1       1.942  80.236  -8.379  1.00  0.00     0.193 HD
ENDBRANCH  23  27
ENDBRANCH  20  23
ENDBRANCH  17  20
ENDBRANCH  14  17
ENDBRANCH  13  14
ENDBRANCH   1  13
TORSDOF 14
ENDMDL
MODEL 3
REMARK VINA RESULT: -6.982344711      2.458      7.690
REMARK  14 active torsions:
REMARK  status: ('A' for Active; 'I' for Inactive)
REMARK    1  A    between atoms: C2_2  and  C4_4 
REMARK    2  A    between atoms: C4_4  and  C5_5 
REMARK    3  A    between atoms: C5_5  and  O1_6 
REMARK    4  A    between atoms: C5_5  and  N1_8 
REMARK    5  A    between atoms: N1_8  and  C6_10 
REMARK    6  A    between atoms: C6_10  and  C8_13 
REMARK    7  A    between atoms: C8_13  and  N3_14 
REMARK    8  A    between atoms: N3_14  and  C9_17 
REMARK    9  A    between atoms: C9_17  and  O2_18 
REMARK   10  A    between atoms: C9_17  and  N4_20 
REMARK   11  A    between atoms: N4_20  and  C10_23 
REMARK   12  A    between atoms: C10_23  and  C11_24 
REMARK   13  A    between atoms: C10_23  and  C12_27 
REMARK   14  A    between atoms: C11_24  and  O3_25 
ROOT
HETATM    1  C6  UNL     1       6.699  87.829  -7.741  1.00  0.00     0.216 C 
HETATM    2  C7  UNL     1       5.453  87.794  -7.015  1.00  0.00     0.086 C 
HETATM    3  N2  UNL     1       4.447  87.736  -6.446  1.00  0.00    -0.195 NA
ENDROOT
BRANCH   1   4
HETATM    4  N1  UNL     1       7.860  88.292  -7.107  1.00  0.00    -0.356 N 
ATOM      5  H1  UNL     1       7.817  88.507  -6.110  1.00  0.00     0.162 HD
BRANCH   4   6
HETATM    6  C5  UNL     1       9.068  88.471  -7.773  1.00  0.00     0.112 C 
BRANCH   6   7
HETATM    7  C4  UNL     1       9.257  89.425  -8.869  1.00  0.00     0.087 C 
BRANCH   7   8
HETATM    8  C2  UNL     1       9.951  88.964 -10.104  1.00  0.00    -0.015 C 
HETATM    9  C1  UNL     1      11.335  89.528 -10.248  1.00  0.00     0.010 C 
HETATM   10  C3  UNL     1       9.914  87.478 -10.309  1.00  0.00     0.010 C 
ENDBRANCH   7   8
ENDBRANCH   6   7
BRANCH   6  11
HETATM   11  O1  UNL     1      10.158  88.433  -6.879  1.00  0.00    -0.350 OA
ATOM     12  H1  UNL     1      10.651  87.621  -6.925  1.00  0.00     0.219 HD
ENDBRANCH   6  11
ENDBRANCH   4   6
ENDBRANCH   1   4
BRANCH   1  13
HETATM   13  C8  UNL     1       6.952  86.441  -8.378  1.00  0.00     0.277 C 
BRANCH  13  14
HETATM   14  N3  UNL     1       6.786  85.453  -7.356  1.00  0.00    -0.020 N 
ATOM     15  H32 UNL     1       7.685  85.112  -7.016  1.00  0.00     0.282 HD
ATOM     16  H31 UNL     1       6.437  85.864  -6.491  1.00  0.00     0.282 HD
BRANCH  14  17
HETATM   17  C9  UNL     1       5.933  84.355  -7.811  1.00  0.00     0.522 C 
BRANCH  17  18
HETATM   18  O2  UNL     1       6.831  83.257  -7.933  1.00  0.00    -0.349 OA
ATOM     19  H2  UNL     1       7.069  83.059  -7.035  1.00  0.00     0.213 HD
ENDBRANCH  17  18
BRANCH  17  20
HETATM   20  N4  UNL     1       4.932  84.061  -6.835  1.00  0.00    -0.011 N 
ATOM     21  H42 UNL     1       5.052  83.125  -6.447  1.00  0.00     0.283 HD
ATOM     22  H41 UNL     1       5.071  84.604  -5.983  1.00  0.00     0.283 HD
BRANCH  20  23
HETATM   23  C10 UNL     1       3.614  84.243  -7.365  1.00  0.00     0.273 C 
BRANCH  23  24
HETATM   24  C11 UNL     1       3.660  84.751  -8.777  1.00  0.00     0.204 C 
BRANCH  24  25
HETATM   25  O3  UNL     1       3.092  86.021  -8.810  1.00  0.00    -0.398 OA
ATOM     26  H3  UNL     1       2.231  85.978  -8.411  1.00  0.00     0.209 HD
ENDBRANCH  24  25
ENDBRANCH  23  24
BRANCH  23  27
HETATM   27  C12 UNL     1       2.836  82.955  -7.305  1.00  0.00     0.110 A 
HETATM   28  C13 UNL     1       1.915  82.610  -6.362  1.00  0.00     0.056 A 
HETATM   29  C14 UNL     1       1.468  81.352  -6.712  1.00  0.00     0.117 A 
HETATM   30  N5  UNL     1       2.136  80.995  -7.844  1.00  0.00    -0.272 N 
HETATM   31  O4  UNL     1       2.943  81.970  -8.170  1.00  0.00    -0.241 OA
ATOM     32  H5  UNL     1       2.026  80.116  -8.350  1.00  0.00     0.193 HD
ENDBRANCH  23  27
ENDBRANCH  20  23
ENDBRANCH  17  20
ENDBRANCH  14  17
ENDBRANCH  13  14
ENDBRANCH   1  13
TORSDOF 14
ENDMDL
MODEL 4
REMARK VINA RESULT: -6.970268337      1.273      1.614
REMARK  14 active torsions:
REMARK  status: ('A' for Active; 'I' for Inactive)
REMARK    1  A    between atoms: C2_2  and  C4_4 
REMARK    2  A    between atoms: C4_4  and  C5_5 
REMARK    3  A    between atoms: C5_5  and  O1_6 
REMARK    4  A    between atoms: C5_5  and  N1_8 
REMARK    5  A    between atoms: N1_8  and  C6_10 
REMARK    6  A    between atoms: C6_10  and  C8_13 
REMARK    7  A    between atoms: C8_13  and  N3_14 
REMARK    8  A    between atoms: N3_14  and  C9_17 
REMARK    9  A    between atoms: C9_17  and  O2_18 
REMARK   10  A    between atoms: C9_17  and  N4_20 
REMARK   11  A    between atoms: N4_20  and  C10_23 
REMARK   12  A    between atoms: C10_23  and  C11_24 
REMARK   13  A    between atoms: C10_23  and  C12_27 
REMARK   14  A    between atoms: C11_24  and  O3_25 
ROOT
HETATM    1  C6  UNL     1       5.458  86.728  -7.114  1.00  0.00     0.216 C 
HETATM    2  C7  UNL     1       4.232  86.950  -7.840  1.00  0.00     0.086 C 
HETATM    3  N2  UNL     1       3.254  87.160  -8.422  1.00  0.00    -0.195 NA
ENDROOT
BRANCH   1   4
HETATM    4  N1  UNL     1       6.308  85.679  -7.490  1.00  0.00    -0.356 N 
ATOM      5  H1  UNL     1       7.256  85.906  -7.793  1.00  0.00     0.162 HD
BRANCH   4   6
HETATM    6  C5  UNL     1       5.920  84.343  -7.469  1.00  0.00     0.112 C 
BRANCH   6   7
HETATM    7  C4  UNL     1       5.422  83.624  -8.646  1.00  0.00     0.087 C 
BRANCH   7   8
HETATM    8  C2  UNL     1       4.002  83.174  -8.658  1.00  0.00    -0.015 C 
HETATM    9  C1  UNL     1       3.322  83.333  -7.329  1.00  0.00     0.010 C 
HETATM   10  C3  UNL     1       3.191  83.736  -9.787  1.00  0.00     0.010 C 
ENDBRANCH   7   8
ENDBRANCH   6   7
BRANCH   6  11
HETATM   11  O1  UNL     1       6.788  83.568  -6.673  1.00  0.00    -0.350 OA
ATOM     12  H1  UNL     1       6.570  83.594  -5.749  1.00  0.00     0.219 HD
ENDBRANCH   6  11
ENDBRANCH   4   6
ENDBRANCH   1   4
BRANCH   1  13
HETATM   13  C8  UNL     1       6.248  88.058  -7.039  1.00  0.00     0.277 C 
BRANCH  13  14
HETATM   14  N3  UNL     1       7.112  88.120  -8.177  1.00  0.00    -0.020 N 
ATOM     15  H32 UNL     1       7.644  87.257  -8.291  1.00  0.00     0.282 HD
ATOM     16  H31 UNL     1       6.584  88.095  -9.049  1.00  0.00     0.282 HD
BRANCH  14  17
HETATM   17  C9  UNL     1       7.991  89.288  -8.115  1.00  0.00     0.522 C 
BRANCH  17  18
HETATM   18  O2  UNL     1       7.340  90.153  -7.190  1.00  0.00    -0.349 OA
ATOM     19  H2  UNL     1       8.037  90.722  -6.885  1.00  0.00     0.213 HD
ENDBRANCH  17  18
BRANCH  17  20
HETATM   20  N4  UNL     1       9.279  88.920  -7.616  1.00  0.00    -0.011 N 
ATOM     21  H42 UNL     1       9.428  89.274  -6.671  1.00  0.00     0.283 HD
ATOM     22  H41 UNL     1       9.331  87.921  -7.420  1.00  0.00     0.283 HD
BRANCH  20  23
HETATM   23  C10 UNL     1      10.323  89.337  -8.503  1.00  0.00     0.273 C 
BRANCH  23  24
HETATM   24  C11 UNL     1      11.673  89.199  -7.859  1.00  0.00     0.204 C 
BRANCH  24  25
HETATM   25  O3  UNL     1      11.513  88.582  -6.623  1.00  0.00    -0.398 OA
ATOM     26  H3  UNL     1      12.219  88.861  -6.052  1.00  0.00     0.209 HD
ENDBRANCH  24  25
ENDBRANCH  23  24
BRANCH  23  27
HETATM   27  C12 UNL     1      10.279  88.543  -9.783  1.00  0.00     0.110 A 
HETATM   28  C13 UNL     1      10.668  88.974 -11.015  1.00  0.00     0.056 A 
HETATM   29  C14 UNL     1      10.449  87.916 -11.872  1.00  0.00     0.117 A 
HETATM   30  N5  UNL     1       9.939  86.898 -11.124  1.00  0.00    -0.272 N 
HETATM   31  O4  UNL     1       9.849  87.304  -9.885  1.00  0.00    -0.241 OA
ATOM     32  H5  UNL     1       9.672  85.976 -11.472  1.00  0.00     0.193 HD
ENDBRANCH  23  27
ENDBRANCH  20  23
ENDBRANCH  17  20
ENDBRANCH  14  17
ENDBRANCH  13  14
ENDBRANCH   1  13
TORSDOF 14
ENDMDL
MODEL 5
REMARK VINA RESULT: -6.858340727      1.579      2.056
REMARK  14 active torsions:
REMARK  status: ('A' for Active; 'I' for Inactive)
REMARK    1  A    between atoms: C2_2  and  C4_4 
REMARK    2  A    between atoms: C4_4  and  C5_5 
REMARK    3  A    between atoms: C5_5  and  O1_6 
REMARK    4  A    between atoms: C5_5  and  N1_8 
REMARK    5  A    between atoms: N1_8  and  C6_10 
REMARK    6  A    between atoms: C6_10  and  C8_13 
REMARK    7  A    between atoms: C8_13  and  N3_14 
REMARK    8  A    between atoms: N3_14  and  C9_17 
REMARK    9  A    between atoms: C9_17  and  O2_18 
REMARK   10  A    between atoms: C9_17  and  N4_20 
REMARK   11  A    between atoms: N4_20  and  C10_23 
REMARK   12  A    between atoms: C10_23  and  C11_24 
REMARK   13  A    between atoms: C10_23  and  C12_27 
REMARK   14  A    between atoms: C11_24  and  O3_25 
ROOT
HETATM    1  C6  UNL     1       4.852  87.429  -7.106  1.00  0.00     0.216 C 
HETATM    2  C7  UNL     1       4.086  88.212  -8.045  1.00  0.00     0.086 C 
HETATM    3  N2  UNL     1       3.491  88.865  -8.792  1.00  0.00    -0.195 NA
ENDROOT
BRANCH   1   4
HETATM    4  N1  UNL     1       5.224  86.118  -7.435  1.00  0.00    -0.356 N 
ATOM      5  H1  UNL     1       6.022  85.980  -8.057  1.00  0.00     0.162 HD
BRANCH   4   6
HETATM    6  C5  UNL     1       4.556  84.996  -6.953  1.00  0.00     0.112 C 
BRANCH   6   7
HETATM    7  C4  UNL     1       3.363  84.428  -7.587  1.00  0.00     0.087 C 
BRANCH   7   8
HETATM    8  C2  UNL     1       3.013  83.008  -7.303  1.00  0.00    -0.015 C 
HETATM    9  C1  UNL     1       1.783  82.862  -6.456  1.00  0.00     0.010 C 
HETATM   10  C3  UNL     1       2.980  82.131  -8.519  1.00  0.00     0.010 C 
ENDBRANCH   7   8
ENDBRANCH   6   7
BRANCH   6  11
HETATM   11  O1  UNL     1       5.462  84.015  -6.499  1.00  0.00    -0.350 OA
ATOM     12  H1  UNL     1       5.557  83.287  -7.102  1.00  0.00     0.219 HD
ENDBRANCH   6  11
ENDBRANCH   4   6
ENDBRANCH   1   4
BRANCH   1  13
HETATM   13  C8  UNL     1       6.092  88.243  -6.662  1.00  0.00     0.277 C 
BRANCH  13  14
HETATM   14  N3  UNL     1       7.236  87.695  -7.325  1.00  0.00    -0.020 N 
ATOM     15  H32 UNL     1       7.772  87.088  -6.705  1.00  0.00     0.282 HD
ATOM     16  H31 UNL     1       6.968  87.006  -8.026  1.00  0.00     0.282 HD
BRANCH  14  17
HETATM   17  C9  UNL     1       8.074  88.749  -7.899  1.00  0.00     0.522 C 
BRANCH  17  18
HETATM   18  O2  UNL     1       7.534  89.947  -7.351  1.00  0.00    -0.349 OA
ATOM     19  H2  UNL     1       7.777  90.613  -7.983  1.00  0.00     0.213 HD
ENDBRANCH  17  18
BRANCH  17  20
HETATM   20  N4  UNL     1       9.432  88.591  -7.484  1.00  0.00    -0.011 N 
ATOM     21  H42 UNL     1       9.570  88.917  -6.527  1.00  0.00     0.283 HD
ATOM     22  H41 UNL     1       9.671  87.609  -7.353  1.00  0.00     0.283 HD
BRANCH  20  23
HETATM   23  C10 UNL     1      10.334  89.234  -8.393  1.00  0.00     0.273 C 
BRANCH  23  24
HETATM   24  C11 UNL     1      11.735  89.249  -7.850  1.00  0.00     0.204 C 
BRANCH  24  25
HETATM   25  O3  UNL     1      11.755  88.539  -6.654  1.00  0.00    -0.398 OA
ATOM     26  H3  UNL     1      12.655  88.461  -6.363  1.00  0.00     0.209 HD
ENDBRANCH  24  25
ENDBRANCH  23  24
BRANCH  23  27
HETATM   27  C12 UNL     1      10.308  88.552  -9.736  1.00  0.00     0.110 A 
HETATM   28  C13 UNL     1      10.170  89.159 -10.947  1.00  0.00     0.056 A 
HETATM   29  C14 UNL     1      10.203  88.145 -11.883  1.00  0.00     0.117 A 
HETATM   30  N5  UNL     1      10.358  86.978 -11.199  1.00  0.00    -0.272 N 
HETATM   31  O4  UNL     1      10.416  87.255  -9.923  1.00  0.00    -0.241 OA
ATOM     32  H5  UNL     1      10.419  86.047 -11.612  1.00  0.00     0.193 HD
ENDBRANCH  23  27
ENDBRANCH  20  23
ENDBRANCH  17  20
ENDBRANCH  14  17
ENDBRANCH  13  14
ENDBRANCH   1  13
TORSDOF 14
ENDMDL
