MODEL 1
REMARK VINA RESULT: -6.803252416      0.000      0.000
REMARK  12 active torsions:
REMARK  status: ('A' for Active; 'I' for Inactive)
REMARK    1  A    between atoms: N1_2  and  C2_3 
REMARK    2  A    between atoms: N1_2  and  C4_9 
REMARK    3  A    between atoms: C2_3  and  C3_4 
REMARK    4  A    between atoms: C3_4  and  N2_5 
REMARK    5  A    between atoms: C4_9  and  C5_10 
REMARK    6  A    between atoms: C5_10  and  C6_11 
REMARK    7  A    between atoms: C6_11  and  C7_12 
REMARK    8  A    between atoms: C8_13  and  C9_14 
REMARK    9  A    between atoms: C9_14  and  C10_15 
REMARK   10  A    between atoms: C10_15  and  C11_16 
REMARK   11  A    between atoms: C13_28  and  N7_29 
REMARK   12  A    between atoms: N7_29  and  N8_31 
ROOT
HETATM    1  C7  UNL     1       6.443  87.919  -7.949  1.00  0.00     0.053 A 
HETATM    2  C8  UNL     1       5.713  86.821  -7.765  1.00  0.00     0.070 A 
HETATM    3  N6  UNL     1       4.323  87.037  -7.553  1.00  0.00    -0.188 N 
ATOM      4  H6  UNL     1       3.748  86.207  -7.410  1.00  0.00     0.184 HD
HETATM    5  C13 UNL     1       3.728  88.147  -7.524  1.00  0.00     0.711 A 
HETATM    6  N9  UNL     1       4.437  89.346  -7.713  1.00  0.00    -0.131 N 
ATOM      7  H9  UNL     1       3.972  90.254  -7.695  1.00  0.00     0.205 HD
HETATM    8  N10 UNL     1       5.823  89.228  -7.930  1.00  0.00    -0.288 N 
ATOM      9  H10 UNL     1       6.390  90.064  -8.073  1.00  0.00     0.187 HD
ENDROOT
BRANCH   2  10
HETATM   10  C9  UNL     1       6.363  85.531  -7.801  1.00  0.00     0.013 C 
BRANCH  10  11
HETATM   11  C10 UNL     1       5.619  84.275  -7.791  1.00  0.00     0.115 C 
BRANCH  11  12
HETATM   12  C11 UNL     1       5.371  83.588  -9.055  1.00  0.00     0.145 A 
HETATM   13  N3  UNL     1       5.169  82.322  -9.339  1.00  0.00    -0.280 N 
HETATM   14  N4  UNL     1       4.993  82.217 -10.643  1.00  0.00    -0.263 N 
ATOM     15  H3  UNL     1       5.151  81.553  -8.668  1.00  0.00     0.189 HD
HETATM   16  C12 UNL     1       5.085  83.435 -11.184  1.00  0.00     0.238 A 
ATOM     17  H4  UNL     1       4.815  81.351 -11.152  1.00  0.00     0.190 HD
HETATM   18  N5  UNL     1       4.960  83.677 -12.440  1.00  0.00    -0.364 N 
HETATM   19  O1  UNL     1       5.316  84.257 -10.199  1.00  0.00    -0.264 OA
ATOM     20  H52 UNL     1       4.779  83.034 -13.211  1.00  0.00     0.159 HD
ATOM     21  H51 UNL     1       5.030  84.607 -12.854  1.00  0.00     0.159 HD
ENDBRANCH  11  12
ENDBRANCH  10  11
ENDBRANCH   2  10
BRANCH   1  22
HETATM   22  C6  UNL     1       7.861  87.821  -8.183  1.00  0.00     0.062 C 
BRANCH  22  23
HETATM   23  C5  UNL     1       8.765  88.843  -7.538  1.00  0.00     0.036 C 
BRANCH  23  24
HETATM   24  C4  UNL     1       9.558  89.686  -8.451  1.00  0.00     0.272 C 
BRANCH  24  25
HETATM   25  N1  UNL     1      10.613  88.895  -9.077  1.00  0.00     0.085 N 
HETATM   26  C1  UNL     1      11.762  88.911  -8.174  1.00  0.00     0.309 C 
BRANCH  25  27
HETATM   27  C2  UNL     1      10.928  89.286 -10.391  1.00  0.00     0.299 C 
BRANCH  27  28
HETATM   28  C3  UNL     1      10.424  88.345 -11.465  1.00  0.00     0.259 C 
BRANCH  28  29
HETATM   29  N2  UNL     1      10.113  87.057 -10.902  1.00  0.00    -0.078 N 
ATOM     30  H23 UNL     1      10.884  86.398 -11.015  1.00  0.00     0.274 HD
ATOM     31  H22 UNL     1      10.085  87.085  -9.883  1.00  0.00     0.274 HD
ATOM     32  H21 UNL     1       9.244  86.695 -11.296  1.00  0.00     0.274 HD
ENDBRANCH  28  29
ENDBRANCH  27  28
ENDBRANCH  25  27
ENDBRANCH  24  25
ENDBRANCH  23  24
ENDBRANCH  22  23
ENDBRANCH   1  22
BRANCH   5  33
HETATM   33  N7  UNL     1       2.326  88.244  -7.303  1.00  0.00    -0.137 N 
ATOM     34  H7  UNL     1       1.925  89.172  -7.171  1.00  0.00     0.205 HD
BRANCH  33  35
HETATM   35  N8  UNL     1       1.473  87.156  -7.257  1.00  0.00    -0.331 N 
ATOM     36  H82 UNL     1       1.860  86.254  -7.534  1.00  0.00     0.177 HD
ATOM     37  H81 UNL     1       0.497  87.207  -6.964  1.00  0.00     0.177 HD
ENDBRANCH  33  35
ENDBRANCH   5  33
TORSDOF 12
ENDMDL
MODEL 2
REMARK VINA RESULT: -6.713768260      0.971      1.213
REMARK  12 active torsions:
REMARK  status: ('A' for Active; 'I' for Inactive)
REMARK    1  A    between atoms: N1_2  and  C2_3 
REMARK    2  A    between atoms: N1_2  and  C4_9 
REMARK    3  A    between atoms: C2_3  and  C3_4 
REMARK    4  A    between atoms: C3_4  and  N2_5 
REMARK    5  A    between atoms: C4_9  and  C5_10 
REMARK    6  A    between atoms: C5_10  and  C6_11 
REMARK    7  A    between atoms: C6_11  and  C7_12 
REMARK    8  A    between atoms: C8_13  and  C9_14 
REMARK    9  A    between atoms: C9_14  and  C10_15 
REMARK   10  A    between atoms: C10_15  and  C11_16 
REMARK   11  A    between atoms: C13_28  and  N7_29 
REMARK   12  A    between atoms: N7_29  and  N8_31 
ROOT
HETATM    1  C7  UNL     1       6.447  87.941  -7.972  1.00  0.00     0.053 A 
HETATM    2  C8  UNL     1       5.720  86.840  -7.790  1.00  0.00     0.070 A 
HETATM    3  N6  UNL     1       4.330  87.051  -7.578  1.00  0.00    -0.188 N 
ATOM      4  H6  UNL     1       3.757  86.218  -7.436  1.00  0.00     0.184 HD
HETATM    5  C13 UNL     1       3.731  88.159  -7.548  1.00  0.00     0.711 A 
HETATM    6  N9  UNL     1       4.436  89.361  -7.735  1.00  0.00    -0.131 N 
ATOM      7  H9  UNL     1       3.967  90.267  -7.716  1.00  0.00     0.205 HD
HETATM    8  N10 UNL     1       5.823  89.248  -7.951  1.00  0.00    -0.288 N 
ATOM      9  H10 UNL     1       6.387  90.086  -8.093  1.00  0.00     0.187 HD
ENDROOT
BRANCH   2  10
HETATM   10  C9  UNL     1       6.375  85.552  -7.826  1.00  0.00     0.013 C 
BRANCH  10  11
HETATM   11  C10 UNL     1       5.695  84.314  -7.458  1.00  0.00     0.115 C 
BRANCH  11  12
HETATM   12  C11 UNL     1       5.251  83.409  -8.513  1.00  0.00     0.145 A 
HETATM   13  N3  UNL     1       5.639  83.259  -9.759  1.00  0.00    -0.280 N 
HETATM   14  N4  UNL     1       4.916  82.296 -10.301  1.00  0.00    -0.263 N 
ATOM     15  H3  UNL     1       6.371  83.793 -10.227  1.00  0.00     0.189 HD
HETATM   16  C12 UNL     1       4.063  81.835  -9.381  1.00  0.00     0.238 A 
ATOM     17  H4  UNL     1       4.995  81.960 -11.261  1.00  0.00     0.190 HD
HETATM   18  N5  UNL     1       3.217  80.891  -9.591  1.00  0.00    -0.364 N 
HETATM   19  O1  UNL     1       4.284  82.527  -8.298  1.00  0.00    -0.264 OA
ATOM     20  H52 UNL     1       3.044  80.350 -10.439  1.00  0.00     0.159 HD
ATOM     21  H51 UNL     1       2.566  80.539  -8.889  1.00  0.00     0.159 HD
ENDBRANCH  11  12
ENDBRANCH  10  11
ENDBRANCH   2  10
BRANCH   1  22
HETATM   22  C6  UNL     1       7.865  87.848  -8.205  1.00  0.00     0.062 C 
BRANCH  22  23
HETATM   23  C5  UNL     1       8.767  88.864  -7.547  1.00  0.00     0.036 C 
BRANCH  23  24
HETATM   24  C4  UNL     1       9.583  89.697  -8.448  1.00  0.00     0.272 C 
BRANCH  24  25
HETATM   25  N1  UNL     1      10.627  88.890  -9.072  1.00  0.00     0.085 N 
HETATM   26  C1  UNL     1      11.776  88.893  -8.171  1.00  0.00     0.309 C 
BRANCH  25  27
HETATM   27  C2  UNL     1      10.945  89.271 -10.388  1.00  0.00     0.299 C 
BRANCH  27  28
HETATM   28  C3  UNL     1      10.405  88.348 -11.460  1.00  0.00     0.259 C 
BRANCH  28  29
HETATM   29  N2  UNL     1      10.096  87.056 -10.904  1.00  0.00    -0.078 N 
ATOM     30  H23 UNL     1      10.046  87.084  -9.885  1.00  0.00     0.274 HD
ATOM     31  H22 UNL     1       9.134  86.780 -11.098  1.00  0.00     0.274 HD
ATOM     32  H21 UNL     1      10.764  86.358 -11.232  1.00  0.00     0.274 HD
ENDBRANCH  28  29
ENDBRANCH  27  28
ENDBRANCH  25  27
ENDBRANCH  24  25
ENDBRANCH  23  24
ENDBRANCH  22  23
ENDBRANCH   1  22
BRANCH   5  33
HETATM   33  N7  UNL     1       2.328  88.251  -7.327  1.00  0.00    -0.137 N 
ATOM     34  H7  UNL     1       1.925  89.177  -7.188  1.00  0.00     0.205 HD
BRANCH  33  35
HETATM   35  N8  UNL     1       1.478  87.160  -7.290  1.00  0.00    -0.331 N 
ATOM     36  H82 UNL     1       1.855  86.270  -7.616  1.00  0.00     0.177 HD
ATOM     37  H81 UNL     1       0.514  87.199  -6.958  1.00  0.00     0.177 HD
ENDBRANCH  33  35
ENDBRANCH   5  33
TORSDOF 12
ENDMDL
MODEL 3
REMARK VINA RESULT: -6.554553382      0.891      1.608
REMARK  12 active torsions:
REMARK  status: ('A' for Active; 'I' for Inactive)
REMARK    1  A    between atoms: N1_2  and  C2_3 
REMARK    2  A    between atoms: N1_2  and  C4_9 
REMARK    3  A    between atoms: C2_3  and  C3_4 
REMARK    4  A    between atoms: C3_4  and  N2_5 
REMARK    5  A    between atoms: C4_9  and  C5_10 
REMARK    6  A    between atoms: C5_10  and  C6_11 
REMARK    7  A    between atoms: C6_11  and  C7_12 
REMARK    8  A    between atoms: C8_13  and  C9_14 
REMARK    9  A    between atoms: C9_14  and  C10_15 
REMARK   10  A    between atoms: C10_15  and  C11_16 
REMARK   11  A    between atoms: C13_28  and  N7_29 
REMARK   12  A    between atoms: N7_29  and  N8_31 
ROOT
HETATM    1  C7  UNL     1       6.475  88.306  -7.443  1.00  0.00     0.053 A 
HETATM    2  C8  UNL     1       5.883  87.146  -7.720  1.00  0.00     0.070 A 
HETATM    3  N6  UNL     1       4.461  87.159  -7.680  1.00  0.00    -0.188 N 
ATOM      4  H6  UNL     1       3.990  86.279  -7.889  1.00  0.00     0.184 HD
HETATM    5  C13 UNL     1       3.723  88.144  -7.414  1.00  0.00     0.711 A 
HETATM    6  N9  UNL     1       4.282  89.399  -7.114  1.00  0.00    -0.131 N 
ATOM      7  H9  UNL     1       3.700  90.208  -6.898  1.00  0.00     0.205 HD
HETATM    8  N10 UNL     1       5.688  89.480  -7.129  1.00  0.00    -0.288 N 
ATOM      9  H10 UNL     1       6.150  90.364  -6.919  1.00  0.00     0.187 HD
ENDROOT
BRANCH   2  10
HETATM   10  C9  UNL     1       6.700  85.997  -8.038  1.00  0.00     0.013 C 
BRANCH  10  11
HETATM   11  C10 UNL     1       6.285  84.630  -7.738  1.00  0.00     0.115 C 
BRANCH  11  12
HETATM   12  C11 UNL     1       5.748  83.801  -8.813  1.00  0.00     0.145 A 
HETATM   13  N3  UNL     1       5.535  82.508  -8.899  1.00  0.00    -0.280 N 
HETATM   14  N4  UNL     1       5.032  82.253 -10.092  1.00  0.00    -0.263 N 
ATOM     15  H3  UNL     1       5.725  81.820  -8.170  1.00  0.00     0.189 HD
HETATM   16  C12 UNL     1       4.927  83.404 -10.765  1.00  0.00     0.238 A 
ATOM     17  H4  UNL     1       4.766  81.332 -10.443  1.00  0.00     0.190 HD
HETATM   18  N5  UNL     1       4.470  83.500 -11.962  1.00  0.00    -0.364 N 
HETATM   19  O1  UNL     1       5.369  84.335  -9.967  1.00  0.00    -0.264 OA
ATOM     20  H52 UNL     1       4.124  82.771 -12.586  1.00  0.00     0.159 HD
ATOM     21  H51 UNL     1       4.390  84.378 -12.475  1.00  0.00     0.159 HD
ENDBRANCH  11  12
ENDBRANCH  10  11
ENDBRANCH   2  10
BRANCH   1  22
HETATM   22  C6  UNL     1       7.912  88.413  -7.463  1.00  0.00     0.062 C 
BRANCH  22  23
HETATM   23  C5  UNL     1       8.568  88.999  -8.690  1.00  0.00     0.036 C 
BRANCH  23  24
HETATM   24  C4  UNL     1       9.689  88.233  -9.263  1.00  0.00     0.272 C 
BRANCH  24  25
HETATM   25  N1  UNL     1      10.242  88.936 -10.416  1.00  0.00     0.085 N 
HETATM   26  C1  UNL     1      10.225  88.006 -11.542  1.00  0.00     0.309 C 
BRANCH  25  27
HETATM   27  C2  UNL     1      11.503  89.518 -10.189  1.00  0.00     0.299 C 
BRANCH  27  28
HETATM   28  C3  UNL     1      12.016  89.377  -8.772  1.00  0.00     0.259 C 
BRANCH  28  29
HETATM   29  N2  UNL     1      12.124  90.669  -8.145  1.00  0.00    -0.078 N 
ATOM     30  H23 UNL     1      12.937  90.727  -7.532  1.00  0.00     0.274 HD
ATOM     31  H22 UNL     1      12.384  91.394  -8.813  1.00  0.00     0.274 HD
ATOM     32  H21 UNL     1      11.261  90.900  -7.652  1.00  0.00     0.274 HD
ENDBRANCH  28  29
ENDBRANCH  27  28
ENDBRANCH  25  27
ENDBRANCH  24  25
ENDBRANCH  23  24
ENDBRANCH  22  23
ENDBRANCH   1  22
BRANCH   5  33
HETATM   33  N7  UNL     1       2.304  88.041  -7.403  1.00  0.00    -0.137 N 
ATOM     34  H7  UNL     1       1.761  88.904  -7.411  1.00  0.00     0.205 HD
BRANCH  33  35
HETATM   35  N8  UNL     1       1.616  86.841  -7.383  1.00  0.00    -0.331 N 
ATOM     36  H82 UNL     1       2.078  86.052  -6.931  1.00  0.00     0.177 HD
ATOM     37  H81 UNL     1       0.689  86.708  -7.788  1.00  0.00     0.177 HD
ENDBRANCH  33  35
ENDBRANCH   5  33
TORSDOF 12
ENDMDL
MODEL 4
REMARK VINA RESULT: -6.512165556      2.247      4.678
REMARK  12 active torsions:
REMARK  status: ('A' for Active; 'I' for Inactive)
REMARK    1  A    between atoms: N1_2  and  C2_3 
REMARK    2  A    between atoms: N1_2  and  C4_9 
REMARK    3  A    between atoms: C2_3  and  C3_4 
REMARK    4  A    between atoms: C3_4  and  N2_5 
REMARK    5  A    between atoms: C4_9  and  C5_10 
REMARK    6  A    between atoms: C5_10  and  C6_11 
REMARK    7  A    between atoms: C6_11  and  C7_12 
REMARK    8  A    between atoms: C8_13  and  C9_14 
REMARK    9  A    between atoms: C9_14  and  C10_15 
REMARK   10  A    between atoms: C10_15  and  C11_16 
REMARK   11  A    between atoms: C13_28  and  N7_29 
REMARK   12  A    between atoms: N7_29  and  N8_31 
ROOT
HETATM    1  C7  UNL     1       6.629  87.574  -7.775  1.00  0.00     0.053 A 
HETATM    2  C8  UNL     1       5.440  87.291  -7.246  1.00  0.00     0.070 A 
HETATM    3  N6  UNL     1       5.063  85.921  -7.283  1.00  0.00    -0.188 N 
ATOM      4  H6  UNL     1       4.155  85.685  -6.882  1.00  0.00     0.184 HD
HETATM    5  C13 UNL     1       5.734  84.966  -7.759  1.00  0.00     0.711 A 
HETATM    6  N9  UNL     1       6.998  85.193  -8.330  1.00  0.00    -0.131 N 
ATOM      7  H9  UNL     1       7.556  84.433  -8.719  1.00  0.00     0.205 HD
HETATM    8  N10 UNL     1       7.453  86.526  -8.338  1.00  0.00    -0.288 N 
ATOM      9  H10 UNL     1       8.363  86.752  -8.740  1.00  0.00     0.187 HD
ENDROOT
BRANCH   2  10
HETATM   10  C9  UNL     1       4.648  88.362  -6.684  1.00  0.00     0.013 C 
BRANCH  10  11
HETATM   11  C10 UNL     1       3.485  88.921  -7.367  1.00  0.00     0.115 C 
BRANCH  11  12
HETATM   12  C11 UNL     1       2.160  88.393  -7.057  1.00  0.00     0.145 A 
HETATM   13  N3  UNL     1       1.735  87.171  -6.832  1.00  0.00    -0.280 N 
HETATM   14  N4  UNL     1       0.437  87.224  -6.598  1.00  0.00    -0.263 N 
ATOM     15  H3  UNL     1       2.308  86.327  -6.838  1.00  0.00     0.189 HD
HETATM   16  C12 UNL     1       0.043  88.499  -6.676  1.00  0.00     0.238 A 
ATOM     17  H4  UNL     1      -0.165  86.427  -6.391  1.00  0.00     0.190 HD
HETATM   18  N5  UNL     1      -1.168  88.891  -6.497  1.00  0.00    -0.364 N 
HETATM   19  O1  UNL     1       1.108  89.195  -6.957  1.00  0.00    -0.264 OA
ATOM     20  H52 UNL     1      -2.002  88.346  -6.278  1.00  0.00     0.159 HD
ATOM     21  H51 UNL     1      -1.470  89.864  -6.557  1.00  0.00     0.159 HD
ENDBRANCH  11  12
ENDBRANCH  10  11
ENDBRANCH   2  10
BRANCH   1  22
HETATM   22  C6  UNL     1       7.118  88.929  -7.784  1.00  0.00     0.062 C 
BRANCH  22  23
HETATM   23  C5  UNL     1       8.584  89.162  -7.509  1.00  0.00     0.036 C 
BRANCH  23  24
HETATM   24  C4  UNL     1       9.360  89.798  -8.588  1.00  0.00     0.272 C 
BRANCH  24  25
HETATM   25  N1  UNL     1      10.419  88.903  -9.043  1.00  0.00     0.085 N 
HETATM   26  C1  UNL     1      11.464  88.912  -8.023  1.00  0.00     0.309 C 
BRANCH  25  27
HETATM   27  C2  UNL     1      10.897  89.180 -10.336  1.00  0.00     0.299 C 
BRANCH  27  28
HETATM   28  C3  UNL     1      10.363  88.262 -11.416  1.00  0.00     0.259 C 
BRANCH  28  29
HETATM   29  N2  UNL     1      10.002  86.985 -10.858  1.00  0.00    -0.078 N 
ATOM     30  H23 UNL     1       8.995  86.908 -10.707  1.00  0.00     0.274 HD
ATOM     31  H22 UNL     1      10.114  86.230 -11.534  1.00  0.00     0.274 HD
ATOM     32  H21 UNL     1      10.528  86.808 -10.001  1.00  0.00     0.274 HD
ENDBRANCH  28  29
ENDBRANCH  27  28
ENDBRANCH  25  27
ENDBRANCH  24  25
ENDBRANCH  23  24
ENDBRANCH  22  23
ENDBRANCH   1  22
BRANCH   5  33
HETATM   33  N7  UNL     1       5.255  83.627  -7.741  1.00  0.00    -0.137 N 
ATOM     34  H7  UNL     1       4.721  83.320  -6.928  1.00  0.00     0.205 HD
BRANCH  33  35
HETATM   35  N8  UNL     1       5.468  82.715  -8.759  1.00  0.00    -0.331 N 
ATOM     36  H82 UNL     1       6.016  83.035  -9.558  1.00  0.00     0.177 HD
ATOM     37  H81 UNL     1       5.114  81.759  -8.753  1.00  0.00     0.177 HD
ENDBRANCH  33  35
ENDBRANCH   5  33
TORSDOF 12
ENDMDL
MODEL 5
REMARK VINA RESULT: -6.510273283      2.361      4.932
REMARK  12 active torsions:
REMARK  status: ('A' for Active; 'I' for Inactive)
REMARK    1  A    between atoms: N1_2  and  C2_3 
REMARK    2  A    between atoms: N1_2  and  C4_9 
REMARK    3  A    between atoms: C2_3  and  C3_4 
REMARK    4  A    between atoms: C3_4  and  N2_5 
REMARK    5  A    between atoms: C4_9  and  C5_10 
REMARK    6  A    between atoms: C5_10  and  C6_11 
REMARK    7  A    between atoms: C6_11  and  C7_12 
REMARK    8  A    between atoms: C8_13  and  C9_14 
REMARK    9  A    between atoms: C9_14  and  C10_15 
REMARK   10  A    between atoms: C10_15  and  C11_16 
REMARK   11  A    between atoms: C13_28  and  N7_29 
REMARK   12  A    between atoms: N7_29  and  N8_31 
ROOT
HETATM    1  C7  UNL     1       6.605  87.574  -7.776  1.00  0.00     0.053 A 
HETATM    2  C8  UNL     1       5.441  87.231  -7.227  1.00  0.00     0.070 A 
HETATM    3  N6  UNL     1       5.141  85.841  -7.245  1.00  0.00    -0.188 N 
ATOM      4  H6  UNL     1       4.253  85.560  -6.828  1.00  0.00     0.184 HD
HETATM    5  C13 UNL     1       5.857  84.920  -7.721  1.00  0.00     0.711 A 
HETATM    6  N9  UNL     1       7.098  85.211  -8.314  1.00  0.00    -0.131 N 
ATOM      7  H9  UNL     1       7.692  84.479  -8.703  1.00  0.00     0.205 HD
HETATM    8  N10 UNL     1       7.479  86.566  -8.342  1.00  0.00    -0.288 N 
ATOM      9  H10 UNL     1       8.368  86.838  -8.759  1.00  0.00     0.187 HD
ENDROOT
BRANCH   2  10
HETATM   10  C9  UNL     1       4.600  88.262  -6.664  1.00  0.00     0.013 C 
BRANCH  10  11
HETATM   11  C10 UNL     1       3.446  88.808  -7.371  1.00  0.00     0.115 C 
BRANCH  11  12
HETATM   12  C11 UNL     1       2.113  88.311  -7.042  1.00  0.00     0.145 A 
HETATM   13  N3  UNL     1       1.664  87.100  -6.800  1.00  0.00    -0.280 N 
HETATM   14  N4  UNL     1       0.370  87.184  -6.552  1.00  0.00    -0.263 N 
ATOM     15  H3  UNL     1       2.219  86.244  -6.803  1.00  0.00     0.189 HD
HETATM   16  C12 UNL     1       0.002  88.466  -6.639  1.00  0.00     0.238 A 
ATOM     17  H4  UNL     1      -0.245  86.401  -6.330  1.00  0.00     0.190 HD
HETATM   18  N5  UNL     1      -1.198  88.885  -6.451  1.00  0.00    -0.364 N 
HETATM   19  O1  UNL     1       1.079  89.136  -6.939  1.00  0.00    -0.264 OA
ATOM     20  H52 UNL     1      -2.041  88.360  -6.217  1.00  0.00     0.159 HD
ATOM     21  H51 UNL     1      -1.479  89.864  -6.517  1.00  0.00     0.159 HD
ENDBRANCH  11  12
ENDBRANCH  10  11
ENDBRANCH   2  10
BRANCH   1  22
HETATM   22  C6  UNL     1       7.018  88.953  -7.805  1.00  0.00     0.062 C 
BRANCH  22  23
HETATM   23  C5  UNL     1       8.490  89.256  -7.951  1.00  0.00     0.036 C 
BRANCH  23  24
HETATM   24  C4  UNL     1       8.957  89.603  -9.306  1.00  0.00     0.272 C 
BRANCH  24  25
HETATM   25  N1  UNL     1      10.247  88.974  -9.570  1.00  0.00     0.085 N 
HETATM   26  C1  UNL     1      10.025  87.929 -10.567  1.00  0.00     0.309 C 
BRANCH  25  27
HETATM   27  C2  UNL     1      10.916  88.518  -8.421  1.00  0.00     0.299 C 
BRANCH  27  28
HETATM   28  C3  UNL     1      12.270  89.154  -8.186  1.00  0.00     0.259 C 
BRANCH  28  29
HETATM   29  N2  UNL     1      12.171  90.589  -8.250  1.00  0.00    -0.078 N 
ATOM     30  H23 UNL     1      11.933  90.911  -9.188  1.00  0.00     0.274 HD
ATOM     31  H22 UNL     1      11.349  90.934  -7.756  1.00  0.00     0.274 HD
ATOM     32  H21 UNL     1      13.029  91.022  -7.906  1.00  0.00     0.274 HD
ENDBRANCH  28  29
ENDBRANCH  27  28
ENDBRANCH  25  27
ENDBRANCH  24  25
ENDBRANCH  23  24
ENDBRANCH  22  23
ENDBRANCH   1  22
BRANCH   5  33
HETATM   33  N7  UNL     1       5.453  83.557  -7.684  1.00  0.00    -0.137 N 
ATOM     34  H7  UNL     1       5.057  83.199  -6.815  1.00  0.00     0.205 HD
BRANCH  33  35
HETATM   35  N8  UNL     1       5.564  82.687  -8.753  1.00  0.00    -0.331 N 
ATOM     36  H82 UNL     1       5.366  81.704  -8.571  1.00  0.00     0.177 HD
ATOM     37  H81 UNL     1       5.828  82.973  -9.697  1.00  0.00     0.177 HD
ENDBRANCH  33  35
ENDBRANCH   5  33
TORSDOF 12
ENDMDL
