MODEL 1
REMARK VINA RESULT: -7.047639459      0.000      0.000
REMARK  12 active torsions:
REMARK  status: ('A' for Active; 'I' for Inactive)
REMARK    1  A    between atoms: C2_2  and  C3_3 
REMARK    2  A    between atoms: C3_3  and  C4_4 
REMARK    3  A    between atoms: C4_4  and  N1_6 
REMARK    4  A    between atoms: N1_6  and  C6_8 
REMARK    5  A    between atoms: C9_13  and  N3_14 
REMARK    6  A    between atoms: N3_14  and  C10_16 
REMARK    7  A    between atoms: C10_16  and  O1_17 
REMARK    8  A    between atoms: C10_16  and  C11_19 
REMARK    9  A    between atoms: C11_19  and  N4_20 
REMARK   10  A    between atoms: C11_19  and  C12_24 
REMARK   11  A    between atoms: C12_24  and  O2_25 
REMARK   12  A    between atoms: C14_28  and  N5_29 
REMARK       I    between atoms: N5_29  and  C15_31 
REMARK       I    between atoms: C15_31  and  N6_32 
REMARK       I    between atoms: C15_31  and  N7_36 
ROOT
HETATM    1  C6  UNL     1       3.817  86.675  -7.679  1.00  0.00     0.056 C 
HETATM    2  C7  UNL     1       3.365  87.866  -7.154  1.00  0.00     0.048 C 
HETATM    3  C8  UNL     1       3.987  89.110  -7.245  1.00  0.00     0.092 C 
HETATM    4  N2  UNL     1       5.289  89.365  -7.529  1.00  0.00    -0.352 N 
ATOM      5  H2  UNL     1       5.506  90.358  -7.626  1.00  0.00     0.166 HD
HETATM    6  C9  UNL     1       6.336  88.560  -7.706  1.00  0.00     0.104 C 
HETATM    7  C13 UNL     1       6.299  87.163  -7.613  1.00  0.00     0.079 C 
HETATM    8  C14 UNL     1       5.188  86.361  -7.781  1.00  0.00     0.061 C 
ENDROOT
BRANCH   6   9
HETATM    9  N3  UNL     1       7.604  89.117  -8.015  1.00  0.00    -0.348 N 
ATOM     10  H3  UNL     1       7.667  90.118  -8.200  1.00  0.00     0.163 HD
BRANCH   9  11
HETATM   11  C10 UNL     1       8.810  88.326  -8.080  1.00  0.00     0.251 C 
BRANCH  11  12
HETATM   12  O1  UNL     1       9.499  88.401  -6.891  1.00  0.00    -0.375 OA
ATOM     13  H1  UNL     1       8.894  88.458  -6.161  1.00  0.00     0.212 HD
ENDBRANCH  11  12
BRANCH  11  14
HETATM   14  C11 UNL     1       9.662  88.690  -9.268  1.00  0.00     0.255 C 
BRANCH  14  15
HETATM   15  N4  UNL     1      10.174  87.509  -9.919  1.00  0.00    -0.069 N 
ATOM     16  H43 UNL     1       9.678  86.670  -9.620  1.00  0.00     0.275 HD
ATOM     17  H42 UNL     1       9.929  87.490 -10.910  1.00  0.00     0.275 HD
ATOM     18  H41 UNL     1      11.180  87.421  -9.780  1.00  0.00     0.275 HD
ENDBRANCH  14  15
BRANCH  14  19
HETATM   19  C12 UNL     1      10.829  89.524  -8.774  1.00  0.00     0.201 C 
BRANCH  19  20
HETATM   20  O2  UNL     1      10.434  90.685  -8.155  1.00  0.00    -0.399 OA
ATOM     21  H2  UNL     1       9.993  91.286  -8.743  1.00  0.00     0.209 HD
ENDBRANCH  19  20
ENDBRANCH  14  19
ENDBRANCH  11  14
ENDBRANCH   9  11
ENDBRANCH   6   9
BRANCH   8  22
HETATM   22  N5  UNL     1       5.434  85.137  -8.079  1.00  0.00    -0.339 N 
HETATM   23  C15 UNL     1       6.351  84.273  -7.393  1.00  0.00     0.480 C 
HETATM   24  N6  UNL     1       5.757  83.649  -6.219  1.00  0.00    -0.033 N 
HETATM   25  N7  UNL     1       6.792  83.170  -8.233  1.00  0.00    -0.033 N 
ATOM     26  H63 UNL     1       5.370  84.350  -5.588  1.00  0.00     0.278 HD
ATOM     27  H62 UNL     1       4.897  83.155  -6.462  1.00  0.00     0.278 HD
ATOM     28  H61 UNL     1       6.409  83.035  -5.731  1.00  0.00     0.278 HD
ATOM     29  H73 UNL     1       5.998  82.648  -8.604  1.00  0.00     0.278 HD
ATOM     30  H72 UNL     1       7.188  83.508  -9.110  1.00  0.00     0.278 HD
ATOM     31  H71 UNL     1       7.444  82.556  -7.745  1.00  0.00     0.278 HD
ATOM     32  H5  UNL     1       4.933  84.744  -8.875  1.00  0.00     0.163 HD
ENDBRANCH   8  22
BRANCH   1  33
HETATM   33  N1  UNL     1       2.925  85.711  -8.138  1.00  0.00    -0.384 N 
ATOM     34  H1  UNL     1       2.944  85.553  -9.145  1.00  0.00     0.160 HD
BRANCH  33  35
HETATM   35  C4  UNL     1       1.990  84.913  -7.426  1.00  0.00     0.081 C 
HETATM   36  C5  UNL     1       0.579  85.344  -7.746  1.00  0.00     0.032 C 
BRANCH  35  37
HETATM   37  C3  UNL     1       2.230  83.445  -7.477  1.00  0.00     0.051 C 
BRANCH  37  38
HETATM   38  C2  UNL     1       1.796  82.671  -6.294  1.00  0.00    -0.035 C 
HETATM   39  C1  UNL     1       1.443  81.399  -6.333  1.00  0.00     0.007 C 
ENDBRANCH  37  38
ENDBRANCH  35  37
ENDBRANCH  33  35
ENDBRANCH   1  33
TORSDOF 12
ENDMDL
MODEL 2
REMARK VINA RESULT: -7.026075006      1.187      1.340
REMARK  12 active torsions:
REMARK  status: ('A' for Active; 'I' for Inactive)
REMARK    1  A    between atoms: C2_2  and  C3_3 
REMARK    2  A    between atoms: C3_3  and  C4_4 
REMARK    3  A    between atoms: C4_4  and  N1_6 
REMARK    4  A    between atoms: N1_6  and  C6_8 
REMARK    5  A    between atoms: C9_13  and  N3_14 
REMARK    6  A    between atoms: N3_14  and  C10_16 
REMARK    7  A    between atoms: C10_16  and  O1_17 
REMARK    8  A    between atoms: C10_16  and  C11_19 
REMARK    9  A    between atoms: C11_19  and  N4_20 
REMARK   10  A    between atoms: C11_19  and  C12_24 
REMARK   11  A    between atoms: C12_24  and  O2_25 
REMARK   12  A    between atoms: C14_28  and  N5_29 
REMARK       I    between atoms: N5_29  and  C15_31 
REMARK       I    between atoms: C15_31  and  N6_32 
REMARK       I    between atoms: C15_31  and  N7_36 
ROOT
HETATM    1  C6  UNL     1       4.330  87.160  -7.653  1.00  0.00     0.056 C 
HETATM    2  C7  UNL     1       4.377  88.445  -7.158  1.00  0.00     0.048 C 
HETATM    3  C8  UNL     1       5.335  89.416  -7.444  1.00  0.00     0.092 C 
HETATM    4  N2  UNL     1       6.579  89.228  -7.949  1.00  0.00    -0.352 N 
ATOM      5  H2  UNL     1       7.079  90.093  -8.157  1.00  0.00     0.166 HD
HETATM    6  C9  UNL     1       7.270  88.122  -8.225  1.00  0.00     0.104 C 
HETATM    7  C13 UNL     1       6.810  86.814  -8.017  1.00  0.00     0.079 C 
HETATM    8  C14 UNL     1       5.491  86.414  -7.944  1.00  0.00     0.061 C 
ENDROOT
BRANCH   6   9
HETATM    9  N3  UNL     1       8.575  88.228  -8.773  1.00  0.00    -0.348 N 
ATOM     10  H3  UNL     1       8.694  88.109  -9.779  1.00  0.00     0.163 HD
BRANCH   9  11
HETATM   11  C10 UNL     1       9.742  88.498  -7.967  1.00  0.00     0.251 C 
BRANCH  11  12
HETATM   12  O1  UNL     1       9.408  88.527  -6.633  1.00  0.00    -0.375 OA
ATOM     13  H1  UNL     1      10.038  89.043  -6.144  1.00  0.00     0.212 HD
ENDBRANCH  11  12
BRANCH  11  14
HETATM   14  C11 UNL     1      10.461  89.744  -8.413  1.00  0.00     0.255 C 
BRANCH  14  15
HETATM   15  N4  UNL     1      10.237  89.998  -9.815  1.00  0.00    -0.069 N 
ATOM     16  H43 UNL     1      10.879  89.464 -10.401  1.00  0.00     0.275 HD
ATOM     17  H42 UNL     1       9.359  89.590 -10.136  1.00  0.00     0.275 HD
ATOM     18  H41 UNL     1      10.284  90.996 -10.019  1.00  0.00     0.275 HD
ENDBRANCH  14  15
BRANCH  14  19
HETATM   19  C12 UNL     1      11.947  89.539  -8.182  1.00  0.00     0.201 C 
BRANCH  19  20
HETATM   20  O2  UNL     1      12.216  88.526  -7.294  1.00  0.00    -0.399 OA
ATOM     21  H2  UNL     1      13.015  88.056  -7.500  1.00  0.00     0.209 HD
ENDBRANCH  19  20
ENDBRANCH  14  19
ENDBRANCH  11  14
ENDBRANCH   9  11
ENDBRANCH   6   9
BRANCH   8  22
HETATM   22  N5  UNL     1       5.281  85.170  -8.180  1.00  0.00    -0.339 N 
HETATM   23  C15 UNL     1       6.149  84.087  -7.815  1.00  0.00     0.480 C 
HETATM   24  N6  UNL     1       5.942  83.647  -6.443  1.00  0.00    -0.033 N 
HETATM   25  N7  UNL     1       5.922  82.908  -8.635  1.00  0.00    -0.033 N 
ATOM     26  H63 UNL     1       6.032  84.426  -5.790  1.00  0.00     0.278 HD
ATOM     27  H62 UNL     1       4.965  83.407  -6.277  1.00  0.00     0.278 HD
ATOM     28  H61 UNL     1       6.559  82.878  -6.183  1.00  0.00     0.278 HD
ATOM     29  H73 UNL     1       4.942  82.622  -8.610  1.00  0.00     0.278 HD
ATOM     30  H72 UNL     1       6.001  83.126  -9.628  1.00  0.00     0.278 HD
ATOM     31  H71 UNL     1       6.539  82.138  -8.375  1.00  0.00     0.278 HD
ATOM     32  H5  UNL     1       4.420  84.930  -8.672  1.00  0.00     0.163 HD
ENDBRANCH   8  22
BRANCH   1  33
HETATM   33  N1  UNL     1       3.113  86.528  -7.887  1.00  0.00    -0.384 N 
ATOM     34  H1  UNL     1       2.870  86.416  -8.871  1.00  0.00     0.160 HD
BRANCH  33  35
HETATM   35  C4  UNL     1       2.154  86.014  -6.973  1.00  0.00     0.081 C 
HETATM   36  C5  UNL     1       1.174  87.093  -6.577  1.00  0.00     0.032 C 
BRANCH  35  37
HETATM   37  C3  UNL     1       1.541  84.712  -7.351  1.00  0.00     0.051 C 
BRANCH  37  38
HETATM   38  C2  UNL     1       2.306  83.500  -6.985  1.00  0.00    -0.035 C 
HETATM   39  C1  UNL     1       1.821  82.514  -6.253  1.00  0.00     0.007 C 
ENDBRANCH  37  38
ENDBRANCH  35  37
ENDBRANCH  33  35
ENDBRANCH   1  33
TORSDOF 12
ENDMDL
MODEL 3
REMARK VINA RESULT: -6.981081606      0.978      1.191
REMARK  12 active torsions:
REMARK  status: ('A' for Active; 'I' for Inactive)
REMARK    1  A    between atoms: C2_2  and  C3_3 
REMARK    2  A    between atoms: C3_3  and  C4_4 
REMARK    3  A    between atoms: C4_4  and  N1_6 
REMARK    4  A    between atoms: N1_6  and  C6_8 
REMARK    5  A    between atoms: C9_13  and  N3_14 
REMARK    6  A    between atoms: N3_14  and  C10_16 
REMARK    7  A    between atoms: C10_16  and  O1_17 
REMARK    8  A    between atoms: C10_16  and  C11_19 
REMARK    9  A    between atoms: C11_19  and  N4_20 
REMARK   10  A    between atoms: C11_19  and  C12_24 
REMARK   11  A    between atoms: C12_24  and  O2_25 
REMARK   12  A    between atoms: C14_28  and  N5_29 
REMARK       I    between atoms: N5_29  and  C15_31 
REMARK       I    between atoms: C15_31  and  N6_32 
REMARK       I    between atoms: C15_31  and  N7_36 
ROOT
HETATM    1  C6  UNL     1       3.924  86.735  -7.756  1.00  0.00     0.056 C 
HETATM    2  C7  UNL     1       3.519  87.958  -7.267  1.00  0.00     0.048 C 
HETATM    3  C8  UNL     1       4.177  89.178  -7.417  1.00  0.00     0.092 C 
HETATM    4  N2  UNL     1       5.479  89.382  -7.736  1.00  0.00    -0.352 N 
ATOM      5  H2  UNL     1       5.725  90.362  -7.874  1.00  0.00     0.166 HD
HETATM    6  C9  UNL     1       6.498  88.538  -7.902  1.00  0.00     0.104 C 
HETATM    7  C13 UNL     1       6.420  87.147  -7.756  1.00  0.00     0.079 C 
HETATM    8  C14 UNL     1       5.282  86.375  -7.872  1.00  0.00     0.061 C 
ENDROOT
BRANCH   6   9
HETATM    9  N3  UNL     1       7.776  89.043  -8.256  1.00  0.00    -0.348 N 
ATOM     10  H3  UNL     1       7.836  89.970  -8.678  1.00  0.00     0.163 HD
BRANCH   9  11
HETATM   11  C10 UNL     1       8.996  88.300  -8.046  1.00  0.00     0.251 C 
BRANCH  11  12
HETATM   12  O1  UNL     1       9.431  88.448  -6.749  1.00  0.00    -0.375 OA
ATOM     13  H1  UNL     1      10.362  88.637  -6.731  1.00  0.00     0.212 HD
ENDBRANCH  11  12
BRANCH  11  14
HETATM   14  C11 UNL     1      10.054  88.653  -9.057  1.00  0.00     0.255 C 
BRANCH  14  15
HETATM   15  N4  UNL     1       9.819  89.960  -9.619  1.00  0.00    -0.069 N 
ATOM     16  H43 UNL     1       9.144  89.925 -10.384  1.00  0.00     0.275 HD
ATOM     17  H42 UNL     1       9.295  90.557  -8.978  1.00  0.00     0.275 HD
ATOM     18  H41 UNL     1      10.693  90.398  -9.909  1.00  0.00     0.275 HD
ENDBRANCH  14  15
BRANCH  14  19
HETATM   19  C12 UNL     1      10.004  87.624 -10.171  1.00  0.00     0.201 C 
BRANCH  19  20
HETATM   20  O2  UNL     1       8.785  86.997 -10.267  1.00  0.00    -0.399 OA
ATOM     21  H2  UNL     1       8.840  86.058 -10.133  1.00  0.00     0.209 HD
ENDBRANCH  19  20
ENDBRANCH  14  19
ENDBRANCH  11  14
ENDBRANCH   9  11
ENDBRANCH   6   9
BRANCH   8  22
HETATM   22  N5  UNL     1       5.485  85.133  -8.129  1.00  0.00    -0.339 N 
HETATM   23  C15 UNL     1       6.365  84.259  -7.409  1.00  0.00     0.480 C 
HETATM   24  N6  UNL     1       5.741  83.696  -6.220  1.00  0.00    -0.033 N 
HETATM   25  N7  UNL     1       6.770  83.114  -8.209  1.00  0.00    -0.033 N 
ATOM     26  H63 UNL     1       5.377  84.431  -5.614  1.00  0.00     0.278 HD
ATOM     27  H62 UNL     1       4.865  83.226  -6.452  1.00  0.00     0.278 HD
ATOM     28  H61 UNL     1       6.366  83.075  -5.708  1.00  0.00     0.278 HD
ATOM     29  H73 UNL     1       5.959  82.609  -8.569  1.00  0.00     0.278 HD
ATOM     30  H72 UNL     1       7.183  83.408  -9.094  1.00  0.00     0.278 HD
ATOM     31  H71 UNL     1       7.395  82.492  -7.697  1.00  0.00     0.278 HD
ATOM     32  H5  UNL     1       4.974  84.733  -8.916  1.00  0.00     0.163 HD
ENDBRANCH   8  22
BRANCH   1  33
HETATM   33  N1  UNL     1       2.993  85.783  -8.161  1.00  0.00    -0.384 N 
ATOM     34  H1  UNL     1       2.961  85.614  -9.166  1.00  0.00     0.160 HD
BRANCH  33  35
HETATM   35  C4  UNL     1       2.080  85.009  -7.396  1.00  0.00     0.081 C 
HETATM   36  C5  UNL     1       0.664  85.477  -7.636  1.00  0.00     0.032 C 
BRANCH  35  37
HETATM   37  C3  UNL     1       2.278  83.536  -7.460  1.00  0.00     0.051 C 
BRANCH  37  38
HETATM   38  C2  UNL     1       1.741  82.755  -6.325  1.00  0.00    -0.035 C 
HETATM   39  C1  UNL     1       1.472  81.463  -6.377  1.00  0.00     0.007 C 
ENDBRANCH  37  38
ENDBRANCH  35  37
ENDBRANCH  33  35
ENDBRANCH   1  33
TORSDOF 12
ENDMDL
MODEL 4
REMARK VINA RESULT: -6.934307516      1.555      2.395
REMARK  12 active torsions:
REMARK  status: ('A' for Active; 'I' for Inactive)
REMARK    1  A    between atoms: C2_2  and  C3_3 
REMARK    2  A    between atoms: C3_3  and  C4_4 
REMARK    3  A    between atoms: C4_4  and  N1_6 
REMARK    4  A    between atoms: N1_6  and  C6_8 
REMARK    5  A    between atoms: C9_13  and  N3_14 
REMARK    6  A    between atoms: N3_14  and  C10_16 
REMARK    7  A    between atoms: C10_16  and  O1_17 
REMARK    8  A    between atoms: C10_16  and  C11_19 
REMARK    9  A    between atoms: C11_19  and  N4_20 
REMARK   10  A    between atoms: C11_19  and  C12_24 
REMARK   11  A    between atoms: C12_24  and  O2_25 
REMARK   12  A    between atoms: C14_28  and  N5_29 
REMARK       I    between atoms: N5_29  and  C15_31 
REMARK       I    between atoms: C15_31  and  N6_32 
REMARK       I    between atoms: C15_31  and  N7_36 
ROOT
HETATM    1  C6  UNL     1       4.276  86.919  -7.103  1.00  0.00     0.056 C 
HETATM    2  C7  UNL     1       4.194  88.146  -6.482  1.00  0.00     0.048 C 
HETATM    3  C8  UNL     1       4.942  89.285  -6.780  1.00  0.00     0.092 C 
HETATM    4  N2  UNL     1       6.117  89.350  -7.455  1.00  0.00    -0.352 N 
ATOM      5  H2  UNL     1       6.444  90.301  -7.629  1.00  0.00     0.166 HD
HETATM    6  C9  UNL     1       6.923  88.402  -7.932  1.00  0.00     0.104 C 
HETATM    7  C13 UNL     1       6.703  87.024  -7.811  1.00  0.00     0.079 C 
HETATM    8  C14 UNL     1       5.484  86.405  -7.616  1.00  0.00     0.061 C 
ENDROOT
BRANCH   6   9
HETATM    9  N3  UNL     1       8.106  88.772  -8.625  1.00  0.00    -0.348 N 
ATOM     10  H3  UNL     1       8.020  89.180  -9.556  1.00  0.00     0.163 HD
BRANCH   9  11
HETATM   11  C10 UNL     1       9.426  88.593  -8.068  1.00  0.00     0.251 C 
BRANCH  11  12
HETATM   12  O1  UNL     1       9.356  88.456  -6.701  1.00  0.00    -0.375 OA
ATOM     13  H1  UNL     1       8.607  88.930  -6.358  1.00  0.00     0.212 HD
ENDBRANCH  11  12
BRANCH  11  14
HETATM   14  C11 UNL     1      10.371  89.685  -8.495  1.00  0.00     0.255 C 
BRANCH  14  15
HETATM   15  N4  UNL     1      10.178  90.024  -9.884  1.00  0.00    -0.069 N 
ATOM     16  H43 UNL     1       9.593  90.853  -9.990  1.00  0.00     0.275 HD
ATOM     17  H42 UNL     1      11.035  90.382 -10.306  1.00  0.00     0.275 HD
ATOM     18  H41 UNL     1       9.805  89.231 -10.406  1.00  0.00     0.275 HD
ENDBRANCH  14  15
BRANCH  14  19
HETATM   19  C12 UNL     1      11.790  89.180  -8.306  1.00  0.00     0.201 C 
BRANCH  19  20
HETATM   20  O2  UNL     1      12.025  88.706  -7.038  1.00  0.00    -0.399 OA
ATOM     21  H2  UNL     1      12.877  88.295  -6.949  1.00  0.00     0.209 HD
ENDBRANCH  19  20
ENDBRANCH  14  19
ENDBRANCH  11  14
ENDBRANCH   9  11
ENDBRANCH   6   9
BRANCH   8  22
HETATM   22  N5  UNL     1       5.436  85.168  -7.956  1.00  0.00    -0.339 N 
HETATM   23  C15 UNL     1       6.338  84.141  -7.521  1.00  0.00     0.480 C 
HETATM   24  N6  UNL     1       5.964  83.584  -6.228  1.00  0.00    -0.033 N 
HETATM   25  N7  UNL     1       6.358  83.010  -8.435  1.00  0.00    -0.033 N 
ATOM     26  H63 UNL     1       5.875  84.317  -5.525  1.00  0.00     0.278 HD
ATOM     27  H62 UNL     1       5.001  83.247  -6.238  1.00  0.00     0.278 HD
ATOM     28  H61 UNL     1       6.605  82.854  -5.918  1.00  0.00     0.278 HD
ATOM     29  H73 UNL     1       5.420  82.640  -8.586  1.00  0.00     0.278 HD
ATOM     30  H72 UNL     1       6.570  83.308  -9.387  1.00  0.00     0.278 HD
ATOM     31  H71 UNL     1       6.999  82.280  -8.125  1.00  0.00     0.278 HD
ATOM     32  H5  UNL     1       4.690  84.891  -8.594  1.00  0.00     0.163 HD
ENDBRANCH   8  22
BRANCH   1  33
HETATM   33  N1  UNL     1       3.149  86.116  -7.249  1.00  0.00    -0.384 N 
ATOM     34  H1  UNL     1       3.327  85.113  -7.200  1.00  0.00     0.160 HD
BRANCH  33  35
HETATM   35  C4  UNL     1       1.789  86.471  -7.456  1.00  0.00     0.081 C 
HETATM   36  C5  UNL     1       1.012  85.289  -7.986  1.00  0.00     0.032 C 
BRANCH  35  37
HETATM   37  C3  UNL     1       1.140  87.203  -6.336  1.00  0.00     0.051 C 
BRANCH  37  38
HETATM   38  C2  UNL     1      -0.164  87.834  -6.637  1.00  0.00    -0.035 C 
HETATM   39  C1  UNL     1      -0.366  89.139  -6.659  1.00  0.00     0.007 C 
ENDBRANCH  37  38
ENDBRANCH  35  37
ENDBRANCH  33  35
ENDBRANCH   1  33
TORSDOF 12
ENDMDL
MODEL 5
REMARK VINA RESULT: -6.770870327      0.903      1.345
REMARK  12 active torsions:
REMARK  status: ('A' for Active; 'I' for Inactive)
REMARK    1  A    between atoms: C2_2  and  C3_3 
REMARK    2  A    between atoms: C3_3  and  C4_4 
REMARK    3  A    between atoms: C4_4  and  N1_6 
REMARK    4  A    between atoms: N1_6  and  C6_8 
REMARK    5  A    between atoms: C9_13  and  N3_14 
REMARK    6  A    between atoms: N3_14  and  C10_16 
REMARK    7  A    between atoms: C10_16  and  O1_17 
REMARK    8  A    between atoms: C10_16  and  C11_19 
REMARK    9  A    between atoms: C11_19  and  N4_20 
REMARK   10  A    between atoms: C11_19  and  C12_24 
REMARK   11  A    between atoms: C12_24  and  O2_25 
REMARK   12  A    between atoms: C14_28  and  N5_29 
REMARK       I    between atoms: N5_29  and  C15_31 
REMARK       I    between atoms: C15_31  and  N6_32 
REMARK       I    between atoms: C15_31  and  N7_36 
ROOT
HETATM    1  C6  UNL     1       3.687  86.565  -7.895  1.00  0.00     0.056 C 
HETATM    2  C7  UNL     1       3.165  87.758  -7.445  1.00  0.00     0.048 C 
HETATM    3  C8  UNL     1       3.768  89.013  -7.513  1.00  0.00     0.092 C 
HETATM    4  N2  UNL     1       5.085  89.290  -7.684  1.00  0.00    -0.352 N 
ATOM      5  H2  UNL     1       5.290  90.285  -7.787  1.00  0.00     0.166 HD
HETATM    6  C9  UNL     1       6.160  88.505  -7.743  1.00  0.00     0.104 C 
HETATM    7  C13 UNL     1       6.143  87.109  -7.616  1.00  0.00     0.079 C 
HETATM    8  C14 UNL     1       5.068  86.279  -7.863  1.00  0.00     0.061 C 
ENDROOT
BRANCH   6   9
HETATM    9  N3  UNL     1       7.440  89.082  -7.951  1.00  0.00    -0.348 N 
ATOM     10  H3  UNL     1       7.510  90.096  -8.039  1.00  0.00     0.163 HD
BRANCH   9  11
HETATM   11  C10 UNL     1       8.647  88.295  -8.042  1.00  0.00     0.251 C 
BRANCH  11  12
HETATM   12  O1  UNL     1       9.343  88.343  -6.856  1.00  0.00    -0.375 OA
ATOM     13  H1  UNL     1      10.258  88.541  -7.016  1.00  0.00     0.212 HD
ENDBRANCH  11  12
BRANCH  11  14
HETATM   14  C11 UNL     1       9.489  88.688  -9.226  1.00  0.00     0.255 C 
BRANCH  14  15
HETATM   15  N4  UNL     1       9.998  87.524  -9.909  1.00  0.00    -0.069 N 
ATOM     16  H43 UNL     1      10.597  86.964  -9.303  1.00  0.00     0.275 HD
ATOM     17  H42 UNL     1       9.263  86.837 -10.080  1.00  0.00     0.275 HD
ATOM     18  H41 UNL     1      10.476  87.784 -10.772  1.00  0.00     0.275 HD
ENDBRANCH  14  15
BRANCH  14  19
HETATM   19  C12 UNL     1      10.660  89.511  -8.720  1.00  0.00     0.201 C 
BRANCH  19  20
HETATM   20  O2  UNL     1      10.269  90.666  -8.088  1.00  0.00    -0.399 OA
ATOM     21  H2  UNL     1      10.575  91.451  -8.527  1.00  0.00     0.209 HD
ENDBRANCH  19  20
ENDBRANCH  14  19
ENDBRANCH  11  14
ENDBRANCH   9  11
ENDBRANCH   6   9
BRANCH   8  22
HETATM   22  N5  UNL     1       5.365  85.054  -8.105  1.00  0.00    -0.339 N 
HETATM   23  C15 UNL     1       6.353  84.277  -7.414  1.00  0.00     0.480 C 
HETATM   24  N6  UNL     1       5.840  83.691  -6.183  1.00  0.00    -0.033 N 
HETATM   25  N7  UNL     1       6.815  83.151  -8.211  1.00  0.00    -0.033 N 
ATOM     26  H63 UNL     1       5.444  84.407  -5.574  1.00  0.00     0.278 HD
ATOM     27  H62 UNL     1       4.998  83.142  -6.360  1.00  0.00     0.278 HD
ATOM     28  H61 UNL     1       6.542  83.139  -5.692  1.00  0.00     0.278 HD
ATOM     29  H73 UNL     1       6.035  82.570  -8.518  1.00  0.00     0.278 HD
ATOM     30  H72 UNL     1       7.157  83.458  -9.121  1.00  0.00     0.278 HD
ATOM     31  H71 UNL     1       7.517  82.599  -7.719  1.00  0.00     0.278 HD
ATOM     32  H5  UNL     1       4.852  84.592  -8.856  1.00  0.00     0.163 HD
ENDBRANCH   8  22
BRANCH   1  33
HETATM   33  N1  UNL     1       2.860  85.570  -8.407  1.00  0.00    -0.384 N 
ATOM     34  H1  UNL     1       3.283  84.991  -9.131  1.00  0.00     0.160 HD
BRANCH  33  35
HETATM   35  C4  UNL     1       1.519  85.233  -8.080  1.00  0.00     0.081 C 
HETATM   36  C5  UNL     1       0.852  84.542  -9.245  1.00  0.00     0.032 C 
BRANCH  35  37
HETATM   37  C3  UNL     1       1.327  84.575  -6.760  1.00  0.00     0.051 C 
BRANCH  37  38
HETATM   38  C2  UNL     1       0.283  85.155  -5.887  1.00  0.00    -0.035 C 
HETATM   39  C1  UNL     1       0.137  86.448  -5.668  1.00  0.00     0.007 C 
ENDBRANCH  37  38
ENDBRANCH  35  37
ENDBRANCH  33  35
ENDBRANCH   1  33
TORSDOF 12
ENDMDL
