MODEL 1
REMARK VINA RESULT: -5.954651274      0.000      0.000
REMARK  6 active torsions:
REMARK  status: ('A' for Active; 'I' for Inactive)
REMARK    1  A    between atoms: C2_2  and  C3_3 
REMARK    2  A    between atoms: C3_3  and  C4_4 
REMARK    3  A    between atoms: C4_4  and  N1_5 
REMARK    4  A    between atoms: N1_5  and  C5_7 
REMARK    5  A    between atoms: N2_12  and  C10_13 
REMARK    6  A    between atoms: C10_13  and  C11_14 
ROOT
HETATM    1  C5  UNL     1     -27.436   6.802 -16.804  1.00  0.00     0.102 A 
HETATM    2  C6  UNL     1     -28.470   7.556 -16.222  1.00  0.00     0.048 A 
HETATM    3  C7  UNL     1     -29.114   7.103 -15.098  1.00  0.00     0.005 A 
HETATM    4  C8  UNL     1     -28.719   5.895 -14.564  1.00  0.00     0.017 A 
HETATM    5  C9  UNL     1     -27.708   5.176 -15.150  1.00  0.00     0.092 A 
HETATM    6  N2  UNL     1     -27.065   5.631 -16.273  1.00  0.00    -0.344 N 
ENDROOT
BRANCH   1   7
HETATM    7  N1  UNL     1     -26.785   7.309 -17.954  1.00  0.00    -0.376 N 
ATOM      8  H1  UNL     1     -27.007   6.960 -18.886  1.00  0.00     0.161 HD
BRANCH   7   9
HETATM    9  C4  UNL     1     -25.784   8.352 -17.749  1.00  0.00     0.121 C 
BRANCH   9  10
HETATM   10  C3  UNL     1     -24.680   8.277 -18.773  1.00  0.00     0.019 C 
BRANCH  10  11
HETATM   11  C2  UNL     1     -24.709   9.508 -19.641  1.00  0.00    -0.003 C 
HETATM   12  C1  UNL     1     -25.689   9.355 -20.791  1.00  0.00     0.005 C 
ENDBRANCH  10  11
ENDBRANCH   9  10
ENDBRANCH   7   9
ENDBRANCH   1   7
BRANCH   6  13
HETATM   13  C10 UNL     1     -26.035   4.861 -16.880  1.00  0.00     0.129 C 
BRANCH  13  14
HETATM   14  C11 UNL     1     -24.892   4.510 -15.975  1.00  0.00     0.016 C 
HETATM   15  C12 UNL     1     -23.559   4.560 -16.688  1.00  0.00     0.006 C 
ENDBRANCH  13  14
ENDBRANCH   6  13
TORSDOF 6
ENDMDL
MODEL 2
REMARK VINA RESULT: -5.893556901      1.141      3.468
REMARK  6 active torsions:
REMARK  status: ('A' for Active; 'I' for Inactive)
REMARK    1  A    between atoms: C2_2  and  C3_3 
REMARK    2  A    between atoms: C3_3  and  C4_4 
REMARK    3  A    between atoms: C4_4  and  N1_5 
REMARK    4  A    between atoms: N1_5  and  C5_7 
REMARK    5  A    between atoms: N2_12  and  C10_13 
REMARK    6  A    between atoms: C10_13  and  C11_14 
ROOT
HETATM    1  C5  UNL     1     -26.877   5.573 -16.390  1.00  0.00     0.102 A 
HETATM    2  C6  UNL     1     -27.534   5.035 -15.270  1.00  0.00     0.048 A 
HETATM    3  C7  UNL     1     -28.537   5.734 -14.648  1.00  0.00     0.005 A 
HETATM    4  C8  UNL     1     -28.877   6.971 -15.154  1.00  0.00     0.017 A 
HETATM    5  C9  UNL     1     -28.222   7.477 -16.247  1.00  0.00     0.092 A 
HETATM    6  N2  UNL     1     -27.218   6.775 -16.867  1.00  0.00    -0.344 N 
ENDROOT
BRANCH   1   7
HETATM    7  N1  UNL     1     -25.856   4.815 -17.013  1.00  0.00    -0.376 N 
ATOM      8  H1  UNL     1     -25.919   4.545 -17.994  1.00  0.00     0.161 HD
BRANCH   7   9
HETATM    9  C4  UNL     1     -24.710   4.438 -16.190  1.00  0.00     0.121 C 
BRANCH   9  10
HETATM   10  C3  UNL     1     -23.425   4.460 -16.978  1.00  0.00     0.019 C 
BRANCH  10  11
HETATM   11  C2  UNL     1     -23.006   5.887 -17.225  1.00  0.00    -0.003 C 
HETATM   12  C1  UNL     1     -22.606   6.106 -18.673  1.00  0.00     0.005 C 
ENDBRANCH  10  11
ENDBRANCH   9  10
ENDBRANCH   7   9
ENDBRANCH   1   7
BRANCH   6  13
HETATM   13  C10 UNL     1     -26.535   7.326 -17.986  1.00  0.00     0.129 C 
BRANCH  13  14
HETATM   14  C11 UNL     1     -25.600   8.453 -17.663  1.00  0.00     0.016 C 
HETATM   15  C12 UNL     1     -24.946   9.028 -18.899  1.00  0.00     0.006 C 
ENDBRANCH  13  14
ENDBRANCH   6  13
TORSDOF 6
ENDMDL
MODEL 3
REMARK VINA RESULT: -5.885371260      1.082      5.168
REMARK  6 active torsions:
REMARK  status: ('A' for Active; 'I' for Inactive)
REMARK    1  A    between atoms: C2_2  and  C3_3 
REMARK    2  A    between atoms: C3_3  and  C4_4 
REMARK    3  A    between atoms: C4_4  and  N1_5 
REMARK    4  A    between atoms: N1_5  and  C5_7 
REMARK    5  A    between atoms: N2_12  and  C10_13 
REMARK    6  A    between atoms: C10_13  and  C11_14 
ROOT
HETATM    1  C5  UNL     1     -25.600   5.759 -16.975  1.00  0.00     0.102 A 
HETATM    2  C6  UNL     1     -24.897   4.696 -16.381  1.00  0.00     0.048 A 
HETATM    3  C7  UNL     1     -23.541   4.575 -16.554  1.00  0.00     0.005 A 
HETATM    4  C8  UNL     1     -22.897   5.521 -17.323  1.00  0.00     0.017 A 
HETATM    5  C9  UNL     1     -23.604   6.549 -17.894  1.00  0.00     0.092 A 
HETATM    6  N2  UNL     1     -24.960   6.668 -17.719  1.00  0.00    -0.344 N 
ENDROOT
BRANCH   1   7
HETATM    7  N1  UNL     1     -26.996   5.858 -16.762  1.00  0.00    -0.376 N 
ATOM      8  H1  UNL     1     -27.588   6.420 -17.373  1.00  0.00     0.161 HD
BRANCH   7   9
HETATM    9  C4  UNL     1     -27.551   5.122 -15.630  1.00  0.00     0.121 C 
BRANCH   9  10
HETATM   10  C3  UNL     1     -28.013   6.047 -14.534  1.00  0.00     0.019 C 
BRANCH  10  11
HETATM   11  C2  UNL     1     -29.439   6.464 -14.788  1.00  0.00    -0.003 C 
HETATM   12  C1  UNL     1     -29.539   7.949 -15.089  1.00  0.00     0.005 C 
ENDBRANCH  10  11
ENDBRANCH   9  10
ENDBRANCH   7   9
ENDBRANCH   1   7
BRANCH   6  13
HETATM   13  C10 UNL     1     -25.679   7.727 -18.338  1.00  0.00     0.129 C 
BRANCH  13  14
HETATM   14  C11 UNL     1     -24.926   9.019 -18.453  1.00  0.00     0.016 C 
HETATM   15  C12 UNL     1     -24.832   9.503 -19.883  1.00  0.00     0.006 C 
ENDBRANCH  13  14
ENDBRANCH   6  13
TORSDOF 6
ENDMDL
MODEL 4
REMARK VINA RESULT: -5.881354366      0.727      1.262
REMARK  6 active torsions:
REMARK  status: ('A' for Active; 'I' for Inactive)
REMARK    1  A    between atoms: C2_2  and  C3_3 
REMARK    2  A    between atoms: C3_3  and  C4_4 
REMARK    3  A    between atoms: C4_4  and  N1_5 
REMARK    4  A    between atoms: N1_5  and  C5_7 
REMARK    5  A    between atoms: N2_12  and  C10_13 
REMARK    6  A    between atoms: C10_13  and  C11_14 
ROOT
HETATM    1  C5  UNL     1     -27.422   6.817 -16.784  1.00  0.00     0.102 A 
HETATM    2  C6  UNL     1     -28.466   7.568 -16.215  1.00  0.00     0.048 A 
HETATM    3  C7  UNL     1     -29.144   7.101 -15.118  1.00  0.00     0.005 A 
HETATM    4  C8  UNL     1     -28.772   5.880 -14.595  1.00  0.00     0.017 A 
HETATM    5  C9  UNL     1     -27.751   5.164 -15.167  1.00  0.00     0.092 A 
HETATM    6  N2  UNL     1     -27.074   5.634 -16.264  1.00  0.00    -0.344 N 
ENDROOT
BRANCH   1   7
HETATM    7  N1  UNL     1     -26.738   7.340 -17.906  1.00  0.00    -0.376 N 
ATOM      8  H1  UNL     1     -26.930   7.004 -18.849  1.00  0.00     0.161 HD
BRANCH   7   9
HETATM    9  C4  UNL     1     -25.744   8.381 -17.656  1.00  0.00     0.121 C 
BRANCH   9  10
HETATM   10  C3  UNL     1     -24.776   8.517 -18.804  1.00  0.00     0.019 C 
BRANCH  10  11
HETATM   11  C2  UNL     1     -24.396   7.149 -19.312  1.00  0.00    -0.003 C 
HETATM   12  C1  UNL     1     -22.902   6.908 -19.193  1.00  0.00     0.005 C 
ENDBRANCH  10  11
ENDBRANCH   9  10
ENDBRANCH   7   9
ENDBRANCH   1   7
BRANCH   6  13
HETATM   13  C10 UNL     1     -26.035   4.867 -16.857  1.00  0.00     0.129 C 
BRANCH  13  14
HETATM   14  C11 UNL     1     -24.894   4.533 -15.941  1.00  0.00     0.016 C 
HETATM   15  C12 UNL     1     -23.629   4.199 -16.698  1.00  0.00     0.006 C 
ENDBRANCH  13  14
ENDBRANCH   6  13
TORSDOF 6
ENDMDL
MODEL 5
REMARK VINA RESULT: -5.857042127      3.083      5.152
REMARK  6 active torsions:
REMARK  status: ('A' for Active; 'I' for Inactive)
REMARK    1  A    between atoms: C2_2  and  C3_3 
REMARK    2  A    between atoms: C3_3  and  C4_4 
REMARK    3  A    between atoms: C4_4  and  N1_5 
REMARK    4  A    between atoms: N1_5  and  C5_7 
REMARK    5  A    between atoms: N2_12  and  C10_13 
REMARK    6  A    between atoms: C10_13  and  C11_14 
ROOT
HETATM    1  C5  UNL     1     -23.325   4.635 -16.687  1.00  0.00     0.102 A 
HETATM    2  C6  UNL     1     -24.548   4.307 -16.077  1.00  0.00     0.048 A 
HETATM    3  C7  UNL     1     -25.540   5.247 -15.954  1.00  0.00     0.005 A 
HETATM    4  C8  UNL     1     -25.299   6.514 -16.444  1.00  0.00     0.017 A 
HETATM    5  C9  UNL     1     -24.097   6.811 -17.034  1.00  0.00     0.092 A 
HETATM    6  N2  UNL     1     -23.107   5.869 -17.156  1.00  0.00    -0.344 N 
ENDROOT
BRANCH   1   7
HETATM    7  N1  UNL     1     -22.332   3.634 -16.809  1.00  0.00    -0.376 N 
ATOM      8  H1  UNL     1     -21.426   3.726 -16.350  1.00  0.00     0.161 HD
BRANCH   7   9
HETATM    9  C4  UNL     1     -22.660   2.463 -17.618  1.00  0.00     0.121 C 
BRANCH   9  10
HETATM   10  C3  UNL     1     -22.770   2.809 -19.081  1.00  0.00     0.019 C 
BRANCH  10  11
HETATM   11  C2  UNL     1     -24.200   2.661 -19.533  1.00  0.00    -0.003 C 
HETATM   12  C1  UNL     1     -24.826   4.008 -19.847  1.00  0.00     0.005 C 
ENDBRANCH  10  11
ENDBRANCH   9  10
ENDBRANCH   7   9
ENDBRANCH   1   7
BRANCH   6  13
HETATM   13  C10 UNL     1     -21.860   6.203 -17.751  1.00  0.00     0.129 C 
BRANCH  13  14
HETATM   14  C11 UNL     1     -21.914   6.476 -19.224  1.00  0.00     0.016 C 
HETATM   15  C12 UNL     1     -20.562   6.334 -19.885  1.00  0.00     0.006 C 
ENDBRANCH  13  14
ENDBRANCH   6  13
TORSDOF 6
ENDMDL
