MODEL 1
REMARK VINA RESULT: -9.506729543      0.000      0.000
REMARK  8 active torsions:
REMARK  status: ('A' for Active; 'I' for Inactive)
REMARK       I    between atoms: C1_2  and  N1_3 
REMARK       I    between atoms: C1_2  and  N3_16 
REMARK    1  A    between atoms: N1_3  and  N2_5 
REMARK    2  A    between atoms: C2_7  and  C3_8 
REMARK    3  A    between atoms: C8_13  and  O2_14 
REMARK    4  A    between atoms: N3_16  and  N4_18 
REMARK    5  A    between atoms: N4_18  and  C9_19 
REMARK    6  A    between atoms: C9_19  and  C10_20 
REMARK    7  A    between atoms: C12_22  and  N5_23 
REMARK    8  A    between atoms: C13_27  and  N6_28 
ROOT
HETATM    1  O1  UNL     1     111.297  93.816  26.973  1.00  0.00    -0.244 OA
HETATM    2  C1  UNL     1     112.524  93.849  27.107  1.00  0.00     0.350 C 
HETATM    3  N1  UNL     1     113.139  93.117  28.161  1.00  0.00    -0.251 N 
ATOM      4  H1  UNL     1     114.152  93.149  28.268  1.00  0.00     0.191 HD
HETATM    5  N3  UNL     1     113.376  94.606  26.233  1.00  0.00    -0.254 N 
ATOM      6  H3  UNL     1     114.388  94.625  26.364  1.00  0.00     0.187 HD
ENDROOT
BRANCH   3   7
HETATM    7  N2  UNL     1     112.410  92.385  29.017  1.00  0.00    -0.307 N 
HETATM    8  C2  UNL     1     111.894  91.262  29.128  1.00  0.00     0.121 C 
ATOM      9  H2  UNL     1     112.215  92.934  29.855  1.00  0.00     0.186 HD
BRANCH   8  10
HETATM   10  C3  UNL     1     111.912  90.168  28.200  1.00  0.00     0.014 A 
HETATM   11  C4  UNL     1     111.394  90.261  26.935  1.00  0.00     0.015 A 
HETATM   12  C5  UNL     1     111.437  89.157  26.066  1.00  0.00     0.001 A 
HETATM   13  C6  UNL     1     111.990  87.953  26.429  1.00  0.00     0.003 A 
HETATM   14  C7  UNL     1     112.507  87.864  27.693  1.00  0.00     0.037 A 
HETATM   15  C8  UNL     1     112.475  88.933  28.560  1.00  0.00     0.077 A 
BRANCH  15  16
HETATM   16  O2  UNL     1     112.999  88.838  29.837  1.00  0.00    -0.360 OA
ATOM     17  H2  UNL     1     113.945  88.785  29.907  1.00  0.00     0.217 HD
ENDBRANCH  15  16
ENDBRANCH   8  10
ENDBRANCH   3   7
BRANCH   5  18
HETATM   18  N4  UNL     1     112.768  95.312  25.201  1.00  0.00    -0.133 NA
BRANCH  18  19
HETATM   19  C9  UNL     1     113.262  94.841  23.939  1.00  0.00     0.178 C 
BRANCH  19  20
HETATM   20  C10 UNL     1     112.085  94.332  23.144  1.00  0.00     0.020 A 
HETATM   21  C11 UNL     1     111.531  93.073  23.239  1.00  0.00     0.075 A 
HETATM   22  C12 UNL     1     110.490  93.050  22.338  1.00  0.00     0.217 A 
HETATM   23  O5  UNL     1     110.433  94.214  21.752  1.00  0.00    -0.265 OA
HETATM   24  C13 UNL     1     111.371  95.032  22.196  1.00  0.00     0.224 A 
BRANCH  22  25
HETATM   25  N5  UNL     1     109.616  91.924  22.093  1.00  0.00    -0.090 N 
HETATM   26  O3  UNL     1     108.656  91.713  22.855  1.00  0.00    -0.530 OA
HETATM   27  O4  UNL     1     109.826  91.093  21.045  1.00  0.00    -0.530 OA
ENDBRANCH  22  25
BRANCH  24  28
HETATM   28  N6  UNL     1     111.604  96.376  21.781  1.00  0.00    -0.090 N 
HETATM   29  O6  UNL     1     112.365  96.617  20.829  1.00  0.00    -0.530 OA
HETATM   30  O7  UNL     1     110.998  97.417  22.419  1.00  0.00    -0.530 OA
ENDBRANCH  24  28
ENDBRANCH  19  20
ENDBRANCH  18  19
ENDBRANCH   5  18
TORSDOF 8
ENDMDL
MODEL 2
REMARK VINA RESULT: -9.316948416      1.078      1.547
REMARK  8 active torsions:
REMARK  status: ('A' for Active; 'I' for Inactive)
REMARK       I    between atoms: C1_2  and  N1_3 
REMARK       I    between atoms: C1_2  and  N3_16 
REMARK    1  A    between atoms: N1_3  and  N2_5 
REMARK    2  A    between atoms: C2_7  and  C3_8 
REMARK    3  A    between atoms: C8_13  and  O2_14 
REMARK    4  A    between atoms: N3_16  and  N4_18 
REMARK    5  A    between atoms: N4_18  and  C9_19 
REMARK    6  A    between atoms: C9_19  and  C10_20 
REMARK    7  A    between atoms: C12_22  and  N5_23 
REMARK    8  A    between atoms: C13_27  and  N6_28 
ROOT
HETATM    1  O1  UNL     1     111.509  94.449  26.955  1.00  0.00    -0.244 OA
HETATM    2  C1  UNL     1     112.718  94.219  27.061  1.00  0.00     0.350 C 
HETATM    3  N1  UNL     1     113.180  93.304  28.048  1.00  0.00    -0.251 N 
ATOM      4  H1  UNL     1     114.179  93.120  28.132  1.00  0.00     0.191 HD
HETATM    5  N3  UNL     1     113.699  94.845  26.218  1.00  0.00    -0.254 N 
ATOM      6  H3  UNL     1     114.695  94.647  26.325  1.00  0.00     0.187 HD
ENDROOT
BRANCH   3   7
HETATM    7  N2  UNL     1     112.325  92.679  28.871  1.00  0.00    -0.307 N 
HETATM    8  C2  UNL     1     111.757  91.587  29.022  1.00  0.00     0.121 C 
ATOM      9  H2  UNL     1     112.051  93.313  29.623  1.00  0.00     0.186 HD
BRANCH   8  10
HETATM   10  C3  UNL     1     111.845  90.408  28.210  1.00  0.00     0.014 A 
HETATM   11  C4  UNL     1     112.304  89.210  28.691  1.00  0.00     0.015 A 
HETATM   12  C5  UNL     1     112.369  88.084  27.851  1.00  0.00     0.001 A 
HETATM   13  C6  UNL     1     111.984  88.122  26.533  1.00  0.00     0.003 A 
HETATM   14  C7  UNL     1     111.526  89.321  26.057  1.00  0.00     0.037 A 
HETATM   15  C8  UNL     1     111.453  90.436  26.861  1.00  0.00     0.077 A 
BRANCH  15  16
HETATM   16  O2  UNL     1     110.988  91.644  26.374  1.00  0.00    -0.360 OA
ATOM     17  H2  UNL     1     111.003  91.757  25.432  1.00  0.00     0.217 HD
ENDBRANCH  15  16
ENDBRANCH   8  10
ENDBRANCH   3   7
BRANCH   5  18
HETATM   18  N4  UNL     1     113.239  95.732  25.251  1.00  0.00    -0.133 NA
BRANCH  18  19
HETATM   19  C9  UNL     1     113.638  95.275  23.951  1.00  0.00     0.178 C 
BRANCH  19  20
HETATM   20  C10 UNL     1     112.442  94.620  23.305  1.00  0.00     0.020 A 
HETATM   21  C11 UNL     1     111.990  93.342  23.553  1.00  0.00     0.075 A 
HETATM   22  C12 UNL     1     110.886  93.169  22.749  1.00  0.00     0.217 A 
HETATM   23  O5  UNL     1     110.697  94.270  22.074  1.00  0.00    -0.265 OA
HETATM   24  C13 UNL     1     111.606  95.184  22.366  1.00  0.00     0.224 A 
BRANCH  22  25
HETATM   25  N5  UNL     1     110.080  91.971  22.676  1.00  0.00    -0.090 N 
HETATM   26  O3  UNL     1     109.694  91.423  23.724  1.00  0.00    -0.530 OA
HETATM   27  O4  UNL     1     109.736  91.433  21.482  1.00  0.00    -0.530 OA
ENDBRANCH  22  25
BRANCH  24  28
HETATM   28  N6  UNL     1     111.706  96.497  21.820  1.00  0.00    -0.090 N 
HETATM   29  O6  UNL     1     111.128  97.452  22.365  1.00  0.00    -0.530 OA
HETATM   30  O7  UNL     1     112.437  96.728  20.692  1.00  0.00    -0.530 OA
ENDBRANCH  24  28
ENDBRANCH  19  20
ENDBRANCH  18  19
ENDBRANCH   5  18
TORSDOF 8
ENDMDL
MODEL 3
REMARK VINA RESULT: -9.139486318      0.896      1.174
REMARK  8 active torsions:
REMARK  status: ('A' for Active; 'I' for Inactive)
REMARK       I    between atoms: C1_2  and  N1_3 
REMARK       I    between atoms: C1_2  and  N3_16 
REMARK    1  A    between atoms: N1_3  and  N2_5 
REMARK    2  A    between atoms: C2_7  and  C3_8 
REMARK    3  A    between atoms: C8_13  and  O2_14 
REMARK    4  A    between atoms: N3_16  and  N4_18 
REMARK    5  A    between atoms: N4_18  and  C9_19 
REMARK    6  A    between atoms: C9_19  and  C10_20 
REMARK    7  A    between atoms: C12_22  and  N5_23 
REMARK    8  A    between atoms: C13_27  and  N6_28 
ROOT
HETATM    1  O1  UNL     1     111.109  93.624  26.643  1.00  0.00    -0.244 OA
HETATM    2  C1  UNL     1     112.330  93.737  26.793  1.00  0.00     0.350 C 
HETATM    3  N1  UNL     1     112.967  93.112  27.901  1.00  0.00    -0.251 N 
ATOM      4  H1  UNL     1     113.975  93.211  28.019  1.00  0.00     0.191 HD
HETATM    5  N3  UNL     1     113.153  94.485  25.882  1.00  0.00    -0.254 N 
ATOM      6  H3  UNL     1     114.159  94.572  26.026  1.00  0.00     0.187 HD
ENDROOT
BRANCH   3   7
HETATM    7  N2  UNL     1     112.267  92.396  28.793  1.00  0.00    -0.307 N 
HETATM    8  C2  UNL     1     111.797  91.261  28.960  1.00  0.00     0.121 C 
ATOM      9  H2  UNL     1     112.049  92.978  29.602  1.00  0.00     0.186 HD
BRANCH   8  10
HETATM   10  C3  UNL     1     111.860  90.123  28.089  1.00  0.00     0.014 A 
HETATM   11  C4  UNL     1     111.345  90.132  26.819  1.00  0.00     0.015 A 
HETATM   12  C5  UNL     1     111.434  88.988  26.007  1.00  0.00     0.001 A 
HETATM   13  C6  UNL     1     112.029  87.825  26.432  1.00  0.00     0.003 A 
HETATM   14  C7  UNL     1     112.542  87.820  27.701  1.00  0.00     0.037 A 
HETATM   15  C8  UNL     1     112.466  88.929  28.513  1.00  0.00     0.077 A 
BRANCH  15  16
HETATM   16  O2  UNL     1     112.987  88.917  29.794  1.00  0.00    -0.360 OA
ATOM     17  H2  UNL     1     113.907  88.700  29.878  1.00  0.00     0.217 HD
ENDBRANCH  15  16
ENDBRANCH   8  10
ENDBRANCH   3   7
BRANCH   5  18
HETATM   18  N4  UNL     1     112.523  95.086  24.798  1.00  0.00    -0.133 NA
BRANCH  18  19
HETATM   19  C9  UNL     1     113.339  94.942  23.627  1.00  0.00     0.178 C 
BRANCH  19  20
HETATM   20  C10 UNL     1     112.462  94.419  22.515  1.00  0.00     0.020 A 
HETATM   21  C11 UNL     1     112.341  93.100  22.135  1.00  0.00     0.075 A 
HETATM   22  C12 UNL     1     111.444  93.089  21.090  1.00  0.00     0.217 A 
HETATM   23  O5  UNL     1     111.062  94.316  20.869  1.00  0.00    -0.265 OA
HETATM   24  C13 UNL     1     111.642  95.167  21.698  1.00  0.00     0.224 A 
BRANCH  22  25
HETATM   25  N5  UNL     1     111.008  91.913  20.371  1.00  0.00    -0.090 N 
HETATM   26  O3  UNL     1     110.385  91.020  20.972  1.00  0.00    -0.530 OA
HETATM   27  O4  UNL     1     111.266  91.767  19.050  1.00  0.00    -0.530 OA
ENDBRANCH  22  25
BRANCH  24  28
HETATM   28  N6  UNL     1     111.460  96.580  21.743  1.00  0.00    -0.090 N 
HETATM   29  O6  UNL     1     110.809  97.102  22.663  1.00  0.00    -0.530 OA
HETATM   30  O7  UNL     1     111.995  97.382  20.778  1.00  0.00    -0.530 OA
ENDBRANCH  24  28
ENDBRANCH  19  20
ENDBRANCH  18  19
ENDBRANCH   5  18
TORSDOF 8
ENDMDL
MODEL 4
REMARK VINA RESULT: -8.984817323      0.800      1.128
REMARK  8 active torsions:
REMARK  status: ('A' for Active; 'I' for Inactive)
REMARK       I    between atoms: C1_2  and  N1_3 
REMARK       I    between atoms: C1_2  and  N3_16 
REMARK    1  A    between atoms: N1_3  and  N2_5 
REMARK    2  A    between atoms: C2_7  and  C3_8 
REMARK    3  A    between atoms: C8_13  and  O2_14 
REMARK    4  A    between atoms: N3_16  and  N4_18 
REMARK    5  A    between atoms: N4_18  and  C9_19 
REMARK    6  A    between atoms: C9_19  and  C10_20 
REMARK    7  A    between atoms: C12_22  and  N5_23 
REMARK    8  A    between atoms: C13_27  and  N6_28 
ROOT
HETATM    1  O1  UNL     1     111.257  93.794  26.746  1.00  0.00    -0.244 OA
HETATM    2  C1  UNL     1     112.483  93.853  26.882  1.00  0.00     0.350 C 
HETATM    3  N1  UNL     1     113.106  93.184  27.972  1.00  0.00    -0.251 N 
ATOM      4  H1  UNL     1     114.118  93.238  28.080  1.00  0.00     0.191 HD
HETATM    5  N3  UNL     1     113.326  94.580  25.973  1.00  0.00    -0.254 N 
ATOM      6  H3  UNL     1     114.337  94.622  26.106  1.00  0.00     0.187 HD
ENDROOT
BRANCH   3   7
HETATM    7  N2  UNL     1     112.386  92.483  28.861  1.00  0.00    -0.307 N 
HETATM    8  C2  UNL     1     111.881  91.362  29.022  1.00  0.00     0.121 C 
ATOM      9  H2  UNL     1     112.188  93.066  29.675  1.00  0.00     0.186 HD
BRANCH   8  10
HETATM   10  C3  UNL     1     111.906  90.229  28.142  1.00  0.00     0.014 A 
HETATM   11  C4  UNL     1     111.395  90.266  26.871  1.00  0.00     0.015 A 
HETATM   12  C5  UNL     1     111.446  89.126  26.051  1.00  0.00     0.001 A 
HETATM   13  C6  UNL     1     111.998  87.939  26.468  1.00  0.00     0.003 A 
HETATM   14  C7  UNL     1     112.506  87.906  27.738  1.00  0.00     0.037 A 
HETATM   15  C8  UNL     1     112.467  89.011  28.559  1.00  0.00     0.077 A 
BRANCH  15  16
HETATM   16  O2  UNL     1     112.984  88.972  29.842  1.00  0.00    -0.360 OA
ATOM     17  H2  UNL     1     112.395  89.213  30.546  1.00  0.00     0.217 HD
ENDBRANCH  15  16
ENDBRANCH   8  10
ENDBRANCH   3   7
BRANCH   5  18
HETATM   18  N4  UNL     1     112.710  95.225  24.906  1.00  0.00    -0.133 NA
BRANCH  18  19
HETATM   19  C9  UNL     1     113.293  94.778  23.673  1.00  0.00     0.178 C 
BRANCH  19  20
HETATM   20  C10 UNL     1     112.223  94.055  22.893  1.00  0.00     0.020 A 
HETATM   21  C11 UNL     1     111.303  93.171  23.414  1.00  0.00     0.075 A 
HETATM   22  C12 UNL     1     110.532  92.759  22.351  1.00  0.00     0.217 A 
HETATM   23  O5  UNL     1     110.966  93.358  21.276  1.00  0.00    -0.265 OA
HETATM   24  C13 UNL     1     111.987  94.155  21.539  1.00  0.00     0.224 A 
BRANCH  22  25
HETATM   25  N5  UNL     1     109.432  91.823  22.424  1.00  0.00    -0.090 N 
HETATM   26  O3  UNL     1     109.208  91.060  21.468  1.00  0.00    -0.530 OA
HETATM   27  O4  UNL     1     108.638  91.763  23.519  1.00  0.00    -0.530 OA
ENDBRANCH  22  25
BRANCH  24  28
HETATM   28  N6  UNL     1     112.707  94.961  20.609  1.00  0.00    -0.090 N 
HETATM   29  O6  UNL     1     113.567  94.453  19.871  1.00  0.00    -0.530 OA
HETATM   30  O7  UNL     1     112.465  96.300  20.515  1.00  0.00    -0.530 OA
ENDBRANCH  24  28
ENDBRANCH  19  20
ENDBRANCH  18  19
ENDBRANCH   5  18
TORSDOF 8
ENDMDL
MODEL 5
REMARK VINA RESULT: -8.964762746      2.453      6.997
REMARK  8 active torsions:
REMARK  status: ('A' for Active; 'I' for Inactive)
REMARK       I    between atoms: C1_2  and  N1_3 
REMARK       I    between atoms: C1_2  and  N3_16 
REMARK    1  A    between atoms: N1_3  and  N2_5 
REMARK    2  A    between atoms: C2_7  and  C3_8 
REMARK    3  A    between atoms: C8_13  and  O2_14 
REMARK    4  A    between atoms: N3_16  and  N4_18 
REMARK    5  A    between atoms: N4_18  and  C9_19 
REMARK    6  A    between atoms: C9_19  and  C10_20 
REMARK    7  A    between atoms: C12_22  and  N5_23 
REMARK    8  A    between atoms: C13_27  and  N6_28 
ROOT
HETATM    1  O1  UNL     1     113.331  94.119  24.492  1.00  0.00    -0.244 OA
HETATM    2  C1  UNL     1     112.766  95.011  25.133  1.00  0.00     0.350 C 
HETATM    3  N1  UNL     1     112.524  96.274  24.523  1.00  0.00    -0.251 N 
ATOM      4  H1  UNL     1     112.059  97.007  25.058  1.00  0.00     0.191 HD
HETATM    5  N3  UNL     1     112.334  94.830  26.491  1.00  0.00    -0.254 N 
ATOM      6  H3  UNL     1     111.874  95.582  27.006  1.00  0.00     0.187 HD
ENDROOT
BRANCH   3   7
HETATM    7  N2  UNL     1     112.897  96.518  23.258  1.00  0.00    -0.307 N 
HETATM    8  C2  UNL     1     112.419  96.644  22.121  1.00  0.00     0.121 C 
ATOM      9  H2  UNL     1     113.909  96.641  23.219  1.00  0.00     0.186 HD
BRANCH   8  10
HETATM   10  C3  UNL     1     111.049  96.553  21.705  1.00  0.00     0.014 A 
HETATM   11  C4  UNL     1     110.408  97.565  21.039  1.00  0.00     0.015 A 
HETATM   12  C5  UNL     1     109.064  97.423  20.654  1.00  0.00     0.001 A 
HETATM   13  C6  UNL     1     108.336  96.288  20.917  1.00  0.00     0.003 A 
HETATM   14  C7  UNL     1     108.980  95.280  21.582  1.00  0.00     0.037 A 
HETATM   15  C8  UNL     1     110.296  95.397  21.968  1.00  0.00     0.077 A 
BRANCH  15  16
HETATM   16  O2  UNL     1     110.941  94.374  22.639  1.00  0.00    -0.360 OA
ATOM     17  H2  UNL     1     111.634  94.627  23.238  1.00  0.00     0.217 HD
ENDBRANCH  15  16
ENDBRANCH   8  10
ENDBRANCH   3   7
BRANCH   5  18
HETATM   18  N4  UNL     1     112.567  93.590  27.077  1.00  0.00    -0.133 NA
BRANCH  18  19
HETATM   19  C9  UNL     1     111.317  92.928  27.314  1.00  0.00     0.178 C 
BRANCH  19  20
HETATM   20  C10 UNL     1     111.459  91.498  26.854  1.00  0.00     0.020 A 
HETATM   21  C11 UNL     1     111.905  90.443  27.621  1.00  0.00     0.075 A 
HETATM   22  C12 UNL     1     111.872  89.339  26.799  1.00  0.00     0.217 A 
HETATM   23  O5  UNL     1     111.436  89.714  25.629  1.00  0.00    -0.265 OA
HETATM   24  C13 UNL     1     111.169  91.008  25.598  1.00  0.00     0.224 A 
BRANCH  22  25
HETATM   25  N5  UNL     1     112.256  87.998  27.180  1.00  0.00    -0.090 N 
HETATM   26  O3  UNL     1     111.925  87.036  26.464  1.00  0.00    -0.530 OA
HETATM   27  O4  UNL     1     112.972  87.769  28.306  1.00  0.00    -0.530 OA
ENDBRANCH  22  25
BRANCH  24  28
HETATM   28  N6  UNL     1     110.678  91.757  24.488  1.00  0.00    -0.090 N 
HETATM   29  O6  UNL     1     111.147  91.578  23.352  1.00  0.00    -0.530 OA
HETATM   30  O7  UNL     1     109.688  92.680  24.655  1.00  0.00    -0.530 OA
ENDBRANCH  24  28
ENDBRANCH  19  20
ENDBRANCH  18  19
ENDBRANCH   5  18
TORSDOF 8
ENDMDL
