MODEL 1
REMARK VINA RESULT: -8.342089364      0.000      0.000
REMARK  8 active torsions:
REMARK  status: ('A' for Active; 'I' for Inactive)
REMARK    1  A    between atoms: O1_2  and  C2_3 
REMARK    2  A    between atoms: C4_5  and  O2_6 
REMARK    3  A    between atoms: C8_12  and  O3_13 
REMARK    4  A    between atoms: O3_13  and  C9_14 
REMARK    5  A    between atoms: C10_15  and  O4_16 
REMARK    6  A    between atoms: C12_20  and  C13_21 
REMARK       I    between atoms: C13_21  and  N3_23 
REMARK    7  A    between atoms: N3_23  and  N4_25 
REMARK    8  A    between atoms: C14_28  and  N5_29 
ROOT
HETATM    1  C2  UNL     1     110.908  91.294  25.244  1.00  0.00     0.104 A 
HETATM    2  C3  UNL     1     111.174  89.999  25.730  1.00  0.00     0.077 A 
HETATM    3  C4  UNL     1     111.748  89.880  26.980  1.00  0.00     0.089 A 
HETATM    4  C5  UNL     1     112.053  91.000  27.732  1.00  0.00     0.080 A 
HETATM    5  C6  UNL     1     112.653  90.822  29.032  1.00  0.00     0.102 C 
HETATM    6  N1  UNL     1     113.147  90.695  30.069  1.00  0.00    -0.191 NA
HETATM    7  C7  UNL     1     111.797  92.258  27.265  1.00  0.00     0.065 A 
HETATM    8  C8  UNL     1     111.206  92.402  25.980  1.00  0.00     0.111 A 
ENDROOT
BRANCH   3   9
HETATM    9  O2  UNL     1     112.035  88.633  27.513  1.00  0.00    -0.359 OA
ATOM     10  H2  UNL     1     111.351  88.100  27.900  1.00  0.00     0.217 HD
ENDBRANCH   3   9
BRANCH   8  11
HETATM   11  O3  UNL     1     110.970  93.677  25.556  1.00  0.00    -0.301 OA
BRANCH  11  12
HETATM   12  C9  UNL     1     111.552  94.431  24.600  1.00  0.00     0.162 A 
HETATM   13  C10 UNL     1     112.864  94.909  24.735  1.00  0.00     0.180 A 
HETATM   14  N2  UNL     1     113.196  95.616  23.652  1.00  0.00    -0.328 N 
HETATM   15  C12 UNL     1     112.171  95.636  22.791  1.00  0.00     0.140 A 
ATOM     16  H2  UNL     1     114.096  96.072  23.503  1.00  0.00     0.168 HD
HETATM   17  C14 UNL     1     111.128  94.894  23.375  1.00  0.00     0.173 A 
BRANCH  13  18
HETATM   18  O4  UNL     1     113.721  94.700  25.819  1.00  0.00    -0.339 OA
HETATM   19  C11 UNL     1     113.620  95.642  26.884  1.00  0.00     0.211 C 
ENDBRANCH  13  18
BRANCH  15  20
HETATM   20  C13 UNL     1     112.146  96.296  21.495  1.00  0.00     0.288 C 
HETATM   21  O5  UNL     1     111.862  97.528  21.443  1.00  0.00    -0.264 OA
HETATM   22  N3  UNL     1     112.433  95.571  20.310  1.00  0.00    -0.271 N 
ATOM     23  H3  UNL     1     112.663  94.578  20.360  1.00  0.00     0.189 HD
BRANCH  22  24
HETATM   24  N4  UNL     1     112.402  96.224  19.069  1.00  0.00    -0.342 N 
ATOM     25  H42 UNL     1     111.837  95.832  18.316  1.00  0.00     0.176 HD
ATOM     26  H41 UNL     1     112.940  97.080  18.934  1.00  0.00     0.176 HD
ENDBRANCH  22  24
ENDBRANCH  15  20
BRANCH  17  27
HETATM   27  N5  UNL     1     109.906  94.673  22.689  1.00  0.00    -0.110 N 
HETATM   28  O6  UNL     1     108.812  95.103  23.044  1.00  0.00    -0.532 OA
HETATM   29  O7  UNL     1     109.947  93.935  21.502  1.00  0.00    -0.532 OA
ENDBRANCH  17  27
ENDBRANCH  11  12
ENDBRANCH   8  11
BRANCH   1  30
HETATM   30  O1  UNL     1     110.341  91.394  24.013  1.00  0.00    -0.353 OA
HETATM   31  C1  UNL     1     108.960  91.514  23.756  1.00  0.00     0.210 C 
ENDBRANCH   1  30
TORSDOF 8
ENDMDL
MODEL 2
REMARK VINA RESULT: -8.238540476      1.673      2.613
REMARK  8 active torsions:
REMARK  status: ('A' for Active; 'I' for Inactive)
REMARK    1  A    between atoms: O1_2  and  C2_3 
REMARK    2  A    between atoms: C4_5  and  O2_6 
REMARK    3  A    between atoms: C8_12  and  O3_13 
REMARK    4  A    between atoms: O3_13  and  C9_14 
REMARK    5  A    between atoms: C10_15  and  O4_16 
REMARK    6  A    between atoms: C12_20  and  C13_21 
REMARK       I    between atoms: C13_21  and  N3_23 
REMARK    7  A    between atoms: N3_23  and  N4_25 
REMARK    8  A    between atoms: C14_28  and  N5_29 
ROOT
HETATM    1  C2  UNL     1     111.909  92.786  27.940  1.00  0.00     0.104 A 
HETATM    2  C3  UNL     1     112.155  91.623  28.694  1.00  0.00     0.077 A 
HETATM    3  C4  UNL     1     112.019  90.401  28.067  1.00  0.00     0.089 A 
HETATM    4  C5  UNL     1     111.651  90.323  26.736  1.00  0.00     0.080 A 
HETATM    5  C6  UNL     1     111.521  89.022  26.126  1.00  0.00     0.102 C 
HETATM    6  N1  UNL     1     111.400  87.986  25.628  1.00  0.00    -0.191 NA
HETATM    7  C7  UNL     1     111.410  91.449  26.000  1.00  0.00     0.065 A 
HETATM    8  C8  UNL     1     111.545  92.717  26.628  1.00  0.00     0.111 A 
ENDROOT
BRANCH   3   9
HETATM    9  O2  UNL     1     112.247  89.219  28.755  1.00  0.00    -0.359 OA
ATOM     10  H2  UNL     1     112.266  88.386  28.299  1.00  0.00     0.217 HD
ENDBRANCH   3   9
BRANCH   8  11
HETATM   11  O3  UNL     1     111.295  93.811  25.854  1.00  0.00    -0.301 OA
BRANCH  11  12
HETATM   12  C9  UNL     1     111.855  94.252  24.708  1.00  0.00     0.162 A 
HETATM   13  C10 UNL     1     113.166  94.750  24.673  1.00  0.00     0.180 A 
HETATM   14  N2  UNL     1     113.475  95.108  23.424  1.00  0.00    -0.328 N 
HETATM   15  C12 UNL     1     112.435  94.874  22.615  1.00  0.00     0.140 A 
ATOM     16  H2  UNL     1     114.369  95.502  23.132  1.00  0.00     0.168 HD
HETATM   17  C14 UNL     1     111.407  94.334  23.409  1.00  0.00     0.173 A 
BRANCH  13  18
HETATM   18  O4  UNL     1     114.043  94.870  25.755  1.00  0.00    -0.339 OA
HETATM   19  C11 UNL     1     113.928  96.066  26.520  1.00  0.00     0.211 C 
ENDBRANCH  13  18
BRANCH  15  20
HETATM   20  C13 UNL     1     112.383  95.124  21.183  1.00  0.00     0.288 C 
HETATM   21  O5  UNL     1     112.358  96.321  20.773  1.00  0.00    -0.264 OA
HETATM   22  N3  UNL     1     112.360  94.046  20.262  1.00  0.00    -0.271 N 
ATOM     23  H3  UNL     1     112.381  93.083  20.599  1.00  0.00     0.189 HD
BRANCH  22  24
HETATM   24  N4  UNL     1     112.307  94.307  18.885  1.00  0.00    -0.342 N 
ATOM     25  H42 UNL     1     112.040  93.557  18.247  1.00  0.00     0.176 HD
ATOM     26  H41 UNL     1     112.535  95.239  18.537  1.00  0.00     0.176 HD
ENDBRANCH  22  24
ENDBRANCH  15  20
BRANCH  17  27
HETATM   27  N5  UNL     1     110.174  93.921  22.841  1.00  0.00    -0.110 N 
HETATM   28  O6  UNL     1     109.127  94.559  22.891  1.00  0.00    -0.532 OA
HETATM   29  O7  UNL     1     110.150  92.708  22.145  1.00  0.00    -0.532 OA
ENDBRANCH  17  27
ENDBRANCH  11  12
ENDBRANCH   8  11
BRANCH   1  30
HETATM   30  O1  UNL     1     112.050  93.981  28.572  1.00  0.00    -0.353 OA
HETATM   31  C1  UNL     1     112.938  94.245  29.635  1.00  0.00     0.210 C 
ENDBRANCH   1  30
TORSDOF 8
ENDMDL
MODEL 3
REMARK VINA RESULT: -8.217127971      1.811      3.696
REMARK  8 active torsions:
REMARK  status: ('A' for Active; 'I' for Inactive)
REMARK    1  A    between atoms: O1_2  and  C2_3 
REMARK    2  A    between atoms: C4_5  and  O2_6 
REMARK    3  A    between atoms: C8_12  and  O3_13 
REMARK    4  A    between atoms: O3_13  and  C9_14 
REMARK    5  A    between atoms: C10_15  and  O4_16 
REMARK    6  A    between atoms: C12_20  and  C13_21 
REMARK       I    between atoms: C13_21  and  N3_23 
REMARK    7  A    between atoms: N3_23  and  N4_25 
REMARK    8  A    between atoms: C14_28  and  N5_29 
ROOT
HETATM    1  C2  UNL     1     111.693  93.401  27.273  1.00  0.00     0.104 A 
HETATM    2  C3  UNL     1     112.105  92.377  28.147  1.00  0.00     0.077 A 
HETATM    3  C4  UNL     1     112.017  91.072  27.705  1.00  0.00     0.089 A 
HETATM    4  C5  UNL     1     111.539  90.780  26.440  1.00  0.00     0.080 A 
HETATM    5  C6  UNL     1     111.467  89.400  26.025  1.00  0.00     0.102 C 
HETATM    6  N1  UNL     1     111.391  88.299  25.685  1.00  0.00    -0.191 NA
HETATM    7  C7  UNL     1     111.138  91.771  25.588  1.00  0.00     0.065 A 
HETATM    8  C8  UNL     1     111.220  93.121  26.025  1.00  0.00     0.111 A 
ENDROOT
BRANCH   3   9
HETATM    9  O2  UNL     1     112.407  90.018  28.518  1.00  0.00    -0.359 OA
ATOM     10  H2  UNL     1     112.892  90.176  29.319  1.00  0.00     0.217 HD
ENDBRANCH   3   9
BRANCH   8  11
HETATM   11  O3  UNL     1     110.808  94.074  25.142  1.00  0.00    -0.301 OA
BRANCH  11  12
HETATM   12  C9  UNL     1     110.921  94.168  23.800  1.00  0.00     0.162 A 
HETATM   13  C10 UNL     1     109.903  93.723  22.942  1.00  0.00     0.180 A 
HETATM   14  N2  UNL     1     110.262  93.938  21.674  1.00  0.00    -0.328 N 
HETATM   15  C12 UNL     1     111.472  94.508  21.635  1.00  0.00     0.140 A 
ATOM     16  H2  UNL     1     109.697  93.703  20.858  1.00  0.00     0.168 HD
HETATM   17  C14 UNL     1     111.900  94.659  22.966  1.00  0.00     0.173 A 
BRANCH  13  18
HETATM   18  O4  UNL     1     108.690  93.140  23.318  1.00  0.00    -0.339 OA
HETATM   19  C11 UNL     1     108.523  91.769  22.968  1.00  0.00     0.211 C 
ENDBRANCH  13  18
BRANCH  15  20
HETATM   20  C13 UNL     1     112.202  94.903  20.440  1.00  0.00     0.288 C 
HETATM   21  O5  UNL     1     112.944  94.051  19.870  1.00  0.00    -0.264 OA
HETATM   22  N3  UNL     1     112.084  96.218  19.923  1.00  0.00    -0.271 N 
ATOM     23  H3  UNL     1     111.482  96.899  20.387  1.00  0.00     0.189 HD
BRANCH  22  24
HETATM   24  N4  UNL     1     112.797  96.581  18.771  1.00  0.00    -0.342 N 
ATOM     25  H42 UNL     1     112.307  97.050  18.010  1.00  0.00     0.176 HD
ATOM     26  H41 UNL     1     113.794  96.372  18.707  1.00  0.00     0.176 HD
ENDBRANCH  22  24
ENDBRANCH  15  20
BRANCH  17  27
HETATM   27  N5  UNL     1     113.133  95.287  23.279  1.00  0.00    -0.110 N 
HETATM   28  O6  UNL     1     114.100  94.727  23.787  1.00  0.00    -0.532 OA
HETATM   29  O7  UNL     1     113.275  96.642  22.961  1.00  0.00    -0.532 OA
ENDBRANCH  17  27
ENDBRANCH  11  12
ENDBRANCH   8  11
BRANCH   1  30
HETATM   30  O1  UNL     1     111.787  94.680  27.723  1.00  0.00    -0.353 OA
HETATM   31  C1  UNL     1     112.892  95.227  28.407  1.00  0.00     0.210 C 
ENDBRANCH   1  30
TORSDOF 8
ENDMDL
MODEL 4
REMARK VINA RESULT: -8.169710258      2.075      6.879
REMARK  8 active torsions:
REMARK  status: ('A' for Active; 'I' for Inactive)
REMARK    1  A    between atoms: O1_2  and  C2_3 
REMARK    2  A    between atoms: C4_5  and  O2_6 
REMARK    3  A    between atoms: C8_12  and  O3_13 
REMARK    4  A    between atoms: O3_13  and  C9_14 
REMARK    5  A    between atoms: C10_15  and  O4_16 
REMARK    6  A    between atoms: C12_20  and  C13_21 
REMARK       I    between atoms: C13_21  and  N3_23 
REMARK    7  A    between atoms: N3_23  and  N4_25 
REMARK    8  A    between atoms: C14_28  and  N5_29 
ROOT
HETATM    1  C2  UNL     1     109.626  93.370  23.889  1.00  0.00     0.104 A 
HETATM    2  C3  UNL     1     109.400  94.638  23.322  1.00  0.00     0.077 A 
HETATM    3  C4  UNL     1     110.488  95.468  23.132  1.00  0.00     0.089 A 
HETATM    4  C5  UNL     1     111.761  95.062  23.489  1.00  0.00     0.080 A 
HETATM    5  C6  UNL     1     112.865  95.965  23.271  1.00  0.00     0.102 C 
HETATM    6  N1  UNL     1     113.756  96.684  23.115  1.00  0.00    -0.191 NA
HETATM    7  C7  UNL     1     111.985  93.832  24.040  1.00  0.00     0.065 A 
HETATM    8  C8  UNL     1     110.878  92.963  24.243  1.00  0.00     0.111 A 
ENDROOT
BRANCH   3   9
HETATM    9  O2  UNL     1     110.332  96.729  22.579  1.00  0.00    -0.359 OA
ATOM     10  H2  UNL     1     111.037  97.137  22.091  1.00  0.00     0.217 HD
ENDBRANCH   3   9
BRANCH   8  11
HETATM   11  O3  UNL     1     111.150  91.747  24.796  1.00  0.00    -0.301 OA
BRANCH  11  12
HETATM   12  C9  UNL     1     111.480  91.381  26.053  1.00  0.00     0.162 A 
HETATM   13  C10 UNL     1     111.592  90.032  26.422  1.00  0.00     0.180 A 
HETATM   14  N2  UNL     1     111.935  89.948  27.709  1.00  0.00    -0.328 N 
HETATM   15  C12 UNL     1     112.061  91.176  28.227  1.00  0.00     0.140 A 
ATOM     16  H2  UNL     1     112.079  89.078  28.222  1.00  0.00     0.168 HD
HETATM   17  C14 UNL     1     111.777  92.089  27.195  1.00  0.00     0.173 A 
BRANCH  13  18
HETATM   18  O4  UNL     1     111.385  88.922  25.599  1.00  0.00    -0.339 OA
HETATM   19  C11 UNL     1     111.778  87.664  26.140  1.00  0.00     0.211 C 
ENDBRANCH  13  18
BRANCH  15  20
HETATM   20  C13 UNL     1     112.428  91.503  29.596  1.00  0.00     0.288 C 
HETATM   21  O5  UNL     1     111.690  91.096  30.539  1.00  0.00    -0.264 OA
HETATM   22  N3  UNL     1     113.594  92.264  29.868  1.00  0.00    -0.271 N 
ATOM     23  H3  UNL     1     114.185  92.587  29.103  1.00  0.00     0.189 HD
BRANCH  22  24
HETATM   24  N4  UNL     1     113.931  92.570  31.195  1.00  0.00    -0.342 N 
ATOM     25  H42 UNL     1     113.186  92.695  31.880  1.00  0.00     0.176 HD
ATOM     26  H41 UNL     1     114.912  92.665  31.459  1.00  0.00     0.176 HD
ENDBRANCH  22  24
ENDBRANCH  15  20
BRANCH  17  27
HETATM   27  N5  UNL     1     111.875  93.490  27.400  1.00  0.00    -0.110 N 
HETATM   28  O6  UNL     1     110.926  94.238  27.617  1.00  0.00    -0.532 OA
HETATM   29  O7  UNL     1     113.150  94.065  27.384  1.00  0.00    -0.532 OA
ENDBRANCH  17  27
ENDBRANCH  11  12
ENDBRANCH   8  11
BRANCH   1  30
HETATM   30  O1  UNL     1     108.545  92.565  24.067  1.00  0.00    -0.353 OA
HETATM   31  C1  UNL     1     108.069  91.616  23.138  1.00  0.00     0.210 C 
ENDBRANCH   1  30
TORSDOF 8
ENDMDL
MODEL 5
REMARK VINA RESULT: -8.044710962      2.017      3.193
REMARK  8 active torsions:
REMARK  status: ('A' for Active; 'I' for Inactive)
REMARK    1  A    between atoms: O1_2  and  C2_3 
REMARK    2  A    between atoms: C4_5  and  O2_6 
REMARK    3  A    between atoms: C8_12  and  O3_13 
REMARK    4  A    between atoms: O3_13  and  C9_14 
REMARK    5  A    between atoms: C10_15  and  O4_16 
REMARK    6  A    between atoms: C12_20  and  C13_21 
REMARK       I    between atoms: C13_21  and  N3_23 
REMARK    7  A    between atoms: N3_23  and  N4_25 
REMARK    8  A    between atoms: C14_28  and  N5_29 
ROOT
HETATM    1  C2  UNL     1     112.356  92.229  28.702  1.00  0.00     0.104 A 
HETATM    2  C3  UNL     1     112.856  91.141  29.442  1.00  0.00     0.077 A 
HETATM    3  C4  UNL     1     112.749  89.878  28.893  1.00  0.00     0.089 A 
HETATM    4  C5  UNL     1     112.168  89.690  27.653  1.00  0.00     0.080 A 
HETATM    5  C6  UNL     1     112.079  88.351  27.123  1.00  0.00     0.102 C 
HETATM    6  N1  UNL     1     111.988  87.282  26.692  1.00  0.00    -0.191 NA
HETATM    7  C7  UNL     1     111.681  90.743  26.931  1.00  0.00     0.065 A 
HETATM    8  C8  UNL     1     111.781  92.051  27.479  1.00  0.00     0.111 A 
ENDROOT
BRANCH   3   9
HETATM    9  O2  UNL     1     113.222  88.765  29.572  1.00  0.00    -0.359 OA
ATOM     10  H2  UNL     1     113.231  87.911  29.158  1.00  0.00     0.217 HD
ENDBRANCH   3   9
BRANCH   8  11
HETATM   11  O3  UNL     1     111.282  93.069  26.723  1.00  0.00    -0.301 OA
BRANCH  11  12
HETATM   12  C9  UNL     1     111.569  93.489  25.473  1.00  0.00     0.162 A 
HETATM   13  C10 UNL     1     112.720  94.244  25.196  1.00  0.00     0.180 A 
HETATM   14  N2  UNL     1     112.769  94.520  23.890  1.00  0.00    -0.328 N 
HETATM   15  C12 UNL     1     111.708  93.986  23.273  1.00  0.00     0.140 A 
ATOM     16  H2  UNL     1     113.506  95.056  23.433  1.00  0.00     0.168 HD
HETATM   17  C14 UNL     1     110.943  93.334  24.258  1.00  0.00     0.173 A 
BRANCH  13  18
HETATM   18  O4  UNL     1     113.686  94.661  26.115  1.00  0.00    -0.339 OA
HETATM   19  C11 UNL     1     113.649  96.040  26.475  1.00  0.00     0.211 C 
ENDBRANCH  13  18
BRANCH  15  20
HETATM   20  C13 UNL     1     111.408  94.062  21.852  1.00  0.00     0.288 C 
HETATM   21  O5  UNL     1     112.159  93.451  21.037  1.00  0.00    -0.264 OA
HETATM   22  N3  UNL     1     110.294  94.806  21.387  1.00  0.00    -0.271 N 
ATOM     23  H3  UNL     1     109.692  95.295  22.050  1.00  0.00     0.189 HD
BRANCH  22  24
HETATM   24  N4  UNL     1     110.022  94.869  20.013  1.00  0.00    -0.342 N 
ATOM     25  H42 UNL     1     109.146  94.483  19.662  1.00  0.00     0.176 HD
ATOM     26  H41 UNL     1     110.700  95.297  19.382  1.00  0.00     0.176 HD
ENDBRANCH  22  24
ENDBRANCH  15  20
BRANCH  17  27
HETATM   27  N5  UNL     1     109.768  92.613  23.922  1.00  0.00    -0.110 N 
HETATM   28  O6  UNL     1     109.686  91.390  23.859  1.00  0.00    -0.532 OA
HETATM   29  O7  UNL     1     108.602  93.345  23.671  1.00  0.00    -0.532 OA
ENDBRANCH  17  27
ENDBRANCH  11  12
ENDBRANCH   8  11
BRANCH   1  30
HETATM   30  O1  UNL     1     112.471  93.465  29.256  1.00  0.00    -0.353 OA
HETATM   31  C1  UNL     1     113.498  93.877  30.131  1.00  0.00     0.210 C 
ENDBRANCH   1  30
TORSDOF 8
ENDMDL
