MODEL 1
REMARK VINA RESULT: -7.878012240      0.000      0.000
REMARK  9 active torsions:
REMARK  status: ('A' for Active; 'I' for Inactive)
REMARK    1  A    between atoms: O1_2  and  C2_3 
REMARK    2  A    between atoms: C2_3  and  C3_5 
REMARK    3  A    between atoms: C4_6  and  C5_7 
REMARK    4  A    between atoms: C5_7  and  C6_8 
REMARK    5  A    between atoms: C6_8  and  N2_11 
REMARK    6  A    between atoms: N2_11  and  N3_12 
REMARK    7  A    between atoms: N3_12  and  C8_14 
REMARK    8  A    between atoms: C11_18  and  N4_19 
REMARK    9  A    between atoms: C12_24  and  N6_25 
ROOT
HETATM    1  C6  UNL     1     111.558  92.088  21.852  1.00  0.00     0.193 C 
HETATM    2  C7  UNL     1     110.691  91.680  20.743  1.00  0.00     0.131 C 
HETATM    3  N1  UNL     1     110.015  91.351  19.865  1.00  0.00    -0.189 NA
ENDROOT
BRANCH   1   4
HETATM    4  C5  UNL     1     112.781  92.916  21.585  1.00  0.00     0.145 C 
BRANCH   4   5
HETATM    5  C4  UNL     1     112.832  94.177  22.336  1.00  0.00     0.056 A 
HETATM    6  C3  UNL     1     112.390  95.384  21.916  1.00  0.00     0.131 A 
HETATM    7  C13 UNL     1     112.412  96.472  22.823  1.00  0.00     0.278 A 
HETATM    8  N7  UNL     1     112.856  96.340  24.068  1.00  0.00    -0.155 N 
HETATM    9  O6  UNL     1     111.992  97.581  22.411  1.00  0.00    -0.266 OA
HETATM   10  C12 UNL     1     113.294  95.136  24.458  1.00  0.00     0.679 A 
ATOM     11  H7  UNL     1     112.863  97.134  24.709  1.00  0.00     0.187 HD
HETATM   12  N5  UNL     1     113.292  94.081  23.645  1.00  0.00    -0.194 N 
ATOM     13  H5  UNL     1     113.634  93.184  23.990  1.00  0.00     0.184 HD
BRANCH   6  14
HETATM   14  C2  UNL     1     112.029  95.652  20.541  1.00  0.00     0.300 C 
HETATM   15  O2  UNL     1     112.670  96.223  19.656  1.00  0.00    -0.259 OA
BRANCH  14  16
HETATM   16  O1  UNL     1     110.757  95.205  20.108  1.00  0.00    -0.322 OA
HETATM   17  C1  UNL     1     109.607  95.282  20.911  1.00  0.00     0.213 C 
ENDBRANCH  14  16
ENDBRANCH   6  14
BRANCH  10  18
HETATM   18  N6  UNL     1     113.748  94.984  25.665  1.00  0.00    -0.234 N 
ATOM     19  H62 UNL     1     113.806  94.047  26.063  1.00  0.00     0.174 HD
ATOM     20  H61 UNL     1     114.028  95.815  26.186  1.00  0.00     0.174 HD
ENDBRANCH  10  18
ENDBRANCH   4   5
ENDBRANCH   1   4
BRANCH   1  21
HETATM   21  N2  UNL     1     111.169  91.783  22.964  1.00  0.00    -0.317 NA
BRANCH  21  22
HETATM   22  N3  UNL     1     110.592  91.808  24.118  1.00  0.00    -0.210 N 
ATOM     23  H3  UNL     1     109.777  92.407  24.250  1.00  0.00     0.204 HD
BRANCH  22  24
HETATM   24  C8  UNL     1     111.068  91.009  25.236  1.00  0.00     0.206 A 
HETATM   25  O3  UNL     1     111.075  89.685  25.193  1.00  0.00    -0.302 OA
HETATM   26  C9  UNL     1     111.533  89.187  26.299  1.00  0.00     0.147 A 
HETATM   27  C10 UNL     1     111.858  90.240  27.143  1.00  0.00     0.065 A 
HETATM   28  C11 UNL     1     111.551  91.411  26.442  1.00  0.00     0.158 A 
BRANCH  28  29
HETATM   29  N4  UNL     1     111.686  92.727  26.899  1.00  0.00    -0.111 N 
HETATM   30  O4  UNL     1     112.647  92.976  27.688  1.00  0.00    -0.532 OA
HETATM   31  O5  UNL     1     110.863  93.763  26.565  1.00  0.00    -0.532 OA
ENDBRANCH  28  29
ENDBRANCH  22  24
ENDBRANCH  21  22
ENDBRANCH   1  21
TORSDOF 9
ENDMDL
MODEL 2
REMARK VINA RESULT: -7.738106451      1.932      2.529
REMARK  9 active torsions:
REMARK  status: ('A' for Active; 'I' for Inactive)
REMARK    1  A    between atoms: O1_2  and  C2_3 
REMARK    2  A    between atoms: C2_3  and  C3_5 
REMARK    3  A    between atoms: C4_6  and  C5_7 
REMARK    4  A    between atoms: C5_7  and  C6_8 
REMARK    5  A    between atoms: C6_8  and  N2_11 
REMARK    6  A    between atoms: N2_11  and  N3_12 
REMARK    7  A    between atoms: N3_12  and  C8_14 
REMARK    8  A    between atoms: C11_18  and  N4_19 
REMARK    9  A    between atoms: C12_24  and  N6_25 
ROOT
HETATM    1  C6  UNL     1     110.530  91.777  23.633  1.00  0.00     0.193 C 
HETATM    2  C7  UNL     1     109.124  92.079  23.352  1.00  0.00     0.131 C 
HETATM    3  N1  UNL     1     108.014  92.311  23.121  1.00  0.00    -0.189 NA
ENDROOT
BRANCH   1   4
HETATM    4  C5  UNL     1     111.613  92.398  22.799  1.00  0.00     0.145 C 
BRANCH   4   5
HETATM    5  C4  UNL     1     112.017  93.741  23.238  1.00  0.00     0.056 A 
HETATM    6  C3  UNL     1     112.181  94.829  22.453  1.00  0.00     0.131 A 
HETATM    7  C13 UNL     1     112.461  96.076  23.066  1.00  0.00     0.278 A 
HETATM    8  N7  UNL     1     112.569  96.202  24.384  1.00  0.00    -0.155 N 
HETATM    9  O6  UNL     1     112.604  97.072  22.317  1.00  0.00    -0.266 OA
HETATM   10  C12 UNL     1     112.409  95.108  25.139  1.00  0.00     0.679 A 
ATOM     11  H7  UNL     1     112.769  97.108  24.809  1.00  0.00     0.187 HD
HETATM   12  N5  UNL     1     112.141  93.914  24.612  1.00  0.00    -0.194 N 
ATOM     13  H5  UNL     1     112.026  93.110  25.230  1.00  0.00     0.184 HD
BRANCH   6  14
HETATM   14  C2  UNL     1     112.227  94.756  21.010  1.00  0.00     0.300 C 
HETATM   15  O2  UNL     1     113.136  94.375  20.269  1.00  0.00    -0.259 OA
BRANCH  14  16
HETATM   16  O1  UNL     1     111.072  95.173  20.304  1.00  0.00    -0.322 OA
HETATM   17  C1  UNL     1     109.769  94.993  20.799  1.00  0.00     0.213 C 
ENDBRANCH  14  16
ENDBRANCH   6  14
BRANCH  10  18
HETATM   18  N6  UNL     1     112.524  95.201  26.428  1.00  0.00    -0.234 N 
ATOM     19  H62 UNL     1     111.683  95.257  27.004  1.00  0.00     0.174 HD
ATOM     20  H61 UNL     1     113.461  95.222  26.831  1.00  0.00     0.174 HD
ENDBRANCH  10  18
ENDBRANCH   4   5
ENDBRANCH   1   4
BRANCH   1  21
HETATM   21  N2  UNL     1     110.733  91.080  24.609  1.00  0.00    -0.317 NA
BRANCH  21  22
HETATM   22  N3  UNL     1     111.305  90.337  25.496  1.00  0.00    -0.210 N 
ATOM     23  H3  UNL     1     111.491  89.359  25.276  1.00  0.00     0.204 HD
BRANCH  22  24
HETATM   24  C8  UNL     1     111.694  90.853  26.799  1.00  0.00     0.206 A 
HETATM   25  O3  UNL     1     111.635  92.145  27.082  1.00  0.00    -0.302 OA
HETATM   26  C9  UNL     1     112.035  92.374  28.295  1.00  0.00     0.147 A 
HETATM   27  C10 UNL     1     112.386  91.160  28.868  1.00  0.00     0.065 A 
HETATM   28  C11 UNL     1     112.161  90.186  27.889  1.00  0.00     0.158 A 
BRANCH  28  29
HETATM   29  N4  UNL     1     112.394  88.811  27.998  1.00  0.00    -0.111 N 
HETATM   30  O4  UNL     1     112.948  88.394  29.060  1.00  0.00    -0.532 OA
HETATM   31  O5  UNL     1     112.077  87.882  27.049  1.00  0.00    -0.532 OA
ENDBRANCH  28  29
ENDBRANCH  22  24
ENDBRANCH  21  22
ENDBRANCH   1  21
TORSDOF 9
ENDMDL
MODEL 3
REMARK VINA RESULT: -7.718360165      3.103      4.605
REMARK  9 active torsions:
REMARK  status: ('A' for Active; 'I' for Inactive)
REMARK    1  A    between atoms: O1_2  and  C2_3 
REMARK    2  A    between atoms: C2_3  and  C3_5 
REMARK    3  A    between atoms: C4_6  and  C5_7 
REMARK    4  A    between atoms: C5_7  and  C6_8 
REMARK    5  A    between atoms: C6_8  and  N2_11 
REMARK    6  A    between atoms: N2_11  and  N3_12 
REMARK    7  A    between atoms: N3_12  and  C8_14 
REMARK    8  A    between atoms: C11_18  and  N4_19 
REMARK    9  A    between atoms: C12_24  and  N6_25 
ROOT
HETATM    1  C6  UNL     1     111.558  91.147  26.699  1.00  0.00     0.193 C 
HETATM    2  C7  UNL     1     111.471  89.795  26.141  1.00  0.00     0.131 C 
HETATM    3  N1  UNL     1     111.409  88.730  25.694  1.00  0.00    -0.189 NA
ENDROOT
BRANCH   1   4
HETATM    4  C5  UNL     1     110.848  92.286  26.024  1.00  0.00     0.145 C 
BRANCH   4   5
HETATM    5  C4  UNL     1     111.734  93.194  25.282  1.00  0.00     0.056 A 
HETATM    6  C3  UNL     1     111.751  93.388  23.945  1.00  0.00     0.131 A 
HETATM    7  C13 UNL     1     112.596  94.393  23.412  1.00  0.00     0.278 A 
HETATM    8  N7  UNL     1     113.370  95.144  24.188  1.00  0.00    -0.155 N 
HETATM    9  O6  UNL     1     112.590  94.557  22.168  1.00  0.00    -0.266 OA
HETATM   10  C12 UNL     1     113.339  94.928  25.509  1.00  0.00     0.679 A 
ATOM     11  H7  UNL     1     113.970  95.865  23.788  1.00  0.00     0.187 HD
HETATM   12  N5  UNL     1     112.561  93.998  26.059  1.00  0.00    -0.194 N 
ATOM     13  H5  UNL     1     112.571  93.872  27.072  1.00  0.00     0.184 HD
BRANCH   6  14
HETATM   14  C2  UNL     1     111.056  92.522  23.017  1.00  0.00     0.300 C 
HETATM   15  O2  UNL     1     111.425  91.466  22.498  1.00  0.00    -0.259 OA
BRANCH  14  16
HETATM   16  O1  UNL     1     109.753  92.911  22.623  1.00  0.00    -0.322 OA
HETATM   17  C1  UNL     1     108.596  92.226  23.031  1.00  0.00     0.213 C 
ENDBRANCH  14  16
ENDBRANCH   6  14
BRANCH  10  18
HETATM   18  N6  UNL     1     114.097  95.637  26.288  1.00  0.00    -0.234 N 
ATOM     19  H62 UNL     1     115.047  95.323  26.486  1.00  0.00     0.174 HD
ATOM     20  H61 UNL     1     113.713  96.494  26.688  1.00  0.00     0.174 HD
ENDBRANCH  10  18
ENDBRANCH   4   5
ENDBRANCH   1   4
BRANCH   1  21
HETATM   21  N2  UNL     1     112.157  91.244  27.753  1.00  0.00    -0.317 NA
BRANCH  21  22
HETATM   22  N3  UNL     1     113.068  91.481  28.636  1.00  0.00    -0.210 N 
ATOM     23  H3  UNL     1     113.804  90.791  28.785  1.00  0.00     0.204 HD
BRANCH  22  24
HETATM   24  C8  UNL     1     113.077  92.702  29.426  1.00  0.00     0.206 A 
HETATM   25  O3  UNL     1     113.205  93.894  28.863  1.00  0.00    -0.302 OA
HETATM   26  C9  UNL     1     113.194  94.834  29.757  1.00  0.00     0.147 A 
HETATM   27  C10 UNL     1     113.047  94.240  31.003  1.00  0.00     0.065 A 
HETATM   28  C11 UNL     1     112.974  92.862  30.773  1.00  0.00     0.158 A 
BRANCH  28  29
HETATM   29  N4  UNL     1     112.848  91.853  31.733  1.00  0.00    -0.111 N 
HETATM   30  O4  UNL     1     112.607  90.678  31.319  1.00  0.00    -0.532 OA
HETATM   31  O5  UNL     1     112.961  92.032  33.082  1.00  0.00    -0.532 OA
ENDBRANCH  28  29
ENDBRANCH  22  24
ENDBRANCH  21  22
ENDBRANCH   1  21
TORSDOF 9
ENDMDL
MODEL 4
REMARK VINA RESULT: -7.711115170      2.219      6.365
REMARK  9 active torsions:
REMARK  status: ('A' for Active; 'I' for Inactive)
REMARK    1  A    between atoms: O1_2  and  C2_3 
REMARK    2  A    between atoms: C2_3  and  C3_5 
REMARK    3  A    between atoms: C4_6  and  C5_7 
REMARK    4  A    between atoms: C5_7  and  C6_8 
REMARK    5  A    between atoms: C6_8  and  N2_11 
REMARK    6  A    between atoms: N2_11  and  N3_12 
REMARK    7  A    between atoms: N3_12  and  C8_14 
REMARK    8  A    between atoms: C11_18  and  N4_19 
REMARK    9  A    between atoms: C12_24  and  N6_25 
ROOT
HETATM    1  C6  UNL     1     112.362  94.480  25.223  1.00  0.00     0.193 C 
HETATM    2  C7  UNL     1     113.288  95.321  25.987  1.00  0.00     0.131 C 
HETATM    3  N1  UNL     1     114.022  95.976  26.595  1.00  0.00    -0.189 NA
ENDROOT
BRANCH   1   4
HETATM    4  C5  UNL     1     111.157  93.886  25.895  1.00  0.00     0.145 C 
BRANCH   4   5
HETATM    5  C4  UNL     1     111.346  92.504  26.358  1.00  0.00     0.056 A 
HETATM    6  C3  UNL     1     111.184  91.381  25.624  1.00  0.00     0.131 A 
HETATM    7  C13 UNL     1     111.525  90.133  26.204  1.00  0.00     0.278 A 
HETATM    8  N7  UNL     1     111.992  90.039  27.444  1.00  0.00    -0.155 N 
HETATM    9  O6  UNL     1     111.370  89.105  25.501  1.00  0.00    -0.266 OA
HETATM   10  C12 UNL     1     112.137  91.166  28.152  1.00  0.00     0.679 A 
ATOM     11  H7  UNL     1     112.235  89.132  27.845  1.00  0.00     0.187 HD
HETATM   12  N5  UNL     1     111.835  92.363  27.652  1.00  0.00    -0.194 N 
ATOM     13  H5  UNL     1     111.965  93.193  28.231  1.00  0.00     0.184 HD
BRANCH   6  14
HETATM   14  C2  UNL     1     110.546  91.376  24.327  1.00  0.00     0.300 C 
HETATM   15  O2  UNL     1     111.049  91.338  23.202  1.00  0.00    -0.259 OA
BRANCH  14  16
HETATM   16  O1  UNL     1     109.130  91.419  24.303  1.00  0.00    -0.322 OA
HETATM   17  C1  UNL     1     108.400  91.891  23.199  1.00  0.00     0.213 C 
ENDBRANCH  14  16
ENDBRANCH   6  14
BRANCH  10  18
HETATM   18  N6  UNL     1     112.578  91.100  29.371  1.00  0.00    -0.234 N 
ATOM     19  H62 UNL     1     111.979  91.406  30.138  1.00  0.00     0.174 HD
ATOM     20  H61 UNL     1     113.523  90.748  29.526  1.00  0.00     0.174 HD
ENDBRANCH  10  18
ENDBRANCH   4   5
ENDBRANCH   1   4
BRANCH   1  21
HETATM   21  N2  UNL     1     112.599  94.383  24.034  1.00  0.00    -0.317 NA
BRANCH  21  22
HETATM   22  N3  UNL     1     112.565  94.020  22.796  1.00  0.00    -0.210 N 
ATOM     23  H3  UNL     1     113.339  93.473  22.420  1.00  0.00     0.204 HD
BRANCH  22  24
HETATM   24  C8  UNL     1     111.456  94.367  21.921  1.00  0.00     0.206 A 
HETATM   25  O3  UNL     1     110.303  94.808  22.401  1.00  0.00    -0.302 OA
HETATM   26  C9  UNL     1     109.462  95.046  21.442  1.00  0.00     0.147 A 
HETATM   27  C10 UNL     1     110.086  94.749  20.238  1.00  0.00     0.065 A 
HETATM   28  C11 UNL     1     111.374  94.311  20.565  1.00  0.00     0.158 A 
BRANCH  28  29
HETATM   29  N4  UNL     1     112.367  93.876  19.679  1.00  0.00    -0.111 N 
HETATM   30  O4  UNL     1     113.573  94.120  19.987  1.00  0.00    -0.532 OA
HETATM   31  O5  UNL     1     112.139  93.214  18.507  1.00  0.00    -0.532 OA
ENDBRANCH  28  29
ENDBRANCH  22  24
ENDBRANCH  21  22
ENDBRANCH   1  21
TORSDOF 9
ENDMDL
MODEL 5
REMARK VINA RESULT: -7.689007904      4.195      7.217
REMARK  9 active torsions:
REMARK  status: ('A' for Active; 'I' for Inactive)
REMARK    1  A    between atoms: O1_2  and  C2_3 
REMARK    2  A    between atoms: C2_3  and  C3_5 
REMARK    3  A    between atoms: C4_6  and  C5_7 
REMARK    4  A    between atoms: C5_7  and  C6_8 
REMARK    5  A    between atoms: C6_8  and  N2_11 
REMARK    6  A    between atoms: N2_11  and  N3_12 
REMARK    7  A    between atoms: N3_12  and  C8_14 
REMARK    8  A    between atoms: C11_18  and  N4_19 
REMARK    9  A    between atoms: C12_24  and  N6_25 
ROOT
HETATM    1  C6  UNL     1     111.917  93.451  28.540  1.00  0.00     0.193 C 
HETATM    2  C7  UNL     1     110.775  94.054  29.232  1.00  0.00     0.131 C 
HETATM    3  N1  UNL     1     109.869  94.520  29.779  1.00  0.00    -0.189 NA
ENDROOT
BRANCH   1   4
HETATM    4  C5  UNL     1     111.725  92.790  27.205  1.00  0.00     0.145 C 
BRANCH   4   5
HETATM    5  C4  UNL     1     111.775  91.322  27.246  1.00  0.00     0.056 A 
HETATM    6  C3  UNL     1     111.393  90.476  26.264  1.00  0.00     0.131 A 
HETATM    7  C13 UNL     1     111.622  89.087  26.433  1.00  0.00     0.278 A 
HETATM    8  N7  UNL     1     112.196  88.598  27.526  1.00  0.00    -0.155 N 
HETATM    9  O6  UNL     1     111.263  88.322  25.505  1.00  0.00    -0.266 OA
HETATM   10  C12 UNL     1     112.559  89.457  28.487  1.00  0.00     0.679 A 
ATOM     11  H7  UNL     1     112.356  87.596  27.630  1.00  0.00     0.187 HD
HETATM   12  N5  UNL     1     112.369  90.770  28.376  1.00  0.00    -0.194 N 
ATOM     13  H5  UNL     1     112.665  91.384  29.135  1.00  0.00     0.184 HD
BRANCH   6  14
HETATM   14  C2  UNL     1     110.632  90.904  25.111  1.00  0.00     0.300 C 
HETATM   15  O2  UNL     1     109.413  91.035  24.977  1.00  0.00    -0.259 OA
BRANCH  14  16
HETATM   16  O1  UNL     1     111.360  91.232  23.941  1.00  0.00    -0.322 OA
HETATM   17  C1  UNL     1     111.265  92.483  23.310  1.00  0.00     0.213 C 
ENDBRANCH  14  16
ENDBRANCH   6  14
BRANCH  10  18
HETATM   18  N6  UNL     1     113.109  89.003  29.572  1.00  0.00    -0.234 N 
ATOM     19  H62 UNL     1     113.850  88.306  29.505  1.00  0.00     0.174 HD
ATOM     20  H61 UNL     1     112.775  89.357  30.469  1.00  0.00     0.174 HD
ENDBRANCH  10  18
ENDBRANCH   4   5
ENDBRANCH   1   4
BRANCH   1  21
HETATM   21  N2  UNL     1     112.998  93.602  29.079  1.00  0.00    -0.317 NA
BRANCH  21  22
HETATM   22  N3  UNL     1     114.134  93.376  29.646  1.00  0.00    -0.210 N 
ATOM     23  H3  UNL     1     114.915  93.050  29.076  1.00  0.00     0.204 HD
BRANCH  22  24
HETATM   24  C8  UNL     1     114.337  93.571  31.073  1.00  0.00     0.206 A 
HETATM   25  O3  UNL     1     115.407  94.192  31.546  1.00  0.00    -0.302 OA
HETATM   26  C9  UNL     1     115.379  94.243  32.842  1.00  0.00     0.147 A 
HETATM   27  C10 UNL     1     114.217  93.618  33.272  1.00  0.00     0.065 A 
HETATM   28  C11 UNL     1     113.554  93.188  32.118  1.00  0.00     0.158 A 
BRANCH  28  29
HETATM   29  N4  UNL     1     112.347  92.484  32.052  1.00  0.00    -0.111 N 
HETATM   30  O4  UNL     1     111.352  92.971  32.668  1.00  0.00    -0.532 OA
HETATM   31  O5  UNL     1     112.158  91.311  31.379  1.00  0.00    -0.532 OA
ENDBRANCH  28  29
ENDBRANCH  22  24
ENDBRANCH  21  22
ENDBRANCH   1  21
TORSDOF 9
ENDMDL
