MODEL 1
REMARK VINA RESULT: -6.810464842      0.000      0.000
REMARK  9 active torsions:
REMARK  status: ('A' for Active; 'I' for Inactive)
REMARK    1  A    between atoms: O1_2  and  C2_3 
REMARK    2  A    between atoms: C2_3  and  C3_5 
REMARK    3  A    between atoms: C4_6  and  S1_7 
REMARK    4  A    between atoms: C7_15  and  N3_16 
REMARK    5  A    between atoms: C8_19  and  S2_20 
REMARK    6  A    between atoms: S2_20  and  C9_21 
REMARK    7  A    between atoms: C9_21  and  C10_22 
REMARK    8  A    between atoms: N4_23  and  N5_25 
REMARK    9  A    between atoms: N6_28  and  N7_30 
ROOT
HETATM    1  C3  UNL     1     111.588  92.343  25.831  1.00  0.00     0.092 A 
HETATM    2  C4  UNL     1     111.965  92.489  27.157  1.00  0.00     0.088 A 
HETATM    3  N1  UNL     1     112.627  93.584  27.519  1.00  0.00    -0.334 N 
ATOM      4  H1  UNL     1     112.914  93.708  28.490  1.00  0.00     0.168 HD
HETATM    5  C6  UNL     1     112.922  94.530  26.607  1.00  0.00     0.134 A 
HETATM    6  N2  UNL     1     113.566  95.571  27.023  1.00  0.00    -0.383 N 
ATOM      7  H21 UNL     1     113.789  96.288  26.333  1.00  0.00     0.157 HD
ATOM      8  H22 UNL     1     113.832  95.653  28.004  1.00  0.00     0.157 HD
HETATM    9  C7  UNL     1     112.561  94.419  25.279  1.00  0.00     0.164 A 
HETATM   10  C8  UNL     1     111.875  93.295  24.877  1.00  0.00     0.063 A 
ENDROOT
BRANCH  10  11
HETATM   11  S2  UNL     1     111.409  93.146  23.161  1.00  0.00    -0.066 SA
BRANCH  11  12
HETATM   12  C9  UNL     1     109.761  93.777  22.871  1.00  0.00     0.106 C 
HETATM   13  N6  UNL     1     108.883  92.897  22.506  1.00  0.00    -0.299 N 
ATOM     14  H6  UNL     1     107.932  93.221  22.332  1.00  0.00     0.187 HD
BRANCH  12  15
HETATM   15  C10 UNL     1     109.425  95.165  23.028  1.00  0.00     0.145 C 
HETATM   16  N4  UNL     1     109.057  95.640  24.156  1.00  0.00    -0.316 N 
ATOM     17  H4  UNL     1     108.833  96.634  24.199  1.00  0.00     0.185 HD
BRANCH  16  18
HETATM   18  N5  UNL     1     108.939  94.904  25.326  1.00  0.00    -0.345 N 
ATOM     19  H52 UNL     1     108.002  94.822  25.720  1.00  0.00     0.176 HD
ATOM     20  H51 UNL     1     109.714  94.446  25.806  1.00  0.00     0.176 HD
ENDBRANCH  16  18
ENDBRANCH  12  15
BRANCH  13  21
HETATM   21  N7  UNL     1     109.141  91.547  22.336  1.00  0.00    -0.344 N 
ATOM     22  H72 UNL     1     109.039  90.956  23.161  1.00  0.00     0.176 HD
ATOM     23  H71 UNL     1     109.420  91.114  21.456  1.00  0.00     0.176 HD
ENDBRANCH  13  21
ENDBRANCH  11  12
ENDBRANCH  10  11
BRANCH   1  24
HETATM   24  C2  UNL     1     110.860  91.162  25.393  1.00  0.00     0.297 C 
HETATM   25  O2  UNL     1     109.613  91.196  25.261  1.00  0.00    -0.259 OA
BRANCH  24  26
HETATM   26  O1  UNL     1     111.546  90.012  25.124  1.00  0.00    -0.322 OA
HETATM   27  C1  UNL     1     111.444  88.827  25.891  1.00  0.00     0.213 C 
ENDBRANCH  24  26
ENDBRANCH   1  24
BRANCH   9  28
HETATM   28  N3  UNL     1     112.910  95.470  24.364  1.00  0.00    -0.110 N 
HETATM   29  O3  UNL     1     112.169  96.446  24.148  1.00  0.00    -0.532 OA
HETATM   30  O4  UNL     1     114.114  95.415  23.684  1.00  0.00    -0.532 OA
ENDBRANCH   9  28
BRANCH   2  31
HETATM   31  S1  UNL     1     111.521  91.165  28.277  1.00  0.00    -0.116 SA
HETATM   32  C5  UNL     1     112.946  90.448  29.087  1.00  0.00     0.097 C 
ENDBRANCH   2  31
TORSDOF 9
ENDMDL
MODEL 2
REMARK VINA RESULT: -6.803658889      1.006      1.338
REMARK  9 active torsions:
REMARK  status: ('A' for Active; 'I' for Inactive)
REMARK    1  A    between atoms: O1_2  and  C2_3 
REMARK    2  A    between atoms: C2_3  and  C3_5 
REMARK    3  A    between atoms: C4_6  and  S1_7 
REMARK    4  A    between atoms: C7_15  and  N3_16 
REMARK    5  A    between atoms: C8_19  and  S2_20 
REMARK    6  A    between atoms: S2_20  and  C9_21 
REMARK    7  A    between atoms: C9_21  and  C10_22 
REMARK    8  A    between atoms: N4_23  and  N5_25 
REMARK    9  A    between atoms: N6_28  and  N7_30 
ROOT
HETATM    1  C3  UNL     1     111.588  92.277  25.887  1.00  0.00     0.092 A 
HETATM    2  C4  UNL     1     111.922  92.566  27.202  1.00  0.00     0.088 A 
HETATM    3  N1  UNL     1     112.501  93.732  27.474  1.00  0.00    -0.334 N 
ATOM      4  H1  UNL     1     112.753  93.962  28.435  1.00  0.00     0.168 HD
HETATM    5  C6  UNL     1     112.756  94.610  26.485  1.00  0.00     0.134 A 
HETATM    6  N2  UNL     1     113.319  95.725  26.817  1.00  0.00    -0.383 N 
ATOM      7  H21 UNL     1     113.513  96.390  26.068  1.00  0.00     0.157 HD
ATOM      8  H22 UNL     1     113.555  95.913  27.791  1.00  0.00     0.157 HD
HETATM    9  C7  UNL     1     112.438  94.355  25.167  1.00  0.00     0.164 A 
HETATM   10  C8  UNL     1     111.837  93.155  24.855  1.00  0.00     0.063 A 
ENDROOT
BRANCH  10  11
HETATM   11  S2  UNL     1     111.426  92.822  23.152  1.00  0.00    -0.066 SA
BRANCH  11  12
HETATM   12  C9  UNL     1     110.008  93.771  22.620  1.00  0.00     0.106 C 
HETATM   13  N6  UNL     1     110.241  94.660  21.707  1.00  0.00    -0.299 N 
ATOM     14  H6  UNL     1     109.454  95.220  21.380  1.00  0.00     0.187 HD
BRANCH  12  15
HETATM   15  C10 UNL     1     108.693  93.567  23.163  1.00  0.00     0.145 C 
HETATM   16  N4  UNL     1     108.283  94.217  24.185  1.00  0.00    -0.316 N 
ATOM     17  H4  UNL     1     107.339  94.024  24.519  1.00  0.00     0.185 HD
BRANCH  16  18
HETATM   18  N5  UNL     1     109.027  95.164  24.871  1.00  0.00    -0.345 N 
ATOM     19  H52 UNL     1     108.948  95.156  25.888  1.00  0.00     0.176 HD
ATOM     20  H51 UNL     1     109.637  95.855  24.433  1.00  0.00     0.176 HD
ENDBRANCH  16  18
ENDBRANCH  12  15
BRANCH  13  21
HETATM   21  N7  UNL     1     111.481  94.906  21.143  1.00  0.00    -0.344 N 
ATOM     22  H72 UNL     1     112.045  94.089  20.908  1.00  0.00     0.176 HD
ATOM     23  H71 UNL     1     111.860  95.833  20.951  1.00  0.00     0.176 HD
ENDBRANCH  13  21
ENDBRANCH  11  12
ENDBRANCH  10  11
BRANCH   1  24
HETATM   24  C2  UNL     1     110.952  91.014  25.545  1.00  0.00     0.297 C 
HETATM   25  O2  UNL     1     109.707  90.949  25.401  1.00  0.00    -0.259 OA
BRANCH  24  26
HETATM   26  O1  UNL     1     111.719  89.897  25.380  1.00  0.00    -0.322 OA
HETATM   27  C1  UNL     1     111.421  88.636  25.948  1.00  0.00     0.213 C 
ENDBRANCH  24  26
ENDBRANCH   1  24
BRANCH   9  28
HETATM   28  N3  UNL     1     112.740  95.341  24.166  1.00  0.00    -0.110 N 
HETATM   29  O3  UNL     1     113.793  95.327  23.506  1.00  0.00    -0.532 OA
HETATM   30  O4  UNL     1     111.835  96.357  23.911  1.00  0.00    -0.532 OA
ENDBRANCH   9  28
BRANCH   2  31
HETATM   31  S1  UNL     1     111.536  91.322  28.429  1.00  0.00    -0.116 SA
HETATM   32  C5  UNL     1     113.000  90.510  29.063  1.00  0.00     0.097 C 
ENDBRANCH   2  31
TORSDOF 9
ENDMDL
MODEL 3
REMARK VINA RESULT: -6.739326565      2.507      3.185
REMARK  9 active torsions:
REMARK  status: ('A' for Active; 'I' for Inactive)
REMARK    1  A    between atoms: O1_2  and  C2_3 
REMARK    2  A    between atoms: C2_3  and  C3_5 
REMARK    3  A    between atoms: C4_6  and  S1_7 
REMARK    4  A    between atoms: C7_15  and  N3_16 
REMARK    5  A    between atoms: C8_19  and  S2_20 
REMARK    6  A    between atoms: S2_20  and  C9_21 
REMARK    7  A    between atoms: C9_21  and  C10_22 
REMARK    8  A    between atoms: N4_23  and  N5_25 
REMARK    9  A    between atoms: N6_28  and  N7_30 
ROOT
HETATM    1  C3  UNL     1     111.173  93.131  24.201  1.00  0.00     0.092 A 
HETATM    2  C4  UNL     1     111.719  93.193  25.474  1.00  0.00     0.088 A 
HETATM    3  N1  UNL     1     112.317  94.316  25.861  1.00  0.00    -0.334 N 
ATOM      4  H1  UNL     1     112.724  94.379  26.794  1.00  0.00     0.168 HD
HETATM    5  C6  UNL     1     112.386  95.369  25.025  1.00  0.00     0.134 A 
HETATM    6  N2  UNL     1     112.979  96.432  25.463  1.00  0.00    -0.383 N 
ATOM      7  H21 UNL     1     113.032  97.230  24.830  1.00  0.00     0.157 HD
ATOM      8  H22 UNL     1     113.373  96.451  26.404  1.00  0.00     0.157 HD
HETATM    9  C7  UNL     1     111.854  95.343  23.752  1.00  0.00     0.164 A 
HETATM   10  C8  UNL     1     111.229  94.193  23.325  1.00  0.00     0.063 A 
ENDROOT
BRANCH  10  11
HETATM   11  S2  UNL     1     110.541  94.154  21.679  1.00  0.00    -0.066 SA
BRANCH  11  12
HETATM   12  C9  UNL     1     111.720  93.531  20.488  1.00  0.00     0.106 C 
HETATM   13  N6  UNL     1     111.418  92.395  19.946  1.00  0.00    -0.299 N 
ATOM     14  H6  UNL     1     112.068  92.010  19.261  1.00  0.00     0.187 HD
BRANCH  12  15
HETATM   15  C10 UNL     1     112.925  94.238  20.151  1.00  0.00     0.145 C 
HETATM   16  N4  UNL     1     112.899  95.444  19.729  1.00  0.00    -0.316 N 
ATOM     17  H4  UNL     1     113.790  95.887  19.508  1.00  0.00     0.185 HD
BRANCH  16  18
HETATM   18  N5  UNL     1     111.746  96.195  19.551  1.00  0.00    -0.345 N 
ATOM     19  H52 UNL     1     110.958  95.971  20.159  1.00  0.00     0.176 HD
ATOM     20  H51 UNL     1     111.638  96.941  18.865  1.00  0.00     0.176 HD
ENDBRANCH  16  18
ENDBRANCH  12  15
BRANCH  13  21
HETATM   21  N7  UNL     1     110.275  91.665  20.226  1.00  0.00    -0.344 N 
ATOM     22  H72 UNL     1     109.916  91.076  19.475  1.00  0.00     0.176 HD
ATOM     23  H71 UNL     1     109.780  91.677  21.117  1.00  0.00     0.176 HD
ENDBRANCH  13  21
ENDBRANCH  11  12
ENDBRANCH  10  11
BRANCH   1  24
HETATM   24  C2  UNL     1     110.508  91.922  23.738  1.00  0.00     0.297 C 
HETATM   25  O2  UNL     1     111.123  91.094  23.024  1.00  0.00    -0.259 OA
BRANCH  24  26
HETATM   26  O1  UNL     1     109.209  91.693  24.088  1.00  0.00    -0.322 OA
HETATM   27  C1  UNL     1     108.119  91.757  23.188  1.00  0.00     0.213 C 
ENDBRANCH  24  26
ENDBRANCH   1  24
BRANCH   9  28
HETATM   28  N3  UNL     1     111.966  96.508  22.918  1.00  0.00    -0.110 N 
HETATM   29  O3  UNL     1     113.048  96.888  22.437  1.00  0.00    -0.532 OA
HETATM   30  O4  UNL     1     110.836  97.251  22.624  1.00  0.00    -0.532 OA
ENDBRANCH   9  28
BRANCH   2  31
HETATM   31  S1  UNL     1     111.567  91.730  26.494  1.00  0.00    -0.116 SA
HETATM   32  C5  UNL     1     112.187  91.986  28.153  1.00  0.00     0.097 C 
ENDBRANCH   2  31
TORSDOF 9
ENDMDL
MODEL 4
REMARK VINA RESULT: -6.640573241      2.490      3.781
REMARK  9 active torsions:
REMARK  status: ('A' for Active; 'I' for Inactive)
REMARK    1  A    between atoms: O1_2  and  C2_3 
REMARK    2  A    between atoms: C2_3  and  C3_5 
REMARK    3  A    between atoms: C4_6  and  S1_7 
REMARK    4  A    between atoms: C7_15  and  N3_16 
REMARK    5  A    between atoms: C8_19  and  S2_20 
REMARK    6  A    between atoms: S2_20  and  C9_21 
REMARK    7  A    between atoms: C9_21  and  C10_22 
REMARK    8  A    between atoms: N4_23  and  N5_25 
REMARK    9  A    between atoms: N6_28  and  N7_30 
ROOT
HETATM    1  C3  UNL     1     111.183  91.355  26.171  1.00  0.00     0.092 A 
HETATM    2  C4  UNL     1     111.716  90.231  26.783  1.00  0.00     0.088 A 
HETATM    3  N1  UNL     1     112.358  90.373  27.939  1.00  0.00    -0.334 N 
ATOM      4  H1  UNL     1     112.757  89.558  28.403  1.00  0.00     0.168 HD
HETATM    5  C6  UNL     1     112.484  91.592  28.498  1.00  0.00     0.134 A 
HETATM    6  N2  UNL     1     113.118  91.662  29.623  1.00  0.00    -0.383 N 
ATOM      7  H21 UNL     1     113.214  92.585  30.047  1.00  0.00     0.157 HD
ATOM      8  H22 UNL     1     113.501  90.820  30.051  1.00  0.00     0.157 HD
HETATM    9  C7  UNL     1     111.966  92.732  27.918  1.00  0.00     0.164 A 
HETATM   10  C8  UNL     1     111.297  92.613  26.720  1.00  0.00     0.063 A 
ENDROOT
BRANCH  10  11
HETATM   11  S2  UNL     1     110.628  94.085  25.966  1.00  0.00    -0.066 SA
BRANCH  11  12
HETATM   12  C9  UNL     1     111.796  94.836  24.840  1.00  0.00     0.106 C 
HETATM   13  N6  UNL     1     111.280  95.589  23.921  1.00  0.00    -0.299 N 
ATOM     14  H6  UNL     1     111.918  96.033  23.261  1.00  0.00     0.187 HD
BRANCH  12  15
HETATM   15  C10 UNL     1     113.213  94.623  24.941  1.00  0.00     0.145 C 
HETATM   16  N4  UNL     1     113.953  95.375  25.663  1.00  0.00    -0.316 N 
ATOM     17  H4  UNL     1     114.951  95.169  25.691  1.00  0.00     0.185 HD
BRANCH  16  18
HETATM   18  N5  UNL     1     113.498  96.450  26.412  1.00  0.00    -0.345 N 
ATOM     19  H52 UNL     1     112.599  96.331  26.880  1.00  0.00     0.176 HD
ATOM     20  H51 UNL     1     113.994  97.334  26.523  1.00  0.00     0.176 HD
ENDBRANCH  16  18
ENDBRANCH  12  15
BRANCH  13  21
HETATM   21  N7  UNL     1     109.926  95.835  23.768  1.00  0.00    -0.344 N 
ATOM     22  H72 UNL     1     109.419  96.127  24.603  1.00  0.00     0.176 HD
ATOM     23  H71 UNL     1     109.413  95.744  22.892  1.00  0.00     0.176 HD
ENDBRANCH  13  21
ENDBRANCH  11  12
ENDBRANCH  10  11
BRANCH   1  24
HETATM   24  C2  UNL     1     110.472  91.243  24.907  1.00  0.00     0.297 C 
HETATM   25  O2  UNL     1     109.233  91.043  24.891  1.00  0.00    -0.259 OA
BRANCH  24  26
HETATM   26  O1  UNL     1     111.162  91.360  23.734  1.00  0.00    -0.322 OA
HETATM   27  C1  UNL     1     110.710  92.098  22.615  1.00  0.00     0.213 C 
ENDBRANCH  24  26
ENDBRANCH   1  24
BRANCH   9  28
HETATM   28  N3  UNL     1     112.140  93.998  28.575  1.00  0.00    -0.110 N 
HETATM   29  O3  UNL     1     113.214  94.624  28.554  1.00  0.00    -0.532 OA
HETATM   30  O4  UNL     1     111.080  94.562  29.265  1.00  0.00    -0.532 OA
ENDBRANCH   9  28
BRANCH   2  31
HETATM   31  S1  UNL     1     111.488  88.666  25.945  1.00  0.00    -0.116 SA
HETATM   32  C5  UNL     1     112.270  87.307  26.809  1.00  0.00     0.097 C 
ENDBRANCH   2  31
TORSDOF 9
ENDMDL
MODEL 5
REMARK VINA RESULT: -6.593063542      2.394      4.338
REMARK  9 active torsions:
REMARK  status: ('A' for Active; 'I' for Inactive)
REMARK    1  A    between atoms: O1_2  and  C2_3 
REMARK    2  A    between atoms: C2_3  and  C3_5 
REMARK    3  A    between atoms: C4_6  and  S1_7 
REMARK    4  A    between atoms: C7_15  and  N3_16 
REMARK    5  A    between atoms: C8_19  and  S2_20 
REMARK    6  A    between atoms: S2_20  and  C9_21 
REMARK    7  A    between atoms: C9_21  and  C10_22 
REMARK    8  A    between atoms: N4_23  and  N5_25 
REMARK    9  A    between atoms: N6_28  and  N7_30 
ROOT
HETATM    1  C3  UNL     1     111.960  92.817  27.293  1.00  0.00     0.092 A 
HETATM    2  C4  UNL     1     112.254  91.668  28.011  1.00  0.00     0.088 A 
HETATM    3  N1  UNL     1     111.955  90.486  27.480  1.00  0.00    -0.334 N 
ATOM      4  H1  UNL     1     112.164  89.630  27.993  1.00  0.00     0.168 HD
HETATM    5  C6  UNL     1     111.376  90.416  26.266  1.00  0.00     0.134 A 
HETATM    6  N2  UNL     1     111.112  89.236  25.806  1.00  0.00    -0.383 N 
ATOM      7  H21 UNL     1     110.673  89.183  24.887  1.00  0.00     0.157 HD
ATOM      8  H22 UNL     1     111.338  88.407  26.354  1.00  0.00     0.157 HD
HETATM    9  C7  UNL     1     111.069  91.538  25.524  1.00  0.00     0.164 A 
HETATM   10  C8  UNL     1     111.368  92.775  26.050  1.00  0.00     0.063 A 
ENDROOT
BRANCH  10  11
HETATM   11  S2  UNL     1     110.971  94.229  25.095  1.00  0.00    -0.066 SA
BRANCH  11  12
HETATM   12  C9  UNL     1     112.160  94.502  23.788  1.00  0.00     0.106 C 
HETATM   13  N6  UNL     1     111.686  94.454  22.584  1.00  0.00    -0.299 N 
ATOM     14  H6  UNL     1     112.337  94.606  21.813  1.00  0.00     0.187 HD
BRANCH  12  15
HETATM   15  C10 UNL     1     113.550  94.757  24.049  1.00  0.00     0.145 C 
HETATM   16  N4  UNL     1     113.923  95.692  24.836  1.00  0.00    -0.316 N 
ATOM     17  H4  UNL     1     114.925  95.819  24.977  1.00  0.00     0.185 HD
BRANCH  16  18
HETATM   18  N5  UNL     1     113.065  96.547  25.512  1.00  0.00    -0.345 N 
ATOM     19  H52 UNL     1     112.603  97.265  24.954  1.00  0.00     0.176 HD
ATOM     20  H51 UNL     1     112.869  96.503  26.512  1.00  0.00     0.176 HD
ENDBRANCH  16  18
ENDBRANCH  12  15
BRANCH  13  21
HETATM   21  N7  UNL     1     110.361  94.213  22.265  1.00  0.00    -0.344 N 
ATOM     22  H72 UNL     1     110.019  94.625  21.396  1.00  0.00     0.176 HD
ATOM     23  H71 UNL     1     109.717  93.662  22.831  1.00  0.00     0.176 HD
ENDBRANCH  13  21
ENDBRANCH  11  12
ENDBRANCH  10  11
BRANCH   1  24
HETATM   24  C2  UNL     1     112.272  94.130  27.837  1.00  0.00     0.297 C 
HETATM   25  O2  UNL     1     113.406  94.637  27.661  1.00  0.00    -0.259 OA
BRANCH  24  26
HETATM   26  O1  UNL     1     111.320  94.810  28.541  1.00  0.00    -0.322 OA
HETATM   27  C1  UNL     1     111.604  95.783  29.529  1.00  0.00     0.213 C 
ENDBRANCH  24  26
ENDBRANCH   1  24
BRANCH   9  28
HETATM   28  N3  UNL     1     110.452  91.384  24.236  1.00  0.00    -0.110 N 
HETATM   29  O3  UNL     1     111.108  91.297  23.183  1.00  0.00    -0.532 OA
HETATM   30  O4  UNL     1     109.072  91.328  24.140  1.00  0.00    -0.532 OA
ENDBRANCH   9  28
BRANCH   2  31
HETATM   31  S1  UNL     1     113.021  91.886  29.614  1.00  0.00    -0.116 SA
HETATM   32  C5  UNL     1     112.775  90.475  30.687  1.00  0.00     0.097 C 
ENDBRANCH   2  31
TORSDOF 9
ENDMDL
