MODEL 1
REMARK VINA RESULT: -7.706951091      0.000      0.000
REMARK  10 active torsions:
REMARK  status: ('A' for Active; 'I' for Inactive)
REMARK    1  A    between atoms: C2_2  and  C3_3 
REMARK    2  A    between atoms: C3_3  and  C4_4 
REMARK    3  A    between atoms: C5_5  and  C6_6 
REMARK    4  A    between atoms: C6_6  and  O1_7 
REMARK    5  A    between atoms: O1_7  and  C7_8 
REMARK    6  A    between atoms: C7_8  and  N2_12 
REMARK    7  A    between atoms: N2_12  and  N3_14 
REMARK    8  A    between atoms: C8_16  and  C10_19 
REMARK    9  A    between atoms: N5_20  and  N6_22 
REMARK   10  A    between atoms: N6_22  and  C12_24 
ROOT
HETATM    1  N3  UNL     1     113.725  91.674  31.373  1.00  0.00    -0.286 N 
ATOM      2  H3  UNL     1     114.491  91.343  31.959  1.00  0.00     0.188 HD
HETATM    3  C8  UNL     1     113.665  92.943  31.140  1.00  0.00     0.145 C 
HETATM    4  C9  UNL     1     114.664  93.833  31.705  1.00  0.00     0.120 C 
HETATM    5  N4  UNL     1     115.474  94.530  32.158  1.00  0.00    -0.190 NA
ENDROOT
BRANCH   3   6
HETATM    6  C10 UNL     1     112.625  93.542  30.322  1.00  0.00     0.149 C 
HETATM    7  N5  UNL     1     112.791  93.630  29.055  1.00  0.00    -0.305 N 
ATOM      8  H5  UNL     1     113.648  93.281  28.626  1.00  0.00     0.186 HD
BRANCH   7   9
HETATM    9  N6  UNL     1     111.808  94.198  28.271  1.00  0.00    -0.274 N 
HETATM   10  C11 UNL     1     110.462  94.304  28.738  1.00  0.00     0.180 C 
BRANCH   9  11
HETATM   11  C12 UNL     1     112.151  94.683  26.975  1.00  0.00     0.183 A 
HETATM   12  N7  UNL     1     111.434  94.706  25.861  1.00  0.00    -0.276 N 
HETATM   13  N8  UNL     1     111.913  95.183  24.792  1.00  0.00    -0.278 N 
ATOM     14  H7  UNL     1     110.484  94.335  25.865  1.00  0.00     0.189 HD
HETATM   15  C13 UNL     1     113.159  95.666  24.800  1.00  0.00     0.160 A 
ATOM     16  H8  UNL     1     111.357  95.198  23.937  1.00  0.00     0.189 HD
HETATM   17  N9  UNL     1     113.824  96.196  23.800  1.00  0.00    -0.378 N 
HETATM   18  S1  UNL     1     113.622  95.405  26.422  1.00  0.00    -0.014 SA
ATOM     19  H92 UNL     1     113.547  96.351  22.830  1.00  0.00     0.158 HD
ATOM     20  H91 UNL     1     114.775  96.565  23.806  1.00  0.00     0.158 HD
ENDBRANCH   9  11
ENDBRANCH   7   9
ENDBRANCH   3   6
BRANCH   1  21
HETATM   21  N2  UNL     1     112.838  90.726  30.895  1.00  0.00    -0.264 N 
ATOM     22  H2  UNL     1     112.024  90.465  31.454  1.00  0.00     0.190 HD
BRANCH  21  23
HETATM   23  C7  UNL     1     113.056  90.104  29.612  1.00  0.00     0.232 C 
HETATM   24  N1  UNL     1     113.919  89.165  29.461  1.00  0.00    -0.364 N 
ATOM     25  H12 UNL     1     114.074  88.725  28.554  1.00  0.00     0.159 HD
ATOM     26  H11 UNL     1     114.455  88.858  30.273  1.00  0.00     0.159 HD
BRANCH  23  27
HETATM   27  O1  UNL     1     112.332  90.517  28.516  1.00  0.00    -0.309 OA
BRANCH  27  28
HETATM   28  C6  UNL     1     111.887  89.626  27.554  1.00  0.00     0.272 C 
BRANCH  28  29
HETATM   29  C5  UNL     1     111.509  90.344  26.346  1.00  0.00    -0.080 C 
HETATM   30  C4  UNL     1     111.163  90.941  25.333  1.00  0.00    -0.104 C 
BRANCH  30  31
HETATM   31  C3  UNL     1     110.722  91.653  24.128  1.00  0.00     0.093 C 
BRANCH  31  32
HETATM   32  C2  UNL     1     109.322  92.233  24.348  1.00  0.00     0.007 C 
HETATM   33  C1  UNL     1     108.511  91.815  23.118  1.00  0.00     0.006 C 
ENDBRANCH  31  32
ENDBRANCH  30  31
ENDBRANCH  28  29
ENDBRANCH  27  28
ENDBRANCH  23  27
ENDBRANCH  21  23
ENDBRANCH   1  21
TORSDOF 10
ENDMDL
MODEL 2
REMARK VINA RESULT: -7.701045670      2.008      3.018
REMARK  10 active torsions:
REMARK  status: ('A' for Active; 'I' for Inactive)
REMARK    1  A    between atoms: C2_2  and  C3_3 
REMARK    2  A    between atoms: C3_3  and  C4_4 
REMARK    3  A    between atoms: C5_5  and  C6_6 
REMARK    4  A    between atoms: C6_6  and  O1_7 
REMARK    5  A    between atoms: O1_7  and  C7_8 
REMARK    6  A    between atoms: C7_8  and  N2_12 
REMARK    7  A    between atoms: N2_12  and  N3_14 
REMARK    8  A    between atoms: C8_16  and  C10_19 
REMARK    9  A    between atoms: N5_20  and  N6_22 
REMARK   10  A    between atoms: N6_22  and  C12_24 
ROOT
HETATM    1  N3  UNL     1     113.061  93.343  29.458  1.00  0.00    -0.286 N 
ATOM      2  H3  UNL     1     113.024  93.520  30.462  1.00  0.00     0.188 HD
HETATM    3  C8  UNL     1     112.567  94.247  28.680  1.00  0.00     0.145 C 
HETATM    4  C9  UNL     1     111.990  95.455  29.244  1.00  0.00     0.120 C 
HETATM    5  N4  UNL     1     111.538  96.417  29.711  1.00  0.00    -0.190 NA
ENDROOT
BRANCH   3   6
HETATM    6  C10 UNL     1     112.558  94.118  27.234  1.00  0.00     0.149 C 
HETATM    7  N5  UNL     1     112.464  95.168  26.506  1.00  0.00    -0.305 N 
ATOM      8  H5  UNL     1     112.396  96.088  26.942  1.00  0.00     0.186 HD
BRANCH   7   9
HETATM    9  N6  UNL     1     112.455  95.054  25.131  1.00  0.00    -0.274 N 
HETATM   10  C11 UNL     1     113.651  94.756  24.408  1.00  0.00     0.180 C 
BRANCH   9  11
HETATM   11  C12 UNL     1     111.228  95.238  24.430  1.00  0.00     0.183 A 
HETATM   12  N7  UNL     1     109.980  95.190  24.877  1.00  0.00    -0.276 N 
HETATM   13  N8  UNL     1     109.005  95.382  24.096  1.00  0.00    -0.278 N 
ATOM     14  H7  UNL     1     109.806  94.995  25.863  1.00  0.00     0.189 HD
HETATM   15  C13 UNL     1     109.248  95.636  22.806  1.00  0.00     0.160 A 
ATOM     16  H8  UNL     1     108.047  95.345  24.444  1.00  0.00     0.189 HD
HETATM   17  N9  UNL     1     108.376  95.861  21.851  1.00  0.00    -0.378 N 
HETATM   18  S1  UNL     1     110.953  95.587  22.758  1.00  0.00    -0.014 SA
ATOM     19  H92 UNL     1     107.356  95.890  21.880  1.00  0.00     0.158 HD
ATOM     20  H91 UNL     1     108.562  96.054  20.867  1.00  0.00     0.158 HD
ENDBRANCH   9  11
ENDBRANCH   7   9
ENDBRANCH   3   6
BRANCH   1  21
HETATM   21  N2  UNL     1     113.636  92.154  29.046  1.00  0.00    -0.264 N 
ATOM     22  H2  UNL     1     114.498  92.170  28.500  1.00  0.00     0.190 HD
BRANCH  21  23
HETATM   23  C7  UNL     1     113.024  90.892  29.384  1.00  0.00     0.232 C 
HETATM   24  N1  UNL     1     113.541  90.111  30.263  1.00  0.00    -0.364 N 
ATOM     25  H12 UNL     1     113.108  89.219  30.501  1.00  0.00     0.159 HD
ATOM     26  H11 UNL     1     114.402  90.398  30.726  1.00  0.00     0.159 HD
BRANCH  23  27
HETATM   27  O1  UNL     1     111.860  90.504  28.758  1.00  0.00    -0.309 OA
BRANCH  27  28
HETATM   28  C6  UNL     1     111.864  89.641  27.675  1.00  0.00     0.272 C 
BRANCH  28  29
HETATM   29  C5  UNL     1     111.509  90.362  26.462  1.00  0.00    -0.080 C 
HETATM   30  C4  UNL     1     111.184  90.959  25.442  1.00  0.00    -0.104 C 
BRANCH  30  31
HETATM   31  C3  UNL     1     110.768  91.668  24.227  1.00  0.00     0.093 C 
BRANCH  31  32
HETATM   32  C2  UNL     1     109.239  91.724  24.153  1.00  0.00     0.007 C 
HETATM   33  C1  UNL     1     108.909  91.913  22.670  1.00  0.00     0.006 C 
ENDBRANCH  31  32
ENDBRANCH  30  31
ENDBRANCH  28  29
ENDBRANCH  27  28
ENDBRANCH  23  27
ENDBRANCH  21  23
ENDBRANCH   1  21
TORSDOF 10
ENDMDL
MODEL 3
REMARK VINA RESULT: -7.574770391      2.707      6.165
REMARK  10 active torsions:
REMARK  status: ('A' for Active; 'I' for Inactive)
REMARK    1  A    between atoms: C2_2  and  C3_3 
REMARK    2  A    between atoms: C3_3  and  C4_4 
REMARK    3  A    between atoms: C5_5  and  C6_6 
REMARK    4  A    between atoms: C6_6  and  O1_7 
REMARK    5  A    between atoms: O1_7  and  C7_8 
REMARK    6  A    between atoms: C7_8  and  N2_12 
REMARK    7  A    between atoms: N2_12  and  N3_14 
REMARK    8  A    between atoms: C8_16  and  C10_19 
REMARK    9  A    between atoms: N5_20  and  N6_22 
REMARK   10  A    between atoms: N6_22  and  C12_24 
ROOT
HETATM    1  N3  UNL     1     112.810  95.471  27.703  1.00  0.00    -0.286 N 
ATOM      2  H3  UNL     1     112.594  96.439  27.467  1.00  0.00     0.188 HD
HETATM    3  C8  UNL     1     112.464  95.057  28.877  1.00  0.00     0.145 C 
HETATM    4  C9  UNL     1     111.797  95.960  29.799  1.00  0.00     0.120 C 
HETATM    5  N4  UNL     1     111.259  96.692  30.520  1.00  0.00    -0.190 NA
ENDROOT
BRANCH   3   6
HETATM    6  C10 UNL     1     112.714  93.702  29.336  1.00  0.00     0.149 C 
HETATM    7  N5  UNL     1     112.383  93.368  30.528  1.00  0.00    -0.305 N 
ATOM      8  H5  UNL     1     111.948  94.051  31.148  1.00  0.00     0.186 HD
BRANCH   7   9
HETATM    9  N6  UNL     1     112.617  92.082  30.971  1.00  0.00    -0.274 N 
HETATM   10  C11 UNL     1     112.216  90.951  30.196  1.00  0.00     0.180 C 
BRANCH   9  11
HETATM   11  C12 UNL     1     113.267  91.891  32.224  1.00  0.00     0.183 A 
HETATM   12  N7  UNL     1     113.621  90.769  32.835  1.00  0.00    -0.276 N 
HETATM   13  N8  UNL     1     114.199  90.796  33.959  1.00  0.00    -0.278 N 
ATOM     14  H7  UNL     1     113.425  89.871  32.391  1.00  0.00     0.189 HD
HETATM   15  C13 UNL     1     114.449  91.979  34.529  1.00  0.00     0.160 A 
ATOM     16  H8  UNL     1     114.469  89.930  34.424  1.00  0.00     0.189 HD
HETATM   17  N9  UNL     1     115.034  92.210  35.682  1.00  0.00    -0.378 N 
HETATM   18  S1  UNL     1     113.815  93.063  33.373  1.00  0.00    -0.014 SA
ATOM     19  H92 UNL     1     115.412  91.562  36.373  1.00  0.00     0.158 HD
ATOM     20  H91 UNL     1     115.225  93.113  36.116  1.00  0.00     0.158 HD
ENDBRANCH   9  11
ENDBRANCH   7   9
ENDBRANCH   3   6
BRANCH   1  21
HETATM   21  N2  UNL     1     113.448  94.712  26.739  1.00  0.00    -0.264 N 
ATOM     22  H2  UNL     1     114.258  94.146  26.993  1.00  0.00     0.190 HD
BRANCH  21  23
HETATM   23  C7  UNL     1     112.974  94.716  25.376  1.00  0.00     0.232 C 
HETATM   24  N1  UNL     1     113.759  94.983  24.395  1.00  0.00    -0.364 N 
ATOM     25  H12 UNL     1     113.424  94.986  23.432  1.00  0.00     0.159 HD
ATOM     26  H11 UNL     1     114.736  95.194  24.594  1.00  0.00     0.159 HD
BRANCH  23  27
HETATM   27  O1  UNL     1     111.654  94.431  25.107  1.00  0.00    -0.309 OA
BRANCH  27  28
HETATM   28  C6  UNL     1     111.279  93.307  24.391  1.00  0.00     0.272 C 
BRANCH  28  29
HETATM   29  C5  UNL     1     111.319  92.132  25.249  1.00  0.00    -0.080 C 
HETATM   30  C4  UNL     1     111.373  91.132  25.954  1.00  0.00    -0.104 C 
BRANCH  30  31
HETATM   31  C3  UNL     1     111.460  89.926  26.786  1.00  0.00     0.093 C 
BRANCH  31  32
HETATM   32  C2  UNL     1     111.405  88.677  25.901  1.00  0.00     0.007 C 
HETATM   33  C1  UNL     1     112.106  87.578  26.704  1.00  0.00     0.006 C 
ENDBRANCH  31  32
ENDBRANCH  30  31
ENDBRANCH  28  29
ENDBRANCH  27  28
ENDBRANCH  23  27
ENDBRANCH  21  23
ENDBRANCH   1  21
TORSDOF 10
ENDMDL
MODEL 4
REMARK VINA RESULT: -7.334709680      2.505      6.310
REMARK  10 active torsions:
REMARK  status: ('A' for Active; 'I' for Inactive)
REMARK    1  A    between atoms: C2_2  and  C3_3 
REMARK    2  A    between atoms: C3_3  and  C4_4 
REMARK    3  A    between atoms: C5_5  and  C6_6 
REMARK    4  A    between atoms: C6_6  and  O1_7 
REMARK    5  A    between atoms: O1_7  and  C7_8 
REMARK    6  A    between atoms: C7_8  and  N2_12 
REMARK    7  A    between atoms: N2_12  and  N3_14 
REMARK    8  A    between atoms: C8_16  and  C10_19 
REMARK    9  A    between atoms: N5_20  and  N6_22 
REMARK   10  A    between atoms: N6_22  and  C12_24 
ROOT
HETATM    1  N3  UNL     1     112.494  93.570  22.470  1.00  0.00    -0.286 N 
ATOM      2  H3  UNL     1     113.053  93.810  21.652  1.00  0.00     0.188 HD
HETATM    3  C8  UNL     1     112.504  94.402  23.458  1.00  0.00     0.145 C 
HETATM    4  C9  UNL     1     113.291  95.620  23.374  1.00  0.00     0.120 C 
HETATM    5  N4  UNL     1     113.919  96.592  23.288  1.00  0.00    -0.190 NA
ENDROOT
BRANCH   3   6
HETATM    6  C10 UNL     1     111.751  94.179  24.679  1.00  0.00     0.149 C 
HETATM    7  N5  UNL     1     112.372  94.081  25.795  1.00  0.00    -0.305 N 
ATOM      8  H5  UNL     1     113.388  94.161  25.823  1.00  0.00     0.186 HD
BRANCH   7   9
HETATM    9  N6  UNL     1     111.663  93.869  26.960  1.00  0.00    -0.274 N 
HETATM   10  C11 UNL     1     110.271  94.180  27.043  1.00  0.00     0.180 C 
BRANCH   9  11
HETATM   11  C12 UNL     1     112.341  93.333  28.093  1.00  0.00     0.183 A 
HETATM   12  N7  UNL     1     113.603  93.474  28.472  1.00  0.00    -0.276 N 
HETATM   13  N8  UNL     1     114.031  92.916  29.523  1.00  0.00    -0.278 N 
ATOM     14  H7  UNL     1     114.237  94.041  27.910  1.00  0.00     0.189 HD
HETATM   15  C13 UNL     1     113.189  92.176  30.251  1.00  0.00     0.160 A 
ATOM     16  H8  UNL     1     115.003  93.028  29.811  1.00  0.00     0.189 HD
HETATM   17  N9  UNL     1     113.444  91.524  31.362  1.00  0.00    -0.378 N 
HETATM   18  S1  UNL     1     111.742  92.315  29.357  1.00  0.00    -0.014 SA
ATOM     19  H92 UNL     1     114.309  91.441  31.896  1.00  0.00     0.158 HD
ATOM     20  H91 UNL     1     112.801  90.959  31.917  1.00  0.00     0.158 HD
ENDBRANCH   9  11
ENDBRANCH   7   9
ENDBRANCH   3   6
BRANCH   1  21
HETATM   21  N2  UNL     1     111.789  92.381  22.427  1.00  0.00    -0.264 N 
ATOM     22  H2  UNL     1     112.230  91.518  22.746  1.00  0.00     0.190 HD
BRANCH  21  23
HETATM   23  C7  UNL     1     110.432  92.354  21.934  1.00  0.00     0.232 C 
HETATM   24  N1  UNL     1     110.077  93.049  20.914  1.00  0.00    -0.364 N 
ATOM     25  H12 UNL     1     109.119  93.030  20.566  1.00  0.00     0.159 HD
ATOM     26  H11 UNL     1     110.776  93.627  20.449  1.00  0.00     0.159 HD
BRANCH  23  27
HETATM   27  O1  UNL     1     109.489  91.573  22.563  1.00  0.00    -0.309 OA
BRANCH  27  28
HETATM   28  C6  UNL     1     109.084  91.818  23.865  1.00  0.00     0.272 C 
BRANCH  28  29
HETATM   29  C5  UNL     1     109.976  91.148  24.799  1.00  0.00    -0.080 C 
HETATM   30  C4  UNL     1     110.705  90.582  25.605  1.00  0.00    -0.104 C 
BRANCH  30  31
HETATM   31  C3  UNL     1     111.557  89.897  26.584  1.00  0.00     0.093 C 
BRANCH  31  32
HETATM   32  C2  UNL     1     111.687  88.416  26.216  1.00  0.00     0.007 C 
HETATM   33  C1  UNL     1     112.334  87.750  27.433  1.00  0.00     0.006 C 
ENDBRANCH  31  32
ENDBRANCH  30  31
ENDBRANCH  28  29
ENDBRANCH  27  28
ENDBRANCH  23  27
ENDBRANCH  21  23
ENDBRANCH   1  21
TORSDOF 10
ENDMDL
MODEL 5
REMARK VINA RESULT: -7.315909800      2.765      6.633
REMARK  10 active torsions:
REMARK  status: ('A' for Active; 'I' for Inactive)
REMARK    1  A    between atoms: C2_2  and  C3_3 
REMARK    2  A    between atoms: C3_3  and  C4_4 
REMARK    3  A    between atoms: C5_5  and  C6_6 
REMARK    4  A    between atoms: C6_6  and  O1_7 
REMARK    5  A    between atoms: O1_7  and  C7_8 
REMARK    6  A    between atoms: C7_8  and  N2_12 
REMARK    7  A    between atoms: N2_12  and  N3_14 
REMARK    8  A    between atoms: C8_16  and  C10_19 
REMARK    9  A    between atoms: N5_20  and  N6_22 
REMARK   10  A    between atoms: N6_22  and  C12_24 
ROOT
HETATM    1  N3  UNL     1     110.343  93.626  21.817  1.00  0.00    -0.286 N 
ATOM      2  H3  UNL     1     110.126  93.220  20.907  1.00  0.00     0.188 HD
HETATM    3  C8  UNL     1     111.518  94.141  21.969  1.00  0.00     0.145 C 
HETATM    4  C9  UNL     1     112.466  94.127  20.868  1.00  0.00     0.120 C 
HETATM    5  N4  UNL     1     113.209  94.114  19.977  1.00  0.00    -0.190 NA
ENDROOT
BRANCH   3   6
HETATM    6  C10 UNL     1     111.953  94.750  23.214  1.00  0.00     0.149 C 
HETATM    7  N5  UNL     1     112.526  94.028  24.104  1.00  0.00    -0.305 N 
ATOM      8  H5  UNL     1     112.676  93.033  23.936  1.00  0.00     0.186 HD
BRANCH   7   9
HETATM    9  N6  UNL     1     112.942  94.599  25.289  1.00  0.00    -0.274 N 
HETATM   10  C11 UNL     1     114.154  95.352  25.359  1.00  0.00     0.180 C 
BRANCH   9  11
HETATM   11  C12 UNL     1     112.142  94.428  26.456  1.00  0.00     0.183 A 
HETATM   12  N7  UNL     1     110.828  94.517  26.605  1.00  0.00    -0.276 N 
HETATM   13  N8  UNL     1     110.289  94.329  27.733  1.00  0.00    -0.278 N 
ATOM     14  H7  UNL     1     110.244  94.740  25.799  1.00  0.00     0.189 HD
HETATM   15  C13 UNL     1     111.066  94.038  28.781  1.00  0.00     0.160 A 
ATOM     16  H8  UNL     1     109.277  94.399  27.842  1.00  0.00     0.189 HD
HETATM   17  N9  UNL     1     110.695  93.811  30.020  1.00  0.00    -0.378 N 
HETATM   18  S1  UNL     1     112.619  94.044  28.074  1.00  0.00    -0.014 SA
ATOM     19  H92 UNL     1     109.767  93.807  30.442  1.00  0.00     0.158 HD
ATOM     20  H91 UNL     1     111.289  93.589  30.819  1.00  0.00     0.158 HD
ENDBRANCH   9  11
ENDBRANCH   7   9
ENDBRANCH   3   6
BRANCH   1  21
HETATM   21  N2  UNL     1     109.356  93.576  22.784  1.00  0.00    -0.264 N 
ATOM     22  H2  UNL     1     108.742  94.379  22.923  1.00  0.00     0.190 HD
BRANCH  21  23
HETATM   23  C7  UNL     1     109.189  92.395  23.596  1.00  0.00     0.232 C 
HETATM   24  N1  UNL     1     108.291  91.518  23.325  1.00  0.00    -0.364 N 
ATOM     25  H12 UNL     1     108.174  90.683  23.899  1.00  0.00     0.159 HD
ATOM     26  H11 UNL     1     107.690  91.667  22.516  1.00  0.00     0.159 HD
BRANCH  23  27
HETATM   27  O1  UNL     1     110.002  92.193  24.689  1.00  0.00    -0.309 OA
BRANCH  27  28
HETATM   28  C6  UNL     1     110.962  91.195  24.713  1.00  0.00     0.272 C 
BRANCH  28  29
HETATM   29  C5  UNL     1     111.250  90.813  26.087  1.00  0.00    -0.080 C 
HETATM   30  C4  UNL     1     111.470  90.504  27.252  1.00  0.00    -0.104 C 
BRANCH  30  31
HETATM   31  C3  UNL     1     111.708  90.143  28.654  1.00  0.00     0.093 C 
BRANCH  31  32
HETATM   32  C2  UNL     1     112.848  89.124  28.744  1.00  0.00     0.007 C 
HETATM   33  C1  UNL     1     112.432  87.964  27.836  1.00  0.00     0.006 C 
ENDBRANCH  31  32
ENDBRANCH  30  31
ENDBRANCH  28  29
ENDBRANCH  27  28
ENDBRANCH  23  27
ENDBRANCH  21  23
ENDBRANCH   1  21
TORSDOF 10
ENDMDL
