MODEL 1
REMARK VINA RESULT: -7.710230443      0.000      0.000
REMARK  15 active torsions:
REMARK  status: ('A' for Active; 'I' for Inactive)
REMARK    1  A    between atoms: S1_2  and  C2_3 
REMARK    2  A    between atoms: C2_3  and  C3_4 
REMARK    3  A    between atoms: C3_4  and  C4_5 
REMARK    4  A    between atoms: C4_5  and  C5_6 
REMARK    5  A    between atoms: C5_6  and  N1_7 
REMARK    6  A    between atoms: N1_7  and  C6_9 
REMARK    7  A    between atoms: C7_12  and  N3_13 
REMARK    8  A    between atoms: N3_13  and  C8_15 
REMARK    9  A    between atoms: C8_15  and  C9_16 
REMARK   10  A    between atoms: C9_16  and  C10_17 
REMARK   11  A    between atoms: C10_17  and  O1_18 
REMARK   12  A    between atoms: C11_22  and  N5_23 
REMARK   13  A    between atoms: N5_23  and  C12_25 
REMARK   14  A    between atoms: C12_25  and  C13_26 
REMARK   15  A    between atoms: C13_26  and  C14_27 
ROOT
HETATM    1  C6  UNL     1       6.273  20.399  66.225  1.00  0.00     0.707 A 
HETATM    2  N2  UNL     1       5.604  19.330  65.764  1.00  0.00    -0.022 N 
ATOM      3  H2  UNL     1       6.111  18.640  65.210  1.00  0.00     0.203 HD
HETATM    4  C7  UNL     1       4.295  19.128  66.001  1.00  0.00     0.707 A 
HETATM    5  N4  UNL     1       3.655  20.049  66.731  1.00  0.00    -0.022 N 
ATOM      6  H4  UNL     1       2.662  19.913  66.920  1.00  0.00     0.203 HD
HETATM    7  C11 UNL     1       4.268  21.168  67.239  1.00  0.00     0.707 A 
HETATM    8  N6  UNL     1       5.574  21.309  66.966  1.00  0.00    -0.022 N 
ATOM      9  H6  UNL     1       6.064  22.128  67.325  1.00  0.00     0.203 HD
ENDROOT
BRANCH   7  10
HETATM   10  N5  UNL     1       3.565  21.990  67.927  1.00  0.00    -0.225 N 
ATOM     11  H5  UNL     1       3.950  22.905  68.158  1.00  0.00     0.177 HD
BRANCH  10  12
HETATM   12  C12 UNL     1       2.248  21.647  68.378  1.00  0.00     0.142 C 
BRANCH  12  13
HETATM   13  C13 UNL     1       1.262  22.617  67.738  1.00  0.00     0.058 C 
BRANCH  13  14
HETATM   14  C14 UNL     1       0.126  21.835  67.205  1.00  0.00    -0.057 A 
HETATM   15  C15 UNL     1       0.309  20.832  66.253  1.00  0.00     0.007 A 
HETATM   16  C16 UNL     1      -0.752  20.109  65.762  1.00  0.00     0.001 A 
HETATM   17  C17 UNL     1      -2.026  20.363  66.201  1.00  0.00     0.000 A 
HETATM   18  C18 UNL     1      -2.231  21.352  67.142  1.00  0.00     0.001 A 
HETATM   19  C19 UNL     1      -1.158  22.066  67.624  1.00  0.00     0.007 A 
ENDBRANCH  13  14
ENDBRANCH  12  13
ENDBRANCH  10  12
ENDBRANCH   7  10
BRANCH   4  20
HETATM   20  N3  UNL     1       3.754  18.083  65.519  1.00  0.00    -0.225 N 
ATOM     21  H3  UNL     1       4.352  17.502  64.930  1.00  0.00     0.177 HD
BRANCH  20  22
HETATM   22  C8  UNL     1       2.424  17.624  65.698  1.00  0.00     0.140 C 
BRANCH  22  23
HETATM   23  C9  UNL     1       1.743  17.624  64.332  1.00  0.00     0.046 C 
BRANCH  23  24
HETATM   24  C10 UNL     1       2.226  16.468  63.485  1.00  0.00     0.165 C 
BRANCH  24  25
HETATM   25  O1  UNL     1       1.282  16.226  62.493  1.00  0.00    -0.401 OA
ATOM     26  H1  UNL     1       1.489  15.396  62.078  1.00  0.00     0.209 HD
ENDBRANCH  24  25
ENDBRANCH  23  24
ENDBRANCH  22  23
ENDBRANCH  20  22
ENDBRANCH   4  20
BRANCH   1  27
HETATM   27  N1  UNL     1       7.519  20.623  66.021  1.00  0.00    -0.225 N 
ATOM     28  H1  UNL     1       8.152  20.546  66.817  1.00  0.00     0.177 HD
BRANCH  27  29
HETATM   29  C5  UNL     1       8.085  20.973  64.752  1.00  0.00     0.138 C 
BRANCH  29  30
HETATM   30  C4  UNL     1       8.937  19.761  64.319  1.00  0.00     0.021 C 
BRANCH  30  31
HETATM   31  C3  UNL     1       9.859  19.499  65.477  1.00  0.00     0.012 C 
BRANCH  31  32
HETATM   32  C2  UNL     1      11.257  19.141  65.129  1.00  0.00     0.073 C 
BRANCH  32  33
HETATM   33  S1  UNL     1      11.580  17.393  64.960  1.00  0.00    -0.173 SA
HETATM   34  C1  UNL     1      10.863  16.634  63.506  1.00  0.00     0.089 C 
ENDBRANCH  32  33
ENDBRANCH  31  32
ENDBRANCH  30  31
ENDBRANCH  29  30
ENDBRANCH  27  29
ENDBRANCH   1  27
TORSDOF 15
ENDMDL
MODEL 2
REMARK VINA RESULT: -7.650972122      1.078      1.726
REMARK  15 active torsions:
REMARK  status: ('A' for Active; 'I' for Inactive)
REMARK    1  A    between atoms: S1_2  and  C2_3 
REMARK    2  A    between atoms: C2_3  and  C3_4 
REMARK    3  A    between atoms: C3_4  and  C4_5 
REMARK    4  A    between atoms: C4_5  and  C5_6 
REMARK    5  A    between atoms: C5_6  and  N1_7 
REMARK    6  A    between atoms: N1_7  and  C6_9 
REMARK    7  A    between atoms: C7_12  and  N3_13 
REMARK    8  A    between atoms: N3_13  and  C8_15 
REMARK    9  A    between atoms: C8_15  and  C9_16 
REMARK   10  A    between atoms: C9_16  and  C10_17 
REMARK   11  A    between atoms: C10_17  and  O1_18 
REMARK   12  A    between atoms: C11_22  and  N5_23 
REMARK   13  A    between atoms: N5_23  and  C12_25 
REMARK   14  A    between atoms: C12_25  and  C13_26 
REMARK   15  A    between atoms: C13_26  and  C14_27 
ROOT
HETATM    1  C6  UNL     1       6.229  20.388  66.209  1.00  0.00     0.707 A 
HETATM    2  N2  UNL     1       5.542  19.340  65.728  1.00  0.00    -0.022 N 
ATOM      3  H2  UNL     1       6.036  18.652  65.161  1.00  0.00     0.203 HD
HETATM    4  C7  UNL     1       4.230  19.157  65.963  1.00  0.00     0.707 A 
HETATM    5  N4  UNL     1       3.606  20.074  66.712  1.00  0.00    -0.022 N 
ATOM      6  H4  UNL     1       2.611  19.951  66.899  1.00  0.00     0.203 HD
HETATM    7  C11 UNL     1       4.239  21.173  67.240  1.00  0.00     0.707 A 
HETATM    8  N6  UNL     1       5.547  21.296  66.968  1.00  0.00    -0.022 N 
ATOM      9  H6  UNL     1       6.051  22.099  67.342  1.00  0.00     0.203 HD
ENDROOT
BRANCH   7  10
HETATM   10  N5  UNL     1       3.551  21.993  67.944  1.00  0.00    -0.225 N 
ATOM     11  H5  UNL     1       3.941  22.907  68.171  1.00  0.00     0.177 HD
BRANCH  10  12
HETATM   12  C12 UNL     1       2.242  21.650  68.421  1.00  0.00     0.142 C 
BRANCH  12  13
HETATM   13  C13 UNL     1       1.246  22.633  67.817  1.00  0.00     0.058 C 
BRANCH  13  14
HETATM   14  C14 UNL     1       0.123  21.859  67.246  1.00  0.00    -0.057 A 
HETATM   15  C15 UNL     1      -1.191  22.050  67.672  1.00  0.00     0.007 A 
HETATM   16  C16 UNL     1      -2.230  21.327  67.137  1.00  0.00     0.001 A 
HETATM   17  C17 UNL     1      -1.992  20.392  66.162  1.00  0.00     0.000 A 
HETATM   18  C18 UNL     1      -0.700  20.185  65.725  1.00  0.00     0.001 A 
HETATM   19  C19 UNL     1       0.329  20.918  66.271  1.00  0.00     0.007 A 
ENDBRANCH  13  14
ENDBRANCH  12  13
ENDBRANCH  10  12
ENDBRANCH   7  10
BRANCH   4  20
HETATM   20  N3  UNL     1       3.670  18.130  65.461  1.00  0.00    -0.225 N 
ATOM     21  H3  UNL     1       4.114  17.742  64.629  1.00  0.00     0.177 HD
BRANCH  20  22
HETATM   22  C8  UNL     1       2.506  17.459  65.915  1.00  0.00     0.140 C 
BRANCH  22  23
HETATM   23  C9  UNL     1       1.559  17.314  64.728  1.00  0.00     0.046 C 
BRANCH  23  24
HETATM   24  C10 UNL     1       2.131  16.376  63.688  1.00  0.00     0.165 C 
BRANCH  24  25
HETATM   25  O1  UNL     1       2.630  17.137  62.637  1.00  0.00    -0.401 OA
ATOM     26  H1  UNL     1       2.733  16.572  61.879  1.00  0.00     0.209 HD
ENDBRANCH  24  25
ENDBRANCH  23  24
ENDBRANCH  22  23
ENDBRANCH  20  22
ENDBRANCH   4  20
BRANCH   1  27
HETATM   27  N1  UNL     1       7.478  20.595  66.008  1.00  0.00    -0.225 N 
ATOM     28  H1  UNL     1       8.089  20.645  66.824  1.00  0.00     0.177 HD
BRANCH  27  29
HETATM   29  C5  UNL     1       8.078  20.759  64.717  1.00  0.00     0.138 C 
BRANCH  29  30
HETATM   30  C4  UNL     1       8.939  19.499  64.486  1.00  0.00     0.021 C 
BRANCH  30  31
HETATM   31  C3  UNL     1      10.148  19.688  65.360  1.00  0.00     0.012 C 
BRANCH  31  32
HETATM   32  C2  UNL     1      10.433  18.595  66.323  1.00  0.00     0.073 C 
BRANCH  32  33
HETATM   33  S1  UNL     1      10.496  19.083  68.039  1.00  0.00    -0.173 SA
HETATM   34  C1  UNL     1       8.912  19.107  68.872  1.00  0.00     0.089 C 
ENDBRANCH  32  33
ENDBRANCH  31  32
ENDBRANCH  30  31
ENDBRANCH  29  30
ENDBRANCH  27  29
ENDBRANCH   1  27
TORSDOF 15
ENDMDL
MODEL 3
REMARK VINA RESULT: -7.432160519      3.392      6.170
REMARK  15 active torsions:
REMARK  status: ('A' for Active; 'I' for Inactive)
REMARK    1  A    between atoms: S1_2  and  C2_3 
REMARK    2  A    between atoms: C2_3  and  C3_4 
REMARK    3  A    between atoms: C3_4  and  C4_5 
REMARK    4  A    between atoms: C4_5  and  C5_6 
REMARK    5  A    between atoms: C5_6  and  N1_7 
REMARK    6  A    between atoms: N1_7  and  C6_9 
REMARK    7  A    between atoms: C7_12  and  N3_13 
REMARK    8  A    between atoms: N3_13  and  C8_15 
REMARK    9  A    between atoms: C8_15  and  C9_16 
REMARK   10  A    between atoms: C9_16  and  C10_17 
REMARK   11  A    between atoms: C10_17  and  O1_18 
REMARK   12  A    between atoms: C11_22  and  N5_23 
REMARK   13  A    between atoms: N5_23  and  C12_25 
REMARK   14  A    between atoms: C12_25  and  C13_26 
REMARK   15  A    between atoms: C13_26  and  C14_27 
ROOT
HETATM    1  C6  UNL     1       4.475  19.282  68.234  1.00  0.00     0.707 A 
HETATM    2  N2  UNL     1       5.459  19.737  67.442  1.00  0.00    -0.022 N 
ATOM      3  H2  UNL     1       6.230  20.251  67.869  1.00  0.00     0.203 HD
HETATM    4  C7  UNL     1       5.474  19.545  66.111  1.00  0.00     0.707 A 
HETATM    5  N4  UNL     1       4.451  18.866  65.578  1.00  0.00    -0.022 N 
ATOM      6  H4  UNL     1       4.446  18.711  64.570  1.00  0.00     0.203 HD
HETATM    7  C11 UNL     1       3.408  18.368  66.320  1.00  0.00     0.707 A 
HETATM    8  N6  UNL     1       3.455  18.595  67.641  1.00  0.00    -0.022 N 
ATOM      9  H6  UNL     1       2.698  18.241  68.226  1.00  0.00     0.203 HD
ENDROOT
BRANCH   7  10
HETATM   10  N5  UNL     1       2.477  17.731  65.712  1.00  0.00    -0.225 N 
ATOM     11  H5  UNL     1       2.486  16.711  65.713  1.00  0.00     0.177 HD
BRANCH  10  12
HETATM   12  C12 UNL     1       1.421  18.424  65.031  1.00  0.00     0.142 C 
BRANCH  12  13
HETATM   13  C13 UNL     1       0.152  18.286  65.863  1.00  0.00     0.058 C 
BRANCH  13  14
HETATM   14  C14 UNL     1      -0.345  19.643  66.175  1.00  0.00    -0.057 A 
HETATM   15  C15 UNL     1       0.525  20.691  66.476  1.00  0.00     0.007 A 
HETATM   16  C16 UNL     1       0.055  21.950  66.765  1.00  0.00     0.001 A 
HETATM   17  C17 UNL     1      -1.292  22.203  66.764  1.00  0.00     0.000 A 
HETATM   18  C18 UNL     1      -2.171  21.181  66.471  1.00  0.00     0.001 A 
HETATM   19  C19 UNL     1      -1.686  19.927  66.183  1.00  0.00     0.007 A 
ENDBRANCH  13  14
ENDBRANCH  12  13
ENDBRANCH  10  12
ENDBRANCH   7  10
BRANCH   4  20
HETATM   20  N3  UNL     1       6.453  20.016  65.449  1.00  0.00    -0.225 N 
ATOM     21  H3  UNL     1       6.230  20.772  64.801  1.00  0.00     0.177 HD
BRANCH  20  22
HETATM   22  C8  UNL     1       7.815  19.623  65.500  1.00  0.00     0.140 C 
BRANCH  22  23
HETATM   23  C9  UNL     1       8.582  20.469  64.489  1.00  0.00     0.046 C 
BRANCH  23  24
HETATM   24  C10 UNL     1       8.017  21.870  64.414  1.00  0.00     0.165 C 
BRANCH  24  25
HETATM   25  O1  UNL     1       7.603  22.108  63.108  1.00  0.00    -0.401 OA
ATOM     26  H1  UNL     1       8.260  22.640  62.676  1.00  0.00     0.209 HD
ENDBRANCH  24  25
ENDBRANCH  23  24
ENDBRANCH  22  23
ENDBRANCH  20  22
ENDBRANCH   4  20
BRANCH   1  27
HETATM   27  N1  UNL     1       4.429  19.445  69.505  1.00  0.00    -0.225 N 
ATOM     28  H1  UNL     1       4.459  18.611  70.092  1.00  0.00     0.177 HD
BRANCH  27  29
HETATM   29  C5  UNL     1       4.337  20.717  70.159  1.00  0.00     0.138 C 
BRANCH  29  30
HETATM   30  C4  UNL     1       2.912  20.787  70.751  1.00  0.00     0.021 C 
BRANCH  30  31
HETATM   31  C3  UNL     1       2.143  21.674  69.811  1.00  0.00     0.012 C 
BRANCH  31  32
HETATM   32  C2  UNL     1       1.583  22.916  70.400  1.00  0.00     0.073 C 
BRANCH  32  33
HETATM   33  S1  UNL     1       2.599  24.373  70.224  1.00  0.00    -0.173 SA
HETATM   34  C1  UNL     1       3.742  24.331  68.848  1.00  0.00     0.089 C 
ENDBRANCH  32  33
ENDBRANCH  31  32
ENDBRANCH  30  31
ENDBRANCH  29  30
ENDBRANCH  27  29
ENDBRANCH   1  27
TORSDOF 15
ENDMDL
MODEL 4
REMARK VINA RESULT: -7.380909231      1.287      1.839
REMARK  15 active torsions:
REMARK  status: ('A' for Active; 'I' for Inactive)
REMARK    1  A    between atoms: S1_2  and  C2_3 
REMARK    2  A    between atoms: C2_3  and  C3_4 
REMARK    3  A    between atoms: C3_4  and  C4_5 
REMARK    4  A    between atoms: C4_5  and  C5_6 
REMARK    5  A    between atoms: C5_6  and  N1_7 
REMARK    6  A    between atoms: N1_7  and  C6_9 
REMARK    7  A    between atoms: C7_12  and  N3_13 
REMARK    8  A    between atoms: N3_13  and  C8_15 
REMARK    9  A    between atoms: C8_15  and  C9_16 
REMARK   10  A    between atoms: C9_16  and  C10_17 
REMARK   11  A    between atoms: C10_17  and  O1_18 
REMARK   12  A    between atoms: C11_22  and  N5_23 
REMARK   13  A    between atoms: N5_23  and  C12_25 
REMARK   14  A    between atoms: C12_25  and  C13_26 
REMARK   15  A    between atoms: C13_26  and  C14_27 
ROOT
HETATM    1  C6  UNL     1       6.288  20.250  67.453  1.00  0.00     0.707 A 
HETATM    2  N2  UNL     1       5.720  19.361  66.622  1.00  0.00    -0.022 N 
ATOM      3  H2  UNL     1       6.294  18.604  66.253  1.00  0.00     0.203 HD
HETATM    4  C7  UNL     1       4.427  19.425  66.256  1.00  0.00     0.707 A 
HETATM    5  N4  UNL     1       3.697  20.428  66.757  1.00  0.00    -0.022 N 
ATOM      6  H4  UNL     1       2.714  20.492  66.490  1.00  0.00     0.203 HD
HETATM    7  C11 UNL     1       4.204  21.376  67.612  1.00  0.00     0.707 A 
HETATM    8  N6  UNL     1       5.500  21.254  67.937  1.00  0.00    -0.022 N 
ATOM      9  H6  UNL     1       5.912  21.939  68.569  1.00  0.00     0.203 HD
ENDROOT
BRANCH   7  10
HETATM   10  N5  UNL     1       3.419  22.296  68.036  1.00  0.00    -0.225 N 
ATOM     11  H5  UNL     1       3.725  23.269  68.002  1.00  0.00     0.177 HD
BRANCH  10  12
HETATM   12  C12 UNL     1       2.119  21.987  68.558  1.00  0.00     0.142 C 
BRANCH  12  13
HETATM   13  C13 UNL     1       1.102  22.873  67.848  1.00  0.00     0.058 C 
BRANCH  13  14
HETATM   14  C14 UNL     1       0.062  22.001  67.261  1.00  0.00    -0.057 A 
HETATM   15  C15 UNL     1       0.366  21.050  66.287  1.00  0.00     0.007 A 
HETATM   16  C16 UNL     1      -0.607  20.243  65.747  1.00  0.00     0.001 A 
HETATM   17  C17 UNL     1      -1.910  20.359  66.158  1.00  0.00     0.000 A 
HETATM   18  C18 UNL     1      -2.234  21.293  67.121  1.00  0.00     0.001 A 
HETATM   19  C19 UNL     1      -1.248  22.093  67.652  1.00  0.00     0.007 A 
ENDBRANCH  13  14
ENDBRANCH  12  13
ENDBRANCH  10  12
ENDBRANCH   7  10
BRANCH   4  20
HETATM   20  N3  UNL     1       3.985  18.534  65.464  1.00  0.00    -0.225 N 
ATOM     21  H3  UNL     1       4.678  17.883  65.094  1.00  0.00     0.177 HD
BRANCH  20  22
HETATM   22  C8  UNL     1       2.649  18.332  65.031  1.00  0.00     0.140 C 
BRANCH  22  23
HETATM   23  C9  UNL     1       2.448  16.835  64.822  1.00  0.00     0.046 C 
BRANCH  23  24
HETATM   24  C10 UNL     1       2.429  16.489  63.350  1.00  0.00     0.165 C 
BRANCH  24  25
HETATM   25  O1  UNL     1       1.680  15.330  63.180  1.00  0.00    -0.401 OA
ATOM     26  H1  UNL     1       1.177  15.412  62.378  1.00  0.00     0.209 HD
ENDBRANCH  24  25
ENDBRANCH  23  24
ENDBRANCH  22  23
ENDBRANCH  20  22
ENDBRANCH   4  20
BRANCH   1  27
HETATM   27  N1  UNL     1       7.515  20.219  67.824  1.00  0.00    -0.225 N 
ATOM     28  H1  UNL     1       8.059  21.078  67.735  1.00  0.00     0.177 HD
BRANCH  27  29
HETATM   29  C5  UNL     1       8.175  19.064  68.356  1.00  0.00     0.138 C 
BRANCH  29  30
HETATM   30  C4  UNL     1       9.681  19.273  68.081  1.00  0.00     0.021 C 
BRANCH  30  31
HETATM   31  C3  UNL     1       9.931  18.607  66.757  1.00  0.00     0.012 C 
BRANCH  31  32
HETATM   32  C2  UNL     1      10.176  19.513  65.608  1.00  0.00     0.073 C 
BRANCH  32  33
HETATM   33  S1  UNL     1       8.806  19.708  64.480  1.00  0.00    -0.173 SA
HETATM   34  C1  UNL     1       8.118  21.358  64.412  1.00  0.00     0.089 C 
ENDBRANCH  32  33
ENDBRANCH  31  32
ENDBRANCH  30  31
ENDBRANCH  29  30
ENDBRANCH  27  29
ENDBRANCH   1  27
TORSDOF 15
ENDMDL
MODEL 5
REMARK VINA RESULT: -7.365227421      3.234      6.099
REMARK  15 active torsions:
REMARK  status: ('A' for Active; 'I' for Inactive)
REMARK    1  A    between atoms: S1_2  and  C2_3 
REMARK    2  A    between atoms: C2_3  and  C3_4 
REMARK    3  A    between atoms: C3_4  and  C4_5 
REMARK    4  A    between atoms: C4_5  and  C5_6 
REMARK    5  A    between atoms: C5_6  and  N1_7 
REMARK    6  A    between atoms: N1_7  and  C6_9 
REMARK    7  A    between atoms: C7_12  and  N3_13 
REMARK    8  A    between atoms: N3_13  and  C8_15 
REMARK    9  A    between atoms: C8_15  and  C9_16 
REMARK   10  A    between atoms: C9_16  and  C10_17 
REMARK   11  A    between atoms: C10_17  and  O1_18 
REMARK   12  A    between atoms: C11_22  and  N5_23 
REMARK   13  A    between atoms: N5_23  and  C12_25 
REMARK   14  A    between atoms: C12_25  and  C13_26 
REMARK   15  A    between atoms: C13_26  and  C14_27 
ROOT
HETATM    1  C6  UNL     1       4.478  19.331  68.231  1.00  0.00     0.707 A 
HETATM    2  N2  UNL     1       5.468  19.747  67.425  1.00  0.00    -0.022 N 
ATOM      3  H2  UNL     1       6.273  20.213  67.842  1.00  0.00     0.203 HD
HETATM    4  C7  UNL     1       5.445  19.575  66.090  1.00  0.00     0.707 A 
HETATM    5  N4  UNL     1       4.378  18.959  65.569  1.00  0.00    -0.022 N 
ATOM      6  H4  UNL     1       4.344  18.821  64.559  1.00  0.00     0.203 HD
HETATM    7  C11 UNL     1       3.326  18.504  66.325  1.00  0.00     0.707 A 
HETATM    8  N6  UNL     1       3.411  18.707  67.649  1.00  0.00    -0.022 N 
ATOM      9  H6  UNL     1       2.649  18.384  68.244  1.00  0.00     0.203 HD
ENDROOT
BRANCH   7  10
HETATM   10  N5  UNL     1       2.350  17.926  65.728  1.00  0.00    -0.225 N 
ATOM     11  H5  UNL     1       2.518  17.448  64.844  1.00  0.00     0.177 HD
BRANCH  10  12
HETATM   12  C12 UNL     1       1.026  17.939  66.279  1.00  0.00     0.142 C 
BRANCH  12  13
HETATM   13  C13 UNL     1       0.119  18.689  65.312  1.00  0.00     0.058 C 
BRANCH  13  14
HETATM   14  C14 UNL     1      -0.362  19.914  65.986  1.00  0.00    -0.057 A 
HETATM   15  C15 UNL     1      -1.674  20.032  66.446  1.00  0.00     0.007 A 
HETATM   16  C16 UNL     1      -2.113  21.173  67.072  1.00  0.00     0.001 A 
HETATM   17  C17 UNL     1      -1.261  22.232  67.259  1.00  0.00     0.000 A 
HETATM   18  C18 UNL     1       0.040  22.139  66.811  1.00  0.00     0.001 A 
HETATM   19  C19 UNL     1       0.465  20.989  66.187  1.00  0.00     0.007 A 
ENDBRANCH  13  14
ENDBRANCH  12  13
ENDBRANCH  10  12
ENDBRANCH   7  10
BRANCH   4  20
HETATM   20  N3  UNL     1       6.433  20.006  65.415  1.00  0.00    -0.225 N 
ATOM     21  H3  UNL     1       6.225  20.740  64.738  1.00  0.00     0.177 HD
BRANCH  20  22
HETATM   22  C8  UNL     1       7.789  19.594  65.487  1.00  0.00     0.140 C 
BRANCH  22  23
HETATM   23  C9  UNL     1       8.585  20.437  64.496  1.00  0.00     0.046 C 
BRANCH  23  24
HETATM   24  C10 UNL     1       8.056  21.853  64.439  1.00  0.00     0.165 C 
BRANCH  24  25
HETATM   25  O1  UNL     1       7.683  22.131  63.128  1.00  0.00    -0.401 OA
ATOM     26  H1  UNL     1       7.112  22.890  63.133  1.00  0.00     0.209 HD
ENDBRANCH  24  25
ENDBRANCH  23  24
ENDBRANCH  22  23
ENDBRANCH  20  22
ENDBRANCH   4  20
BRANCH   1  27
HETATM   27  N1  UNL     1       4.466  19.475  69.504  1.00  0.00    -0.225 N 
ATOM     28  H1  UNL     1       5.335  19.303  70.010  1.00  0.00     0.177 HD
BRANCH  27  29
HETATM   29  C5  UNL     1       3.317  19.863  70.268  1.00  0.00     0.138 C 
BRANCH  29  30
HETATM   30  C4  UNL     1       3.413  21.395  70.430  1.00  0.00     0.021 C 
BRANCH  30  31
HETATM   31  C3  UNL     1       2.091  21.922  69.947  1.00  0.00     0.012 C 
BRANCH  31  32
HETATM   32  C2  UNL     1       2.066  23.351  69.546  1.00  0.00     0.073 C 
BRANCH  32  33
HETATM   33  S1  UNL     1       3.533  23.938  68.715  1.00  0.00    -0.173 SA
HETATM   34  C1  UNL     1       4.293  25.378  69.459  1.00  0.00     0.089 C 
ENDBRANCH  32  33
ENDBRANCH  31  32
ENDBRANCH  30  31
ENDBRANCH  29  30
ENDBRANCH  27  29
ENDBRANCH   1  27
TORSDOF 15
ENDMDL
