MODEL 1
REMARK VINA RESULT: -7.620709548      0.000      0.000
REMARK  12 active torsions:
REMARK  status: ('A' for Active; 'I' for Inactive)
REMARK    1  A    between atoms: C1_4  and  C2_6 
REMARK    2  A    between atoms: C5_9  and  C6_10 
REMARK    3  A    between atoms: C6_10  and  C7_11 
REMARK    4  A    between atoms: C7_11  and  N3_12 
REMARK    5  A    between atoms: N3_12  and  C8_15 
REMARK    6  A    between atoms: C8_15  and  C9_16 
REMARK    7  A    between atoms: C9_16  and  C10_17 
REMARK    8  A    between atoms: C9_16  and  C17_25 
REMARK    9  A    between atoms: C10_17  and  O1_18 
REMARK   10  A    between atoms: O1_18  and  C11_19 
REMARK   11  A    between atoms: C17_25  and  S1_26 
REMARK   12  A    between atoms: S1_26  and  N4_27 
ROOT
HETATM    1  C8  UNL     1       3.984  22.384  68.051  1.00  0.00     0.239 C 
ENDROOT
BRANCH   1   2
HETATM    2  N3  UNL     1       4.628  21.290  68.731  1.00  0.00    -0.074 N 
ATOM      3  H32 UNL     1       4.513  21.384  69.740  1.00  0.00     0.277 HD
ATOM      4  H31 UNL     1       5.642  21.378  68.660  1.00  0.00     0.277 HD
BRANCH   2   5
HETATM    5  C7  UNL     1       4.220  20.018  68.311  1.00  0.00     0.237 C 
BRANCH   5   6
HETATM    6  C6  UNL     1       2.771  19.651  68.364  1.00  0.00     0.066 C 
BRANCH   6   7
HETATM    7  C5  UNL     1       2.493  18.907  67.063  1.00  0.00    -0.057 A 
HETATM    8  C4  UNL     1       1.294  18.314  66.796  1.00  0.00     0.008 A 
HETATM    9  C3  UNL     1       1.132  17.555  65.647  1.00  0.00     0.015 A 
HETATM   10  C2  UNL     1       2.163  17.390  64.767  1.00  0.00     0.004 A 
HETATM   11  C19 UNL     1       3.396  18.010  65.050  1.00  0.00     0.015 A 
HETATM   12  C18 UNL     1       3.532  18.754  66.190  1.00  0.00     0.008 A 
BRANCH  10  13
HETATM   13  C1  UNL     1       2.086  16.576  63.555  1.00  0.00     0.120 C 
HETATM   14  N1  UNL     1       1.388  15.512  63.535  1.00  0.00    -0.387 N 
ATOM     15  H12 UNL     1       1.335  14.944  62.689  1.00  0.00     0.157 HD
ATOM     16  H11 UNL     1       0.864  15.241  64.368  1.00  0.00     0.157 HD
HETATM   17  N2  UNL     1       2.810  16.950  62.404  1.00  0.00    -0.082 NA
ENDBRANCH  10  13
ENDBRANCH   6   7
ENDBRANCH   5   6
ENDBRANCH   2   5
ENDBRANCH   1   2
BRANCH   1  18
HETATM   18  C9  UNL     1       3.244  23.302  68.979  1.00  0.00     0.051 C 
BRANCH  18  19
HETATM   19  C10 UNL     1       1.794  23.258  68.745  1.00  0.00     0.183 C 
BRANCH  19  20
HETATM   20  O1  UNL     1       1.544  22.854  67.398  1.00  0.00    -0.351 OA
BRANCH  20  21
HETATM   21  C11 UNL     1       0.308  22.258  67.131  1.00  0.00     0.068 A 
HETATM   22  C12 UNL     1      -0.745  22.196  67.986  1.00  0.00     0.037 A 
HETATM   23  C13 UNL     1      -1.945  21.590  67.649  1.00  0.00     0.003 A 
HETATM   24  C14 UNL     1      -2.075  21.018  66.374  1.00  0.00     0.000 A 
HETATM   25  C15 UNL     1      -1.016  21.073  65.500  1.00  0.00     0.003 A 
HETATM   26  C16 UNL     1       0.163  21.684  65.870  1.00  0.00     0.037 A 
ENDBRANCH  20  21
ENDBRANCH  19  20
ENDBRANCH  18  19
BRANCH  18  27
HETATM   27  C17 UNL     1       3.882  24.666  68.842  1.00  0.00     0.171 C 
BRANCH  27  28
HETATM   28  S1  UNL     1       3.760  25.678  70.261  1.00  0.00     0.224 S 
HETATM   29  O2  UNL     1       3.696  24.770  71.469  1.00  0.00    -0.206 OA
HETATM   30  O3  UNL     1       4.856  26.637  70.469  1.00  0.00    -0.206 OA
BRANCH  28  31
HETATM   31  N4  UNL     1       2.251  26.571  70.273  1.00  0.00    -0.328 N 
ATOM     32  H42 UNL     1       1.374  26.193  70.633  1.00  0.00     0.168 HD
ATOM     33  H41 UNL     1       2.372  27.503  69.876  1.00  0.00     0.168 HD
ENDBRANCH  28  31
ENDBRANCH  27  28
ENDBRANCH  18  27
ENDBRANCH   1  18
TORSDOF 12
ENDMDL
MODEL 2
REMARK VINA RESULT: -7.550982895      4.009      5.835
REMARK  12 active torsions:
REMARK  status: ('A' for Active; 'I' for Inactive)
REMARK    1  A    between atoms: C1_4  and  C2_6 
REMARK    2  A    between atoms: C5_9  and  C6_10 
REMARK    3  A    between atoms: C6_10  and  C7_11 
REMARK    4  A    between atoms: C7_11  and  N3_12 
REMARK    5  A    between atoms: N3_12  and  C8_15 
REMARK    6  A    between atoms: C8_15  and  C9_16 
REMARK    7  A    between atoms: C9_16  and  C10_17 
REMARK    8  A    between atoms: C9_16  and  C17_25 
REMARK    9  A    between atoms: C10_17  and  O1_18 
REMARK   10  A    between atoms: O1_18  and  C11_19 
REMARK   11  A    between atoms: C17_25  and  S1_26 
REMARK   12  A    between atoms: S1_26  and  N4_27 
ROOT
HETATM    1  C8  UNL     1       5.464  18.755  66.631  1.00  0.00     0.239 C 
ENDROOT
BRANCH   1   2
HETATM    2  N3  UNL     1       4.461  19.213  65.705  1.00  0.00    -0.074 N 
ATOM      3  H32 UNL     1       4.901  19.596  64.868  1.00  0.00     0.277 HD
ATOM      4  H31 UNL     1       4.004  20.051  66.063  1.00  0.00     0.277 HD
BRANCH   2   5
HETATM    5  C7  UNL     1       3.506  18.250  65.354  1.00  0.00     0.237 C 
BRANCH   5   6
HETATM    6  C6  UNL     1       2.591  17.700  66.401  1.00  0.00     0.066 C 
BRANCH   6   7
HETATM    7  C5  UNL     1       1.387  18.634  66.420  1.00  0.00    -0.057 A 
HETATM    8  C4  UNL     1       0.172  18.279  65.911  1.00  0.00     0.008 A 
HETATM    9  C3  UNL     1      -0.857  19.207  65.852  1.00  0.00     0.015 A 
HETATM   10  C2  UNL     1      -0.673  20.485  66.298  1.00  0.00     0.004 A 
HETATM   11  C19 UNL     1       0.584  20.839  66.825  1.00  0.00     0.015 A 
HETATM   12  C18 UNL     1       1.584  19.907  66.873  1.00  0.00     0.008 A 
BRANCH  10  13
HETATM   13  C1  UNL     1      -1.692  21.531  66.235  1.00  0.00     0.120 C 
HETATM   14  N1  UNL     1      -2.697  21.408  65.463  1.00  0.00    -0.387 N 
ATOM     15  H12 UNL     1      -3.408  22.139  65.419  1.00  0.00     0.157 HD
ATOM     16  H11 UNL     1      -2.797  20.562  64.901  1.00  0.00     0.157 HD
HETATM   17  N2  UNL     1      -1.555  22.701  67.011  1.00  0.00    -0.082 NA
ENDBRANCH  10  13
ENDBRANCH   6   7
ENDBRANCH   5   6
ENDBRANCH   2   5
ENDBRANCH   1   2
BRANCH   1  18
HETATM   18  C9  UNL     1       6.569  19.749  66.844  1.00  0.00     0.051 C 
BRANCH  18  19
HETATM   19  C10 UNL     1       6.307  20.610  68.005  1.00  0.00     0.183 C 
BRANCH  19  20
HETATM   20  O1  UNL     1       5.160  20.127  68.704  1.00  0.00    -0.351 OA
BRANCH  20  21
HETATM   21  C11 UNL     1       4.154  21.054  68.995  1.00  0.00     0.068 A 
HETATM   22  C12 UNL     1       3.205  20.920  69.957  1.00  0.00     0.037 A 
HETATM   23  C13 UNL     1       2.239  21.886  70.190  1.00  0.00     0.003 A 
HETATM   24  C14 UNL     1       2.243  23.047  69.401  1.00  0.00     0.000 A 
HETATM   25  C15 UNL     1       3.197  23.193  68.423  1.00  0.00     0.003 A 
HETATM   26  C16 UNL     1       4.143  22.211  68.219  1.00  0.00     0.037 A 
ENDBRANCH  20  21
ENDBRANCH  19  20
ENDBRANCH  18  19
BRANCH  18  27
HETATM   27  C17 UNL     1       6.763  20.471  65.531  1.00  0.00     0.171 C 
BRANCH  27  28
HETATM   28  S1  UNL     1       8.423  20.590  64.999  1.00  0.00     0.224 S 
HETATM   29  O2  UNL     1       8.554  21.856  64.181  1.00  0.00    -0.206 OA
HETATM   30  O3  UNL     1       9.442  20.626  66.060  1.00  0.00    -0.206 OA
BRANCH  28  31
HETATM   31  N4  UNL     1       8.831  19.285  63.902  1.00  0.00    -0.328 N 
ATOM     32  H42 UNL     1       8.967  19.412  62.899  1.00  0.00     0.168 HD
ATOM     33  H41 UNL     1       8.912  18.398  64.400  1.00  0.00     0.168 HD
ENDBRANCH  28  31
ENDBRANCH  27  28
ENDBRANCH  18  27
ENDBRANCH   1  18
TORSDOF 12
ENDMDL
MODEL 3
REMARK VINA RESULT: -7.432025146      3.312      5.049
REMARK  12 active torsions:
REMARK  status: ('A' for Active; 'I' for Inactive)
REMARK    1  A    between atoms: C1_4  and  C2_6 
REMARK    2  A    between atoms: C5_9  and  C6_10 
REMARK    3  A    between atoms: C6_10  and  C7_11 
REMARK    4  A    between atoms: C7_11  and  N3_12 
REMARK    5  A    between atoms: N3_12  and  C8_15 
REMARK    6  A    between atoms: C8_15  and  C9_16 
REMARK    7  A    between atoms: C9_16  and  C10_17 
REMARK    8  A    between atoms: C9_16  and  C17_25 
REMARK    9  A    between atoms: C10_17  and  O1_18 
REMARK   10  A    between atoms: O1_18  and  C11_19 
REMARK   11  A    between atoms: C17_25  and  S1_26 
REMARK   12  A    between atoms: S1_26  and  N4_27 
ROOT
HETATM    1  C8  UNL     1       1.490  22.467  67.990  1.00  0.00     0.239 C 
ENDROOT
BRANCH   1   2
HETATM    2  N3  UNL     1       0.079  22.337  68.244  1.00  0.00    -0.074 N 
ATOM      3  H32 UNL     1      -0.212  22.992  68.970  1.00  0.00     0.277 HD
ATOM      4  H31 UNL     1      -0.116  21.453  68.715  1.00  0.00     0.277 HD
BRANCH   2   5
HETATM    5  C7  UNL     1      -0.734  22.473  67.111  1.00  0.00     0.237 C 
BRANCH   5   6
HETATM    6  C6  UNL     1      -1.753  21.423  66.802  1.00  0.00     0.066 C 
BRANCH   6   7
HETATM    7  C5  UNL     1      -0.967  20.258  66.211  1.00  0.00    -0.057 A 
HETATM    8  C4  UNL     1      -1.242  18.956  66.514  1.00  0.00     0.008 A 
HETATM    9  C3  UNL     1      -0.426  17.942  66.037  1.00  0.00     0.015 A 
HETATM   10  C2  UNL     1       0.661  18.226  65.261  1.00  0.00     0.004 A 
HETATM   11  C19 UNL     1       0.934  19.573  64.951  1.00  0.00     0.015 A 
HETATM   12  C18 UNL     1       0.114  20.557  65.433  1.00  0.00     0.008 A 
BRANCH  10  13
HETATM   13  C1  UNL     1       1.592  17.220  64.752  1.00  0.00     0.120 C 
HETATM   14  N1  UNL     1       2.313  16.543  65.554  1.00  0.00    -0.387 N 
ATOM     15  H12 UNL     1       2.962  15.842  65.198  1.00  0.00     0.157 HD
ATOM     16  H11 UNL     1       2.221  16.693  66.558  1.00  0.00     0.157 HD
HETATM   17  N2  UNL     1       1.720  17.012  63.363  1.00  0.00    -0.082 NA
ENDBRANCH  10  13
ENDBRANCH   6   7
ENDBRANCH   5   6
ENDBRANCH   2   5
ENDBRANCH   1   2
BRANCH   1  18
HETATM   18  C9  UNL     1       2.284  21.277  68.444  1.00  0.00     0.051 C 
BRANCH  18  19
HETATM   19  C10 UNL     1       2.798  21.454  69.808  1.00  0.00     0.183 C 
BRANCH  19  20
HETATM   20  O1  UNL     1       2.100  22.528  70.441  1.00  0.00    -0.351 OA
BRANCH  20  21
HETATM   21  C11 UNL     1       1.421  22.234  71.628  1.00  0.00     0.068 A 
HETATM   22  C12 UNL     1       0.335  22.894  72.105  1.00  0.00     0.037 A 
HETATM   23  C13 UNL     1      -0.290  22.542  73.291  1.00  0.00     0.003 A 
HETATM   24  C14 UNL     1       0.221  21.461  74.026  1.00  0.00     0.000 A 
HETATM   25  C15 UNL     1       1.321  20.786  73.554  1.00  0.00     0.003 A 
HETATM   26  C16 UNL     1       1.917  21.165  72.370  1.00  0.00     0.037 A 
ENDBRANCH  20  21
ENDBRANCH  19  20
ENDBRANCH  18  19
BRANCH  18  27
HETATM   27  C17 UNL     1       3.332  21.023  67.384  1.00  0.00     0.171 C 
BRANCH  27  28
HETATM   28  S1  UNL     1       3.946  19.388  67.337  1.00  0.00     0.224 S 
HETATM   29  O2  UNL     1       2.862  18.475  67.865  1.00  0.00    -0.206 OA
HETATM   30  O3  UNL     1       4.360  18.889  66.017  1.00  0.00    -0.206 OA
BRANCH  28  31
HETATM   31  N4  UNL     1       5.296  19.189  68.438  1.00  0.00    -0.328 N 
ATOM     32  H42 UNL     1       6.265  19.094  68.132  1.00  0.00     0.168 HD
ATOM     33  H41 UNL     1       4.981  19.180  69.409  1.00  0.00     0.168 HD
ENDBRANCH  28  31
ENDBRANCH  27  28
ENDBRANCH  18  27
ENDBRANCH   1  18
TORSDOF 12
ENDMDL
MODEL 4
REMARK VINA RESULT: -7.431736188      2.103      2.412
REMARK  12 active torsions:
REMARK  status: ('A' for Active; 'I' for Inactive)
REMARK    1  A    between atoms: C1_4  and  C2_6 
REMARK    2  A    between atoms: C5_9  and  C6_10 
REMARK    3  A    between atoms: C6_10  and  C7_11 
REMARK    4  A    between atoms: C7_11  and  N3_12 
REMARK    5  A    between atoms: N3_12  and  C8_15 
REMARK    6  A    between atoms: C8_15  and  C9_16 
REMARK    7  A    between atoms: C9_16  and  C10_17 
REMARK    8  A    between atoms: C9_16  and  C17_25 
REMARK    9  A    between atoms: C10_17  and  O1_18 
REMARK   10  A    between atoms: O1_18  and  C11_19 
REMARK   11  A    between atoms: C17_25  and  S1_26 
REMARK   12  A    between atoms: S1_26  and  N4_27 
ROOT
HETATM    1  C8  UNL     1       3.996  22.691  69.769  1.00  0.00     0.239 C 
ENDROOT
BRANCH   1   2
HETATM    2  N3  UNL     1       4.531  21.596  70.536  1.00  0.00    -0.074 N 
ATOM      3  H32 UNL     1       4.090  21.559  71.455  1.00  0.00     0.277 HD
ATOM      4  H31 UNL     1       5.494  21.794  70.811  1.00  0.00     0.277 HD
BRANCH   2   5
HETATM    5  C7  UNL     1       4.452  20.348  69.906  1.00  0.00     0.237 C 
BRANCH   5   6
HETATM    6  C6  UNL     1       5.290  20.074  68.698  1.00  0.00     0.066 C 
BRANCH   6   7
HETATM    7  C5  UNL     1       4.334  19.486  67.667  1.00  0.00    -0.057 A 
HETATM    8  C4  UNL     1       3.066  19.089  67.980  1.00  0.00     0.008 A 
HETATM    9  C3  UNL     1       2.278  18.458  67.030  1.00  0.00     0.015 A 
HETATM   10  C2  UNL     1       2.753  18.224  65.771  1.00  0.00     0.004 A 
HETATM   11  C19 UNL     1       4.062  18.642  65.457  1.00  0.00     0.015 A 
HETATM   12  C18 UNL     1       4.821  19.262  66.411  1.00  0.00     0.008 A 
BRANCH  10  13
HETATM   13  C1  UNL     1       2.002  17.532  64.726  1.00  0.00     0.120 C 
HETATM   14  N1  UNL     1       0.956  16.867  65.014  1.00  0.00    -0.387 N 
ATOM     15  H12 UNL     1       0.433  16.384  64.285  1.00  0.00     0.157 HD
ATOM     16  H11 UNL     1       0.634  16.836  65.982  1.00  0.00     0.157 HD
HETATM   17  N2  UNL     1       2.448  17.574  63.388  1.00  0.00    -0.082 NA
ENDBRANCH  10  13
ENDBRANCH   6   7
ENDBRANCH   5   6
ENDBRANCH   2   5
ENDBRANCH   1   2
BRANCH   1  18
HETATM   18  C9  UNL     1       2.532  22.543  69.471  1.00  0.00     0.051 C 
BRANCH  18  19
HETATM   19  C10 UNL     1       2.237  22.803  68.056  1.00  0.00     0.183 C 
BRANCH  19  20
HETATM   20  O1  UNL     1       0.877  23.220  67.925  1.00  0.00    -0.351 OA
BRANCH  20  21
HETATM   21  C11 UNL     1      -0.017  22.306  67.358  1.00  0.00     0.068 A 
HETATM   22  C12 UNL     1      -1.290  22.080  67.773  1.00  0.00     0.037 A 
HETATM   23  C13 UNL     1      -2.122  21.158  67.159  1.00  0.00     0.003 A 
HETATM   24  C14 UNL     1      -1.629  20.432  66.062  1.00  0.00     0.000 A 
HETATM   25  C15 UNL     1      -0.342  20.652  65.634  1.00  0.00     0.003 A 
HETATM   26  C16 UNL     1       0.457  21.576  66.271  1.00  0.00     0.037 A 
ENDBRANCH  20  21
ENDBRANCH  19  20
ENDBRANCH  18  19
BRANCH  18  27
HETATM   27  C17 UNL     1       1.796  23.418  70.459  1.00  0.00     0.171 C 
BRANCH  27  28
HETATM   28  S1  UNL     1       1.193  22.584  71.871  1.00  0.00     0.224 S 
HETATM   29  O2  UNL     1      -0.309  22.468  71.730  1.00  0.00    -0.206 OA
HETATM   30  O3  UNL     1       1.734  21.236  72.107  1.00  0.00    -0.206 OA
BRANCH  28  31
HETATM   31  N4  UNL     1       1.450  23.531  73.324  1.00  0.00    -0.328 N 
ATOM     32  H42 UNL     1       1.527  23.125  74.257  1.00  0.00     0.168 HD
ATOM     33  H41 UNL     1       1.511  24.526  73.108  1.00  0.00     0.168 HD
ENDBRANCH  28  31
ENDBRANCH  27  28
ENDBRANCH  18  27
ENDBRANCH   1  18
TORSDOF 12
ENDMDL
MODEL 5
REMARK VINA RESULT: -7.426801604      4.690      6.992
REMARK  12 active torsions:
REMARK  status: ('A' for Active; 'I' for Inactive)
REMARK    1  A    between atoms: C1_4  and  C2_6 
REMARK    2  A    between atoms: C5_9  and  C6_10 
REMARK    3  A    between atoms: C6_10  and  C7_11 
REMARK    4  A    between atoms: C7_11  and  N3_12 
REMARK    5  A    between atoms: N3_12  and  C8_15 
REMARK    6  A    between atoms: C8_15  and  C9_16 
REMARK    7  A    between atoms: C9_16  and  C10_17 
REMARK    8  A    between atoms: C9_16  and  C17_25 
REMARK    9  A    between atoms: C10_17  and  O1_18 
REMARK   10  A    between atoms: O1_18  and  C11_19 
REMARK   11  A    between atoms: C17_25  and  S1_26 
REMARK   12  A    between atoms: S1_26  and  N4_27 
ROOT
HETATM    1  C8  UNL     1       4.466  18.286  66.629  1.00  0.00     0.239 C 
ENDROOT
BRANCH   1   2
HETATM    2  N3  UNL     1       4.568  18.924  67.916  1.00  0.00    -0.074 N 
ATOM      3  H32 UNL     1       4.769  18.232  68.639  1.00  0.00     0.277 HD
ATOM      4  H31 UNL     1       3.650  19.242  68.227  1.00  0.00     0.277 HD
BRANCH   2   5
HETATM    5  C7  UNL     1       5.492  19.974  67.977  1.00  0.00     0.237 C 
BRANCH   5   6
HETATM    6  C6  UNL     1       5.849  20.720  66.731  1.00  0.00     0.066 C 
BRANCH   6   7
HETATM    7  C5  UNL     1       7.228  20.209  66.334  1.00  0.00    -0.057 A 
HETATM    8  C4  UNL     1       8.053  19.561  67.207  1.00  0.00     0.008 A 
HETATM    9  C3  UNL     1       9.341  19.217  66.825  1.00  0.00     0.015 A 
HETATM   10  C2  UNL     1       9.804  19.519  65.577  1.00  0.00     0.004 A 
HETATM   11  C19 UNL     1       8.943  20.184  64.682  1.00  0.00     0.015 A 
HETATM   12  C18 UNL     1       7.677  20.513  65.080  1.00  0.00     0.008 A 
BRANCH  10  13
HETATM   13  C1  UNL     1      11.159  19.227  65.110  1.00  0.00     0.120 C 
HETATM   14  N1  UNL     1      11.468  18.056  64.718  1.00  0.00    -0.387 N 
ATOM     15  H12 UNL     1      12.414  17.853  64.394  1.00  0.00     0.157 HD
ATOM     16  H11 UNL     1      10.757  17.325  64.713  1.00  0.00     0.157 HD
HETATM   17  N2  UNL     1      12.143  20.237  65.118  1.00  0.00    -0.082 NA
ENDBRANCH  10  13
ENDBRANCH   6   7
ENDBRANCH   5   6
ENDBRANCH   2   5
ENDBRANCH   1   2
BRANCH   1  18
HETATM   18  C9  UNL     1       3.074  18.306  66.069  1.00  0.00     0.051 C 
BRANCH  18  19
HETATM   19  C10 UNL     1       2.092  18.744  67.070  1.00  0.00     0.183 C 
BRANCH  19  20
HETATM   20  O1  UNL     1       1.903  20.155  66.961  1.00  0.00    -0.351 OA
BRANCH  20  21
HETATM   21  C11 UNL     1       0.589  20.612  66.816  1.00  0.00     0.068 A 
HETATM   22  C12 UNL     1      -0.465  19.873  66.383  1.00  0.00     0.037 A 
HETATM   23  C13 UNL     1      -1.744  20.394  66.267  1.00  0.00     0.003 A 
HETATM   24  C14 UNL     1      -1.957  21.739  66.613  1.00  0.00     0.000 A 
HETATM   25  C15 UNL     1      -0.898  22.497  67.051  1.00  0.00     0.003 A 
HETATM   26  C16 UNL     1       0.361  21.944  67.152  1.00  0.00     0.037 A 
ENDBRANCH  20  21
ENDBRANCH  19  20
ENDBRANCH  18  19
BRANCH  18  27
HETATM   27  C17 UNL     1       2.826  16.940  65.471  1.00  0.00     0.171 C 
BRANCH  27  28
HETATM   28  S1  UNL     1       1.993  16.953  63.935  1.00  0.00     0.224 S 
HETATM   29  O2  UNL     1       0.649  17.611  64.147  1.00  0.00    -0.206 OA
HETATM   30  O3  UNL     1       2.675  17.652  62.834  1.00  0.00    -0.206 OA
BRANCH  28  31
HETATM   31  N4  UNL     1       1.632  15.323  63.398  1.00  0.00    -0.328 N 
ATOM     32  H42 UNL     1       1.370  14.565  64.030  1.00  0.00     0.168 HD
ATOM     33  H41 UNL     1       1.719  15.242  62.385  1.00  0.00     0.168 HD
ENDBRANCH  28  31
ENDBRANCH  27  28
ENDBRANCH  18  27
ENDBRANCH   1  18
TORSDOF 12
ENDMDL
