MODEL 1
REMARK VINA RESULT: -7.810225564      0.000      0.000
REMARK  11 active torsions:
REMARK  status: ('A' for Active; 'I' for Inactive)
REMARK    1  A    between atoms: C2_2  and  C3_3 
REMARK    2  A    between atoms: N2_6  and  C4_7 
REMARK    3  A    between atoms: C4_7  and  C5_8 
REMARK    4  A    between atoms: C5_8  and  C6_9 
REMARK    5  A    between atoms: C13_18  and  N4_19 
REMARK    6  A    between atoms: N6_25  and  C15_27 
REMARK    7  A    between atoms: C15_27  and  C16_28 
REMARK    8  A    between atoms: C16_28  and  N7_29 
REMARK    9  A    between atoms: N7_29  and  C17_31 
REMARK   10  A    between atoms: C17_31  and  C18_32 
REMARK   11  A    between atoms: N8_33  and  C19_35 
ROOT
HETATM    1  C3  UNL     1       4.580  20.234  67.191  1.00  0.00     0.043 A 
HETATM    2  N1  UNL     1       3.323  20.704  67.352  1.00  0.00    -0.300 N 
ATOM      3  H1  UNL     1       2.524  20.453  66.770  1.00  0.00     0.187 HD
HETATM    4  N2  UNL     1       3.284  21.545  68.387  1.00  0.00    -0.275 N 
HETATM    5  C12 UNL     1       4.532  21.623  68.906  1.00  0.00     0.153 A 
HETATM    6  N3  UNL     1       4.973  22.341  69.952  1.00  0.00    -0.174 N 
ATOM      7  H3  UNL     1       4.334  22.936  70.479  1.00  0.00     0.186 HD
HETATM    8  C13 UNL     1       6.287  22.261  70.296  1.00  0.00     0.679 A 
HETATM    9  N5  UNL     1       7.091  21.466  69.577  1.00  0.00    -0.176 N 
ATOM     10  H5  UNL     1       8.073  21.419  69.849  1.00  0.00     0.186 HD
HETATM   11  C14 UNL     1       6.703  20.727  68.524  1.00  0.00     0.133 A 
HETATM   12  N6  UNL     1       7.493  19.963  67.847  1.00  0.00    -0.373 N 
ATOM     13  H6  UNL     1       7.082  19.450  67.068  1.00  0.00     0.161 HD
HETATM   14  C20 UNL     1       5.368  20.803  68.166  1.00  0.00     0.078 A 
ENDROOT
BRANCH  12  15
HETATM   15  C15 UNL     1       8.886  19.765  68.083  1.00  0.00     0.140 C 
BRANCH  15  16
HETATM   16  C16 UNL     1       9.433  18.597  67.293  1.00  0.00     0.133 C 
BRANCH  16  17
HETATM   17  N7  UNL     1      10.606  18.950  66.546  1.00  0.00    -0.415 N 
ATOM     18  H7  UNL     1      11.520  18.539  66.734  1.00  0.00     0.153 HD
BRANCH  17  19
HETATM   19  C17 UNL     1      10.396  19.924  65.515  1.00  0.00     0.158 C 
BRANCH  19  20
HETATM   20  C18 UNL     1       9.479  19.351  64.509  1.00  0.00     0.082 C 
HETATM   21  N8  UNL     1       8.467  20.007  64.112  1.00  0.00    -0.346 N 
ATOM     22  H8  UNL     1       7.867  19.563  63.417  1.00  0.00     0.167 HD
BRANCH  21  23
HETATM   23  C19 UNL     1       8.105  21.295  64.553  1.00  0.00     0.352 C 
HETATM   24  O1  UNL     1       8.435  22.315  63.913  1.00  0.00    -0.283 OA
ENDBRANCH  21  23
ENDBRANCH  19  20
ENDBRANCH  17  19
ENDBRANCH  16  17
ENDBRANCH  15  16
ENDBRANCH  12  15
BRANCH   8  25
HETATM   25  N4  UNL     1       6.728  22.959  71.314  1.00  0.00    -0.234 N 
ATOM     26  H42 UNL     1       7.722  23.135  71.459  1.00  0.00     0.174 HD
ATOM     27  H41 UNL     1       6.061  23.341  71.985  1.00  0.00     0.174 HD
ENDBRANCH   8  25
BRANCH   1  28
HETATM   28  C2  UNL     1       5.044  19.278  66.152  1.00  0.00     0.055 C 
HETATM   29  C1  UNL     1       3.903  18.477  65.558  1.00  0.00     0.011 C 
ENDBRANCH   1  28
BRANCH   4  30
HETATM   30  C4  UNL     1       2.112  22.240  68.865  1.00  0.00     0.155 C 
BRANCH  30  31
HETATM   31  C5  UNL     1       1.471  22.976  67.738  1.00  0.00     0.060 C 
BRANCH  31  32
HETATM   32  C6  UNL     1       0.260  22.316  67.223  1.00  0.00    -0.057 A 
HETATM   33  C7  UNL     1       0.122  21.793  65.959  1.00  0.00     0.007 A 
HETATM   34  C8  UNL     1      -1.049  21.179  65.530  1.00  0.00     0.001 A 
HETATM   35  C9  UNL     1      -2.137  21.080  66.399  1.00  0.00     0.000 A 
HETATM   36  C10 UNL     1      -2.011  21.598  67.659  1.00  0.00     0.001 A 
HETATM   37  C11 UNL     1      -0.828  22.208  68.064  1.00  0.00     0.007 A 
ENDBRANCH  31  32
ENDBRANCH  30  31
ENDBRANCH   4  30
TORSDOF 11
ENDMDL
MODEL 2
REMARK VINA RESULT: -7.742593286      1.137      2.996
REMARK  11 active torsions:
REMARK  status: ('A' for Active; 'I' for Inactive)
REMARK    1  A    between atoms: C2_2  and  C3_3 
REMARK    2  A    between atoms: N2_6  and  C4_7 
REMARK    3  A    between atoms: C4_7  and  C5_8 
REMARK    4  A    between atoms: C5_8  and  C6_9 
REMARK    5  A    between atoms: C13_18  and  N4_19 
REMARK    6  A    between atoms: N6_25  and  C15_27 
REMARK    7  A    between atoms: C15_27  and  C16_28 
REMARK    8  A    between atoms: C16_28  and  N7_29 
REMARK    9  A    between atoms: N7_29  and  C17_31 
REMARK   10  A    between atoms: C17_31  and  C18_32 
REMARK   11  A    between atoms: N8_33  and  C19_35 
ROOT
HETATM    1  C3  UNL     1       5.232  22.188  69.419  1.00  0.00     0.043 A 
HETATM    2  N1  UNL     1       4.166  23.016  69.345  1.00  0.00    -0.300 N 
ATOM      3  H1  UNL     1       4.023  23.840  69.928  1.00  0.00     0.187 HD
HETATM    4  N2  UNL     1       3.331  22.594  68.395  1.00  0.00    -0.275 N 
HETATM    5  C12 UNL     1       3.861  21.476  67.843  1.00  0.00     0.153 A 
HETATM    6  N3  UNL     1       3.377  20.707  66.854  1.00  0.00    -0.174 N 
ATOM      7  H3  UNL     1       2.489  20.935  66.407  1.00  0.00     0.186 HD
HETATM    8  C13 UNL     1       4.091  19.619  66.460  1.00  0.00     0.679 A 
HETATM    9  N5  UNL     1       5.253  19.357  67.074  1.00  0.00    -0.176 N 
ATOM     10  H5  UNL     1       5.776  18.537  66.765  1.00  0.00     0.186 HD
HETATM   11  C14 UNL     1       5.784  20.092  68.066  1.00  0.00     0.133 A 
HETATM   12  N6  UNL     1       6.908  19.826  68.641  1.00  0.00    -0.373 N 
ATOM     13  H6  UNL     1       7.206  20.458  69.383  1.00  0.00     0.161 HD
HETATM   14  C20 UNL     1       5.062  21.201  68.475  1.00  0.00     0.078 A 
ENDROOT
BRANCH  12  15
HETATM   15  C15 UNL     1       7.774  18.733  68.340  1.00  0.00     0.140 C 
BRANCH  15  16
HETATM   16  C16 UNL     1       9.188  19.192  68.063  1.00  0.00     0.133 C 
BRANCH  16  17
HETATM   17  N7  UNL     1       9.747  18.557  66.905  1.00  0.00    -0.415 N 
ATOM     18  H7  UNL     1       9.796  17.543  66.805  1.00  0.00     0.153 HD
BRANCH  17  19
HETATM   19  C17 UNL     1      10.230  19.454  65.896  1.00  0.00     0.158 C 
BRANCH  19  20
HETATM   20  C18 UNL     1       9.630  19.072  64.602  1.00  0.00     0.082 C 
HETATM   21  N8  UNL     1       8.697  19.767  64.094  1.00  0.00    -0.346 N 
ATOM     22  H8  UNL     1       8.318  19.457  63.199  1.00  0.00     0.167 HD
BRANCH  21  23
HETATM   23  C19 UNL     1       8.142  20.929  64.665  1.00  0.00     0.352 C 
HETATM   24  O1  UNL     1       6.957  20.955  65.059  1.00  0.00    -0.283 OA
ENDBRANCH  21  23
ENDBRANCH  19  20
ENDBRANCH  17  19
ENDBRANCH  16  17
ENDBRANCH  15  16
ENDBRANCH  12  15
BRANCH   8  25
HETATM   25  N4  UNL     1       3.628  18.860  65.496  1.00  0.00    -0.234 N 
ATOM     26  H42 UNL     1       2.645  18.872  65.223  1.00  0.00     0.174 HD
ATOM     27  H41 UNL     1       4.265  18.237  65.000  1.00  0.00     0.174 HD
ENDBRANCH   8  25
BRANCH   1  28
HETATM   28  C2  UNL     1       6.387  22.307  70.348  1.00  0.00     0.055 C 
HETATM   29  C1  UNL     1       6.017  21.941  71.772  1.00  0.00     0.011 C 
ENDBRANCH   1  28
BRANCH   4  30
HETATM   30  C4  UNL     1       2.087  23.226  68.024  1.00  0.00     0.155 C 
BRANCH  30  31
HETATM   31  C5  UNL     1       0.953  22.540  68.707  1.00  0.00     0.060 C 
BRANCH  31  32
HETATM   32  C6  UNL     1      -0.107  22.105  67.783  1.00  0.00    -0.057 A 
HETATM   33  C7  UNL     1      -1.416  21.874  68.135  1.00  0.00     0.007 A 
HETATM   34  C8  UNL     1      -2.374  21.464  67.215  1.00  0.00     0.001 A 
HETATM   35  C9  UNL     1      -2.016  21.273  65.879  1.00  0.00     0.000 A 
HETATM   36  C10 UNL     1      -0.716  21.499  65.518  1.00  0.00     0.001 A 
HETATM   37  C11 UNL     1       0.225  21.909  66.458  1.00  0.00     0.007 A 
ENDBRANCH  31  32
ENDBRANCH  30  31
ENDBRANCH   4  30
TORSDOF 11
ENDMDL
MODEL 3
REMARK VINA RESULT: -7.692808009      1.903      3.468
REMARK  11 active torsions:
REMARK  status: ('A' for Active; 'I' for Inactive)
REMARK    1  A    between atoms: C2_2  and  C3_3 
REMARK    2  A    between atoms: N2_6  and  C4_7 
REMARK    3  A    between atoms: C4_7  and  C5_8 
REMARK    4  A    between atoms: C5_8  and  C6_9 
REMARK    5  A    between atoms: C13_18  and  N4_19 
REMARK    6  A    between atoms: N6_25  and  C15_27 
REMARK    7  A    between atoms: C15_27  and  C16_28 
REMARK    8  A    between atoms: C16_28  and  N7_29 
REMARK    9  A    between atoms: N7_29  and  C17_31 
REMARK   10  A    between atoms: C17_31  and  C18_32 
REMARK   11  A    between atoms: N8_33  and  C19_35 
ROOT
HETATM    1  C3  UNL     1       3.790  19.247  68.817  1.00  0.00     0.043 A 
HETATM    2  N1  UNL     1       2.773  18.837  68.027  1.00  0.00    -0.300 N 
ATOM      3  H1  UNL     1       1.846  18.569  68.356  1.00  0.00     0.187 HD
HETATM    4  N2  UNL     1       3.164  18.833  66.751  1.00  0.00    -0.275 N 
HETATM    5  C12 UNL     1       4.453  19.248  66.712  1.00  0.00     0.153 A 
HETATM    6  N3  UNL     1       5.262  19.403  65.651  1.00  0.00    -0.174 N 
ATOM      7  H3  UNL     1       4.927  19.199  64.709  1.00  0.00     0.186 HD
HETATM    8  C13 UNL     1       6.535  19.837  65.854  1.00  0.00     0.679 A 
HETATM    9  N5  UNL     1       6.932  20.095  67.107  1.00  0.00    -0.176 N 
ATOM     10  H5  UNL     1       7.890  20.419  67.241  1.00  0.00     0.186 HD
HETATM   11  C14 UNL     1       6.166  19.958  68.203  1.00  0.00     0.133 A 
HETATM   12  N6  UNL     1       6.567  20.216  69.402  1.00  0.00    -0.373 N 
ATOM     13  H6  UNL     1       5.893  20.073  70.153  1.00  0.00     0.161 HD
HETATM   14  C20 UNL     1       4.869  19.515  68.006  1.00  0.00     0.078 A 
ENDROOT
BRANCH  12  15
HETATM   15  C15 UNL     1       7.861  20.683  69.779  1.00  0.00     0.140 C 
BRANCH  15  16
HETATM   16  C16 UNL     1       8.720  19.574  70.345  1.00  0.00     0.133 C 
BRANCH  16  17
HETATM   17  N7  UNL     1       9.173  18.668  69.329  1.00  0.00    -0.415 N 
ATOM     18  H7  UNL     1       8.802  17.723  69.231  1.00  0.00     0.153 HD
BRANCH  17  19
HETATM   19  C17 UNL     1      10.187  19.191  68.461  1.00  0.00     0.158 C 
BRANCH  19  20
HETATM   20  C18 UNL     1      10.172  18.418  67.202  1.00  0.00     0.082 C 
HETATM   21  N8  UNL     1      10.457  18.977  66.099  1.00  0.00    -0.346 N 
ATOM     22  H8  UNL     1      10.430  18.397  65.260  1.00  0.00     0.167 HD
BRANCH  21  23
HETATM   23  C19 UNL     1      10.808  20.332  65.937  1.00  0.00     0.352 C 
HETATM   24  O1  UNL     1      10.018  21.147  65.416  1.00  0.00    -0.283 OA
ENDBRANCH  21  23
ENDBRANCH  19  20
ENDBRANCH  17  19
ENDBRANCH  16  17
ENDBRANCH  15  16
ENDBRANCH  12  15
BRANCH   8  25
HETATM   25  N4  UNL     1       7.333  19.991  64.825  1.00  0.00    -0.234 N 
ATOM     26  H42 UNL     1       8.187  19.444  64.717  1.00  0.00     0.174 HD
ATOM     27  H41 UNL     1       7.097  20.677  64.108  1.00  0.00     0.174 HD
ENDBRANCH   8  25
BRANCH   1  28
HETATM   28  C2  UNL     1       3.764  19.388  70.297  1.00  0.00     0.055 C 
HETATM   29  C1  UNL     1       3.106  20.679  70.739  1.00  0.00     0.011 C 
ENDBRANCH   1  28
BRANCH   4  30
HETATM   30  C4  UNL     1       2.349  18.458  65.621  1.00  0.00     0.155 C 
BRANCH  30  31
HETATM   31  C5  UNL     1       0.957  18.178  66.077  1.00  0.00     0.060 C 
BRANCH  31  32
HETATM   32  C6  UNL     1       0.062  19.342  65.965  1.00  0.00    -0.057 A 
HETATM   33  C7  UNL     1       0.462  20.620  65.654  1.00  0.00     0.007 A 
HETATM   34  C8  UNL     1      -0.433  21.679  65.563  1.00  0.00     0.001 A 
HETATM   35  C9  UNL     1      -1.792  21.460  65.792  1.00  0.00     0.000 A 
HETATM   36  C10 UNL     1      -2.202  20.193  66.103  1.00  0.00     0.001 A 
HETATM   37  C11 UNL     1      -1.286  19.148  66.189  1.00  0.00     0.007 A 
ENDBRANCH  31  32
ENDBRANCH  30  31
ENDBRANCH   4  30
TORSDOF 11
ENDMDL
MODEL 4
REMARK VINA RESULT: -7.432904931      1.840      2.352
REMARK  11 active torsions:
REMARK  status: ('A' for Active; 'I' for Inactive)
REMARK    1  A    between atoms: C2_2  and  C3_3 
REMARK    2  A    between atoms: N2_6  and  C4_7 
REMARK    3  A    between atoms: C4_7  and  C5_8 
REMARK    4  A    between atoms: C5_8  and  C6_9 
REMARK    5  A    between atoms: C13_18  and  N4_19 
REMARK    6  A    between atoms: N6_25  and  C15_27 
REMARK    7  A    between atoms: C15_27  and  C16_28 
REMARK    8  A    between atoms: C16_28  and  N7_29 
REMARK    9  A    between atoms: N7_29  and  C17_31 
REMARK   10  A    between atoms: C17_31  and  C18_32 
REMARK   11  A    between atoms: N8_33  and  C19_35 
ROOT
HETATM    1  C3  UNL     1       6.176  19.673  66.335  1.00  0.00     0.043 A 
HETATM    2  N1  UNL     1       4.875  19.553  65.988  1.00  0.00    -0.300 N 
ATOM      3  H1  UNL     1       4.528  19.458  65.034  1.00  0.00     0.187 HD
HETATM    4  N2  UNL     1       4.111  19.579  67.082  1.00  0.00    -0.275 N 
HETATM    5  C12 UNL     1       4.927  19.716  68.155  1.00  0.00     0.153 A 
HETATM    6  N3  UNL     1       4.610  19.789  69.458  1.00  0.00    -0.174 N 
ATOM      7  H3  UNL     1       3.637  19.740  69.758  1.00  0.00     0.186 HD
HETATM    8  C13 UNL     1       5.611  19.927  70.369  1.00  0.00     0.679 A 
HETATM    9  N5  UNL     1       6.875  19.986  69.931  1.00  0.00    -0.176 N 
ATOM     10  H5  UNL     1       7.612  20.090  70.628  1.00  0.00     0.186 HD
HETATM   11  C14 UNL     1       7.248  19.918  68.641  1.00  0.00     0.133 A 
HETATM   12  N6  UNL     1       8.473  19.971  68.239  1.00  0.00    -0.373 N 
ATOM     13  H6  UNL     1       8.630  19.910  67.234  1.00  0.00     0.161 HD
HETATM   14  C20 UNL     1       6.236  19.778  67.706  1.00  0.00     0.078 A 
ENDROOT
BRANCH  12  15
HETATM   15  C15 UNL     1       9.629  20.107  69.064  1.00  0.00     0.140 C 
BRANCH  15  16
HETATM   16  C16 UNL     1      10.500  18.872  69.026  1.00  0.00     0.133 C 
BRANCH  16  17
HETATM   17  N7  UNL     1      10.160  18.002  67.937  1.00  0.00    -0.415 N 
ATOM     18  H7  UNL     1       9.235  17.582  67.839  1.00  0.00     0.153 HD
BRANCH  17  19
HETATM   19  C17 UNL     1      11.216  17.766  66.997  1.00  0.00     0.158 C 
BRANCH  19  20
HETATM   20  C18 UNL     1      10.711  18.059  65.641  1.00  0.00     0.082 C 
HETATM   21  N8  UNL     1      10.909  19.196  65.111  1.00  0.00    -0.346 N 
ATOM     22  H8  UNL     1      10.538  19.346  64.173  1.00  0.00     0.167 HD
BRANCH  21  23
HETATM   23  C19 UNL     1      11.597  20.268  65.713  1.00  0.00     0.352 C 
HETATM   24  O1  UNL     1      11.008  21.325  66.021  1.00  0.00    -0.283 OA
ENDBRANCH  21  23
ENDBRANCH  19  20
ENDBRANCH  17  19
ENDBRANCH  16  17
ENDBRANCH  15  16
ENDBRANCH  12  15
BRANCH   8  25
HETATM   25  N4  UNL     1       5.313  20.000  71.644  1.00  0.00    -0.234 N 
ATOM     26  H42 UNL     1       4.465  20.459  71.976  1.00  0.00     0.174 HD
ATOM     27  H41 UNL     1       5.945  19.586  72.329  1.00  0.00     0.174 HD
ENDBRANCH   8  25
BRANCH   1  28
HETATM   28  C2  UNL     1       7.343  19.691  65.414  1.00  0.00     0.055 C 
HETATM   29  C1  UNL     1       7.618  21.077  64.865  1.00  0.00     0.011 C 
ENDBRANCH   1  28
BRANCH   4  30
HETATM   30  C4  UNL     1       2.672  19.473  67.108  1.00  0.00     0.155 C 
BRANCH  30  31
HETATM   31  C5  UNL     1       2.070  20.835  67.172  1.00  0.00     0.060 C 
BRANCH  31  32
HETATM   32  C6  UNL     1       0.637  20.856  66.837  1.00  0.00    -0.057 A 
HETATM   33  C7  UNL     1      -0.076  19.787  66.347  1.00  0.00     0.007 A 
HETATM   34  C8  UNL     1      -1.431  19.868  66.049  1.00  0.00     0.001 A 
HETATM   35  C9  UNL     1      -2.113  21.070  66.246  1.00  0.00     0.000 A 
HETATM   36  C10 UNL     1      -1.414  22.140  66.732  1.00  0.00     0.001 A 
HETATM   37  C11 UNL     1      -0.057  22.034  67.023  1.00  0.00     0.007 A 
ENDBRANCH  31  32
ENDBRANCH  30  31
ENDBRANCH   4  30
TORSDOF 11
ENDMDL
MODEL 5
REMARK VINA RESULT: -7.401995321      3.762      6.588
REMARK  11 active torsions:
REMARK  status: ('A' for Active; 'I' for Inactive)
REMARK    1  A    between atoms: C2_2  and  C3_3 
REMARK    2  A    between atoms: N2_6  and  C4_7 
REMARK    3  A    between atoms: C4_7  and  C5_8 
REMARK    4  A    between atoms: C5_8  and  C6_9 
REMARK    5  A    between atoms: C13_18  and  N4_19 
REMARK    6  A    between atoms: N6_25  and  C15_27 
REMARK    7  A    between atoms: C15_27  and  C16_28 
REMARK    8  A    between atoms: C16_28  and  N7_29 
REMARK    9  A    between atoms: N7_29  and  C17_31 
REMARK   10  A    between atoms: C17_31  and  C18_32 
REMARK   11  A    between atoms: N8_33  and  C19_35 
ROOT
HETATM    1  C3  UNL     1       2.783  23.119  68.460  1.00  0.00     0.043 A 
HETATM    2  N1  UNL     1       2.722  24.336  69.045  1.00  0.00    -0.300 N 
ATOM      3  H1  UNL     1       1.936  24.982  68.973  1.00  0.00     0.187 HD
HETATM    4  N2  UNL     1       3.844  24.565  69.730  1.00  0.00    -0.275 N 
HETATM    5  C12 UNL     1       4.645  23.482  69.589  1.00  0.00     0.153 A 
HETATM    6  N3  UNL     1       5.868  23.260  70.098  1.00  0.00    -0.174 N 
ATOM      7  H3  UNL     1       6.321  23.961  70.684  1.00  0.00     0.186 HD
HETATM    8  C13 UNL     1       6.490  22.083  69.819  1.00  0.00     0.679 A 
HETATM    9  N5  UNL     1       5.858  21.190  69.046  1.00  0.00    -0.176 N 
ATOM     10  H5  UNL     1       6.340  20.313  68.848  1.00  0.00     0.186 HD
HETATM   11  C14 UNL     1       4.636  21.360  68.512  1.00  0.00     0.133 A 
HETATM   12  N6  UNL     1       4.042  20.484  67.774  1.00  0.00    -0.373 N 
ATOM     13  H6  UNL     1       3.115  20.729  67.426  1.00  0.00     0.161 HD
HETATM   14  C20 UNL     1       3.995  22.556  68.790  1.00  0.00     0.078 A 
ENDROOT
BRANCH  12  15
HETATM   15  C15 UNL     1       4.554  19.208  67.397  1.00  0.00     0.140 C 
BRANCH  15  16
HETATM   16  C16 UNL     1       4.668  19.065  65.896  1.00  0.00     0.133 C 
BRANCH  16  17
HETATM   17  N7  UNL     1       3.459  18.571  65.305  1.00  0.00    -0.415 N 
ATOM     18  H7  UNL     1       3.008  19.030  64.513  1.00  0.00     0.153 HD
BRANCH  17  19
HETATM   19  C17 UNL     1       2.931  17.383  65.909  1.00  0.00     0.158 C 
BRANCH  19  20
HETATM   20  C18 UNL     1       1.508  17.258  65.533  1.00  0.00     0.082 C 
HETATM   21  N8  UNL     1       1.178  16.747  64.419  1.00  0.00    -0.346 N 
ATOM     22  H8  UNL     1       0.182  16.686  64.209  1.00  0.00     0.167 HD
BRANCH  21  23
HETATM   23  C19 UNL     1       2.074  16.256  63.448  1.00  0.00     0.352 C 
HETATM   24  O1  UNL     1       2.578  17.012  62.591  1.00  0.00    -0.283 OA
ENDBRANCH  21  23
ENDBRANCH  19  20
ENDBRANCH  17  19
ENDBRANCH  16  17
ENDBRANCH  15  16
ENDBRANCH  12  15
BRANCH   8  25
HETATM   25  N4  UNL     1       7.685  21.856  70.310  1.00  0.00    -0.234 N 
ATOM     26  H42 UNL     1       8.411  22.572  70.320  1.00  0.00     0.174 HD
ATOM     27  H41 UNL     1       7.900  20.936  70.695  1.00  0.00     0.174 HD
ENDBRANCH   8  25
BRANCH   1  28
HETATM   28  C2  UNL     1       1.740  22.489  67.609  1.00  0.00     0.055 C 
HETATM   29  C1  UNL     1       0.378  22.495  68.273  1.00  0.00     0.011 C 
ENDBRANCH   1  28
BRANCH   4  30
HETATM   30  C4  UNL     1       4.139  25.757  70.489  1.00  0.00     0.155 C 
BRANCH  30  31
HETATM   31  C5  UNL     1       4.154  26.939  69.580  1.00  0.00     0.060 C 
BRANCH  31  32
HETATM   32  C6  UNL     1       5.504  27.476  69.342  1.00  0.00    -0.057 A 
HETATM   33  C7  UNL     1       5.781  28.678  68.736  1.00  0.00     0.007 A 
HETATM   34  C8  UNL     1       7.080  29.132  68.540  1.00  0.00     0.001 A 
HETATM   35  C9  UNL     1       8.158  28.355  68.966  1.00  0.00     0.000 A 
HETATM   36  C10 UNL     1       7.894  27.156  69.570  1.00  0.00     0.001 A 
HETATM   37  C11 UNL     1       6.584  26.723  69.755  1.00  0.00     0.007 A 
ENDBRANCH  31  32
ENDBRANCH  30  31
ENDBRANCH   4  30
TORSDOF 11
ENDMDL
