MODEL 1
REMARK VINA RESULT: -6.480854873      0.000      0.000
REMARK  3 active torsions:
REMARK  status: ('A' for Active; 'I' for Inactive)
REMARK    1  A    between atoms: C3_3  and  N1_4 
REMARK    2  A    between atoms: N2_10  and  C8_11 
REMARK    3  A    between atoms: C8_11  and  C9_12 
ROOT
HETATM    1  N1  UNL     1      -2.461   4.197  12.972  1.00  0.00    -0.386 N 
HETATM    2  C4  UNL     1      -1.992   4.922  14.114  1.00  0.00     0.148 C 
HETATM    3  C5  UNL     1      -2.801   6.168  14.287  1.00  0.00     0.188 C 
HETATM    4  O1  UNL     1      -3.925   6.146  13.530  1.00  0.00    -0.382 OA
HETATM    5  C6  UNL     1      -4.937   5.324  13.833  1.00  0.00     0.160 C 
HETATM    6  C7  UNL     1      -5.277   5.191  15.314  1.00  0.00     0.305 C 
HETATM    7  N2  UNL     1      -6.367   4.205  15.177  1.00  0.00     0.092 N 
HETATM    8  C12 UNL     1      -5.640   3.174  14.456  1.00  0.00     0.285 C 
HETATM    9  C13 UNL     1      -4.886   3.912  13.354  1.00  0.00     0.083 C 
HETATM   10  C14 UNL     1      -3.526   3.329  13.200  1.00  0.00     0.067 C 
ENDROOT
BRANCH   1  11
HETATM   11  C3  UNL     1      -2.113   4.656  11.718  1.00  0.00     0.086 C 
HETATM   12  C2  UNL     1      -0.691   5.120  11.538  1.00  0.00     0.052 C 
HETATM   13  C1  UNL     1      -0.241   4.926  10.102  1.00  0.00     0.234 C 
HETATM   14  N3  UNL     1      -0.068   3.521   9.785  1.00  0.00    -0.075 N 
HETATM   15  C16 UNL     1      -1.118   2.783  10.464  1.00  0.00     0.234 C 
ATOM     16  H32 UNL     1      -0.043   3.342   8.781  1.00  0.00     0.277 HD
ATOM     17  H31 UNL     1       0.865   3.177  10.008  1.00  0.00     0.277 HD
HETATM   18  C15 UNL     1      -2.371   3.657  10.622  1.00  0.00     0.052 C 
ENDBRANCH   1  11
BRANCH   7  19
HETATM   19  C8  UNL     1      -6.642   3.696  16.498  1.00  0.00     0.277 C 
BRANCH  19  20
HETATM   20  C9  UNL     1      -6.206   2.261  16.684  1.00  0.00     0.014 A 
HETATM   21  C10 UNL     1      -6.273   1.789  18.126  1.00  0.00     0.007 A 
HETATM   22  C11 UNL     1      -7.180   1.231  17.122  1.00  0.00     0.007 A 
ENDBRANCH  19  20
ENDBRANCH   7  19
TORSDOF 3
ENDMDL
MODEL 2
REMARK VINA RESULT: -6.073016023      3.033      4.027
REMARK  3 active torsions:
REMARK  status: ('A' for Active; 'I' for Inactive)
REMARK    1  A    between atoms: C3_3  and  N1_4 
REMARK    2  A    between atoms: N2_10  and  C8_11 
REMARK    3  A    between atoms: C8_11  and  C9_12 
ROOT
HETATM    1  N1  UNL     1      -5.508   5.896  11.998  1.00  0.00    -0.386 N 
HETATM    2  C4  UNL     1      -4.418   5.103  11.516  1.00  0.00     0.148 C 
HETATM    3  C5  UNL     1      -3.196   5.374  12.335  1.00  0.00     0.188 C 
HETATM    4  O1  UNL     1      -3.494   6.049  13.472  1.00  0.00    -0.382 OA
HETATM    5  C6  UNL     1      -4.154   5.448  14.469  1.00  0.00     0.160 C 
HETATM    6  C7  UNL     1      -3.745   4.012  14.781  1.00  0.00     0.305 C 
HETATM    7  N2  UNL     1      -4.717   3.762  15.863  1.00  0.00     0.092 N 
HETATM    8  C12 UNL     1      -5.936   4.077  15.139  1.00  0.00     0.285 C 
HETATM    9  C13 UNL     1      -5.644   5.387  14.412  1.00  0.00     0.083 C 
HETATM   10  C14 UNL     1      -6.239   5.349  13.050  1.00  0.00     0.067 C 
ENDROOT
BRANCH   1  11
HETATM   11  C3  UNL     1      -5.531   7.238  11.678  1.00  0.00     0.086 C 
HETATM   12  C2  UNL     1      -4.817   7.645  10.416  1.00  0.00     0.052 C 
HETATM   13  C1  UNL     1      -5.456   8.883   9.813  1.00  0.00     0.234 C 
HETATM   14  N3  UNL     1      -6.761   8.586   9.254  1.00  0.00    -0.075 N 
HETATM   15  C16 UNL     1      -7.408   7.625  10.128  1.00  0.00     0.234 C 
ATOM     16  H32 UNL     1      -7.324   9.423   9.099  1.00  0.00     0.277 HD
ATOM     17  H31 UNL     1      -6.716   8.272   8.285  1.00  0.00     0.277 HD
HETATM   18  C15 UNL     1      -6.923   7.805  11.574  1.00  0.00     0.052 C 
ENDBRANCH   1  11
BRANCH   7  19
HETATM   19  C8  UNL     1      -4.717   2.340  16.108  1.00  0.00     0.277 C 
BRANCH  19  20
HETATM   20  C9  UNL     1      -6.045   1.823  16.608  1.00  0.00     0.014 A 
HETATM   21  C10 UNL     1      -5.929   0.554  17.434  1.00  0.00     0.007 A 
HETATM   22  C11 UNL     1      -6.347   1.809  18.060  1.00  0.00     0.007 A 
ENDBRANCH  19  20
ENDBRANCH   7  19
TORSDOF 3
ENDMDL
MODEL 3
REMARK VINA RESULT: -6.034504033      2.148      2.938
REMARK  3 active torsions:
REMARK  status: ('A' for Active; 'I' for Inactive)
REMARK    1  A    between atoms: C3_3  and  N1_4 
REMARK    2  A    between atoms: N2_10  and  C8_11 
REMARK    3  A    between atoms: C8_11  and  C9_12 
ROOT
HETATM    1  N1  UNL     1      -3.575   5.752  12.244  1.00  0.00    -0.386 N 
HETATM    2  C4  UNL     1      -3.812   4.485  11.622  1.00  0.00     0.148 C 
HETATM    3  C5  UNL     1      -3.037   3.422  12.333  1.00  0.00     0.188 C 
HETATM    4  O1  UNL     1      -2.563   3.859  13.525  1.00  0.00    -0.382 OA
HETATM    5  C6  UNL     1      -3.393   4.083  14.550  1.00  0.00     0.160 C 
HETATM    6  C7  UNL     1      -4.507   3.060  14.751  1.00  0.00     0.305 C 
HETATM    7  N2  UNL     1      -5.160   3.706  15.907  1.00  0.00     0.092 N 
HETATM    8  C12 UNL     1      -5.407   5.011  15.318  1.00  0.00     0.285 C 
HETATM    9  C13 UNL     1      -4.099   5.395  14.632  1.00  0.00     0.083 C 
HETATM   10  C14 UNL     1      -4.389   6.056  13.332  1.00  0.00     0.067 C 
ENDROOT
BRANCH   1  11
HETATM   11  C3  UNL     1      -2.377   6.389  11.993  1.00  0.00     0.086 C 
HETATM   12  C2  UNL     1      -1.890   6.378  10.568  1.00  0.00     0.052 C 
HETATM   13  C1  UNL     1      -1.042   7.604  10.281  1.00  0.00     0.234 C 
HETATM   14  N3  UNL     1      -1.848   8.809  10.241  1.00  0.00    -0.075 N 
HETATM   15  C16 UNL     1      -2.870   8.692  11.266  1.00  0.00     0.234 C 
ATOM     16  H32 UNL     1      -1.293   9.660  10.330  1.00  0.00     0.277 HD
ATOM     17  H31 UNL     1      -2.235   8.997   9.316  1.00  0.00     0.277 HD
HETATM   18  C15 UNL     1      -2.362   7.830  12.431  1.00  0.00     0.052 C 
ENDBRANCH   1  11
BRANCH   7  19
HETATM   19  C8  UNL     1      -6.439   3.063  16.081  1.00  0.00     0.277 C 
BRANCH  19  20
HETATM   20  C9  UNL     1      -6.528   2.252  17.352  1.00  0.00     0.014 A 
HETATM   21  C10 UNL     1      -7.310   0.959  17.193  1.00  0.00     0.007 A 
HETATM   22  C11 UNL     1      -5.869   0.926  17.445  1.00  0.00     0.007 A 
ENDBRANCH  19  20
ENDBRANCH   7  19
TORSDOF 3
ENDMDL
MODEL 4
REMARK VINA RESULT: -5.996815438      2.509      3.765
REMARK  3 active torsions:
REMARK  status: ('A' for Active; 'I' for Inactive)
REMARK    1  A    between atoms: C3_3  and  N1_4 
REMARK    2  A    between atoms: N2_10  and  C8_11 
REMARK    3  A    between atoms: C8_11  and  C9_12 
ROOT
HETATM    1  N1  UNL     1      -3.504   6.580  13.542  1.00  0.00    -0.386 N 
HETATM    2  C4  UNL     1      -4.480   6.289  12.536  1.00  0.00     0.148 C 
HETATM    3  C5  UNL     1      -4.033   5.115  11.724  1.00  0.00     0.188 C 
HETATM    4  O1  UNL     1      -3.003   4.461  12.314  1.00  0.00    -0.382 OA
HETATM    5  C6  UNL     1      -3.197   3.746  13.428  1.00  0.00     0.160 C 
HETATM    6  C7  UNL     1      -4.473   2.911  13.480  1.00  0.00     0.305 C 
HETATM    7  N2  UNL     1      -4.289   2.358  14.837  1.00  0.00     0.092 N 
HETATM    8  C12 UNL     1      -4.154   3.607  15.566  1.00  0.00     0.285 C 
HETATM    9  C13 UNL     1      -3.179   4.446  14.745  1.00  0.00     0.083 C 
HETATM   10  C14 UNL     1      -3.627   5.865  14.731  1.00  0.00     0.067 C 
ENDROOT
BRANCH   1  11
HETATM   11  C3  UNL     1      -2.345   7.224  13.161  1.00  0.00     0.086 C 
HETATM   12  C2  UNL     1      -2.503   8.450  12.302  1.00  0.00     0.052 C 
HETATM   13  C1  UNL     1      -1.353   9.415  12.526  1.00  0.00     0.234 C 
HETATM   14  N3  UNL     1      -1.431  10.037  13.834  1.00  0.00    -0.075 N 
HETATM   15  C16 UNL     1      -1.909   9.037  14.771  1.00  0.00     0.234 C 
ATOM     16  H32 UNL     1      -0.550  10.463  14.123  1.00  0.00     0.277 HD
ATOM     17  H31 UNL     1      -1.998  10.885  13.837  1.00  0.00     0.277 HD
HETATM   18  C15 UNL     1      -1.478   7.633  14.323  1.00  0.00     0.052 C 
ENDBRANCH   1  11
BRANCH   7  19
HETATM   19  C8  UNL     1      -5.547   1.767  15.223  1.00  0.00     0.277 C 
BRANCH  19  20
HETATM   20  C9  UNL     1      -5.806   1.839  16.710  1.00  0.00     0.014 A 
HETATM   21  C10 UNL     1      -7.179   1.330  17.112  1.00  0.00     0.007 A 
HETATM   22  C11 UNL     1      -5.974   0.597  17.504  1.00  0.00     0.007 A 
ENDBRANCH  19  20
ENDBRANCH   7  19
TORSDOF 3
ENDMDL
MODEL 5
REMARK VINA RESULT: -5.957610719      1.496      2.041
REMARK  3 active torsions:
REMARK  status: ('A' for Active; 'I' for Inactive)
REMARK    1  A    between atoms: C3_3  and  N1_4 
REMARK    2  A    between atoms: N2_10  and  C8_11 
REMARK    3  A    between atoms: C8_11  and  C9_12 
ROOT
HETATM    1  N1  UNL     1      -2.878   5.584  12.868  1.00  0.00    -0.386 N 
HETATM    2  C4  UNL     1      -4.010   6.460  12.830  1.00  0.00     0.148 C 
HETATM    3  C5  UNL     1      -5.179   5.748  12.229  1.00  0.00     0.188 C 
HETATM    4  O1  UNL     1      -4.967   4.411  12.153  1.00  0.00    -0.382 OA
HETATM    5  C6  UNL     1      -4.948   3.659  13.260  1.00  0.00     0.160 C 
HETATM    6  C7  UNL     1      -6.001   3.983  14.315  1.00  0.00     0.305 C 
HETATM    7  N2  UNL     1      -5.588   2.981  15.317  1.00  0.00     0.092 N 
HETATM    8  C12 UNL     1      -4.199   3.379  15.466  1.00  0.00     0.285 C 
HETATM    9  C13 UNL     1      -3.681   3.563  14.043  1.00  0.00     0.083 C 
HETATM   10  C14 UNL     1      -2.791   4.754  13.983  1.00  0.00     0.067 C 
ENDROOT
BRANCH   1  11
HETATM   11  C3  UNL     1      -2.194   5.349  11.694  1.00  0.00     0.086 C 
HETATM   12  C2  UNL     1      -1.944   6.540  10.807  1.00  0.00     0.052 C 
HETATM   13  C1  UNL     1      -0.678   6.346   9.992  1.00  0.00     0.234 C 
HETATM   14  N3  UNL     1       0.507   6.427  10.826  1.00  0.00    -0.075 N 
HETATM   15  C16 UNL     1       0.196   5.795  12.096  1.00  0.00     0.234 C 
ATOM     16  H32 UNL     1       1.334   6.032  10.379  1.00  0.00     0.277 HD
ATOM     17  H31 UNL     1       0.853   7.380  10.933  1.00  0.00     0.277 HD
HETATM   18  C15 UNL     1      -0.854   4.692  11.902  1.00  0.00     0.052 C 
ENDBRANCH   1  11
BRANCH   7  19
HETATM   19  C8  UNL     1      -6.266   3.313  16.547  1.00  0.00     0.277 C 
BRANCH  19  20
HETATM   20  C9  UNL     1      -6.358   2.151  17.508  1.00  0.00     0.014 A 
HETATM   21  C10 UNL     1      -7.419   1.133  17.129  1.00  0.00     0.007 A 
HETATM   22  C11 UNL     1      -6.000   0.781  17.066  1.00  0.00     0.007 A 
ENDBRANCH  19  20
ENDBRANCH   7  19
TORSDOF 3
ENDMDL
