MODEL 1
REMARK VINA RESULT: -7.051332820      0.000      0.000
REMARK  4 active torsions:
REMARK  status: ('A' for Active; 'I' for Inactive)
REMARK    1  A    between atoms: C2_2  and  N1_3 
REMARK    2  A    between atoms: C2_2  and  C13_17 
REMARK    3  A    between atoms: N1_3  and  C3_5 
REMARK    4  A    between atoms: C3_5  and  C4_6 
REMARK       I    between atoms: C13_17  and  N2_19 
ROOT
HETATM    1  C4  UNL     1      -4.224   4.508  14.761  1.00  0.00     0.074 C 
HETATM    2  C5  UNL     1      -4.341   5.899  15.330  1.00  0.00     0.047 C 
HETATM    3  C6  UNL     1      -5.510   4.190  14.037  1.00  0.00     0.042 C 
HETATM    4  C7  UNL     1      -5.927   2.853  14.609  1.00  0.00     0.041 C 
HETATM    5  C8  UNL     1      -5.206   2.876  15.946  1.00  0.00     0.066 C 
HETATM    6  C9  UNL     1      -4.970   1.433  16.344  1.00  0.00     0.064 C 
HETATM    7  C10 UNL     1      -6.304   0.861  16.761  1.00  0.00     0.170 C 
HETATM    8  O1  UNL     1      -6.659   1.390  17.974  1.00  0.00    -0.391 OA
HETATM    9  C11 UNL     1      -6.216   2.657  18.235  1.00  0.00     0.170 C 
HETATM   10  C12 UNL     1      -6.018   3.518  17.025  1.00  0.00     0.064 C 
HETATM   11  O2  UNL     1      -4.006   3.522  15.682  1.00  0.00    -0.368 OA
ENDROOT
BRANCH   1  12
HETATM   12  C3  UNL     1      -3.047   4.530  13.779  1.00  0.00     0.152 C 
BRANCH  12  13
HETATM   13  N1  UNL     1      -2.911   3.227  13.236  1.00  0.00    -0.407 N 
ATOM     14  H1  UNL     1      -2.864   2.399  13.830  1.00  0.00     0.154 HD
BRANCH  13  15
HETATM   15  C2  UNL     1      -2.844   3.140  11.809  1.00  0.00     0.165 C 
HETATM   16  C1  UNL     1      -1.802   4.026  11.204  1.00  0.00     0.042 C 
BRANCH  15  17
HETATM   17  C13 UNL     1      -2.524   1.733  11.447  1.00  0.00     0.241 C 
HETATM   18  O3  UNL     1      -1.317   1.335  11.416  1.00  0.00    -0.271 OA
HETATM   19  N2  UNL     1      -3.554   0.808  11.128  1.00  0.00    -0.359 N 
HETATM   20  C14 UNL     1      -3.197  -0.564  10.772  1.00  0.00     0.152 C 
HETATM   21  C15 UNL     1      -4.943   1.169  11.144  1.00  0.00     0.152 C 
ENDBRANCH  15  17
ENDBRANCH  13  15
ENDBRANCH  12  13
ENDBRANCH   1  12
TORSDOF 4
ENDMDL
MODEL 2
REMARK VINA RESULT: -6.732578261      1.904      6.149
REMARK  4 active torsions:
REMARK  status: ('A' for Active; 'I' for Inactive)
REMARK    1  A    between atoms: C2_2  and  N1_3 
REMARK    2  A    between atoms: C2_2  and  C13_17 
REMARK    3  A    between atoms: N1_3  and  C3_5 
REMARK    4  A    between atoms: C3_5  and  C4_6 
REMARK       I    between atoms: C13_17  and  N2_19 
ROOT
HETATM    1  C4  UNL     1      -3.464   1.268  11.639  1.00  0.00     0.074 C 
HETATM    2  C5  UNL     1      -2.988   0.130  10.773  1.00  0.00     0.047 C 
HETATM    3  C6  UNL     1      -4.241   2.225  10.768  1.00  0.00     0.042 C 
HETATM    4  C7  UNL     1      -3.614   3.570  11.059  1.00  0.00     0.041 C 
HETATM    5  C8  UNL     1      -2.242   3.147  11.554  1.00  0.00     0.066 C 
HETATM    6  C9  UNL     1      -1.745   4.245  12.471  1.00  0.00     0.064 C 
HETATM    7  C10 UNL     1      -1.372   5.421  11.598  1.00  0.00     0.170 C 
HETATM    8  O1  UNL     1      -0.215   5.129  10.923  1.00  0.00    -0.391 OA
HETATM    9  C11 UNL     1      -0.006   3.811  10.623  1.00  0.00     0.170 C 
HETATM   10  C12 UNL     1      -1.252   3.000  10.442  1.00  0.00     0.064 C 
HETATM   11  O2  UNL     1      -2.474   1.975  12.261  1.00  0.00    -0.368 OA
ENDROOT
BRANCH   1  12
HETATM   12  C3  UNL     1      -4.376   0.655  12.709  1.00  0.00     0.152 C 
BRANCH  12  13
HETATM   13  N1  UNL     1      -3.855   1.013  13.978  1.00  0.00    -0.407 N 
ATOM     14  H1  UNL     1      -2.903   0.774  14.256  1.00  0.00     0.154 HD
BRANCH  13  15
HETATM   15  C2  UNL     1      -4.740   1.728  14.847  1.00  0.00     0.165 C 
HETATM   16  C1  UNL     1      -4.941   1.066  16.173  1.00  0.00     0.042 C 
BRANCH  15  17
HETATM   17  C13 UNL     1      -4.162   3.078  15.085  1.00  0.00     0.241 C 
HETATM   18  O3  UNL     1      -3.027   3.203  15.645  1.00  0.00    -0.271 OA
HETATM   19  N2  UNL     1      -4.862   4.252  14.695  1.00  0.00    -0.359 N 
HETATM   20  C14 UNL     1      -4.262   5.559  14.952  1.00  0.00     0.152 C 
HETATM   21  C15 UNL     1      -6.144   4.204  14.052  1.00  0.00     0.152 C 
ENDBRANCH  15  17
ENDBRANCH  13  15
ENDBRANCH  12  13
ENDBRANCH   1  12
TORSDOF 4
ENDMDL
MODEL 3
REMARK VINA RESULT: -6.676451689      1.465      2.341
REMARK  4 active torsions:
REMARK  status: ('A' for Active; 'I' for Inactive)
REMARK    1  A    between atoms: C2_2  and  N1_3 
REMARK    2  A    between atoms: C2_2  and  C13_17 
REMARK    3  A    between atoms: N1_3  and  C3_5 
REMARK    4  A    between atoms: C3_5  and  C4_6 
REMARK       I    between atoms: C13_17  and  N2_19 
ROOT
HETATM    1  C4  UNL     1      -4.246   4.263  14.505  1.00  0.00     0.074 C 
HETATM    2  C5  UNL     1      -4.132   5.664  15.049  1.00  0.00     0.047 C 
HETATM    3  C6  UNL     1      -5.611   4.114  13.878  1.00  0.00     0.042 C 
HETATM    4  C7  UNL     1      -6.163   2.855  14.508  1.00  0.00     0.041 C 
HETATM    5  C8  UNL     1      -5.353   2.796  15.791  1.00  0.00     0.066 C 
HETATM    6  C9  UNL     1      -5.286   1.340  16.203  1.00  0.00     0.064 C 
HETATM    7  C10 UNL     1      -6.653   0.960  16.724  1.00  0.00     0.170 C 
HETATM    8  O1  UNL     1      -6.846   1.548  17.947  1.00  0.00    -0.391 OA
HETATM    9  C11 UNL     1      -6.218   2.746  18.148  1.00  0.00     0.170 C 
HETATM   10  C12 UNL     1      -5.992   3.556  16.908  1.00  0.00     0.064 C 
HETATM   11  O2  UNL     1      -4.098   3.269  15.431  1.00  0.00    -0.368 OA
ENDROOT
BRANCH   1  12
HETATM   12  C3  UNL     1      -3.148   4.112  13.444  1.00  0.00     0.152 C 
BRANCH  12  13
HETATM   13  N1  UNL     1      -3.202   2.783  12.953  1.00  0.00    -0.407 N 
ATOM     14  H1  UNL     1      -3.615   2.024  13.496  1.00  0.00     0.154 HD
BRANCH  13  15
HETATM   15  C2  UNL     1      -2.644   2.567  11.653  1.00  0.00     0.165 C 
HETATM   16  C1  UNL     1      -2.728   1.146  11.194  1.00  0.00     0.042 C 
BRANCH  15  17
HETATM   17  C13 UNL     1      -3.393   3.411  10.683  1.00  0.00     0.241 C 
HETATM   18  O3  UNL     1      -4.636   3.225  10.492  1.00  0.00    -0.271 OA
HETATM   19  N2  UNL     1      -2.739   4.440   9.952  1.00  0.00    -0.359 N 
HETATM   20  C14 UNL     1      -3.509   5.244   9.006  1.00  0.00     0.152 C 
HETATM   21  C15 UNL     1      -1.341   4.723  10.109  1.00  0.00     0.152 C 
ENDBRANCH  15  17
ENDBRANCH  13  15
ENDBRANCH  12  13
ENDBRANCH   1  12
TORSDOF 4
ENDMDL
MODEL 4
REMARK VINA RESULT: -6.590156033      1.820      2.354
REMARK  4 active torsions:
REMARK  status: ('A' for Active; 'I' for Inactive)
REMARK    1  A    between atoms: C2_2  and  N1_3 
REMARK    2  A    between atoms: C2_2  and  C13_17 
REMARK    3  A    between atoms: N1_3  and  C3_5 
REMARK    4  A    between atoms: C3_5  and  C4_6 
REMARK       I    between atoms: C13_17  and  N2_19 
ROOT
HETATM    1  C4  UNL     1      -5.152   4.617  15.155  1.00  0.00     0.074 C 
HETATM    2  C5  UNL     1      -6.336   5.341  15.742  1.00  0.00     0.047 C 
HETATM    3  C6  UNL     1      -5.612   3.906  13.905  1.00  0.00     0.042 C 
HETATM    4  C7  UNL     1      -5.131   2.485  14.099  1.00  0.00     0.041 C 
HETATM    5  C8  UNL     1      -5.015   2.425  15.612  1.00  0.00     0.066 C 
HETATM    6  C9  UNL     1      -3.972   1.374  15.933  1.00  0.00     0.064 C 
HETATM    7  C10 UNL     1      -4.595   0.026  15.651  1.00  0.00     0.170 C 
HETATM    8  O1  UNL     1      -5.523  -0.250  16.622  1.00  0.00    -0.391 OA
HETATM    9  C11 UNL     1      -6.160   0.826  17.173  1.00  0.00     0.170 C 
HETATM   10  C12 UNL     1      -6.294   2.013  16.269  1.00  0.00     0.064 C 
HETATM   11  O2  UNL     1      -4.575   3.690  15.977  1.00  0.00    -0.368 OA
ENDROOT
BRANCH   1  12
HETATM   12  C3  UNL     1      -4.107   5.686  14.811  1.00  0.00     0.152 C 
BRANCH  12  13
HETATM   13  N1  UNL     1      -4.099   5.845  13.403  1.00  0.00    -0.407 N 
ATOM     14  H1  UNL     1      -4.961   5.909  12.863  1.00  0.00     0.154 HD
BRANCH  13  15
HETATM   15  C2  UNL     1      -2.811   5.912  12.782  1.00  0.00     0.165 C 
HETATM   16  C1  UNL     1      -1.782   6.611  13.612  1.00  0.00     0.042 C 
BRANCH  15  17
HETATM   17  C13 UNL     1      -2.342   4.521  12.539  1.00  0.00     0.241 C 
HETATM   18  O3  UNL     1      -1.536   3.962  13.347  1.00  0.00    -0.271 OA
HETATM   19  N2  UNL     1      -2.783   3.789  11.403  1.00  0.00    -0.359 N 
HETATM   20  C14 UNL     1      -2.296   2.427  11.198  1.00  0.00     0.152 C 
HETATM   21  C15 UNL     1      -3.697   4.339  10.443  1.00  0.00     0.152 C 
ENDBRANCH  15  17
ENDBRANCH  13  15
ENDBRANCH  12  13
ENDBRANCH   1  12
TORSDOF 4
ENDMDL
MODEL 5
REMARK VINA RESULT: -6.469131345      2.045      2.596
REMARK  4 active torsions:
REMARK  status: ('A' for Active; 'I' for Inactive)
REMARK    1  A    between atoms: C2_2  and  N1_3 
REMARK    2  A    between atoms: C2_2  and  C13_17 
REMARK    3  A    between atoms: N1_3  and  C3_5 
REMARK    4  A    between atoms: C3_5  and  C4_6 
REMARK       I    between atoms: C13_17  and  N2_19 
ROOT
HETATM    1  C4  UNL     1      -5.127   4.575  15.035  1.00  0.00     0.074 C 
HETATM    2  C5  UNL     1      -6.251   5.357  15.665  1.00  0.00     0.047 C 
HETATM    3  C6  UNL     1      -5.686   3.825  13.850  1.00  0.00     0.042 C 
HETATM    4  C7  UNL     1      -5.229   2.401  14.074  1.00  0.00     0.041 C 
HETATM    5  C8  UNL     1      -5.015   2.401  15.578  1.00  0.00     0.066 C 
HETATM    6  C9  UNL     1      -3.980   1.336  15.877  1.00  0.00     0.064 C 
HETATM    7  C10 UNL     1      -4.655  -0.004  15.696  1.00  0.00     0.170 C 
HETATM    8  O1  UNL     1      -5.523  -0.213  16.735  1.00  0.00    -0.391 OA
HETATM    9  C11 UNL     1      -6.095   0.903  17.279  1.00  0.00     0.170 C 
HETATM   10  C12 UNL     1      -6.258   2.054  16.334  1.00  0.00     0.064 C 
HETATM   11  O2  UNL     1      -4.520   3.668  15.858  1.00  0.00    -0.368 OA
ENDROOT
BRANCH   1  12
HETATM   12  C3  UNL     1      -4.080   5.599  14.577  1.00  0.00     0.152 C 
BRANCH  12  13
HETATM   13  N1  UNL     1      -3.659   5.233  13.274  1.00  0.00    -0.407 N 
ATOM     14  H1  UNL     1      -4.325   5.007  12.536  1.00  0.00     0.154 HD
BRANCH  13  15
HETATM   15  C2  UNL     1      -2.245   5.200  13.053  1.00  0.00     0.165 C 
HETATM   16  C1  UNL     1      -1.447   5.033  14.307  1.00  0.00     0.042 C 
BRANCH  15  17
HETATM   17  C13 UNL     1      -1.944   4.050  12.157  1.00  0.00     0.241 C 
HETATM   18  O3  UNL     1      -2.430   2.901  12.399  1.00  0.00    -0.271 OA
HETATM   19  N2  UNL     1      -1.112   4.211  11.017  1.00  0.00    -0.359 N 
HETATM   20  C14 UNL     1      -0.837   3.056  10.164  1.00  0.00     0.152 C 
HETATM   21  C15 UNL     1      -0.527   5.473  10.664  1.00  0.00     0.152 C 
ENDBRANCH  15  17
ENDBRANCH  13  15
ENDBRANCH  12  13
ENDBRANCH   1  12
TORSDOF 4
ENDMDL
