MODEL 1
REMARK VINA RESULT: -7.707834763      0.000      0.000
REMARK  5 active torsions:
REMARK  status: ('A' for Active; 'I' for Inactive)
REMARK       I    between atoms: C1_2  and  N1_3 
REMARK    1  A    between atoms: C1_2  and  C6_12 
REMARK    2  A    between atoms: N1_3  and  C2_5 
REMARK       I    between atoms: C6_12  and  N3_14 
REMARK    3  A    between atoms: N3_14  and  C7_16 
REMARK    4  A    between atoms: C7_16  and  C8_17 
REMARK    5  A    between atoms: C8_17  and  C9_18 
ROOT
HETATM    1  C6  UNL     1      -3.052   4.383  14.001  1.00  0.00     0.309 C 
HETATM    2  O2  UNL     1      -2.620   3.864  15.068  1.00  0.00    -0.262 OA
HETATM    3  N3  UNL     1      -4.263   5.129  14.054  1.00  0.00    -0.353 N 
ATOM      4  H3  UNL     1      -4.625   5.556  13.201  1.00  0.00     0.162 HD
ENDROOT
BRANCH   1   5
HETATM    5  C1  UNL     1      -2.343   4.233  12.742  1.00  0.00     0.314 C 
HETATM    6  O1  UNL     1      -1.126   4.503  12.653  1.00  0.00    -0.262 OA
HETATM    7  N1  UNL     1      -3.057   3.774  11.612  1.00  0.00    -0.312 N 
ATOM      8  H1  UNL     1      -3.481   4.424  10.950  1.00  0.00     0.170 HD
BRANCH   7   9
HETATM    9  C2  UNL     1      -3.149   2.500  11.453  1.00  0.00     0.093 A 
HETATM   10  C3  UNL     1      -2.088   1.704  11.078  1.00  0.00     0.040 A 
HETATM   11  C4  UNL     1      -2.132   0.358  10.897  1.00  0.00     0.020 A 
HETATM   12  C5  UNL     1      -3.218  -0.463  11.050  1.00  0.00     0.096 A 
HETATM   13  N2  UNL     1      -4.439  -0.028  11.414  1.00  0.00    -0.335 N 
HETATM   14  S1  UNL     1      -4.602   1.620  11.688  1.00  0.00     0.003 SA
ATOM     15  H2  UNL     1      -5.226  -0.668  11.517  1.00  0.00     0.173 HD
ENDBRANCH   7   9
ENDBRANCH   1   5
BRANCH   3  16
HETATM   16  C7  UNL     1      -4.992   5.295  15.297  1.00  0.00     0.128 C 
BRANCH  16  17
HETATM   17  C8  UNL     1      -6.175   4.398  15.276  1.00  0.00     0.058 C 
BRANCH  17  18
HETATM   18  C9  UNL     1      -6.073   3.212  16.125  1.00  0.00    -0.057 A 
HETATM   19  C10 UNL     1      -6.482   3.222  17.442  1.00  0.00     0.007 A 
HETATM   20  C11 UNL     1      -6.351   2.065  18.170  1.00  0.00     0.001 A 
HETATM   21  C12 UNL     1      -5.831   0.900  17.649  1.00  0.00     0.000 A 
HETATM   22  C13 UNL     1      -5.425   0.885  16.346  1.00  0.00     0.001 A 
HETATM   23  C14 UNL     1      -5.551   2.050  15.593  1.00  0.00     0.007 A 
ENDBRANCH  17  18
ENDBRANCH  16  17
ENDBRANCH   3  16
TORSDOF 5
ENDMDL
MODEL 2
REMARK VINA RESULT: -7.682612884      0.031      1.060
REMARK  5 active torsions:
REMARK  status: ('A' for Active; 'I' for Inactive)
REMARK       I    between atoms: C1_2  and  N1_3 
REMARK    1  A    between atoms: C1_2  and  C6_12 
REMARK    2  A    between atoms: N1_3  and  C2_5 
REMARK       I    between atoms: C6_12  and  N3_14 
REMARK    3  A    between atoms: N3_14  and  C7_16 
REMARK    4  A    between atoms: C7_16  and  C8_17 
REMARK    5  A    between atoms: C8_17  and  C9_18 
ROOT
HETATM    1  C6  UNL     1      -3.056   4.388  14.002  1.00  0.00     0.309 C 
HETATM    2  O2  UNL     1      -2.627   3.864  15.068  1.00  0.00    -0.262 OA
HETATM    3  N3  UNL     1      -4.265   5.138  14.058  1.00  0.00    -0.353 N 
ATOM      4  H3  UNL     1      -4.625   5.568  13.206  1.00  0.00     0.162 HD
ENDROOT
BRANCH   1   5
HETATM    5  C1  UNL     1      -2.347   4.242  12.744  1.00  0.00     0.314 C 
HETATM    6  O1  UNL     1      -1.129   4.511  12.656  1.00  0.00    -0.262 OA
HETATM    7  N1  UNL     1      -3.061   3.787  11.611  1.00  0.00    -0.312 N 
ATOM      8  H1  UNL     1      -3.484   4.439  10.952  1.00  0.00     0.170 HD
BRANCH   7   9
HETATM    9  C2  UNL     1      -3.153   2.513  11.449  1.00  0.00     0.093 A 
HETATM   10  C3  UNL     1      -2.093   1.717  11.075  1.00  0.00     0.040 A 
HETATM   11  C4  UNL     1      -2.138   0.371  10.890  1.00  0.00     0.020 A 
HETATM   12  C5  UNL     1      -3.225  -0.449  11.037  1.00  0.00     0.096 A 
HETATM   13  N2  UNL     1      -4.447  -0.013  11.398  1.00  0.00    -0.335 N 
HETATM   14  S1  UNL     1      -4.609   1.635  11.677  1.00  0.00     0.003 SA
ATOM     15  H2  UNL     1      -5.235  -0.652  11.498  1.00  0.00     0.173 HD
ENDBRANCH   7   9
ENDBRANCH   1   5
BRANCH   3  16
HETATM   16  C7  UNL     1      -4.994   5.300  15.301  1.00  0.00     0.128 C 
BRANCH  16  17
HETATM   17  C8  UNL     1      -6.175   4.401  15.279  1.00  0.00     0.058 C 
BRANCH  17  18
HETATM   18  C9  UNL     1      -6.046   3.183  16.078  1.00  0.00    -0.057 A 
HETATM   19  C10 UNL     1      -5.528   2.019  15.550  1.00  0.00     0.007 A 
HETATM   20  C11 UNL     1      -5.442   0.919  16.369  1.00  0.00     0.001 A 
HETATM   21  C12 UNL     1      -5.847   0.924  17.686  1.00  0.00     0.000 A 
HETATM   22  C13 UNL     1      -6.360   2.075  18.212  1.00  0.00     0.001 A 
HETATM   23  C14 UNL     1      -6.454   3.199  17.396  1.00  0.00     0.007 A 
ENDBRANCH  17  18
ENDBRANCH  16  17
ENDBRANCH   3  16
TORSDOF 5
ENDMDL
MODEL 3
REMARK VINA RESULT: -7.552970655      0.941      1.111
REMARK  5 active torsions:
REMARK  status: ('A' for Active; 'I' for Inactive)
REMARK       I    between atoms: C1_2  and  N1_3 
REMARK    1  A    between atoms: C1_2  and  C6_12 
REMARK    2  A    between atoms: N1_3  and  C2_5 
REMARK       I    between atoms: C6_12  and  N3_14 
REMARK    3  A    between atoms: N3_14  and  C7_16 
REMARK    4  A    between atoms: C7_16  and  C8_17 
REMARK    5  A    between atoms: C8_17  and  C9_18 
ROOT
HETATM    1  C6  UNL     1      -3.004   4.389  14.013  1.00  0.00     0.309 C 
HETATM    2  O2  UNL     1      -2.536   3.929  15.091  1.00  0.00    -0.262 OA
HETATM    3  N3  UNL     1      -4.229   5.113  14.063  1.00  0.00    -0.353 N 
ATOM      4  H3  UNL     1      -4.621   5.493  13.202  1.00  0.00     0.162 HD
ENDROOT
BRANCH   1   5
HETATM    5  C1  UNL     1      -2.325   4.196  12.744  1.00  0.00     0.314 C 
HETATM    6  O1  UNL     1      -1.105   4.442  12.623  1.00  0.00    -0.262 OA
HETATM    7  N1  UNL     1      -3.070   3.720  11.641  1.00  0.00    -0.312 N 
ATOM      8  H1  UNL     1      -3.497   4.360  10.972  1.00  0.00     0.170 HD
BRANCH   7   9
HETATM    9  C2  UNL     1      -3.186   2.444  11.518  1.00  0.00     0.093 A 
HETATM   10  C3  UNL     1      -4.351   1.758  11.786  1.00  0.00     0.040 A 
HETATM   11  C4  UNL     1      -4.524   0.415  11.672  1.00  0.00     0.020 A 
HETATM   12  C5  UNL     1      -3.595  -0.509  11.274  1.00  0.00     0.096 A 
HETATM   13  N2  UNL     1      -2.331  -0.198  10.929  1.00  0.00    -0.335 N 
HETATM   14  S1  UNL     1      -1.906   1.425  11.002  1.00  0.00     0.003 SA
ATOM     15  H2  UNL     1      -1.665  -0.913  10.639  1.00  0.00     0.173 HD
ENDBRANCH   7   9
ENDBRANCH   1   5
BRANCH   3  16
HETATM   16  C7  UNL     1      -4.930   5.322  15.316  1.00  0.00     0.128 C 
BRANCH  16  17
HETATM   17  C8  UNL     1      -6.145   4.470  15.327  1.00  0.00     0.058 C 
BRANCH  17  18
HETATM   18  C9  UNL     1      -6.050   3.259  16.142  1.00  0.00    -0.057 A 
HETATM   19  C10 UNL     1      -6.464   3.232  17.457  1.00  0.00     0.007 A 
HETATM   20  C11 UNL     1      -6.339   2.054  18.151  1.00  0.00     0.001 A 
HETATM   21  C12 UNL     1      -5.822   0.903  17.598  1.00  0.00     0.000 A 
HETATM   22  C13 UNL     1      -5.412   0.925  16.296  1.00  0.00     0.001 A 
HETATM   23  C14 UNL     1      -5.532   2.112  15.578  1.00  0.00     0.007 A 
ENDBRANCH  17  18
ENDBRANCH  16  17
ENDBRANCH   3  16
TORSDOF 5
ENDMDL
MODEL 4
REMARK VINA RESULT: -7.544828870      0.940      1.536
REMARK  5 active torsions:
REMARK  status: ('A' for Active; 'I' for Inactive)
REMARK       I    between atoms: C1_2  and  N1_3 
REMARK    1  A    between atoms: C1_2  and  C6_12 
REMARK    2  A    between atoms: N1_3  and  C2_5 
REMARK       I    between atoms: C6_12  and  N3_14 
REMARK    3  A    between atoms: N3_14  and  C7_16 
REMARK    4  A    between atoms: C7_16  and  C8_17 
REMARK    5  A    between atoms: C8_17  and  C9_18 
ROOT
HETATM    1  C6  UNL     1      -3.057   4.393  14.052  1.00  0.00     0.309 C 
HETATM    2  O2  UNL     1      -2.621   3.912  15.134  1.00  0.00    -0.262 OA
HETATM    3  N3  UNL     1      -4.270   5.138  14.084  1.00  0.00    -0.353 N 
ATOM      4  H3  UNL     1      -4.637   5.534  13.219  1.00  0.00     0.162 HD
ENDROOT
BRANCH   1   5
HETATM    5  C1  UNL     1      -2.353   4.203  12.796  1.00  0.00     0.314 C 
HETATM    6  O1  UNL     1      -1.131   4.448  12.700  1.00  0.00    -0.262 OA
HETATM    7  N1  UNL     1      -3.077   3.732  11.677  1.00  0.00    -0.312 N 
ATOM      8  H1  UNL     1      -3.490   4.375  11.001  1.00  0.00     0.170 HD
BRANCH   7   9
HETATM    9  C2  UNL     1      -3.193   2.456  11.547  1.00  0.00     0.093 A 
HETATM   10  C3  UNL     1      -4.357   1.769  11.813  1.00  0.00     0.040 A 
HETATM   11  C4  UNL     1      -4.529   0.426  11.692  1.00  0.00     0.020 A 
HETATM   12  C5  UNL     1      -3.600  -0.495  11.288  1.00  0.00     0.096 A 
HETATM   13  N2  UNL     1      -2.337  -0.182  10.943  1.00  0.00    -0.335 N 
HETATM   14  S1  UNL     1      -1.913   1.441  11.024  1.00  0.00     0.003 SA
ATOM     15  H2  UNL     1      -1.671  -0.895  10.647  1.00  0.00     0.173 HD
ENDBRANCH   7   9
ENDBRANCH   1   5
BRANCH   3  16
HETATM   16  C7  UNL     1      -4.994   5.344  15.324  1.00  0.00     0.128 C 
BRANCH  16  17
HETATM   17  C8  UNL     1      -6.190   4.464  15.326  1.00  0.00     0.058 C 
BRANCH  17  18
HETATM   18  C9  UNL     1      -6.052   3.226  16.092  1.00  0.00    -0.057 A 
HETATM   19  C10 UNL     1      -5.534   2.077  15.531  1.00  0.00     0.007 A 
HETATM   20  C11 UNL     1      -5.439   0.957  16.320  1.00  0.00     0.001 A 
HETATM   21  C12 UNL     1      -5.835   0.927  17.639  1.00  0.00     0.000 A 
HETATM   22  C13 UNL     1      -6.348   2.062  18.199  1.00  0.00     0.001 A 
HETATM   23  C14 UNL     1      -6.451   3.207  17.413  1.00  0.00     0.007 A 
ENDBRANCH  17  18
ENDBRANCH  16  17
ENDBRANCH   3  16
TORSDOF 5
ENDMDL
MODEL 5
REMARK VINA RESULT: -7.424179978      2.365      6.133
REMARK  5 active torsions:
REMARK  status: ('A' for Active; 'I' for Inactive)
REMARK       I    between atoms: C1_2  and  N1_3 
REMARK    1  A    between atoms: C1_2  and  C6_12 
REMARK    2  A    between atoms: N1_3  and  C2_5 
REMARK       I    between atoms: C6_12  and  N3_14 
REMARK    3  A    between atoms: N3_14  and  C7_16 
REMARK    4  A    between atoms: C7_16  and  C8_17 
REMARK    5  A    between atoms: C8_17  and  C9_18 
ROOT
HETATM    1  C6  UNL     1      -4.360   0.573  14.904  1.00  0.00     0.309 C 
HETATM    2  O2  UNL     1      -4.785  -0.542  15.315  1.00  0.00    -0.262 OA
HETATM    3  N3  UNL     1      -4.078   0.718  13.516  1.00  0.00    -0.353 N 
ATOM      4  H3  UNL     1      -3.734   1.613  13.167  1.00  0.00     0.162 HD
ENDROOT
BRANCH   1   5
HETATM    5  C1  UNL     1      -4.157   1.690  15.809  1.00  0.00     0.314 C 
HETATM    6  O1  UNL     1      -3.102   1.799  16.470  1.00  0.00    -0.262 OA
HETATM    7  N1  UNL     1      -5.180   2.659  15.931  1.00  0.00    -0.312 N 
ATOM      8  H1  UNL     1      -5.894   2.590  16.656  1.00  0.00     0.170 HD
BRANCH   7   9
HETATM    9  C2  UNL     1      -5.170   3.632  15.088  1.00  0.00     0.093 A 
HETATM   10  C3  UNL     1      -6.310   4.147  14.510  1.00  0.00     0.040 A 
HETATM   11  C4  UNL     1      -6.354   5.170  13.617  1.00  0.00     0.020 A 
HETATM   12  C5  UNL     1      -5.294   5.881  13.121  1.00  0.00     0.096 A 
HETATM   13  N2  UNL     1      -4.013   5.653  13.465  1.00  0.00    -0.335 N 
HETATM   14  S1  UNL     1      -3.737   4.418  14.569  1.00  0.00     0.003 SA
ATOM     15  H2  UNL     1      -3.248   6.202  13.076  1.00  0.00     0.173 HD
ENDBRANCH   7   9
ENDBRANCH   1   5
BRANCH   3  16
HETATM   16  C7  UNL     1      -4.271  -0.380  12.589  1.00  0.00     0.128 C 
BRANCH  16  17
HETATM   17  C8  UNL     1      -4.195   0.149  11.204  1.00  0.00     0.058 C 
BRANCH  17  18
HETATM   18  C9  UNL     1      -3.217   1.217  10.997  1.00  0.00    -0.057 A 
HETATM   19  C10 UNL     1      -1.865   0.959  10.910  1.00  0.00     0.007 A 
HETATM   20  C11 UNL     1      -1.015   2.019  10.716  1.00  0.00     0.001 A 
HETATM   21  C12 UNL     1      -1.447   3.323  10.604  1.00  0.00     0.000 A 
HETATM   22  C13 UNL     1      -2.784   3.583  10.690  1.00  0.00     0.001 A 
HETATM   23  C14 UNL     1      -3.661   2.519  10.887  1.00  0.00     0.007 A 
ENDBRANCH  17  18
ENDBRANCH  16  17
ENDBRANCH   3  16
TORSDOF 5
ENDMDL
