MODEL 1
REMARK VINA RESULT: -9.403868669      0.000      0.000
REMARK  8 active torsions:
REMARK  status: ('A' for Active; 'I' for Inactive)
REMARK    1  A    between atoms: C2_2  and  C3_3 
REMARK    2  A    between atoms: C3_3  and  C4_4 
REMARK    3  A    between atoms: C5_8  and  C6_9 
REMARK    4  A    between atoms: C9_13  and  O2_14 
REMARK    5  A    between atoms: C11_16  and  N2_17 
REMARK       I    between atoms: N2_17  and  C12_19 
REMARK       I    between atoms: C12_19  and  N3_21 
REMARK    6  A    between atoms: N3_21  and  N4_23 
REMARK    7  A    between atoms: C13_25  and  C14_26 
REMARK    8  A    between atoms: C16_31  and  N5_32 
ROOT
HETATM    1  C6  UNL     1      14.783  13.052  28.286  1.00  0.00     0.074 A 
HETATM    2  C7  UNL     1      15.898  12.245  28.349  1.00  0.00     0.053 A 
HETATM    3 CL1  UNL     1      15.678  10.556  28.742  1.00  0.00    -0.083 Cl
HETATM    4  C8  UNL     1      17.183  12.716  28.114  1.00  0.00     0.064 A 
HETATM    5  C9  UNL     1      17.345  14.056  27.804  1.00  0.00     0.099 A 
HETATM    6  C11 UNL     1      16.249  14.897  27.730  1.00  0.00     0.104 A 
HETATM    7  C16 UNL     1      14.986  14.376  27.974  1.00  0.00     0.148 A 
ENDROOT
BRANCH   6   8
HETATM    8  N2  UNL     1      16.425  16.276  27.409  1.00  0.00    -0.303 N 
HETATM    9  C12 UNL     1      16.508  16.652  26.043  1.00  0.00     0.339 C 
HETATM   10  O3  UNL     1      16.429  15.785  25.131  1.00  0.00    -0.245 OA
HETATM   11  N3  UNL     1      16.683  18.023  25.649  1.00  0.00    -0.252 N 
ATOM     12  H3  UNL     1      16.750  18.745  26.367  1.00  0.00     0.191 HD
ATOM     13  H2  UNL     1      16.490  16.977  28.146  1.00  0.00     0.171 HD
BRANCH  11  14
HETATM   14  N4  UNL     1      16.763  18.383  24.325  1.00  0.00    -0.306 N 
HETATM   15  C13 UNL     1      17.379  19.360  23.824  1.00  0.00     0.135 C 
ATOM     16  H4  UNL     1      16.262  17.785  23.667  1.00  0.00     0.186 HD
BRANCH  15  17
HETATM   17  C14 UNL     1      18.137  20.305  24.607  1.00  0.00     0.101 C 
HETATM   18 CL2  UNL     1      19.392  19.716  25.688  1.00  0.00    -0.079 Cl
HETATM   19  C15 UNL     1      17.904  21.624  24.527  1.00  0.00     0.208 C 
HETATM   20  F1  UNL     1      18.641  22.478  25.282  1.00  0.00    -0.191 F 
HETATM   21 CL3  UNL     1      16.654  22.157  23.441  1.00  0.00    -0.050 Cl
ENDBRANCH  15  17
ENDBRANCH  11  14
ENDBRANCH   6   8
BRANCH   5  22
HETATM   22  O2  UNL     1      18.625  14.548  27.566  1.00  0.00    -0.354 OA
HETATM   23  C10 UNL     1      19.739  14.048  28.259  1.00  0.00     0.210 C 
ENDBRANCH   5  22
BRANCH   7  24
HETATM   24  N5  UNL     1      13.914  15.305  27.881  1.00  0.00    -0.112 N 
HETATM   25  O4  UNL     1      13.380  15.860  28.859  1.00  0.00    -0.532 OA
HETATM   26  O5  UNL     1      13.429  15.606  26.633  1.00  0.00    -0.532 OA
ENDBRANCH   7  24
BRANCH   1  27
HETATM   27  C5  UNL     1      13.448  12.527  28.539  1.00  0.00     0.186 A 
HETATM   28  O1  UNL     1      12.688  11.797  27.779  1.00  0.00    -0.217 OA
HETATM   29  N1  UNL     1      11.557  11.512  28.332  1.00  0.00    -0.247 N 
HETATM   30  C4  UNL     1      11.529  12.082  29.557  1.00  0.00     0.104 A 
ATOM     31  H1  UNL     1      10.812  10.954  27.917  1.00  0.00     0.196 HD
HETATM   32  N6  UNL     1      12.715  12.710  29.669  1.00  0.00    -0.323 N 
ATOM     33  H6  UNL     1      13.019  13.245  30.482  1.00  0.00     0.169 HD
BRANCH  30  34
HETATM   34  C3  UNL     1      10.418  12.017  30.544  1.00  0.00     0.078 C 
BRANCH  34  35
HETATM   35  C2  UNL     1       9.157  11.434  29.940  1.00  0.00     0.003 C 
HETATM   36  C1  UNL     1       8.041  12.430  29.840  1.00  0.00     0.005 C 
ENDBRANCH  34  35
ENDBRANCH  30  34
ENDBRANCH   1  27
TORSDOF 8
ENDMDL
MODEL 2
REMARK VINA RESULT: -9.076344384      0.935      1.381
REMARK  8 active torsions:
REMARK  status: ('A' for Active; 'I' for Inactive)
REMARK    1  A    between atoms: C2_2  and  C3_3 
REMARK    2  A    between atoms: C3_3  and  C4_4 
REMARK    3  A    between atoms: C5_8  and  C6_9 
REMARK    4  A    between atoms: C9_13  and  O2_14 
REMARK    5  A    between atoms: C11_16  and  N2_17 
REMARK       I    between atoms: N2_17  and  C12_19 
REMARK       I    between atoms: C12_19  and  N3_21 
REMARK    6  A    between atoms: N3_21  and  N4_23 
REMARK    7  A    between atoms: C13_25  and  C14_26 
REMARK    8  A    between atoms: C16_31  and  N5_32 
ROOT
HETATM    1  C6  UNL     1      14.723  12.948  28.333  1.00  0.00     0.074 A 
HETATM    2  C7  UNL     1      15.841  12.144  28.379  1.00  0.00     0.053 A 
HETATM    3 CL1  UNL     1      15.633  10.454  28.772  1.00  0.00    -0.083 Cl
HETATM    4  C8  UNL     1      17.121  12.620  28.128  1.00  0.00     0.064 A 
HETATM    5  C9  UNL     1      17.274  13.961  27.818  1.00  0.00     0.099 A 
HETATM    6  C11 UNL     1      16.174  14.798  27.761  1.00  0.00     0.104 A 
HETATM    7  C16 UNL     1      14.917  14.272  28.021  1.00  0.00     0.148 A 
ENDROOT
BRANCH   6   8
HETATM    8  N2  UNL     1      16.341  16.179  27.440  1.00  0.00    -0.303 N 
HETATM    9  C12 UNL     1      16.198  16.586  26.088  1.00  0.00     0.339 C 
HETATM   10  O3  UNL     1      15.930  15.745  25.188  1.00  0.00    -0.245 OA
HETATM   11  N3  UNL     1      16.351  17.960  25.695  1.00  0.00    -0.252 N 
ATOM     12  H3  UNL     1      16.569  18.661  26.404  1.00  0.00     0.191 HD
ATOM     13  H2  UNL     1      16.559  16.859  28.168  1.00  0.00     0.171 HD
BRANCH  11  14
HETATM   14  N4  UNL     1      16.212  18.350  24.385  1.00  0.00    -0.306 N 
HETATM   15  C13 UNL     1      16.892  19.201  23.754  1.00  0.00     0.135 C 
ATOM     16  H4  UNL     1      15.466  17.894  23.859  1.00  0.00     0.186 HD
BRANCH  15  17
HETATM   17  C14 UNL     1      17.983  19.938  24.343  1.00  0.00     0.101 C 
HETATM   18 CL2  UNL     1      17.639  21.397  25.263  1.00  0.00    -0.079 Cl
HETATM   19  C15 UNL     1      19.255  19.533  24.206  1.00  0.00     0.208 C 
HETATM   20  F1  UNL     1      20.251  20.257  24.776  1.00  0.00    -0.191 F 
HETATM   21 CL3  UNL     1      19.542  18.082  23.290  1.00  0.00    -0.050 Cl
ENDBRANCH  15  17
ENDBRANCH  11  14
ENDBRANCH   6   8
BRANCH   5  22
HETATM   22  O2  UNL     1      18.550  14.457  27.564  1.00  0.00    -0.354 OA
HETATM   23  C10 UNL     1      19.670  13.982  28.262  1.00  0.00     0.210 C 
ENDBRANCH   5  22
BRANCH   7  24
HETATM   24  N5  UNL     1      13.841  15.198  27.944  1.00  0.00    -0.112 N 
HETATM   25  O4  UNL     1      13.246  15.497  26.892  1.00  0.00    -0.532 OA
HETATM   26  O5  UNL     1      13.432  15.808  29.104  1.00  0.00    -0.532 OA
ENDBRANCH   7  24
BRANCH   1  27
HETATM   27  C5  UNL     1      13.393  12.417  28.603  1.00  0.00     0.186 A 
HETATM   28  O1  UNL     1      12.619  11.699  27.846  1.00  0.00    -0.217 OA
HETATM   29  N1  UNL     1      11.499  11.404  28.417  1.00  0.00    -0.247 N 
HETATM   30  C4  UNL     1      11.494  11.955  29.650  1.00  0.00     0.104 A 
ATOM     31  H1  UNL     1      10.747  10.851  28.007  1.00  0.00     0.196 HD
HETATM   32  N6  UNL     1      12.682  12.582  29.749  1.00  0.00    -0.323 N 
ATOM     33  H6  UNL     1      13.000  13.105  30.565  1.00  0.00     0.169 HD
BRANCH  30  34
HETATM   34  C3  UNL     1      10.402  11.873  30.657  1.00  0.00     0.078 C 
BRANCH  34  35
HETATM   35  C2  UNL     1       9.095  12.421  30.121  1.00  0.00     0.003 C 
HETATM   36  C1  UNL     1       7.896  11.685  30.638  1.00  0.00     0.005 C 
ENDBRANCH  34  35
ENDBRANCH  30  34
ENDBRANCH   1  27
TORSDOF 8
ENDMDL
MODEL 3
REMARK VINA RESULT: -8.956617434      0.962      1.176
REMARK  8 active torsions:
REMARK  status: ('A' for Active; 'I' for Inactive)
REMARK    1  A    between atoms: C2_2  and  C3_3 
REMARK    2  A    between atoms: C3_3  and  C4_4 
REMARK    3  A    between atoms: C5_8  and  C6_9 
REMARK    4  A    between atoms: C9_13  and  O2_14 
REMARK    5  A    between atoms: C11_16  and  N2_17 
REMARK       I    between atoms: N2_17  and  C12_19 
REMARK       I    between atoms: C12_19  and  N3_21 
REMARK    6  A    between atoms: N3_21  and  N4_23 
REMARK    7  A    between atoms: C13_25  and  C14_26 
REMARK    8  A    between atoms: C16_31  and  N5_32 
ROOT
HETATM    1  C6  UNL     1      14.750  12.979  28.268  1.00  0.00     0.074 A 
HETATM    2  C7  UNL     1      15.863  12.168  28.278  1.00  0.00     0.053 A 
HETATM    3 CL1  UNL     1      15.649  10.470  28.631  1.00  0.00    -0.083 Cl
HETATM    4  C8  UNL     1      17.143  12.642  28.021  1.00  0.00     0.064 A 
HETATM    5  C9  UNL     1      17.300  13.990  27.742  1.00  0.00     0.099 A 
HETATM    6  C11 UNL     1      16.205  14.835  27.723  1.00  0.00     0.104 A 
HETATM    7  C16 UNL     1      14.949  14.310  27.987  1.00  0.00     0.148 A 
ENDROOT
BRANCH   6   8
HETATM    8  N2  UNL     1      16.377  16.222  27.434  1.00  0.00    -0.303 N 
HETATM    9  C12 UNL     1      16.136  16.678  26.112  1.00  0.00     0.339 C 
HETATM   10  O3  UNL     1      15.779  15.873  25.209  1.00  0.00    -0.245 OA
HETATM   11  N3  UNL     1      16.288  18.061  25.753  1.00  0.00    -0.252 N 
ATOM     12  H3  UNL     1      16.576  18.734  26.465  1.00  0.00     0.191 HD
ATOM     13  H2  UNL     1      16.667  16.872  28.164  1.00  0.00     0.171 HD
BRANCH  11  14
HETATM   14  N4  UNL     1      16.053  18.498  24.471  1.00  0.00    -0.306 N 
HETATM   15  C13 UNL     1      16.895  18.888  23.621  1.00  0.00     0.135 C 
ATOM     16  H4  UNL     1      15.078  18.507  24.173  1.00  0.00     0.186 HD
BRANCH  15  17
HETATM   17  C14 UNL     1      18.314  18.939  23.876  1.00  0.00     0.101 C 
HETATM   18 CL2  UNL     1      19.318  17.563  23.439  1.00  0.00    -0.079 Cl
HETATM   19  C15 UNL     1      18.884  20.017  24.438  1.00  0.00     0.208 C 
HETATM   20  F1  UNL     1      20.223  20.023  24.661  1.00  0.00    -0.191 F 
HETATM   21 CL3  UNL     1      17.849  21.354  24.848  1.00  0.00    -0.050 Cl
ENDBRANCH  15  17
ENDBRANCH  11  14
ENDBRANCH   6   8
BRANCH   5  22
HETATM   22  O2  UNL     1      18.575  14.484  27.482  1.00  0.00    -0.354 OA
HETATM   23  C10 UNL     1      19.688  14.063  28.227  1.00  0.00     0.210 C 
ENDBRANCH   5  22
BRANCH   7  24
HETATM   24  N5  UNL     1      13.877  15.244  27.950  1.00  0.00    -0.112 N 
HETATM   25  O4  UNL     1      13.254  15.556  26.918  1.00  0.00    -0.532 OA
HETATM   26  O5  UNL     1      13.508  15.847  29.126  1.00  0.00    -0.532 OA
ENDBRANCH   7  24
BRANCH   1  27
HETATM   27  C5  UNL     1      13.421  12.450  28.544  1.00  0.00     0.186 A 
HETATM   28  O1  UNL     1      12.640  11.738  27.789  1.00  0.00    -0.217 OA
HETATM   29  N1  UNL     1      11.523  11.443  28.365  1.00  0.00    -0.247 N 
HETATM   30  C4  UNL     1      11.528  11.987  29.601  1.00  0.00     0.104 A 
ATOM     31  H1  UNL     1      10.767  10.894  27.957  1.00  0.00     0.196 HD
HETATM   32  N6  UNL     1      12.717  12.611  29.696  1.00  0.00    -0.323 N 
ATOM     33  H6  UNL     1      13.042  13.128  30.512  1.00  0.00     0.169 HD
BRANCH  30  34
HETATM   34  C3  UNL     1      10.442  11.902  30.615  1.00  0.00     0.078 C 
BRANCH  34  35
HETATM   35  C2  UNL     1       9.138  12.477  30.098  1.00  0.00     0.003 C 
HETATM   36  C1  UNL     1       7.953  11.615  30.412  1.00  0.00     0.005 C 
ENDBRANCH  34  35
ENDBRANCH  30  34
ENDBRANCH   1  27
TORSDOF 8
ENDMDL
MODEL 4
REMARK VINA RESULT: -8.903038605      0.933      1.409
REMARK  8 active torsions:
REMARK  status: ('A' for Active; 'I' for Inactive)
REMARK    1  A    between atoms: C2_2  and  C3_3 
REMARK    2  A    between atoms: C3_3  and  C4_4 
REMARK    3  A    between atoms: C5_8  and  C6_9 
REMARK    4  A    between atoms: C9_13  and  O2_14 
REMARK    5  A    between atoms: C11_16  and  N2_17 
REMARK       I    between atoms: N2_17  and  C12_19 
REMARK       I    between atoms: C12_19  and  N3_21 
REMARK    6  A    between atoms: N3_21  and  N4_23 
REMARK    7  A    between atoms: C13_25  and  C14_26 
REMARK    8  A    between atoms: C16_31  and  N5_32 
ROOT
HETATM    1  C6  UNL     1      14.924  12.813  28.398  1.00  0.00     0.074 A 
HETATM    2  C7  UNL     1      15.972  11.946  28.620  1.00  0.00     0.053 A 
HETATM    3 CL1  UNL     1      15.606  10.314  29.125  1.00  0.00    -0.083 Cl
HETATM    4  C8  UNL     1      17.301  12.315  28.460  1.00  0.00     0.064 A 
HETATM    5  C9  UNL     1      17.579  13.612  28.059  1.00  0.00     0.099 A 
HETATM    6  C11 UNL     1      16.553  14.510  27.826  1.00  0.00     0.104 A 
HETATM    7  C16 UNL     1      15.243  14.090  28.001  1.00  0.00     0.148 A 
ENDROOT
BRANCH   6   8
HETATM    8  N2  UNL     1      16.849  15.843  27.412  1.00  0.00    -0.303 N 
HETATM    9  C12 UNL     1      17.438  16.046  26.137  1.00  0.00     0.339 C 
HETATM   10  O3  UNL     1      17.696  15.068  25.384  1.00  0.00    -0.245 OA
HETATM   11  N3  UNL     1      17.759  17.363  25.658  1.00  0.00    -0.252 N 
ATOM     12  H3  UNL     1      17.561  18.172  26.247  1.00  0.00     0.191 HD
ATOM     13  H2  UNL     1      16.641  16.634  28.022  1.00  0.00     0.171 HD
BRANCH  11  14
HETATM   14  N4  UNL     1      18.329  17.555  24.422  1.00  0.00    -0.306 N 
HETATM   15  C13 UNL     1      18.201  18.546  23.657  1.00  0.00     0.135 C 
ATOM     16  H4  UNL     1      18.929  16.802  24.083  1.00  0.00     0.186 HD
BRANCH  15  17
HETATM   17  C14 UNL     1      17.393  19.697  23.978  1.00  0.00     0.101 C 
HETATM   18 CL2  UNL     1      15.685  19.692  23.561  1.00  0.00    -0.079 Cl
HETATM   19  C15 UNL     1      17.917  20.770  24.591  1.00  0.00     0.208 C 
HETATM   20  F1  UNL     1      17.120  21.831  24.875  1.00  0.00    -0.191 F 
HETATM   21 CL3  UNL     1      19.611  20.724  24.986  1.00  0.00    -0.050 Cl
ENDBRANCH  15  17
ENDBRANCH  11  14
ENDBRANCH   6   8
BRANCH   5  22
HETATM   22  O2  UNL     1      18.906  14.001  27.893  1.00  0.00    -0.354 OA
HETATM   23  C10 UNL     1      19.955  13.293  28.499  1.00  0.00     0.210 C 
ENDBRANCH   5  22
BRANCH   7  24
HETATM   24  N5  UNL     1      14.247  15.072  27.744  1.00  0.00    -0.112 N 
HETATM   25  O4  UNL     1      14.020  15.564  26.623  1.00  0.00    -0.532 OA
HETATM   26  O5  UNL     1      13.491  15.515  28.800  1.00  0.00    -0.532 OA
ENDBRANCH   7  24
BRANCH   1  27
HETATM   27  C5  UNL     1      13.540  12.395  28.577  1.00  0.00     0.186 A 
HETATM   28  O1  UNL     1      12.735  11.817  27.737  1.00  0.00    -0.217 OA
HETATM   29  N1  UNL     1      11.569  11.589  28.241  1.00  0.00    -0.247 N 
HETATM   30  C4  UNL     1      11.564  12.038  29.515  1.00  0.00     0.104 A 
ATOM     31  H1  UNL     1      10.786  11.145  27.761  1.00  0.00     0.196 HD
HETATM   32  N6  UNL     1      12.799  12.537  29.707  1.00  0.00    -0.323 N 
ATOM     33  H6  UNL     1      13.131  12.960  30.574  1.00  0.00     0.169 HD
BRANCH  30  34
HETATM   34  C3  UNL     1      10.426  11.984  30.473  1.00  0.00     0.078 C 
BRANCH  34  35
HETATM   35  C2  UNL     1       9.248  12.812  30.003  1.00  0.00     0.003 C 
HETATM   36  C1  UNL     1       7.949  12.068  30.060  1.00  0.00     0.005 C 
ENDBRANCH  34  35
ENDBRANCH  30  34
ENDBRANCH   1  27
TORSDOF 8
ENDMDL
MODEL 5
REMARK VINA RESULT: -8.823106316      4.341      9.166
REMARK  8 active torsions:
REMARK  status: ('A' for Active; 'I' for Inactive)
REMARK    1  A    between atoms: C2_2  and  C3_3 
REMARK    2  A    between atoms: C3_3  and  C4_4 
REMARK    3  A    between atoms: C5_8  and  C6_9 
REMARK    4  A    between atoms: C9_13  and  O2_14 
REMARK    5  A    between atoms: C11_16  and  N2_17 
REMARK       I    between atoms: N2_17  and  C12_19 
REMARK       I    between atoms: C12_19  and  N3_21 
REMARK    6  A    between atoms: N3_21  and  N4_23 
REMARK    7  A    between atoms: C13_25  and  C14_26 
REMARK    8  A    between atoms: C16_31  and  N5_32 
ROOT
HETATM    1  C6  UNL     1      15.969  13.392  28.372  1.00  0.00     0.074 A 
HETATM    2  C7  UNL     1      16.747  12.316  28.741  1.00  0.00     0.053 A 
HETATM    3 CL1  UNL     1      18.422  12.294  28.241  1.00  0.00    -0.083 Cl
HETATM    4  C8  UNL     1      16.258  11.254  29.489  1.00  0.00     0.064 A 
HETATM    5  C9  UNL     1      14.929  11.282  29.879  1.00  0.00     0.099 A 
HETATM    6  C11 UNL     1      14.117  12.346  29.529  1.00  0.00     0.104 A 
HETATM    7  C16 UNL     1      14.656  13.382  28.780  1.00  0.00     0.148 A 
ENDROOT
BRANCH   6   8
HETATM    8  N2  UNL     1      12.750  12.367  29.936  1.00  0.00    -0.303 N 
HETATM    9  C12 UNL     1      11.799  11.643  29.170  1.00  0.00     0.339 C 
HETATM   10  O3  UNL     1      12.155  10.994  28.149  1.00  0.00    -0.245 OA
HETATM   11  N3  UNL     1      10.406  11.620  29.526  1.00  0.00    -0.252 N 
ATOM     12  H3  UNL     1      10.092  12.137  30.347  1.00  0.00     0.191 HD
ATOM     13  H2  UNL     1      12.462  12.893  30.761  1.00  0.00     0.171 HD
BRANCH  11  14
HETATM   14  N4  UNL     1       9.490  10.917  28.781  1.00  0.00    -0.306 N 
HETATM   15  C13 UNL     1       8.329  10.563  29.117  1.00  0.00     0.135 C 
ATOM     16  H4  UNL     1       9.785  10.649  27.843  1.00  0.00     0.186 HD
BRANCH  15  17
HETATM   17  C14 UNL     1       7.752  10.857  30.406  1.00  0.00     0.101 C 
HETATM   18 CL2  UNL     1       8.155   9.841  31.783  1.00  0.00    -0.079 Cl
HETATM   19  C15 UNL     1       6.915  11.893  30.576  1.00  0.00     0.208 C 
HETATM   20  F1  UNL     1       6.394  12.134  31.806  1.00  0.00    -0.191 F 
HETATM   21 CL3  UNL     1       6.550  12.870  29.184  1.00  0.00    -0.050 Cl
ENDBRANCH  15  17
ENDBRANCH  11  14
ENDBRANCH   6   8
BRANCH   5  22
HETATM   22  O2  UNL     1      14.420  10.226  30.630  1.00  0.00    -0.354 OA
HETATM   23  C10 UNL     1      14.674   8.891  30.278  1.00  0.00     0.210 C 
ENDBRANCH   5  22
BRANCH   7  24
HETATM   24  N5  UNL     1      13.756  14.435  28.459  1.00  0.00    -0.112 N 
HETATM   25  O4  UNL     1      13.542  15.422  29.189  1.00  0.00    -0.532 OA
HETATM   26  O5  UNL     1      13.072  14.359  27.272  1.00  0.00    -0.532 OA
ENDBRANCH   7  24
BRANCH   1  27
HETATM   27  C5  UNL     1      16.513  14.490  27.585  1.00  0.00     0.186 A 
HETATM   28  O1  UNL     1      16.868  15.682  27.962  1.00  0.00    -0.217 OA
HETATM   29  N1  UNL     1      17.313  16.400  26.986  1.00  0.00    -0.247 N 
HETATM   30  C4  UNL     1      17.262  15.660  25.857  1.00  0.00     0.104 A 
ATOM     31  H1  UNL     1      17.645  17.362  27.055  1.00  0.00     0.196 HD
HETATM   32  N6  UNL     1      16.761  14.473  26.249  1.00  0.00    -0.323 N 
ATOM     33  H6  UNL     1      16.593  13.678  25.633  1.00  0.00     0.169 HD
BRANCH  30  34
HETATM   34  C3  UNL     1      17.674  16.088  24.493  1.00  0.00     0.078 C 
BRANCH  34  35
HETATM   35  C2  UNL     1      17.557  17.587  24.310  1.00  0.00     0.003 C 
HETATM   36  C1  UNL     1      18.705  18.175  23.546  1.00  0.00     0.005 C 
ENDBRANCH  34  35
ENDBRANCH  30  34
ENDBRANCH   1  27
TORSDOF 8
ENDMDL
