MODEL 1
REMARK VINA RESULT: -8.254255641      0.000      0.000
REMARK  11 active torsions:
REMARK  status: ('A' for Active; 'I' for Inactive)
REMARK    1  A    between atoms: C2_2  and  O1_3 
REMARK    2  A    between atoms: O1_3  and  C3_4 
REMARK    3  A    between atoms: C3_4  and  C4_6 
REMARK    4  A    between atoms: C8_12  and  C9_13 
REMARK    5  A    between atoms: C9_13  and  S2_14 
REMARK    6  A    between atoms: S2_14  and  C10_15 
REMARK    7  A    between atoms: C11_20  and  N4_21 
REMARK    8  A    between atoms: N4_21  and  C12_22 
REMARK    9  A    between atoms: C12_22  and  S3_23 
REMARK   10  A    between atoms: C12_22  and  C14_25 
REMARK   11  A    between atoms: C12_22  and  C15_28 
ROOT
HETATM    1  C10 UNL     1      15.730  15.568  27.036  1.00  0.00     0.131 A 
HETATM    2  N2  UNL     1      17.055  15.741  27.388  1.00  0.00    -0.285 N 
ATOM      3  H2  UNL     1      17.458  15.130  28.098  1.00  0.00     0.188 HD
HETATM    4  N3  UNL     1      17.750  16.584  26.889  1.00  0.00    -0.267 N 
ATOM      5  H3  UNL     1      18.726  16.679  27.169  1.00  0.00     0.190 HD
HETATM    6  C11 UNL     1      17.204  17.442  25.912  1.00  0.00     0.235 A 
HETATM    7  S4  UNL     1      15.636  16.826  25.853  1.00  0.00    -0.012 SA
ENDROOT
BRANCH   1   8
HETATM    8  S2  UNL     1      14.680  14.465  27.796  1.00  0.00    -0.099 SA
BRANCH   8   9
HETATM    9  C9  UNL     1      14.254  12.881  27.788  1.00  0.00     0.122 C 
BRANCH   9  10
HETATM   10  C8  UNL     1      14.936  11.892  28.779  1.00  0.00    -0.017 A 
HETATM   11  C4  UNL     1      14.092  11.113  29.572  1.00  0.00     0.078 A 
HETATM   12  C5  UNL     1      14.666  10.159  30.318  1.00  0.00     0.104 A 
HETATM   13  N1  UNL     1      14.089   9.240  31.259  1.00  0.00    -0.093 NA
HETATM   14  S1  UNL     1      16.340  10.297  29.949  1.00  0.00    -0.079 SA
HETATM   15  C6  UNL     1      16.234  11.602  28.825  1.00  0.00    -0.011 A 
HETATM   16  C7  UNL     1      17.377  12.160  27.961  1.00  0.00     0.057 C 
BRANCH  11  17
HETATM   17  C3  UNL     1      12.596  11.279  29.599  1.00  0.00     0.296 C 
HETATM   18  O2  UNL     1      12.111  12.186  30.355  1.00  0.00    -0.259 OA
BRANCH  17  19
HETATM   19  O1  UNL     1      11.714  10.583  28.919  1.00  0.00    -0.318 OA
BRANCH  19  20
HETATM   20  C2  UNL     1      10.549   9.894  29.049  1.00  0.00     0.174 C 
HETATM   21  C1  UNL     1      10.695   8.681  29.992  1.00  0.00     0.034 C 
ENDBRANCH  19  20
ENDBRANCH  17  19
ENDBRANCH  11  17
ENDBRANCH   9  10
ENDBRANCH   8   9
ENDBRANCH   1   8
BRANCH   6  22
HETATM   22  N4  UNL     1      17.906  18.332  25.456  1.00  0.00    -0.388 NA
BRANCH  22  23
HETATM   23  C12 UNL     1      18.453  19.196  24.573  1.00  0.00     0.260 C 
BRANCH  23  24
HETATM   24  S3  UNL     1      19.794  20.182  25.325  1.00  0.00    -0.117 SA
HETATM   25  C13 UNL     1      19.309  21.868  25.610  1.00  0.00     0.094 C 
ENDBRANCH  23  24
BRANCH  23  26
HETATM   26  C14 UNL     1      17.394  20.233  24.082  1.00  0.00     0.410 C 
HETATM   27  F1  UNL     1      16.261  19.653  23.657  1.00  0.00    -0.209 F 
HETATM   28  F2  UNL     1      17.995  20.908  23.044  1.00  0.00    -0.209 F 
ENDBRANCH  23  26
BRANCH  23  29
HETATM   29  C15 UNL     1      18.905  18.460  23.324  1.00  0.00     0.410 C 
HETATM   30  F3  UNL     1      20.226  18.863  23.026  1.00  0.00    -0.209 F 
HETATM   31  F4  UNL     1      18.871  17.122  23.515  1.00  0.00    -0.209 F 
ENDBRANCH  23  29
ENDBRANCH  22  23
ENDBRANCH   6  22
TORSDOF 11
ENDMDL
MODEL 2
REMARK VINA RESULT: -8.218636307      2.226      3.678
REMARK  11 active torsions:
REMARK  status: ('A' for Active; 'I' for Inactive)
REMARK    1  A    between atoms: C2_2  and  O1_3 
REMARK    2  A    between atoms: O1_3  and  C3_4 
REMARK    3  A    between atoms: C3_4  and  C4_6 
REMARK    4  A    between atoms: C8_12  and  C9_13 
REMARK    5  A    between atoms: C9_13  and  S2_14 
REMARK    6  A    between atoms: S2_14  and  C10_15 
REMARK    7  A    between atoms: C11_20  and  N4_21 
REMARK    8  A    between atoms: N4_21  and  C12_22 
REMARK    9  A    between atoms: C12_22  and  S3_23 
REMARK   10  A    between atoms: C12_22  and  C14_25 
REMARK   11  A    between atoms: C12_22  and  C15_28 
ROOT
HETATM    1  C10 UNL     1      16.415  15.329  27.158  1.00  0.00     0.131 A 
HETATM    2  N2  UNL     1      17.706  15.808  27.275  1.00  0.00    -0.285 N 
ATOM      3  H2  UNL     1      18.377  15.280  27.833  1.00  0.00     0.188 HD
HETATM    4  N3  UNL     1      18.069  16.821  26.743  1.00  0.00    -0.267 N 
ATOM      5  H3  UNL     1      19.032  17.141  26.846  1.00  0.00     0.190 HD
HETATM    6  C11 UNL     1      17.150  17.566  25.975  1.00  0.00     0.235 A 
HETATM    7  S4  UNL     1      15.791  16.584  26.144  1.00  0.00    -0.012 SA
ENDROOT
BRANCH   1   8
HETATM    8  S2  UNL     1      15.828  13.961  27.985  1.00  0.00    -0.099 SA
BRANCH   8   9
HETATM    9  C9  UNL     1      15.756  12.327  27.876  1.00  0.00     0.122 C 
BRANCH   9  10
HETATM   10  C8  UNL     1      14.650  11.548  28.650  1.00  0.00    -0.017 A 
HETATM   11  C4  UNL     1      15.080  10.666  29.643  1.00  0.00     0.078 A 
HETATM   12  C5  UNL     1      14.135  10.106  30.410  1.00  0.00     0.104 A 
HETATM   13  N1  UNL     1      14.245   9.138  31.466  1.00  0.00    -0.093 NA
HETATM   14  S1  UNL     1      12.667  10.769  29.808  1.00  0.00    -0.079 SA
HETATM   15  C6  UNL     1      13.340  11.764  28.569  1.00  0.00    -0.011 A 
HETATM   16  C7  UNL     1      12.584  12.786  27.704  1.00  0.00     0.057 C 
BRANCH  11  17
HETATM   17  C3  UNL     1      16.529  10.351  29.899  1.00  0.00     0.296 C 
HETATM   18  O2  UNL     1      16.931   9.163  29.662  1.00  0.00    -0.259 OA
BRANCH  17  19
HETATM   19  O1  UNL     1      17.448  11.176  30.348  1.00  0.00    -0.318 OA
BRANCH  19  20
HETATM   20  C2  UNL     1      18.778  11.451  30.282  1.00  0.00     0.174 C 
HETATM   21  C1  UNL     1      19.159  12.156  28.963  1.00  0.00     0.034 C 
ENDBRANCH  19  20
ENDBRANCH  17  19
ENDBRANCH  11  17
ENDBRANCH   9  10
ENDBRANCH   8   9
ENDBRANCH   1   8
BRANCH   6  22
HETATM   22  N4  UNL     1      17.517  18.625  25.488  1.00  0.00    -0.388 NA
BRANCH  22  23
HETATM   23  C12 UNL     1      18.223  19.511  24.751  1.00  0.00     0.260 C 
BRANCH  23  24
HETATM   24  S3  UNL     1      19.310  18.681  23.541  1.00  0.00    -0.117 SA
HETATM   25  C13 UNL     1      18.794  17.013  23.207  1.00  0.00     0.094 C 
ENDBRANCH  23  24
BRANCH  23  26
HETATM   26  C14 UNL     1      19.173  20.355  25.659  1.00  0.00     0.410 C 
HETATM   27  F1  UNL     1      18.740  21.612  25.833  1.00  0.00    -0.209 F 
HETATM   28  F2  UNL     1      20.388  20.362  25.013  1.00  0.00    -0.209 F 
ENDBRANCH  23  26
BRANCH  23  29
HETATM   29  C15 UNL     1      17.291  20.517  24.099  1.00  0.00     0.410 C 
HETATM   30  F3  UNL     1      18.016  21.215  23.107  1.00  0.00    -0.209 F 
HETATM   31  F4  UNL     1      16.232  19.896  23.534  1.00  0.00    -0.209 F 
ENDBRANCH  23  29
ENDBRANCH  22  23
ENDBRANCH   6  22
TORSDOF 11
ENDMDL
MODEL 3
REMARK VINA RESULT: -8.196575341      1.258      2.057
REMARK  11 active torsions:
REMARK  status: ('A' for Active; 'I' for Inactive)
REMARK    1  A    between atoms: C2_2  and  O1_3 
REMARK    2  A    between atoms: O1_3  and  C3_4 
REMARK    3  A    between atoms: C3_4  and  C4_6 
REMARK    4  A    between atoms: C8_12  and  C9_13 
REMARK    5  A    between atoms: C9_13  and  S2_14 
REMARK    6  A    between atoms: S2_14  and  C10_15 
REMARK    7  A    between atoms: C11_20  and  N4_21 
REMARK    8  A    between atoms: N4_21  and  C12_22 
REMARK    9  A    between atoms: C12_22  and  S3_23 
REMARK   10  A    between atoms: C12_22  and  C14_25 
REMARK   11  A    between atoms: C12_22  and  C15_28 
ROOT
HETATM    1  C10 UNL     1      15.637  15.489  27.021  1.00  0.00     0.131 A 
HETATM    2  N2  UNL     1      16.963  15.664  27.366  1.00  0.00    -0.285 N 
ATOM      3  H2  UNL     1      17.390  15.010  28.022  1.00  0.00     0.188 HD
HETATM    4  N3  UNL     1      17.632  16.557  26.924  1.00  0.00    -0.267 N 
ATOM      5  H3  UNL     1      18.610  16.651  27.197  1.00  0.00     0.190 HD
HETATM    6  C11 UNL     1      17.053  17.475  26.023  1.00  0.00     0.235 A 
HETATM    7  S4  UNL     1      15.497  16.831  25.939  1.00  0.00    -0.012 SA
ENDROOT
BRANCH   1   8
HETATM    8  S2  UNL     1      14.621  14.308  27.709  1.00  0.00    -0.099 SA
BRANCH   8   9
HETATM    9  C9  UNL     1      14.332  12.694  27.693  1.00  0.00     0.122 C 
BRANCH   9  10
HETATM   10  C8  UNL     1      15.037  11.772  28.733  1.00  0.00    -0.017 A 
HETATM   11  C4  UNL     1      14.215  10.942  29.497  1.00  0.00     0.078 A 
HETATM   12  C5  UNL     1      14.821  10.044  30.285  1.00  0.00     0.104 A 
HETATM   13  N1  UNL     1      14.269   9.096  31.213  1.00  0.00    -0.093 NA
HETATM   14  S1  UNL     1      16.496  10.303  29.995  1.00  0.00    -0.079 SA
HETATM   15  C6  UNL     1      16.349  11.581  28.846  1.00  0.00    -0.011 A 
HETATM   16  C7  UNL     1      17.488  12.214  28.029  1.00  0.00     0.057 C 
BRANCH  11  17
HETATM   17  C3  UNL     1      12.712  10.995  29.449  1.00  0.00     0.296 C 
HETATM   18  O2  UNL     1      12.112  10.190  28.660  1.00  0.00    -0.259 OA
BRANCH  17  19
HETATM   19  O1  UNL     1      11.928  11.792  30.140  1.00  0.00    -0.318 OA
BRANCH  19  20
HETATM   20  C2  UNL     1      10.647  12.238  30.226  1.00  0.00     0.174 C 
HETATM   21  C1  UNL     1       9.737  11.246  30.980  1.00  0.00     0.034 C 
ENDBRANCH  19  20
ENDBRANCH  17  19
ENDBRANCH  11  17
ENDBRANCH   9  10
ENDBRANCH   8   9
ENDBRANCH   1   8
BRANCH   6  22
HETATM   22  N4  UNL     1      17.729  18.412  25.626  1.00  0.00    -0.388 NA
BRANCH  22  23
HETATM   23  C12 UNL     1      18.331  19.282  24.786  1.00  0.00     0.260 C 
BRANCH  23  24
HETATM   24  S3  UNL     1      19.322  18.427  23.512  1.00  0.00    -0.117 SA
HETATM   25  C13 UNL     1      18.821  16.736  23.294  1.00  0.00     0.094 C 
ENDBRANCH  23  24
BRANCH  23  26
HETATM   26  C14 UNL     1      19.336  20.194  25.557  1.00  0.00     0.410 C 
HETATM   27  F1  UNL     1      18.828  21.404  25.836  1.00  0.00    -0.209 F 
HETATM   28  F2  UNL     1      20.427  20.322  24.729  1.00  0.00    -0.209 F 
ENDBRANCH  23  26
BRANCH  23  29
HETATM   29  C15 UNL     1      17.307  20.229  24.185  1.00  0.00     0.410 C 
HETATM   30  F3  UNL     1      17.953  21.016  23.204  1.00  0.00    -0.209 F 
HETATM   31  F4  UNL     1      16.290  19.543  23.618  1.00  0.00    -0.209 F 
ENDBRANCH  23  29
ENDBRANCH  22  23
ENDBRANCH   6  22
TORSDOF 11
ENDMDL
MODEL 4
REMARK VINA RESULT: -8.190856708      2.128      3.301
REMARK  11 active torsions:
REMARK  status: ('A' for Active; 'I' for Inactive)
REMARK    1  A    between atoms: C2_2  and  O1_3 
REMARK    2  A    between atoms: O1_3  and  C3_4 
REMARK    3  A    between atoms: C3_4  and  C4_6 
REMARK    4  A    between atoms: C8_12  and  C9_13 
REMARK    5  A    between atoms: C9_13  and  S2_14 
REMARK    6  A    between atoms: S2_14  and  C10_15 
REMARK    7  A    between atoms: C11_20  and  N4_21 
REMARK    8  A    between atoms: N4_21  and  C12_22 
REMARK    9  A    between atoms: C12_22  and  S3_23 
REMARK   10  A    between atoms: C12_22  and  C14_25 
REMARK   11  A    between atoms: C12_22  and  C15_28 
ROOT
HETATM    1  C10 UNL     1      16.377  14.898  27.206  1.00  0.00     0.131 A 
HETATM    2  N2  UNL     1      15.594  16.035  27.155  1.00  0.00    -0.285 N 
ATOM      3  H2  UNL     1      14.713  16.047  27.668  1.00  0.00     0.188 HD
HETATM    4  N3  UNL     1      15.912  17.009  26.529  1.00  0.00    -0.267 N 
ATOM      5  H3  UNL     1      15.311  17.833  26.518  1.00  0.00     0.190 HD
HETATM    6  C11 UNL     1      17.123  17.003  25.807  1.00  0.00     0.235 A 
HETATM    7  S4  UNL     1      17.668  15.456  26.199  1.00  0.00    -0.012 SA
ENDROOT
BRANCH   1   8
HETATM    8  S2  UNL     1      15.914  13.457  27.986  1.00  0.00    -0.099 SA
BRANCH   8   9
HETATM    9  C9  UNL     1      15.796  11.841  27.736  1.00  0.00     0.122 C 
BRANCH   9  10
HETATM   10  C8  UNL     1      14.744  11.010  28.530  1.00  0.00    -0.017 A 
HETATM   11  C4  UNL     1      15.217  10.262  29.610  1.00  0.00     0.078 A 
HETATM   12  C5  UNL     1      14.301   9.665  30.384  1.00  0.00     0.104 A 
HETATM   13  N1  UNL     1      14.463   8.801  31.521  1.00  0.00    -0.093 NA
HETATM   14  S1  UNL     1      12.801  10.114  29.673  1.00  0.00    -0.079 SA
HETATM   15  C6  UNL     1      13.423  11.074  28.382  1.00  0.00    -0.011 A 
HETATM   16  C7  UNL     1      12.605  11.936  27.405  1.00  0.00     0.057 C 
BRANCH  11  17
HETATM   17  C3  UNL     1      16.677  10.128  29.947  1.00  0.00     0.296 C 
HETATM   18  O2  UNL     1      17.206   8.970  29.853  1.00  0.00    -0.259 OA
BRANCH  17  19
HETATM   19  O1  UNL     1      17.488  11.087  30.334  1.00  0.00    -0.318 OA
BRANCH  19  20
HETATM   20  C2  UNL     1      18.791  11.476  30.308  1.00  0.00     0.174 C 
HETATM   21  C1  UNL     1      19.233  11.929  28.901  1.00  0.00     0.034 C 
ENDBRANCH  19  20
ENDBRANCH  17  19
ENDBRANCH  11  17
ENDBRANCH   9  10
ENDBRANCH   8   9
ENDBRANCH   1   8
BRANCH   6  22
HETATM   22  N4  UNL     1      17.406  17.978  25.128  1.00  0.00    -0.388 NA
BRANCH  22  23
HETATM   23  C12 UNL     1      18.121  18.987  24.584  1.00  0.00     0.260 C 
BRANCH  23  24
HETATM   24  S3  UNL     1      19.182  19.815  25.818  1.00  0.00    -0.117 SA
HETATM   25  C13 UNL     1      19.446  21.531  25.435  1.00  0.00     0.094 C 
ENDBRANCH  23  24
BRANCH  23  26
HETATM   26  C14 UNL     1      17.177  20.100  24.028  1.00  0.00     0.410 C 
HETATM   27  F1  UNL     1      16.040  19.605  23.516  1.00  0.00    -0.209 F 
HETATM   28  F2  UNL     1      17.898  20.737  23.045  1.00  0.00    -0.209 F 
ENDBRANCH  23  26
BRANCH  23  29
HETATM   29  C15 UNL     1      18.907  18.490  23.384  1.00  0.00     0.410 C 
HETATM   30  F3  UNL     1      20.247  18.915  23.525  1.00  0.00    -0.209 F 
HETATM   31  F4  UNL     1      18.864  17.142  23.305  1.00  0.00    -0.209 F 
ENDBRANCH  23  29
ENDBRANCH  22  23
ENDBRANCH   6  22
TORSDOF 11
ENDMDL
MODEL 5
REMARK VINA RESULT: -8.022622897      1.550      2.287
REMARK  11 active torsions:
REMARK  status: ('A' for Active; 'I' for Inactive)
REMARK    1  A    between atoms: C2_2  and  O1_3 
REMARK    2  A    between atoms: O1_3  and  C3_4 
REMARK    3  A    between atoms: C3_4  and  C4_6 
REMARK    4  A    between atoms: C8_12  and  C9_13 
REMARK    5  A    between atoms: C9_13  and  S2_14 
REMARK    6  A    between atoms: S2_14  and  C10_15 
REMARK    7  A    between atoms: C11_20  and  N4_21 
REMARK    8  A    between atoms: N4_21  and  C12_22 
REMARK    9  A    between atoms: C12_22  and  S3_23 
REMARK   10  A    between atoms: C12_22  and  C14_25 
REMARK   11  A    between atoms: C12_22  and  C15_28 
ROOT
HETATM    1  C10 UNL     1      16.675  14.905  27.241  1.00  0.00     0.131 A 
HETATM    2  N2  UNL     1      15.904  16.052  27.235  1.00  0.00    -0.285 N 
ATOM      3  H2  UNL     1      15.062  16.080  27.808  1.00  0.00     0.188 HD
HETATM    4  N3  UNL     1      16.190  17.016  26.579  1.00  0.00    -0.267 N 
ATOM      5  H3  UNL     1      15.600  17.848  26.604  1.00  0.00     0.190 HD
HETATM    6  C11 UNL     1      17.347  16.988  25.774  1.00  0.00     0.235 A 
HETATM    7  S4  UNL     1      17.898  15.438  26.141  1.00  0.00    -0.012 SA
ENDROOT
BRANCH   1   8
HETATM    8  S2  UNL     1      16.249  13.476  28.064  1.00  0.00    -0.099 SA
BRANCH   8   9
HETATM    9  C9  UNL     1      15.826  11.915  27.795  1.00  0.00     0.122 C 
BRANCH   9  10
HETATM   10  C8  UNL     1      15.135  11.095  28.925  1.00  0.00    -0.017 A 
HETATM   11  C4  UNL     1      13.741  11.140  28.973  1.00  0.00     0.078 A 
HETATM   12  C5  UNL     1      13.135  10.324  29.845  1.00  0.00     0.104 A 
HETATM   13  N1  UNL     1      11.742  10.171  30.164  1.00  0.00    -0.093 NA
HETATM   14  S1  UNL     1      14.433   9.486  30.599  1.00  0.00    -0.079 SA
HETATM   15  C6  UNL     1      15.732  10.231  29.742  1.00  0.00    -0.011 A 
HETATM   16  C7  UNL     1      17.218   9.838  29.808  1.00  0.00     0.057 C 
BRANCH  11  17
HETATM   17  C3  UNL     1      12.911  12.025  28.082  1.00  0.00     0.296 C 
HETATM   18  O2  UNL     1      12.578  11.572  26.936  1.00  0.00    -0.259 OA
BRANCH  17  19
HETATM   19  O1  UNL     1      12.481  13.236  28.354  1.00  0.00    -0.318 OA
BRANCH  19  20
HETATM   20  C2  UNL     1      12.648  14.543  28.018  1.00  0.00     0.174 C 
HETATM   21  C1  UNL     1      13.124  15.393  29.214  1.00  0.00     0.034 C 
ENDBRANCH  19  20
ENDBRANCH  17  19
ENDBRANCH  11  17
ENDBRANCH   9  10
ENDBRANCH   8   9
ENDBRANCH   1   8
BRANCH   6  22
HETATM   22  N4  UNL     1      17.594  17.955  25.069  1.00  0.00    -0.388 NA
BRANCH  22  23
HETATM   23  C12 UNL     1      18.226  19.041  24.572  1.00  0.00     0.260 C 
BRANCH  23  24
HETATM   24  S3  UNL     1      19.170  19.930  25.858  1.00  0.00    -0.117 SA
HETATM   25  C13 UNL     1      19.403  21.645  25.456  1.00  0.00     0.094 C 
ENDBRANCH  23  24
BRANCH  23  26
HETATM   26  C14 UNL     1      17.197  20.076  24.016  1.00  0.00     0.410 C 
HETATM   27  F1  UNL     1      16.088  19.495  23.536  1.00  0.00    -0.209 F 
HETATM   28  F2  UNL     1      17.854  20.742  23.007  1.00  0.00    -0.209 F 
ENDBRANCH  23  26
BRANCH  23  29
HETATM   29  C15 UNL     1      19.088  18.653  23.384  1.00  0.00     0.410 C 
HETATM   30  F3  UNL     1      20.392  19.152  23.601  1.00  0.00    -0.209 F 
HETATM   31  F4  UNL     1      19.135  17.309  23.241  1.00  0.00    -0.209 F 
ENDBRANCH  23  29
ENDBRANCH  22  23
ENDBRANCH   6  22
TORSDOF 11
ENDMDL
