MODEL 1
REMARK VINA RESULT: -8.534360714      0.000      0.000
REMARK  9 active torsions:
REMARK  status: ('A' for Active; 'I' for Inactive)
REMARK    1  A    between atoms: N2_5  and  C3_6 
REMARK    2  A    between atoms: C3_6  and  C4_7 
REMARK    3  A    between atoms: C5_8  and  C6_9 
REMARK    4  A    between atoms: C6_9  and  S1_10 
REMARK    5  A    between atoms: S1_10  and  C7_11 
REMARK    6  A    between atoms: C7_11  and  O1_12 
REMARK    7  A    between atoms: O1_12  and  C8_13 
REMARK    8  A    between atoms: C8_13  and  C11_16 
REMARK    9  A    between atoms: C11_16  and  C12_17 
ROOT
HETATM    1  C1  UNL     1      47.846 -49.267   7.522  1.00  0.00     0.070 C 
HETATM    2  C2  UNL     1      47.335 -49.185   6.123  1.00  0.00     0.031 A 
HETATM    3  N1  UNL     1      46.379 -48.402   5.618  1.00  0.00    -0.301 N 
ATOM      4  H1  UNL     1      45.847 -47.721   6.160  1.00  0.00     0.187 HD
HETATM    5  N2  UNL     1      46.209 -48.624   4.315  1.00  0.00    -0.278 N 
HETATM    6  C15 UNL     1      47.092 -49.584   3.986  1.00  0.00     0.139 A 
HETATM    7  C16 UNL     1      47.285 -50.163   2.676  1.00  0.00     0.120 C 
HETATM    8  N3  UNL     1      47.422 -50.622   1.625  1.00  0.00    -0.190 NA
HETATM    9  C17 UNL     1      47.808 -49.951   5.102  1.00  0.00     0.001 A 
HETATM   10  C18 UNL     1      48.863 -50.969   5.142  1.00  0.00     0.053 C 
ENDROOT
BRANCH   5  11
HETATM   11  C3  UNL     1      45.267 -47.971   3.420  1.00  0.00     0.177 C 
BRANCH  11  12
HETATM   12  C4  UNL     1      44.332 -47.088   4.155  1.00  0.00    -0.008 C 
HETATM   13  C5  UNL     1      43.690 -46.049   3.681  1.00  0.00    -0.019 C 
BRANCH  13  14
HETATM   14  C6  UNL     1      43.755 -45.519   2.298  1.00  0.00     0.103 C 
BRANCH  14  15
HETATM   15  S1  UNL     1      44.448 -43.843   2.403  1.00  0.00    -0.139 SA
BRANCH  15  16
HETATM   16  C7  UNL     1      44.499 -43.289   4.145  1.00  0.00     0.242 C 
BRANCH  16  17
HETATM   17  O1  UNL     1      43.301 -42.723   4.479  1.00  0.00    -0.371 OA
BRANCH  17  18
HETATM   18  C8  UNL     1      43.161 -42.335   5.798  1.00  0.00     0.055 C 
HETATM   19  C9  UNL     1      44.263 -43.067   6.559  1.00  0.00     0.045 C 
HETATM   20  C10 UNL     1      43.439 -40.831   5.798  1.00  0.00     0.045 C 
BRANCH  18  21
HETATM   21  C11 UNL     1      41.812 -42.681   6.294  1.00  0.00     0.041 C 
BRANCH  21  22
HETATM   22  C12 UNL     1      41.075 -41.626   7.061  1.00  0.00    -0.020 C 
HETATM   23  C13 UNL     1      41.348 -41.965   8.545  1.00  0.00     0.009 C 
HETATM   24  C14 UNL     1      39.590 -41.635   6.935  1.00  0.00     0.009 C 
ENDBRANCH  21  22
ENDBRANCH  18  21
ENDBRANCH  17  18
ENDBRANCH  16  17
ENDBRANCH  15  16
ENDBRANCH  14  15
ENDBRANCH  13  14
ENDBRANCH  11  12
ENDBRANCH   5  11
TORSDOF 9
ENDMDL
MODEL 2
REMARK VINA RESULT: -8.319225988      0.999      2.053
REMARK  9 active torsions:
REMARK  status: ('A' for Active; 'I' for Inactive)
REMARK    1  A    between atoms: N2_5  and  C3_6 
REMARK    2  A    between atoms: C3_6  and  C4_7 
REMARK    3  A    between atoms: C5_8  and  C6_9 
REMARK    4  A    between atoms: C6_9  and  S1_10 
REMARK    5  A    between atoms: S1_10  and  C7_11 
REMARK    6  A    between atoms: C7_11  and  O1_12 
REMARK    7  A    between atoms: O1_12  and  C8_13 
REMARK    8  A    between atoms: C8_13  and  C11_16 
REMARK    9  A    between atoms: C11_16  and  C12_17 
ROOT
HETATM    1  C1  UNL     1      47.794 -49.199   7.454  1.00  0.00     0.070 C 
HETATM    2  C2  UNL     1      47.279 -49.128   6.057  1.00  0.00     0.031 A 
HETATM    3  N1  UNL     1      46.316 -48.356   5.551  1.00  0.00    -0.301 N 
ATOM      4  H1  UNL     1      45.780 -47.676   6.090  1.00  0.00     0.187 HD
HETATM    5  N2  UNL     1      46.143 -48.585   4.249  1.00  0.00    -0.278 N 
HETATM    6  C15 UNL     1      47.032 -49.540   3.922  1.00  0.00     0.139 A 
HETATM    7  C16 UNL     1      47.226 -50.124   2.615  1.00  0.00     0.120 C 
HETATM    8  N3  UNL     1      47.364 -50.588   1.566  1.00  0.00    -0.190 NA
HETATM    9  C17 UNL     1      47.755 -49.895   5.038  1.00  0.00     0.001 A 
HETATM   10  C18 UNL     1      48.817 -50.905   5.080  1.00  0.00     0.053 C 
ENDROOT
BRANCH   5  11
HETATM   11  C3  UNL     1      45.194 -47.945   3.354  1.00  0.00     0.177 C 
BRANCH  11  12
HETATM   12  C4  UNL     1      44.281 -47.032   4.082  1.00  0.00    -0.008 C 
HETATM   13  C5  UNL     1      43.607 -46.026   3.582  1.00  0.00    -0.019 C 
BRANCH  13  14
HETATM   14  C6  UNL     1      43.606 -45.569   2.172  1.00  0.00     0.103 C 
BRANCH  14  15
HETATM   15  S1  UNL     1      44.380 -43.925   2.145  1.00  0.00    -0.139 SA
BRANCH  15  16
HETATM   16  C7  UNL     1      44.718 -43.359   3.850  1.00  0.00     0.242 C 
BRANCH  16  17
HETATM   17  O1  UNL     1      43.669 -42.606   4.298  1.00  0.00    -0.371 OA
BRANCH  17  18
HETATM   18  C8  UNL     1      43.588 -42.434   5.667  1.00  0.00     0.055 C 
HETATM   19  C9  UNL     1      43.634 -40.926   5.893  1.00  0.00     0.045 C 
HETATM   20  C10 UNL     1      42.211 -42.977   6.051  1.00  0.00     0.045 C 
BRANCH  18  21
HETATM   21  C11 UNL     1      44.702 -43.135   6.339  1.00  0.00     0.041 C 
BRANCH  21  22
HETATM   22  C12 UNL     1      44.343 -44.124   7.406  1.00  0.00    -0.020 C 
HETATM   23  C13 UNL     1      44.892 -43.501   8.711  1.00  0.00     0.009 C 
HETATM   24  C14 UNL     1      44.999 -45.459   7.317  1.00  0.00     0.009 C 
ENDBRANCH  21  22
ENDBRANCH  18  21
ENDBRANCH  17  18
ENDBRANCH  16  17
ENDBRANCH  15  16
ENDBRANCH  14  15
ENDBRANCH  13  14
ENDBRANCH  11  12
ENDBRANCH   5  11
TORSDOF 9
ENDMDL
MODEL 3
REMARK VINA RESULT: -8.277823756      1.069      1.147
REMARK  9 active torsions:
REMARK  status: ('A' for Active; 'I' for Inactive)
REMARK    1  A    between atoms: N2_5  and  C3_6 
REMARK    2  A    between atoms: C3_6  and  C4_7 
REMARK    3  A    between atoms: C5_8  and  C6_9 
REMARK    4  A    between atoms: C6_9  and  S1_10 
REMARK    5  A    between atoms: S1_10  and  C7_11 
REMARK    6  A    between atoms: C7_11  and  O1_12 
REMARK    7  A    between atoms: O1_12  and  C8_13 
REMARK    8  A    between atoms: C8_13  and  C11_16 
REMARK    9  A    between atoms: C11_16  and  C12_17 
ROOT
HETATM    1  C1  UNL     1      46.198 -48.409   7.602  1.00  0.00     0.070 C 
HETATM    2  C2  UNL     1      46.093 -48.463   6.115  1.00  0.00     0.031 A 
HETATM    3  N1  UNL     1      45.464 -47.631   5.282  1.00  0.00    -0.301 N 
ATOM      4  H1  UNL     1      44.946 -46.804   5.578  1.00  0.00     0.187 HD
HETATM    5  N2  UNL     1      45.601 -48.019   4.015  1.00  0.00    -0.278 N 
HETATM    6  C15 UNL     1      46.344 -49.138   4.049  1.00  0.00     0.139 A 
HETATM    7  C16 UNL     1      46.761 -49.931   2.915  1.00  0.00     0.120 C 
HETATM    8  N3  UNL     1      47.079 -50.559   1.999  1.00  0.00    -0.190 NA
HETATM    9  C17 UNL     1      46.665 -49.436   5.354  1.00  0.00     0.001 A 
HETATM   10  C18 UNL     1      47.465 -50.583   5.796  1.00  0.00     0.053 C 
ENDROOT
BRANCH   5  11
HETATM   11  C3  UNL     1      45.062 -47.375   2.828  1.00  0.00     0.177 C 
BRANCH  11  12
HETATM   12  C4  UNL     1      43.856 -46.572   3.137  1.00  0.00    -0.008 C 
HETATM   13  C5  UNL     1      43.731 -45.271   3.052  1.00  0.00    -0.019 C 
BRANCH  13  14
HETATM   14  C6  UNL     1      44.771 -44.303   2.628  1.00  0.00     0.103 C 
BRANCH  14  15
HETATM   15  S1  UNL     1      45.768 -43.915   4.096  1.00  0.00    -0.139 SA
BRANCH  15  16
HETATM   16  C7  UNL     1      44.686 -43.701   5.555  1.00  0.00     0.242 C 
BRANCH  16  17
HETATM   17  O1  UNL     1      43.873 -42.619   5.366  1.00  0.00    -0.371 OA
BRANCH  17  18
HETATM   18  C8  UNL     1      43.331 -42.062   6.508  1.00  0.00     0.055 C 
HETATM   19  C9  UNL     1      44.221 -42.533   7.655  1.00  0.00     0.045 C 
HETATM   20  C10 UNL     1      43.481 -40.552   6.319  1.00  0.00     0.045 C 
BRANCH  18  21
HETATM   21  C11 UNL     1      41.928 -42.495   6.674  1.00  0.00     0.041 C 
BRANCH  21  22
HETATM   22  C12 UNL     1      40.994 -41.543   7.357  1.00  0.00    -0.020 C 
HETATM   23  C13 UNL     1      40.994 -41.995   8.836  1.00  0.00     0.009 C 
HETATM   24  C14 UNL     1      39.566 -41.605   6.940  1.00  0.00     0.009 C 
ENDBRANCH  21  22
ENDBRANCH  18  21
ENDBRANCH  17  18
ENDBRANCH  16  17
ENDBRANCH  15  16
ENDBRANCH  14  15
ENDBRANCH  13  14
ENDBRANCH  11  12
ENDBRANCH   5  11
TORSDOF 9
ENDMDL
MODEL 4
REMARK VINA RESULT: -8.222847247      2.212      3.518
REMARK  9 active torsions:
REMARK  status: ('A' for Active; 'I' for Inactive)
REMARK    1  A    between atoms: N2_5  and  C3_6 
REMARK    2  A    between atoms: C3_6  and  C4_7 
REMARK    3  A    between atoms: C5_8  and  C6_9 
REMARK    4  A    between atoms: C6_9  and  S1_10 
REMARK    5  A    between atoms: S1_10  and  C7_11 
REMARK    6  A    between atoms: C7_11  and  O1_12 
REMARK    7  A    between atoms: O1_12  and  C8_13 
REMARK    8  A    between atoms: C8_13  and  C11_16 
REMARK    9  A    between atoms: C11_16  and  C12_17 
ROOT
HETATM    1  C1  UNL     1      44.969 -47.399   3.058  1.00  0.00     0.070 C 
HETATM    2  C2  UNL     1      45.611 -48.028   4.247  1.00  0.00     0.031 A 
HETATM    3  N1  UNL     1      45.573 -47.650   5.526  1.00  0.00    -0.301 N 
ATOM      4  H1  UNL     1      45.068 -46.833   5.870  1.00  0.00     0.187 HD
HETATM    5  N2  UNL     1      46.279 -48.476   6.298  1.00  0.00    -0.278 N 
HETATM    6  C15 UNL     1      46.782 -49.411   5.474  1.00  0.00     0.139 A 
HETATM    7  C16 UNL     1      47.619 -50.528   5.848  1.00  0.00     0.120 C 
HETATM    8  N3  UNL     1      48.295 -51.411   6.161  1.00  0.00    -0.190 NA
HETATM    9  C17 UNL     1      46.377 -49.152   4.184  1.00  0.00     0.001 A 
HETATM   10  C18 UNL     1      46.724 -49.951   3.004  1.00  0.00     0.053 C 
ENDROOT
BRANCH   5  11
HETATM   11  C3  UNL     1      46.474 -48.395   7.737  1.00  0.00     0.177 C 
BRANCH  11  12
HETATM   12  C4  UNL     1      45.219 -48.046   8.443  1.00  0.00    -0.008 C 
HETATM   13  C5  UNL     1      44.931 -46.907   9.022  1.00  0.00    -0.019 C 
BRANCH  13  14
HETATM   14  C6  UNL     1      45.797 -45.707   9.104  1.00  0.00     0.103 C 
BRANCH  14  15
HETATM   15  S1  UNL     1      44.738 -44.265   8.782  1.00  0.00    -0.139 SA
BRANCH  15  16
HETATM   16  C7  UNL     1      44.638 -43.945   6.985  1.00  0.00     0.242 C 
BRANCH  16  17
HETATM   17  O1  UNL     1      44.255 -42.650   6.773  1.00  0.00    -0.371 OA
BRANCH  17  18
HETATM   18  C8  UNL     1      43.267 -42.458   5.827  1.00  0.00     0.055 C 
HETATM   19  C9  UNL     1      43.365 -40.989   5.424  1.00  0.00     0.045 C 
HETATM   20  C10 UNL     1      43.670 -43.349   4.650  1.00  0.00     0.045 C 
BRANCH  18  21
HETATM   21  C11 UNL     1      41.943 -42.797   6.391  1.00  0.00     0.041 C 
BRANCH  21  22
HETATM   22  C12 UNL     1      41.201 -41.705   7.098  1.00  0.00    -0.020 C 
HETATM   23  C13 UNL     1      41.387 -42.021   8.601  1.00  0.00     0.009 C 
HETATM   24  C14 UNL     1      39.726 -41.670   6.896  1.00  0.00     0.009 C 
ENDBRANCH  21  22
ENDBRANCH  18  21
ENDBRANCH  17  18
ENDBRANCH  16  17
ENDBRANCH  15  16
ENDBRANCH  14  15
ENDBRANCH  13  14
ENDBRANCH  11  12
ENDBRANCH   5  11
TORSDOF 9
ENDMDL
MODEL 5
REMARK VINA RESULT: -8.147869113      2.353      3.857
REMARK  9 active torsions:
REMARK  status: ('A' for Active; 'I' for Inactive)
REMARK    1  A    between atoms: N2_5  and  C3_6 
REMARK    2  A    between atoms: C3_6  and  C4_7 
REMARK    3  A    between atoms: C5_8  and  C6_9 
REMARK    4  A    between atoms: C6_9  and  S1_10 
REMARK    5  A    between atoms: S1_10  and  C7_11 
REMARK    6  A    between atoms: C7_11  and  O1_12 
REMARK    7  A    between atoms: O1_12  and  C8_13 
REMARK    8  A    between atoms: C8_13  and  C11_16 
REMARK    9  A    between atoms: C11_16  and  C12_17 
ROOT
HETATM    1  C1  UNL     1      45.029 -47.425   2.954  1.00  0.00     0.070 C 
HETATM    2  C2  UNL     1      45.647 -48.029   4.169  1.00  0.00     0.031 A 
HETATM    3  N1  UNL     1      45.600 -47.611   5.436  1.00  0.00    -0.301 N 
ATOM      4  H1  UNL     1      45.105 -46.776   5.748  1.00  0.00     0.187 HD
HETATM    5  N2  UNL     1      46.282 -48.426   6.240  1.00  0.00    -0.278 N 
HETATM    6  C15 UNL     1      46.779 -49.394   5.451  1.00  0.00     0.139 A 
HETATM    7  C16 UNL     1      47.592 -50.513   5.868  1.00  0.00     0.120 C 
HETATM    8  N3  UNL     1      48.249 -51.398   6.216  1.00  0.00    -0.190 NA
HETATM    9  C17 UNL     1      46.393 -49.167   4.149  1.00  0.00     0.001 A 
HETATM   10  C18 UNL     1      46.740 -50.007   2.998  1.00  0.00     0.053 C 
ENDROOT
BRANCH   5  11
HETATM   11  C3  UNL     1      46.462 -48.305   7.678  1.00  0.00     0.177 C 
BRANCH  11  12
HETATM   12  C4  UNL     1      45.173 -48.102   8.379  1.00  0.00    -0.008 C 
HETATM   13  C5  UNL     1      44.837 -47.088   9.136  1.00  0.00    -0.019 C 
BRANCH  13  14
HETATM   14  C6  UNL     1      45.675 -45.910   9.467  1.00  0.00     0.103 C 
BRANCH  14  15
HETATM   15  S1  UNL     1      44.830 -44.450   8.790  1.00  0.00    -0.139 SA
BRANCH  15  16
HETATM   16  C7  UNL     1      45.565 -43.985   7.181  1.00  0.00     0.242 C 
BRANCH  16  17
HETATM   17  O1  UNL     1      44.893 -44.616   6.173  1.00  0.00    -0.371 OA
BRANCH  17  18
HETATM   18  C8  UNL     1      44.575 -43.837   5.077  1.00  0.00     0.055 C 
HETATM   19  C9  UNL     1      45.820 -43.845   4.195  1.00  0.00     0.045 C 
HETATM   20  C10 UNL     1      43.437 -44.584   4.379  1.00  0.00     0.045 C 
BRANCH  18  21
HETATM   21  C11 UNL     1      44.202 -42.473   5.508  1.00  0.00     0.041 C 
BRANCH  21  22
HETATM   22  C12 UNL     1      42.740 -42.157   5.589  1.00  0.00    -0.020 C 
HETATM   23  C13 UNL     1      42.675 -40.612   5.543  1.00  0.00     0.009 C 
HETATM   24  C14 UNL     1      42.054 -42.529   6.858  1.00  0.00     0.009 C 
ENDBRANCH  21  22
ENDBRANCH  18  21
ENDBRANCH  17  18
ENDBRANCH  16  17
ENDBRANCH  15  16
ENDBRANCH  14  15
ENDBRANCH  13  14
ENDBRANCH  11  12
ENDBRANCH   5  11
TORSDOF 9
ENDMDL
