MODEL 1
REMARK VINA RESULT: -8.098917177      0.000      0.000
REMARK  9 active torsions:
REMARK  status: ('A' for Active; 'I' for Inactive)
REMARK    1  A    between atoms: C2_2  and  C3_3 
REMARK    2  A    between atoms: C3_3  and  C6_6 
REMARK    3  A    between atoms: C6_6  and  C7_7 
REMARK    4  A    between atoms: C6_6  and  O4_22 
REMARK    5  A    between atoms: C8_8  and  C9_9 
REMARK    6  A    between atoms: C10_10  and  C11_11 
REMARK    7  A    between atoms: C15_16  and  C16_17 
REMARK    8  A    between atoms: C16_17  and  O1_18 
REMARK    9  A    between atoms: O1_18  and  N1_19 
ROOT
HETATM    1  C9  UNL     1      37.829 -42.042   7.457  1.00  0.00     0.001 C 
HETATM    2  C10 UNL     1      36.773 -42.677   7.303  1.00  0.00     0.019 C 
ENDROOT
BRANCH   2   3
HETATM    3  C11 UNL     1      35.881 -42.915   8.471  1.00  0.00     0.013 A 
HETATM    4  S1  UNL     1      36.034 -44.207   9.587  1.00  0.00    -0.101 SA
HETATM    5  C12 UNL     1      34.818 -43.750  10.676  1.00  0.00     0.057 A 
HETATM    6  C13 UNL     1      34.320 -42.599  10.138  1.00  0.00    -0.046 A 
HETATM    7  C14 UNL     1      33.210 -41.820  10.845  1.00  0.00     0.049 C 
HETATM    8  C15 UNL     1      34.876 -42.165   8.981  1.00  0.00    -0.008 A 
BRANCH   8   9
HETATM    9  C16 UNL     1      34.401 -40.943   8.188  1.00  0.00     0.248 C 
BRANCH   9  10
HETATM   10  O1  UNL     1      35.266 -39.879   8.356  1.00  0.00    -0.217 OA
BRANCH  10  11
HETATM   11  N1  UNL     1      35.796 -39.067   7.408  1.00  0.00     0.005 N 
HETATM   12  O2  UNL     1      36.935 -38.562   7.605  1.00  0.00    -0.511 OA
HETATM   13  O3  UNL     1      35.133 -38.804   6.249  1.00  0.00    -0.511 OA
ENDBRANCH  10  11
ENDBRANCH   9  10
ENDBRANCH   8   9
ENDBRANCH   2   3
BRANCH   1  14
HETATM   14  C8  UNL     1      38.956 -41.554   6.737  1.00  0.00     0.002 C 
HETATM   15  C7  UNL     1      40.111 -41.420   7.454  1.00  0.00     0.033 C 
BRANCH  15  16
HETATM   16  C6  UNL     1      41.402 -40.943   6.930  1.00  0.00     0.053 C 
BRANCH  16  17
HETATM   17  C3  UNL     1      42.552 -41.742   7.519  1.00  0.00     0.001 C 
HETATM   18  C4  UNL     1      43.820 -41.024   7.693  1.00  0.00     0.022 C 
HETATM   19  C5  UNL     1      42.147 -42.295   8.890  1.00  0.00     0.022 C 
BRANCH  17  20
HETATM   20  C2  UNL     1      42.785 -42.966   6.638  1.00  0.00     0.011 C 
HETATM   21  C1  UNL     1      43.494 -42.553   5.374  1.00  0.00     0.006 C 
ENDBRANCH  17  20
ENDBRANCH  16  17
BRANCH  16  22
HETATM   22  O4  UNL     1      41.608 -39.630   6.757  1.00  0.00    -0.359 OA
HETATM   23  C17 UNL     1      41.881 -39.245   5.454  1.00  0.00     0.209 C 
ENDBRANCH  16  22
ENDBRANCH  15  16
ENDBRANCH   1  14
TORSDOF 9
ENDMDL
MODEL 2
REMARK VINA RESULT: -7.908956419      5.465      8.167
REMARK  9 active torsions:
REMARK  status: ('A' for Active; 'I' for Inactive)
REMARK    1  A    between atoms: C2_2  and  C3_3 
REMARK    2  A    between atoms: C3_3  and  C6_6 
REMARK    3  A    between atoms: C6_6  and  C7_7 
REMARK    4  A    between atoms: C6_6  and  O4_22 
REMARK    5  A    between atoms: C8_8  and  C9_9 
REMARK    6  A    between atoms: C10_10  and  C11_11 
REMARK    7  A    between atoms: C15_16  and  C16_17 
REMARK    8  A    between atoms: C16_17  and  O1_18 
REMARK    9  A    between atoms: O1_18  and  N1_19 
ROOT
HETATM    1  C9  UNL     1      32.634 -41.967  11.173  1.00  0.00     0.001 C 
HETATM    2  C10 UNL     1      32.000 -42.360  12.166  1.00  0.00     0.019 C 
ENDROOT
BRANCH   2   3
HETATM    3  C11 UNL     1      30.726 -41.687  12.538  1.00  0.00     0.013 A 
HETATM    4  S1  UNL     1      29.363 -41.511  11.514  1.00  0.00    -0.101 SA
HETATM    5  C12 UNL     1      28.292 -40.815  12.628  1.00  0.00     0.057 A 
HETATM    6  C13 UNL     1      29.029 -40.734  13.775  1.00  0.00    -0.046 A 
HETATM    7  C14 UNL     1      28.413 -40.191  15.065  1.00  0.00     0.049 C 
HETATM    8  C15 UNL     1      30.305 -41.188  13.724  1.00  0.00    -0.008 A 
BRANCH   8   9
HETATM    9  C16 UNL     1      31.307 -41.108  14.880  1.00  0.00     0.248 C 
BRANCH   9  10
HETATM   10  O1  UNL     1      31.066 -42.101  15.811  1.00  0.00    -0.217 OA
BRANCH  10  11
HETATM   11  N1  UNL     1      30.550 -43.337  15.608  1.00  0.00     0.005 N 
HETATM   12  O2  UNL     1      29.356 -43.562  15.946  1.00  0.00    -0.511 OA
HETATM   13  O3  UNL     1      31.286 -44.328  15.033  1.00  0.00    -0.511 OA
ENDBRANCH  10  11
ENDBRANCH   9  10
ENDBRANCH   8   9
ENDBRANCH   2   3
BRANCH   1  14
HETATM   14  C8  UNL     1      33.812 -42.237  10.419  1.00  0.00     0.002 C 
HETATM   15  C7  UNL     1      34.043 -43.551  10.122  1.00  0.00     0.033 C 
BRANCH  15  16
HETATM   16  C6  UNL     1      35.184 -44.074   9.353  1.00  0.00     0.053 C 
BRANCH  16  17
HETATM   17  C3  UNL     1      35.946 -45.113  10.159  1.00  0.00     0.001 C 
HETATM   18  C4  UNL     1      36.211 -46.390   9.485  1.00  0.00     0.022 C 
HETATM   19  C5  UNL     1      37.296 -44.537  10.598  1.00  0.00     0.022 C 
BRANCH  17  20
HETATM   20  C2  UNL     1      35.175 -45.377  11.448  1.00  0.00     0.011 C 
HETATM   21  C1  UNL     1      36.009 -46.227  12.372  1.00  0.00     0.006 C 
ENDBRANCH  17  20
ENDBRANCH  16  17
BRANCH  16  22
HETATM   22  O4  UNL     1      35.916 -43.244   8.596  1.00  0.00    -0.359 OA
HETATM   23  C17 UNL     1      35.712 -43.362   7.231  1.00  0.00     0.209 C 
ENDBRANCH  16  22
ENDBRANCH  15  16
ENDBRANCH   1  14
TORSDOF 9
ENDMDL
MODEL 3
REMARK VINA RESULT: -7.904668151      5.417      8.029
REMARK  9 active torsions:
REMARK  status: ('A' for Active; 'I' for Inactive)
REMARK    1  A    between atoms: C2_2  and  C3_3 
REMARK    2  A    between atoms: C3_3  and  C6_6 
REMARK    3  A    between atoms: C6_6  and  C7_7 
REMARK    4  A    between atoms: C6_6  and  O4_22 
REMARK    5  A    between atoms: C8_8  and  C9_9 
REMARK    6  A    between atoms: C10_10  and  C11_11 
REMARK    7  A    between atoms: C15_16  and  C16_17 
REMARK    8  A    between atoms: C16_17  and  O1_18 
REMARK    9  A    between atoms: O1_18  and  N1_19 
ROOT
HETATM    1  C9  UNL     1      32.594 -41.899  11.180  1.00  0.00     0.001 C 
HETATM    2  C10 UNL     1      31.872 -42.377  12.070  1.00  0.00     0.019 C 
ENDROOT
BRANCH   2   3
HETATM    3  C11 UNL     1      30.615 -41.679  12.451  1.00  0.00     0.013 A 
HETATM    4  S1  UNL     1      29.249 -41.472  11.438  1.00  0.00    -0.101 SA
HETATM    5  C12 UNL     1      28.201 -40.756  12.561  1.00  0.00     0.057 A 
HETATM    6  C13 UNL     1      28.947 -40.693  13.702  1.00  0.00    -0.046 A 
HETATM    7  C14 UNL     1      28.351 -40.141  14.998  1.00  0.00     0.049 C 
HETATM    8  C15 UNL     1      30.212 -41.174  13.642  1.00  0.00    -0.008 A 
BRANCH   8   9
HETATM    9  C16 UNL     1      31.224 -41.118  14.792  1.00  0.00     0.248 C 
BRANCH   9  10
HETATM   10  O1  UNL     1      30.956 -42.095  15.732  1.00  0.00    -0.217 OA
BRANCH  10  11
HETATM   11  N1  UNL     1      30.489 -43.351  15.530  1.00  0.00     0.005 N 
HETATM   12  O2  UNL     1      29.286 -43.607  15.812  1.00  0.00    -0.511 OA
HETATM   13  O3  UNL     1      31.283 -44.330  15.015  1.00  0.00    -0.511 OA
ENDBRANCH  10  11
ENDBRANCH   9  10
ENDBRANCH   8   9
ENDBRANCH   2   3
BRANCH   1  14
HETATM   14  C8  UNL     1      33.803 -42.142  10.469  1.00  0.00     0.002 C 
HETATM   15  C7  UNL     1      34.037 -43.441  10.115  1.00  0.00     0.033 C 
BRANCH  15  16
HETATM   16  C6  UNL     1      35.210 -43.936   9.375  1.00  0.00     0.053 C 
BRANCH  16  17
HETATM   17  C3  UNL     1      35.939 -45.005  10.172  1.00  0.00     0.001 C 
HETATM   18  C4  UNL     1      37.289 -44.663  10.634  1.00  0.00     0.022 C 
HETATM   19  C5  UNL     1      35.113 -45.380  11.407  1.00  0.00     0.022 C 
BRANCH  17  20
HETATM   20  C2  UNL     1      36.005 -46.271   9.324  1.00  0.00     0.011 C 
HETATM   21  C1  UNL     1      36.997 -47.233   9.926  1.00  0.00     0.006 C 
ENDBRANCH  17  20
ENDBRANCH  16  17
BRANCH  16  22
HETATM   22  O4  UNL     1      35.971 -43.079   8.680  1.00  0.00    -0.359 OA
HETATM   23  C17 UNL     1      35.833 -43.156   7.303  1.00  0.00     0.209 C 
ENDBRANCH  16  22
ENDBRANCH  15  16
ENDBRANCH   1  14
TORSDOF 9
ENDMDL
MODEL 4
REMARK VINA RESULT: -7.715881490      8.130     11.911
REMARK  9 active torsions:
REMARK  status: ('A' for Active; 'I' for Inactive)
REMARK    1  A    between atoms: C2_2  and  C3_3 
REMARK    2  A    between atoms: C3_3  and  C6_6 
REMARK    3  A    between atoms: C6_6  and  C7_7 
REMARK    4  A    between atoms: C6_6  and  O4_22 
REMARK    5  A    between atoms: C8_8  and  C9_9 
REMARK    6  A    between atoms: C10_10  and  C11_11 
REMARK    7  A    between atoms: C15_16  and  C16_17 
REMARK    8  A    between atoms: C16_17  and  O1_18 
REMARK    9  A    between atoms: O1_18  and  N1_19 
ROOT
HETATM    1  C9  UNL     1      45.330 -46.889   5.374  1.00  0.00     0.001 C 
HETATM    2  C10 UNL     1      45.344 -48.130   5.398  1.00  0.00     0.019 C 
ENDROOT
BRANCH   2   3
HETATM    3  C11 UNL     1      46.517 -48.842   5.975  1.00  0.00     0.013 A 
HETATM    4  S1  UNL     1      47.032 -48.744   7.606  1.00  0.00    -0.101 SA
HETATM    5  C12 UNL     1      48.276 -49.894   7.553  1.00  0.00     0.057 A 
HETATM    6  C13 UNL     1      48.261 -50.324   6.257  1.00  0.00    -0.046 A 
HETATM    7  C14 UNL     1      49.219 -51.418   5.783  1.00  0.00     0.049 C 
HETATM    8  C15 UNL     1      47.341 -49.770   5.432  1.00  0.00    -0.008 A 
BRANCH   8   9
HETATM    9  C16 UNL     1      47.221 -50.064   3.932  1.00  0.00     0.248 C 
BRANCH   9  10
HETATM   10  O1  UNL     1      47.846 -49.083   3.186  1.00  0.00    -0.217 OA
BRANCH  10  11
HETATM   11  N1  UNL     1      49.131 -49.043   2.756  1.00  0.00     0.005 N 
HETATM   12  O2  UNL     1      49.635 -47.929   2.447  1.00  0.00    -0.511 OA
HETATM   13  O3  UNL     1      49.886 -50.173   2.669  1.00  0.00    -0.511 OA
ENDBRANCH  10  11
ENDBRANCH   9  10
ENDBRANCH   8   9
ENDBRANCH   2   3
BRANCH   1  14
HETATM   14  C8  UNL     1      44.519 -45.787   4.981  1.00  0.00     0.002 C 
HETATM   15  C7  UNL     1      45.107 -44.556   5.057  1.00  0.00     0.033 C 
BRANCH  15  16
HETATM   16  C6  UNL     1      44.475 -43.274   4.701  1.00  0.00     0.053 C 
BRANCH  16  17
HETATM   17  C3  UNL     1      43.746 -42.682   5.896  1.00  0.00     0.001 C 
HETATM   18  C4  UNL     1      44.350 -42.925   7.210  1.00  0.00     0.022 C 
HETATM   19  C5  UNL     1      43.620 -41.165   5.722  1.00  0.00     0.022 C 
BRANCH  17  20
HETATM   20  C2  UNL     1      42.317 -43.213   5.894  1.00  0.00     0.011 C 
HETATM   21  C1  UNL     1      41.417 -42.251   6.627  1.00  0.00     0.006 C 
ENDBRANCH  17  20
ENDBRANCH  16  17
BRANCH  16  22
HETATM   22  O4  UNL     1      43.888 -43.129   3.505  1.00  0.00    -0.359 OA
HETATM   23  C17 UNL     1      44.631 -43.584   2.427  1.00  0.00     0.209 C 
ENDBRANCH  16  22
ENDBRANCH  15  16
ENDBRANCH   1  14
TORSDOF 9
ENDMDL
MODEL 5
REMARK VINA RESULT: -7.675493504      5.587      8.128
REMARK  9 active torsions:
REMARK  status: ('A' for Active; 'I' for Inactive)
REMARK    1  A    between atoms: C2_2  and  C3_3 
REMARK    2  A    between atoms: C3_3  and  C6_6 
REMARK    3  A    between atoms: C6_6  and  C7_7 
REMARK    4  A    between atoms: C6_6  and  O4_22 
REMARK    5  A    between atoms: C8_8  and  C9_9 
REMARK    6  A    between atoms: C10_10  and  C11_11 
REMARK    7  A    between atoms: C15_16  and  C16_17 
REMARK    8  A    between atoms: C16_17  and  O1_18 
REMARK    9  A    between atoms: O1_18  and  N1_19 
ROOT
HETATM    1  C9  UNL     1      32.670 -41.860  11.269  1.00  0.00     0.001 C 
HETATM    2  C10 UNL     1      31.776 -42.460  11.889  1.00  0.00     0.019 C 
ENDROOT
BRANCH   2   3
HETATM    3  C11 UNL     1      30.528 -41.740  12.259  1.00  0.00     0.013 A 
HETATM    4  S1  UNL     1      29.169 -41.522  11.237  1.00  0.00    -0.101 SA
HETATM    5  C12 UNL     1      28.126 -40.783  12.350  1.00  0.00     0.057 A 
HETATM    6  C13 UNL     1      28.868 -40.721  13.494  1.00  0.00    -0.046 A 
HETATM    7  C14 UNL     1      28.275 -40.149  14.782  1.00  0.00     0.049 C 
HETATM    8  C15 UNL     1      30.127 -41.220  13.443  1.00  0.00    -0.008 A 
BRANCH   8   9
HETATM    9  C16 UNL     1      31.134 -41.169  14.597  1.00  0.00     0.248 C 
BRANCH   9  10
HETATM   10  O1  UNL     1      30.848 -42.133  15.545  1.00  0.00    -0.217 OA
BRANCH  10  11
HETATM   11  N1  UNL     1      30.407 -43.400  15.349  1.00  0.00     0.005 N 
HETATM   12  O2  UNL     1      31.239 -44.292  15.028  1.00  0.00    -0.511 OA
HETATM   13  O3  UNL     1      29.095 -43.728  15.507  1.00  0.00    -0.511 OA
ENDBRANCH  10  11
ENDBRANCH   9  10
ENDBRANCH   8   9
ENDBRANCH   2   3
BRANCH   1  14
HETATM   14  C8  UNL     1      33.959 -42.054  10.698  1.00  0.00     0.002 C 
HETATM   15  C7  UNL     1      34.206 -43.298  10.188  1.00  0.00     0.033 C 
BRANCH  15  16
HETATM   16  C6  UNL     1      35.457 -43.735   9.546  1.00  0.00     0.053 C 
BRANCH  16  17
HETATM   17  C3  UNL     1      35.243 -43.982   8.061  1.00  0.00     0.001 C 
HETATM   18  C4  UNL     1      35.406 -45.366   7.604  1.00  0.00     0.022 C 
HETATM   19  C5  UNL     1      33.835 -43.529   7.661  1.00  0.00     0.022 C 
BRANCH  17  20
HETATM   20  C2  UNL     1      36.198 -43.080   7.285  1.00  0.00     0.011 C 
HETATM   21  C1  UNL     1      35.731 -41.650   7.374  1.00  0.00     0.006 C 
ENDBRANCH  17  20
ENDBRANCH  16  17
BRANCH  16  22
HETATM   22  O4  UNL     1      36.275 -44.582  10.185  1.00  0.00    -0.359 OA
HETATM   23  C17 UNL     1      35.747 -45.156  11.331  1.00  0.00     0.209 C 
ENDBRANCH  16  22
ENDBRANCH  15  16
ENDBRANCH   1  14
TORSDOF 9
ENDMDL
