MODEL 1
REMARK VINA RESULT: -5.456069250      0.000      0.000
REMARK  2 active torsions:
REMARK  status: ('A' for Active; 'I' for Inactive)
REMARK    1  A    between atoms: C2_2  and  O1_3 
REMARK    2  A    between atoms: O1_3  and  C3_4 
ROOT
HETATM    1  C3  UNL     1     -29.319 -30.575   9.501  1.00  0.00     0.176 C 
HETATM    2  C4  UNL     1     -30.193 -29.810  10.437  1.00  0.00     0.004 C 
HETATM    3  C5  UNL     1     -31.022 -28.927   9.888  1.00  0.00    -0.001 C 
HETATM    4  C6  UNL     1     -30.936 -28.846   8.383  1.00  0.00     0.259 C 
HETATM    5  N1  UNL     1     -29.556 -28.590   8.065  1.00  0.00    -0.069 N 
ATOM      6  H11 UNL     1     -29.295 -27.644   8.348  1.00  0.00     0.277 HD
ATOM      7  H12 UNL     1     -29.431 -28.510   7.056  1.00  0.00     0.277 HD
HETATM    8  C7  UNL     1     -28.645 -29.539   8.606  1.00  0.00     0.268 C 
ENDROOT
BRANCH   1   9
HETATM    9  O1  UNL     1     -28.282 -31.207  10.227  1.00  0.00    -0.353 OA
BRANCH   9  10
HETATM   10  C2  UNL     1     -27.797 -32.465   9.945  1.00  0.00     0.125 C 
HETATM   11  C1  UNL     1     -28.607 -33.441   9.596  1.00  0.00     0.037 C 
ENDBRANCH   9  10
ENDBRANCH   1   9
TORSDOF 2
ENDMDL
MODEL 2
REMARK VINA RESULT: -4.903502605      2.214      2.681
REMARK  2 active torsions:
REMARK  status: ('A' for Active; 'I' for Inactive)
REMARK    1  A    between atoms: C2_2  and  O1_3 
REMARK    2  A    between atoms: O1_3  and  C3_4 
ROOT
HETATM    1  C3  UNL     1     -29.013 -31.596   8.152  1.00  0.00     0.176 C 
HETATM    2  C4  UNL     1     -30.282 -30.844   8.374  1.00  0.00     0.004 C 
HETATM    3  C5  UNL     1     -30.229 -29.830   9.233  1.00  0.00    -0.001 C 
HETATM    4  C6  UNL     1     -28.870 -29.608   9.850  1.00  0.00     0.259 C 
HETATM    5  N1  UNL     1     -28.480 -30.862  10.441  1.00  0.00    -0.069 N 
ATOM      6  H11 UNL     1     -29.058 -31.066  11.257  1.00  0.00     0.277 HD
ATOM      7  H12 UNL     1     -27.569 -30.776  10.890  1.00  0.00     0.277 HD
HETATM    8  C7  UNL     1     -28.488 -31.961   9.538  1.00  0.00     0.268 C 
ENDROOT
BRANCH   1   9
HETATM    9  O1  UNL     1     -29.293 -32.819   7.499  1.00  0.00    -0.353 OA
BRANCH   9  10
HETATM   10  C2  UNL     1     -29.649 -33.980   8.151  1.00  0.00     0.125 C 
HETATM   11  C1  UNL     1     -30.826 -34.534   7.954  1.00  0.00     0.037 C 
ENDBRANCH   9  10
ENDBRANCH   1   9
TORSDOF 2
ENDMDL
MODEL 3
REMARK VINA RESULT: -4.658901918      2.303      4.174
REMARK  2 active torsions:
REMARK  status: ('A' for Active; 'I' for Inactive)
REMARK    1  A    between atoms: C2_2  and  O1_3 
REMARK    2  A    between atoms: O1_3  and  C3_4 
ROOT
HETATM    1  C3  UNL     1     -29.006 -32.946   9.297  1.00  0.00     0.176 C 
HETATM    2  C4  UNL     1     -29.543 -34.011  10.194  1.00  0.00     0.004 C 
HETATM    3  C5  UNL     1     -30.220 -34.994   9.608  1.00  0.00    -0.001 C 
HETATM    4  C6  UNL     1     -30.333 -34.865   8.109  1.00  0.00     0.259 C 
HETATM    5  N1  UNL     1     -30.900 -33.567   7.852  1.00  0.00    -0.069 N 
ATOM      6  H11 UNL     1     -31.877 -33.541   8.146  1.00  0.00     0.277 HD
ATOM      7  H12 UNL     1     -31.016 -33.421   6.850  1.00  0.00     0.277 HD
HETATM    8  C7  UNL     1     -30.177 -32.488   8.433  1.00  0.00     0.268 C 
ENDROOT
BRANCH   1   9
HETATM    9  O1  UNL     1     -28.620 -31.825  10.068  1.00  0.00    -0.353 OA
BRANCH   9  10
HETATM   10  C2  UNL     1     -28.646 -30.525   9.610  1.00  0.00     0.125 C 
HETATM   11  C1  UNL     1     -29.165 -29.561  10.338  1.00  0.00     0.037 C 
ENDBRANCH   9  10
ENDBRANCH   1   9
TORSDOF 2
ENDMDL
MODEL 4
REMARK VINA RESULT: -4.637159754      1.810      2.465
REMARK  2 active torsions:
REMARK  status: ('A' for Active; 'I' for Inactive)
REMARK    1  A    between atoms: C2_2  and  O1_3 
REMARK    2  A    between atoms: O1_3  and  C3_4 
ROOT
HETATM    1  C3  UNL     1     -28.289 -31.725   9.432  1.00  0.00     0.176 C 
HETATM    2  C4  UNL     1     -28.163 -30.619   8.439  1.00  0.00     0.004 C 
HETATM    3  C5  UNL     1     -28.533 -29.409   8.848  1.00  0.00    -0.001 C 
HETATM    4  C6  UNL     1     -29.027 -29.358  10.273  1.00  0.00     0.259 C 
HETATM    5  N1  UNL     1     -30.085 -30.329  10.373  1.00  0.00    -0.069 N 
ATOM      6  H11 UNL     1     -30.903 -30.019   9.850  1.00  0.00     0.277 HD
ATOM      7  H12 UNL     1     -30.474 -30.336  11.316  1.00  0.00     0.277 HD
HETATM    8  C7  UNL     1     -29.710 -31.644   9.980  1.00  0.00     0.268 C 
ENDROOT
BRANCH   1   9
HETATM    9  O1  UNL     1     -28.189 -32.971   8.771  1.00  0.00    -0.353 OA
BRANCH   9  10
HETATM   10  C2  UNL     1     -28.883 -34.102   9.144  1.00  0.00     0.125 C 
HETATM   11  C1  UNL     1     -28.315 -35.032   9.882  1.00  0.00     0.037 C 
ENDBRANCH   9  10
ENDBRANCH   1   9
TORSDOF 2
ENDMDL
MODEL 5
REMARK VINA RESULT: -4.621052312      1.892      2.476
REMARK  2 active torsions:
REMARK  status: ('A' for Active; 'I' for Inactive)
REMARK    1  A    between atoms: C2_2  and  O1_3 
REMARK    2  A    between atoms: O1_3  and  C3_4 
ROOT
HETATM    1  C3  UNL     1     -28.627 -32.053   8.508  1.00  0.00     0.176 C 
HETATM    2  C4  UNL     1     -30.005 -31.529   8.282  1.00  0.00     0.004 C 
HETATM    3  C5  UNL     1     -30.234 -30.277   8.667  1.00  0.00    -0.001 C 
HETATM    4  C6  UNL     1     -29.040 -29.586   9.279  1.00  0.00     0.259 C 
HETATM    5  N1  UNL     1     -28.588 -30.427  10.355  1.00  0.00    -0.069 N 
ATOM      6  H11 UNL     1     -29.260 -30.416  11.122  1.00  0.00     0.277 HD
ATOM      7  H12 UNL     1     -27.784 -30.008  10.822  1.00  0.00     0.277 HD
HETATM    8  C7  UNL     1     -28.296 -31.765   9.969  1.00  0.00     0.268 C 
ENDROOT
BRANCH   1   9
HETATM    9  O1  UNL     1     -28.625 -33.461   8.371  1.00  0.00    -0.353 OA
BRANCH   9  10
HETATM   10  C2  UNL     1     -29.188 -34.327   9.284  1.00  0.00     0.125 C 
HETATM   11  C1  UNL     1     -28.579 -35.444   9.621  1.00  0.00     0.037 C 
ENDBRANCH   9  10
ENDBRANCH   1   9
TORSDOF 2
ENDMDL
