MODEL 1
REMARK VINA RESULT: -5.816998794      0.000      0.000
REMARK  2 active torsions:
REMARK  status: ('A' for Active; 'I' for Inactive)
REMARK    1  A    between atoms: N2_4  and  N3_6 
REMARK    2  A    between atoms: C1_8  and  C2_9 
ROOT
HETATM    1  N3  UNL     1     -29.645 -33.023   8.916  1.00  0.00    -0.295 N 
ATOM      2  H3  UNL     1     -29.127 -33.891   9.048  1.00  0.00     0.187 HD
HETATM    3  C1  UNL     1     -29.233 -31.969   9.514  1.00  0.00     0.145 C 
ENDROOT
BRANCH   1   4
HETATM    4  N2  UNL     1     -30.771 -33.039   8.091  1.00  0.00    -0.250 N 
HETATM    5  N1  UNL     1     -31.481 -34.069   7.973  1.00  0.00    -0.331 N 
ATOM      6  H12 UNL     1     -31.216 -34.902   8.497  1.00  0.00     0.178 HD
ATOM      7  H11 UNL     1     -32.303 -34.081   7.370  1.00  0.00     0.178 HD
ATOM      8  H2  UNL     1     -31.021 -32.197   7.572  1.00  0.00     0.207 HD
ENDBRANCH   1   4
BRANCH   3   9
HETATM    9  C2  UNL     1     -29.952 -30.691   9.351  1.00  0.00     0.091 A 
HETATM   10  C3  UNL     1     -30.323 -29.870  10.407  1.00  0.00     0.040 A 
HETATM   11  C4  UNL     1     -30.975 -28.763   9.890  1.00  0.00     0.027 A 
HETATM   12  C5  UNL     1     -30.966 -28.972   8.524  1.00  0.00     0.142 A 
HETATM   13  O1  UNL     1     -30.352 -30.121   8.259  1.00  0.00    -0.321 OA
ENDBRANCH   3   9
TORSDOF 2
ENDMDL
MODEL 2
REMARK VINA RESULT: -5.785040810      1.203      1.584
REMARK  2 active torsions:
REMARK  status: ('A' for Active; 'I' for Inactive)
REMARK    1  A    between atoms: N2_4  and  N3_6 
REMARK    2  A    between atoms: C1_8  and  C2_9 
ROOT
HETATM    1  N3  UNL     1     -29.844 -33.575   7.757  1.00  0.00    -0.295 N 
ATOM      2  H3  UNL     1     -29.450 -34.371   7.254  1.00  0.00     0.187 HD
HETATM    3  C1  UNL     1     -29.061 -32.624   8.104  1.00  0.00     0.145 C 
ENDROOT
BRANCH   1   4
HETATM    4  N2  UNL     1     -31.212 -33.575   8.034  1.00  0.00    -0.250 N 
HETATM    5  N1  UNL     1     -31.854 -34.647   8.165  1.00  0.00    -0.331 N 
ATOM      6  H12 UNL     1     -31.350 -35.528   8.063  1.00  0.00     0.178 HD
ATOM      7  H11 UNL     1     -32.853 -34.646   8.368  1.00  0.00     0.178 HD
ATOM      8  H2  UNL     1     -31.701 -32.685   8.132  1.00  0.00     0.207 HD
ENDBRANCH   1   4
BRANCH   3   9
HETATM    9  C2  UNL     1     -29.587 -31.454   8.832  1.00  0.00     0.091 A 
HETATM   10  C3  UNL     1     -29.840 -30.223   8.243  1.00  0.00     0.040 A 
HETATM   11  C4  UNL     1     -30.324 -29.365   9.217  1.00  0.00     0.027 A 
HETATM   12  C5  UNL     1     -30.341 -30.132  10.365  1.00  0.00     0.142 A 
HETATM   13  O1  UNL     1     -29.898 -31.354  10.085  1.00  0.00    -0.321 OA
ENDBRANCH   3   9
TORSDOF 2
ENDMDL
MODEL 3
REMARK VINA RESULT: -5.778315239      1.121      1.413
REMARK  2 active torsions:
REMARK  status: ('A' for Active; 'I' for Inactive)
REMARK    1  A    between atoms: N2_4  and  N3_6 
REMARK    2  A    between atoms: C1_8  and  C2_9 
ROOT
HETATM    1  N3  UNL     1     -29.844 -33.352   9.299  1.00  0.00    -0.295 N 
ATOM      2  H3  UNL     1     -29.765 -34.247   9.783  1.00  0.00     0.187 HD
HETATM    3  C1  UNL     1     -29.248 -32.334   9.797  1.00  0.00     0.145 C 
ENDROOT
BRANCH   1   4
HETATM    4  N2  UNL     1     -30.595 -33.294   8.125  1.00  0.00    -0.250 N 
HETATM    5  N1  UNL     1     -31.567 -34.067   7.930  1.00  0.00    -0.331 N 
ATOM      6  H12 UNL     1     -31.798 -34.745   8.656  1.00  0.00     0.178 HD
ATOM      7  H11 UNL     1     -32.116 -34.025   7.072  1.00  0.00     0.178 HD
ATOM      8  H2  UNL     1     -30.350 -32.610   7.409  1.00  0.00     0.207 HD
ENDBRANCH   1   4
BRANCH   3   9
HETATM    9  C2  UNL     1     -29.334 -31.021   9.131  1.00  0.00     0.091 A 
HETATM   10  C3  UNL     1     -28.230 -30.258   8.776  1.00  0.00     0.040 A 
HETATM   11  C4  UNL     1     -28.680 -29.094   8.175  1.00  0.00     0.027 A 
HETATM   12  C5  UNL     1     -30.056 -29.212   8.197  1.00  0.00     0.142 A 
HETATM   13  O1  UNL     1     -30.390 -30.365   8.770  1.00  0.00    -0.321 OA
ENDBRANCH   3   9
TORSDOF 2
ENDMDL
MODEL 4
REMARK VINA RESULT: -5.724649533      1.043      1.275
REMARK  2 active torsions:
REMARK  status: ('A' for Active; 'I' for Inactive)
REMARK    1  A    between atoms: N2_4  and  N3_6 
REMARK    2  A    between atoms: C1_8  and  C2_9 
ROOT
HETATM    1  N3  UNL     1     -29.759 -33.487   7.635  1.00  0.00    -0.295 N 
ATOM      2  H3  UNL     1     -29.405 -34.311   7.149  1.00  0.00     0.187 HD
HETATM    3  C1  UNL     1     -28.942 -32.538   7.902  1.00  0.00     0.145 C 
ENDROOT
BRANCH   1   4
HETATM    4  N2  UNL     1     -31.111 -33.446   7.978  1.00  0.00    -0.250 N 
HETATM    5  N1  UNL     1     -31.795 -34.496   8.068  1.00  0.00    -0.331 N 
ATOM      6  H12 UNL     1     -31.338 -35.389   7.883  1.00  0.00     0.178 HD
ATOM      7  H11 UNL     1     -32.783 -34.466   8.319  1.00  0.00     0.178 HD
ATOM      8  H2  UNL     1     -31.552 -32.544   8.159  1.00  0.00     0.207 HD
ENDBRANCH   1   4
BRANCH   3   9
HETATM    9  C2  UNL     1     -29.409 -31.328   8.604  1.00  0.00     0.091 A 
HETATM   10  C3  UNL     1     -28.798 -30.802   9.734  1.00  0.00     0.040 A 
HETATM   11  C4  UNL     1     -29.499 -29.672  10.122  1.00  0.00     0.027 A 
HETATM   12  C5  UNL     1     -30.515 -29.568   9.192  1.00  0.00     0.142 A 
HETATM   13  O1  UNL     1     -30.417 -30.567   8.320  1.00  0.00    -0.321 OA
ENDBRANCH   3   9
TORSDOF 2
ENDMDL
MODEL 5
REMARK VINA RESULT: -5.523791232      1.686      1.888
REMARK  2 active torsions:
REMARK  status: ('A' for Active; 'I' for Inactive)
REMARK    1  A    between atoms: N2_4  and  N3_6 
REMARK    2  A    between atoms: C1_8  and  C2_9 
ROOT
HETATM    1  N3  UNL     1     -28.626 -32.473  10.087  1.00  0.00    -0.295 N 
ATOM      2  H3  UNL     1     -27.850 -33.133  10.128  1.00  0.00     0.187 HD
HETATM    3  C1  UNL     1     -28.404 -31.296   9.634  1.00  0.00     0.145 C 
ENDROOT
BRANCH   1   4
HETATM    4  N2  UNL     1     -29.882 -32.895  10.526  1.00  0.00    -0.250 N 
HETATM    5  N1  UNL     1     -30.234 -34.098  10.444  1.00  0.00    -0.331 N 
ATOM      6  H12 UNL     1     -29.577 -34.769  10.046  1.00  0.00     0.178 HD
ATOM      7  H11 UNL     1     -31.152 -34.406  10.765  1.00  0.00     0.178 HD
ATOM      8  H2  UNL     1     -30.528 -32.211  10.921  1.00  0.00     0.207 HD
ENDBRANCH   1   4
BRANCH   3   9
HETATM    9  C2  UNL     1     -29.497 -30.309   9.556  1.00  0.00     0.091 A 
HETATM   10  C3  UNL     1     -30.010 -29.813   8.365  1.00  0.00     0.040 A 
HETATM   11  C4  UNL     1     -31.019 -28.913   8.667  1.00  0.00     0.027 A 
HETATM   12  C5  UNL     1     -31.067 -28.910  10.048  1.00  0.00     0.142 A 
HETATM   13  O1  UNL     1     -30.151 -29.749  10.522  1.00  0.00    -0.321 OA
ENDBRANCH   3   9
TORSDOF 2
ENDMDL
