MODEL 1
REMARK VINA RESULT: -5.225229529      0.000      0.000
REMARK  3 active torsions:
REMARK  status: ('A' for Active; 'I' for Inactive)
REMARK    1  A    between atoms: C2_2  and  C3_3 
REMARK    2  A    between atoms: C5_5  and  C6_6 
REMARK    3  A    between atoms: N1_7  and  N2_9 
ROOT
HETATM    1  C3  UNL     1     -30.140 -30.234   9.913  1.00  0.00     0.147 C 
HETATM    2  C4  UNL     1     -29.710 -30.637   8.504  1.00  0.00     0.073 C 
HETATM    3  C5  UNL     1     -28.421 -30.863   9.222  1.00  0.00     0.165 C 
HETATM    4  O1  UNL     1     -28.821 -30.046  10.301  1.00  0.00    -0.371 OA
ENDROOT
BRANCH   3   5
HETATM    5  C6  UNL     1     -28.246 -32.290   9.594  1.00  0.00     0.111 C 
HETATM    6  N1  UNL     1     -27.092 -32.665  10.028  1.00  0.00    -0.320 N 
ATOM      7  H1  UNL     1     -26.338 -31.982  10.104  1.00  0.00     0.185 HD
BRANCH   6   8
HETATM    8  N2  UNL     1     -26.859 -33.984  10.394  1.00  0.00    -0.346 N 
ATOM      9  H22 UNL     1     -27.531 -34.695  10.106  1.00  0.00     0.176 HD
ATOM     10  H21 UNL     1     -26.035 -34.242  10.938  1.00  0.00     0.176 HD
ENDBRANCH   6   8
ENDBRANCH   3   5
BRANCH   1  11
HETATM   11  C2  UNL     1     -30.958 -29.001   9.833  1.00  0.00    -0.005 C 
HETATM   12  C1  UNL     1     -31.287 -28.534   8.658  1.00  0.00     0.009 C 
ENDBRANCH   1  11
TORSDOF 3
ENDMDL
MODEL 2
REMARK VINA RESULT: -5.186317335      1.923      2.108
REMARK  3 active torsions:
REMARK  status: ('A' for Active; 'I' for Inactive)
REMARK    1  A    between atoms: C2_2  and  C3_3 
REMARK    2  A    between atoms: C5_5  and  C6_6 
REMARK    3  A    between atoms: N1_7  and  N2_9 
ROOT
HETATM    1  C3  UNL     1     -30.001 -30.912   8.658  1.00  0.00     0.147 C 
HETATM    2  C4  UNL     1     -28.549 -31.351   8.484  1.00  0.00     0.073 C 
HETATM    3  C5  UNL     1     -28.885 -32.117   9.720  1.00  0.00     0.165 C 
HETATM    4  O1  UNL     1     -29.992 -31.288   9.994  1.00  0.00    -0.371 OA
ENDROOT
BRANCH   3   5
HETATM    5  C6  UNL     1     -29.259 -33.520   9.408  1.00  0.00     0.111 C 
HETATM    6  N1  UNL     1     -29.991 -34.155  10.258  1.00  0.00    -0.320 N 
ATOM      7  H1  UNL     1     -30.290 -33.684  11.113  1.00  0.00     0.185 HD
BRANCH   6   8
HETATM    8  N2  UNL     1     -30.379 -35.468  10.030  1.00  0.00    -0.346 N 
ATOM      9  H22 UNL     1     -31.373 -35.694  10.062  1.00  0.00     0.176 HD
ATOM     10  H21 UNL     1     -29.690 -36.194   9.834  1.00  0.00     0.176 HD
ENDBRANCH   6   8
ENDBRANCH   3   5
BRANCH   1  11
HETATM   11  C2  UNL     1     -30.096 -29.454   8.411  1.00  0.00    -0.005 C 
HETATM   12  C1  UNL     1     -31.187 -28.823   8.754  1.00  0.00     0.009 C 
ENDBRANCH   1  11
TORSDOF 3
ENDMDL
MODEL 3
REMARK VINA RESULT: -5.168567975      2.821      3.229
REMARK  3 active torsions:
REMARK  status: ('A' for Active; 'I' for Inactive)
REMARK    1  A    between atoms: C2_2  and  C3_3 
REMARK    2  A    between atoms: C5_5  and  C6_6 
REMARK    3  A    between atoms: N1_7  and  N2_9 
ROOT
HETATM    1  C3  UNL     1     -29.014 -31.130   8.656  1.00  0.00     0.147 C 
HETATM    2  C4  UNL     1     -28.085 -32.187   9.251  1.00  0.00     0.073 C 
HETATM    3  C5  UNL     1     -29.394 -32.875   9.454  1.00  0.00     0.165 C 
HETATM    4  O1  UNL     1     -30.108 -31.666   9.320  1.00  0.00    -0.371 OA
ENDROOT
BRANCH   3   5
HETATM    5  C6  UNL     1     -29.673 -33.850   8.368  1.00  0.00     0.111 C 
HETATM    6  N1  UNL     1     -30.895 -33.997   7.986  1.00  0.00    -0.320 N 
ATOM      7  H1  UNL     1     -31.631 -33.448   8.432  1.00  0.00     0.185 HD
BRANCH   6   8
HETATM    8  N2  UNL     1     -31.227 -34.890   6.976  1.00  0.00    -0.346 N 
ATOM      9  H22 UNL     1     -30.824 -35.827   7.004  1.00  0.00     0.176 HD
ATOM     10  H21 UNL     1     -31.858 -34.621   6.222  1.00  0.00     0.176 HD
ENDBRANCH   6   8
ENDBRANCH   3   5
BRANCH   1  11
HETATM   11  C2  UNL     1     -28.582 -29.792   9.124  1.00  0.00    -0.005 C 
HETATM   12  C1  UNL     1     -28.245 -28.890   8.242  1.00  0.00     0.009 C 
ENDBRANCH   1  11
TORSDOF 3
ENDMDL
MODEL 4
REMARK VINA RESULT: -5.153269283      1.792      2.175
REMARK  3 active torsions:
REMARK  status: ('A' for Active; 'I' for Inactive)
REMARK    1  A    between atoms: C2_2  and  C3_3 
REMARK    2  A    between atoms: C5_5  and  C6_6 
REMARK    3  A    between atoms: N1_7  and  N2_9 
ROOT
HETATM    1  C3  UNL     1     -29.054 -31.060   9.659  1.00  0.00     0.147 C 
HETATM    2  C4  UNL     1     -28.390 -31.734   8.460  1.00  0.00     0.073 C 
HETATM    3  C5  UNL     1     -27.895 -32.631   9.546  1.00  0.00     0.165 C 
HETATM    4  O1  UNL     1     -28.166 -31.665  10.537  1.00  0.00    -0.371 OA
ENDROOT
BRANCH   3   5
HETATM    5  C6  UNL     1     -28.729 -33.854   9.666  1.00  0.00     0.111 C 
HETATM    6  N1  UNL     1     -28.205 -34.892  10.224  1.00  0.00    -0.320 N 
ATOM      7  H1  UNL     1     -27.244 -34.847  10.564  1.00  0.00     0.185 HD
BRANCH   6   8
HETATM    8  N2  UNL     1     -28.928 -36.067  10.370  1.00  0.00    -0.346 N 
ATOM      9  H22 UNL     1     -29.531 -36.169  11.187  1.00  0.00     0.176 HD
ATOM     10  H21 UNL     1     -28.862 -36.815   9.680  1.00  0.00     0.176 HD
ENDBRANCH   6   8
ENDBRANCH   3   5
BRANCH   1  11
HETATM   11  C2  UNL     1     -28.909 -29.591   9.527  1.00  0.00    -0.005 C 
HETATM   12  C1  UNL     1     -28.363 -29.103   8.446  1.00  0.00     0.009 C 
ENDBRANCH   1  11
TORSDOF 3
ENDMDL
MODEL 5
REMARK VINA RESULT: -5.001182053      2.521      2.707
REMARK  3 active torsions:
REMARK  status: ('A' for Active; 'I' for Inactive)
REMARK    1  A    between atoms: C2_2  and  C3_3 
REMARK    2  A    between atoms: C5_5  and  C6_6 
REMARK    3  A    between atoms: N1_7  and  N2_9 
ROOT
HETATM    1  C3  UNL     1     -29.849 -30.840   9.194  1.00  0.00     0.147 C 
HETATM    2  C4  UNL     1     -28.391 -31.211   8.929  1.00  0.00     0.073 C 
HETATM    3  C5  UNL     1     -28.947 -32.575   9.172  1.00  0.00     0.165 C 
HETATM    4  O1  UNL     1     -30.080 -32.052   9.828  1.00  0.00    -0.371 OA
ENDROOT
BRANCH   3   5
HETATM    5  C6  UNL     1     -29.268 -33.268   7.897  1.00  0.00     0.111 C 
HETATM    6  N1  UNL     1     -30.272 -34.077   7.884  1.00  0.00    -0.320 N 
ATOM      7  H1  UNL     1     -30.813 -34.219   8.738  1.00  0.00     0.185 HD
BRANCH   6   8
HETATM    8  N2  UNL     1     -30.629 -34.756   6.728  1.00  0.00    -0.346 N 
ATOM      9  H22 UNL     1     -30.168 -34.504   5.854  1.00  0.00     0.176 HD
ATOM     10  H21 UNL     1     -31.335 -35.492   6.746  1.00  0.00     0.176 HD
ENDBRANCH   6   8
ENDBRANCH   3   5
BRANCH   1  11
HETATM   11  C2  UNL     1     -29.890 -29.648  10.074  1.00  0.00    -0.005 C 
HETATM   12  C1  UNL     1     -30.957 -28.895  10.073  1.00  0.00     0.009 C 
ENDBRANCH   1  11
TORSDOF 3
ENDMDL
