MODEL 1
REMARK VINA RESULT: -4.859851953      0.000      0.000
REMARK  1 active torsions:
REMARK  status: ('A' for Active; 'I' for Inactive)
REMARK    1  A    between atoms: C1_2  and  C2_3 
ROOT
HETATM    1  C2  UNL     1      29.903  29.159   8.327  1.00  0.00     0.157 C 
HETATM    2  C3  UNL     1      29.023  29.769   9.428  1.00  0.00     0.143 C 
HETATM    3  N1  UNL     1      30.240  29.812  10.188  1.00  0.00    -0.359 N 
ATOM      4  H1  UNL     1      30.630  30.418  10.909  1.00  0.00     0.162 HD
HETATM    5  C4  UNL     1      30.661  28.657   9.506  1.00  0.00     0.230 C 
HETATM    6  O2  UNL     1      31.371  27.706   9.874  1.00  0.00    -0.273 OA
ENDROOT
BRANCH   1   7
HETATM    7  C1  UNL     1      29.174  28.158   7.552  1.00  0.00     0.246 C 
HETATM    8  O1  UNL     1      28.059  27.821   7.887  1.00  0.00    -0.306 OA
ENDBRANCH   1   7
TORSDOF 1
ENDMDL
MODEL 2
REMARK VINA RESULT: -4.833735308      1.753      3.013
REMARK  1 active torsions:
REMARK  status: ('A' for Active; 'I' for Inactive)
REMARK    1  A    between atoms: C1_2  and  C2_3 
ROOT
HETATM    1  C2  UNL     1      30.188  29.326   8.224  1.00  0.00     0.157 C 
HETATM    2  C3  UNL     1      30.997  28.172   8.835  1.00  0.00     0.143 C 
HETATM    3  N1  UNL     1      30.384  27.379   7.807  1.00  0.00    -0.359 N 
ATOM      4  H1  UNL     1      30.652  26.564   7.257  1.00  0.00     0.162 HD
HETATM    5  C4  UNL     1      29.257  28.214   7.889  1.00  0.00     0.230 C 
HETATM    6  O2  UNL     1      28.050  27.972   7.722  1.00  0.00    -0.273 OA
ENDROOT
BRANCH   1   7
HETATM    7  C1  UNL     1      29.736  30.263   9.249  1.00  0.00     0.246 C 
HETATM    8  O1  UNL     1      30.259  30.272  10.342  1.00  0.00    -0.306 OA
ENDBRANCH   1   7
TORSDOF 1
ENDMDL
MODEL 3
REMARK VINA RESULT: -4.637844544      1.756      1.938
REMARK  1 active torsions:
REMARK  status: ('A' for Active; 'I' for Inactive)
REMARK    1  A    between atoms: C1_2  and  C2_3 
ROOT
HETATM    1  C2  UNL     1      28.629  29.455   8.937  1.00  0.00     0.157 C 
HETATM    2  C3  UNL     1      29.577  28.733   9.906  1.00  0.00     0.143 C 
HETATM    3  N1  UNL     1      30.143  30.037  10.107  1.00  0.00    -0.359 N 
ATOM      4  H1  UNL     1      30.592  30.527  10.880  1.00  0.00     0.162 HD
HETATM    5  C4  UNL     1      29.812  30.344   8.776  1.00  0.00     0.230 C 
HETATM    6  O2  UNL     1      30.375  31.073   7.943  1.00  0.00    -0.273 OA
ENDROOT
BRANCH   1   7
HETATM    7  C1  UNL     1      28.291  28.612   7.792  1.00  0.00     0.246 C 
HETATM    8  O1  UNL     1      29.089  27.800   7.376  1.00  0.00    -0.306 OA
ENDBRANCH   1   7
TORSDOF 1
ENDMDL
MODEL 4
REMARK VINA RESULT: -4.589145970      1.782      2.363
REMARK  1 active torsions:
REMARK  status: ('A' for Active; 'I' for Inactive)
REMARK    1  A    between atoms: C1_2  and  C2_3 
ROOT
HETATM    1  C2  UNL     1      30.029  29.137   8.230  1.00  0.00     0.157 C 
HETATM    2  C3  UNL     1      28.640  28.558   8.542  1.00  0.00     0.143 C 
HETATM    3  N1  UNL     1      28.330  29.893   8.968  1.00  0.00    -0.359 N 
ATOM      4  H1  UNL     1      27.497  30.481   8.981  1.00  0.00     0.162 HD
HETATM    5  C4  UNL     1      29.672  30.039   9.360  1.00  0.00     0.230 C 
HETATM    6  O2  UNL     1      30.185  30.688  10.286  1.00  0.00    -0.273 OA
ENDROOT
BRANCH   1   7
HETATM    7  C1  UNL     1      31.085  28.161   8.489  1.00  0.00     0.246 C 
HETATM    8  O1  UNL     1      31.314  27.797   9.622  1.00  0.00    -0.306 OA
ENDBRANCH   1   7
TORSDOF 1
ENDMDL
MODEL 5
REMARK VINA RESULT: -4.551030335      1.894      2.555
REMARK  1 active torsions:
REMARK  status: ('A' for Active; 'I' for Inactive)
REMARK    1  A    between atoms: C1_2  and  C2_3 
ROOT
HETATM    1  C2  UNL     1      29.768  28.779   8.302  1.00  0.00     0.157 C 
HETATM    2  C3  UNL     1      29.032  28.967   9.637  1.00  0.00     0.143 C 
HETATM    3  N1  UNL     1      28.550  30.182   9.044  1.00  0.00    -0.359 N 
ATOM      4  H1  UNL     1      27.699  30.741   9.112  1.00  0.00     0.162 HD
HETATM    5  C4  UNL     1      29.758  30.268   8.330  1.00  0.00     0.230 C 
HETATM    6  O2  UNL     1      30.415  31.253   7.955  1.00  0.00    -0.273 OA
ENDROOT
BRANCH   1   7
HETATM    7  C1  UNL     1      31.066  28.137   8.493  1.00  0.00     0.246 C 
HETATM    8  O1  UNL     1      31.407  27.766   9.595  1.00  0.00    -0.306 OA
ENDBRANCH   1   7
TORSDOF 1
ENDMDL
