MODEL 1
REMARK VINA RESULT: -5.242275740      0.000      0.000
REMARK  2 active torsions:
REMARK  status: ('A' for Active; 'I' for Inactive)
REMARK    1  A    between atoms: C1_2  and  C2_4 
REMARK    2  A    between atoms: C4_6  and  C5_7 
ROOT
HETATM    1  C2  UNL     1      29.139  30.184   7.896  1.00  0.00     0.086 A 
HETATM    2  C3  UNL     1      28.438  29.197   8.742  1.00  0.00     0.026 A 
HETATM    3  C4  UNL     1      29.671  28.817   7.888  1.00  0.00     0.060 A 
ENDROOT
BRANCH   1   4
HETATM    4  C1  UNL     1      29.809  31.340   8.505  1.00  0.00     0.236 C 
HETATM    5  N1  UNL     1      29.752  31.682   9.889  1.00  0.00    -0.062 NA
HETATM    6  O1  UNL     1      30.521  32.158   7.821  1.00  0.00    -0.276 OA
ENDBRANCH   1   4
BRANCH   3   7
HETATM    7  C5  UNL     1      30.784  28.335   8.699  1.00  0.00     0.236 C 
HETATM    8  O2  UNL     1      31.601  27.577   8.202  1.00  0.00    -0.306 OA
ENDBRANCH   3   7
TORSDOF 2
ENDMDL
MODEL 2
REMARK VINA RESULT: -5.208905399      1.530      1.548
REMARK  2 active torsions:
REMARK  status: ('A' for Active; 'I' for Inactive)
REMARK    1  A    between atoms: C1_2  and  C2_4 
REMARK    2  A    between atoms: C4_6  and  C5_7 
ROOT
HETATM    1  C2  UNL     1      29.705  30.423   8.237  1.00  0.00     0.086 A 
HETATM    2  C3  UNL     1      28.971  29.185   7.906  1.00  0.00     0.026 A 
HETATM    3  C4  UNL     1      30.432  29.162   8.417  1.00  0.00     0.060 A 
ENDROOT
BRANCH   1   4
HETATM    4  C1  UNL     1      29.245  31.288   9.331  1.00  0.00     0.236 C 
HETATM    5  N1  UNL     1      29.914  32.465   9.780  1.00  0.00    -0.062 NA
HETATM    6  O1  UNL     1      28.171  31.046   9.990  1.00  0.00    -0.276 OA
ENDBRANCH   1   4
BRANCH   3   7
HETATM    7  C5  UNL     1      30.571  28.434   9.674  1.00  0.00     0.236 C 
HETATM    8  O2  UNL     1      31.496  27.650   9.811  1.00  0.00    -0.306 OA
ENDBRANCH   3   7
TORSDOF 2
ENDMDL
MODEL 3
REMARK VINA RESULT: -5.200518473      1.895      2.134
REMARK  2 active torsions:
REMARK  status: ('A' for Active; 'I' for Inactive)
REMARK    1  A    between atoms: C1_2  and  C2_4 
REMARK    2  A    between atoms: C4_6  and  C5_7 
ROOT
HETATM    1  C2  UNL     1      29.197  30.188   9.391  1.00  0.00     0.086 A 
HETATM    2  C3  UNL     1      30.246  29.173   9.618  1.00  0.00     0.026 A 
HETATM    3  C4  UNL     1      28.824  28.791   9.143  1.00  0.00     0.060 A 
ENDROOT
BRANCH   1   4
HETATM    4  C1  UNL     1      29.366  31.208   8.348  1.00  0.00     0.236 C 
HETATM    5  N1  UNL     1      28.299  31.901   7.702  1.00  0.00    -0.062 NA
HETATM    6  O1  UNL     1      30.520  31.568   7.922  1.00  0.00    -0.276 OA
ENDBRANCH   1   4
BRANCH   3   7
HETATM    7  C5  UNL     1      28.830  28.129   7.843  1.00  0.00     0.236 C 
HETATM    8  O2  UNL     1      27.788  28.040   7.214  1.00  0.00    -0.306 OA
ENDBRANCH   3   7
TORSDOF 2
ENDMDL
MODEL 4
REMARK VINA RESULT: -5.176636415      1.436      1.457
REMARK  2 active torsions:
REMARK  status: ('A' for Active; 'I' for Inactive)
REMARK    1  A    between atoms: C1_2  and  C2_4 
REMARK    2  A    between atoms: C4_6  and  C5_7 
ROOT
HETATM    1  C2  UNL     1      29.701  30.451   8.256  1.00  0.00     0.086 A 
HETATM    2  C3  UNL     1      28.982  29.217   7.879  1.00  0.00     0.026 A 
HETATM    3  C4  UNL     1      30.432  29.190   8.419  1.00  0.00     0.060 A 
ENDROOT
BRANCH   1   4
HETATM    4  C1  UNL     1      29.212  31.284   9.363  1.00  0.00     0.236 C 
HETATM    5  N1  UNL     1      27.839  31.562   9.632  1.00  0.00    -0.062 NA
HETATM    6  O1  UNL     1      30.005  31.845  10.200  1.00  0.00    -0.276 OA
ENDBRANCH   1   4
BRANCH   3   7
HETATM    7  C5  UNL     1      30.552  28.432   9.660  1.00  0.00     0.236 C 
HETATM    8  O2  UNL     1      31.485  27.658   9.800  1.00  0.00    -0.306 OA
ENDBRANCH   3   7
TORSDOF 2
ENDMDL
MODEL 5
REMARK VINA RESULT: -5.174118173      2.230      3.322
REMARK  2 active torsions:
REMARK  status: ('A' for Active; 'I' for Inactive)
REMARK    1  A    between atoms: C1_2  and  C2_4 
REMARK    2  A    between atoms: C4_6  and  C5_7 
ROOT
HETATM    1  C2  UNL     1      28.802  28.621   9.077  1.00  0.00     0.086 A 
HETATM    2  C3  UNL     1      28.744  28.329   7.630  1.00  0.00     0.026 A 
HETATM    3  C4  UNL     1      28.160  29.631   8.228  1.00  0.00     0.060 A 
ENDROOT
BRANCH   1   4
HETATM    4  C1  UNL     1      30.098  28.791   9.748  1.00  0.00     0.236 C 
HETATM    5  N1  UNL     1      31.214  27.915   9.603  1.00  0.00    -0.062 NA
HETATM    6  O1  UNL     1      30.335  29.771  10.540  1.00  0.00    -0.276 OA
ENDBRANCH   1   4
BRANCH   3   7
HETATM    7  C5  UNL     1      28.805  30.827   7.696  1.00  0.00     0.236 C 
HETATM    8  O2  UNL     1      28.190  31.880   7.679  1.00  0.00    -0.306 OA
ENDBRANCH   3   7
TORSDOF 2
ENDMDL
