MODEL 1
REMARK VINA RESULT: -5.151997297      0.000      0.000
REMARK  1 active torsions:
REMARK  status: ('A' for Active; 'I' for Inactive)
REMARK    1  A    between atoms: C1_2  and  C2_3 
ROOT
HETATM    1  C2  UNL     1      30.334  29.328   8.249  1.00  0.00     0.074 C 
HETATM    2  C3  UNL     1      30.457  28.760   9.644  1.00  0.00     0.041 C 
HETATM    3  C4  UNL     1      28.983  28.525   9.973  1.00  0.00     0.233 C 
HETATM    4  N1  UNL     1      28.531  27.864   8.763  1.00  0.00    -0.074 N 
ATOM      5  H11 UNL     1      27.520  27.912   8.641  1.00  0.00     0.277 HD
ATOM      6  H12 UNL     1      28.615  26.849   8.814  1.00  0.00     0.277 HD
HETATM    7  C5  UNL     1      29.247  28.423   7.663  1.00  0.00     0.243 C 
ENDROOT
BRANCH   1   8
HETATM    8  C1  UNL     1      29.818  30.720   8.265  1.00  0.00     0.237 C 
HETATM    9  O1  UNL     1      30.548  31.597   7.853  1.00  0.00    -0.306 OA
ENDBRANCH   1   8
TORSDOF 1
ENDMDL
MODEL 2
REMARK VINA RESULT: -5.002771911      1.280      1.648
REMARK  1 active torsions:
REMARK  status: ('A' for Active; 'I' for Inactive)
REMARK    1  A    between atoms: C1_2  and  C2_3 
ROOT
HETATM    1  C2  UNL     1      30.172  29.165   9.619  1.00  0.00     0.074 C 
HETATM    2  C3  UNL     1      28.914  28.362   9.856  1.00  0.00     0.041 C 
HETATM    3  C4  UNL     1      28.411  28.214   8.420  1.00  0.00     0.233 C 
HETATM    4  N1  UNL     1      29.628  27.810   7.742  1.00  0.00    -0.074 N 
ATOM      5  H11 UNL     1      29.591  27.971   6.735  1.00  0.00     0.277 HD
ATOM      6  H12 UNL     1      29.746  26.798   7.714  1.00  0.00     0.277 HD
HETATM    7  C5  UNL     1      30.723  28.477   8.368  1.00  0.00     0.243 C 
ENDROOT
BRANCH   1   8
HETATM    8  C1  UNL     1      29.867  30.577   9.274  1.00  0.00     0.237 C 
HETATM    9  O1  UNL     1      29.961  31.406  10.155  1.00  0.00    -0.306 OA
ENDBRANCH   1   8
TORSDOF 1
ENDMDL
MODEL 3
REMARK VINA RESULT: -4.945706693      1.493      2.163
REMARK  1 active torsions:
REMARK  status: ('A' for Active; 'I' for Inactive)
REMARK    1  A    between atoms: C1_2  and  C2_3 
ROOT
HETATM    1  C2  UNL     1      29.356  29.091   9.802  1.00  0.00     0.074 C 
HETATM    2  C3  UNL     1      28.563  28.331   8.764  1.00  0.00     0.041 C 
HETATM    3  C4  UNL     1      29.605  28.224   7.650  1.00  0.00     0.233 C 
HETATM    4  N1  UNL     1      30.767  27.787   8.400  1.00  0.00    -0.074 N 
ATOM      5  H11 UNL     1      31.644  27.965   7.910  1.00  0.00     0.277 HD
ATOM      6  H12 UNL     1      30.844  26.771   8.451  1.00  0.00     0.277 HD
HETATM    7  C5  UNL     1      30.719  28.403   9.686  1.00  0.00     0.243 C 
ENDROOT
BRANCH   1   8
HETATM    8  C1  UNL     1      29.526  30.518   9.429  1.00  0.00     0.237 C 
HETATM    9  O1  UNL     1      30.060  31.252  10.234  1.00  0.00    -0.306 OA
ENDBRANCH   1   8
TORSDOF 1
ENDMDL
MODEL 4
REMARK VINA RESULT: -4.939445083      0.871      1.107
REMARK  1 active torsions:
REMARK  status: ('A' for Active; 'I' for Inactive)
REMARK    1  A    between atoms: C1_2  and  C2_3 
ROOT
HETATM    1  C2  UNL     1      29.559  29.360   7.935  1.00  0.00     0.074 C 
HETATM    2  C3  UNL     1      30.786  28.592   8.369  1.00  0.00     0.041 C 
HETATM    3  C4  UNL     1      30.533  28.502   9.874  1.00  0.00     0.233 C 
HETATM    4  N1  UNL     1      29.146  28.078   9.896  1.00  0.00    -0.074 N 
ATOM      5  H11 UNL     1      28.688  28.270  10.787  1.00  0.00     0.277 HD
ATOM      6  H12 UNL     1      29.043  27.064   9.905  1.00  0.00     0.277 HD
HETATM    7  C5  UNL     1      28.481  28.690   8.791  1.00  0.00     0.243 C 
ENDROOT
BRANCH   1   8
HETATM    8  C1  UNL     1      29.638  30.790   8.326  1.00  0.00     0.237 C 
HETATM    9  O1  UNL     1      30.521  31.461   7.834  1.00  0.00    -0.306 OA
ENDBRANCH   1   8
TORSDOF 1
ENDMDL
MODEL 5
REMARK VINA RESULT: -4.768950485      1.452      2.078
REMARK  1 active torsions:
REMARK  status: ('A' for Active; 'I' for Inactive)
REMARK    1  A    between atoms: C1_2  and  C2_3 
ROOT
HETATM    1  C2  UNL     1      28.955  29.355   8.897  1.00  0.00     0.074 C 
HETATM    2  C3  UNL     1      29.582  28.545   7.785  1.00  0.00     0.041 C 
HETATM    3  C4  UNL     1      30.961  28.277   8.388  1.00  0.00     0.233 C 
HETATM    4  N1  UNL     1      30.599  27.849   9.726  1.00  0.00    -0.074 N 
ATOM      5  H11 UNL     1      31.370  27.932  10.389  1.00  0.00     0.277 HD
ATOM      6  H12 UNL     1      30.468  26.841   9.795  1.00  0.00     0.277 HD
HETATM    7  C5  UNL     1      29.444  28.585  10.127  1.00  0.00     0.243 C 
ENDROOT
BRANCH   1   8
HETATM    8  C1  UNL     1      29.514  30.729   8.959  1.00  0.00     0.237 C 
HETATM    9  O1  UNL     1      29.984  31.099  10.014  1.00  0.00    -0.306 OA
ENDBRANCH   1   8
TORSDOF 1
ENDMDL
