MODEL 1
REMARK VINA RESULT: -5.007300528      0.000      0.000
REMARK  2 active torsions:
REMARK  status: ('A' for Active; 'I' for Inactive)
REMARK    1  A    between atoms: C1_2  and  C2_3 
REMARK    2  A    between atoms: C3_4  and  C4_5 
ROOT
HETATM    1  C4  UNL     1      28.881  29.390   9.496  1.00  0.00     0.031 C 
HETATM    2  C5  UNL     1      30.002  28.680   9.334  1.00  0.00     0.047 A 
HETATM    3  C6  UNL     1      31.006  28.104   8.456  1.00  0.00     0.117 A 
HETATM    4  N1  UNL     1      31.117  27.925   9.763  1.00  0.00    -0.363 N 
ATOM      5  H1  UNL     1      31.642  27.523  10.540  1.00  0.00     0.165 HD
ENDROOT
BRANCH   1   6
HETATM    6  C3  UNL     1      28.191  29.930   8.343  1.00  0.00     0.005 C 
HETATM    7  C2  UNL     1      28.524  31.080   7.839  1.00  0.00     0.041 C 
BRANCH   7   8
HETATM    8  C1  UNL     1      29.589  31.866   8.402  1.00  0.00     0.258 C 
HETATM    9  O1  UNL     1      30.690  32.027   7.781  1.00  0.00    -0.302 OA
ENDBRANCH   7   8
ENDBRANCH   1   6
TORSDOF 2
ENDMDL
MODEL 2
REMARK VINA RESULT: -4.964553155      1.797      1.833
REMARK  2 active torsions:
REMARK  status: ('A' for Active; 'I' for Inactive)
REMARK    1  A    between atoms: C1_2  and  C2_3 
REMARK    2  A    between atoms: C3_4  and  C4_5 
ROOT
HETATM    1  C4  UNL     1      28.825  29.377   9.488  1.00  0.00     0.031 C 
HETATM    2  C5  UNL     1      29.963  28.690   9.348  1.00  0.00     0.047 A 
HETATM    3  C6  UNL     1      31.014  28.165   8.494  1.00  0.00     0.117 A 
HETATM    4  N1  UNL     1      31.068  27.932   9.797  1.00  0.00    -0.363 N 
ATOM      5  H1  UNL     1      31.563  27.504  10.579  1.00  0.00     0.165 HD
ENDROOT
BRANCH   1   6
HETATM    6  C3  UNL     1      28.181  29.958   8.328  1.00  0.00     0.005 C 
HETATM    7  C2  UNL     1      27.567  31.100   8.402  1.00  0.00     0.041 C 
BRANCH   7   8
HETATM    8  C1  UNL     1      27.498  31.837   9.636  1.00  0.00     0.258 C 
HETATM    9  O1  UNL     1      26.796  32.895   9.734  1.00  0.00    -0.302 OA
ENDBRANCH   7   8
ENDBRANCH   1   6
TORSDOF 2
ENDMDL
MODEL 3
REMARK VINA RESULT: -4.889953683      2.562      3.524
REMARK  2 active torsions:
REMARK  status: ('A' for Active; 'I' for Inactive)
REMARK    1  A    between atoms: C1_2  and  C2_3 
REMARK    2  A    between atoms: C3_4  and  C4_5 
ROOT
HETATM    1  C4  UNL     1      30.300  29.202   9.665  1.00  0.00     0.031 C 
HETATM    2  C5  UNL     1      29.940  30.481   9.514  1.00  0.00     0.047 A 
HETATM    3  C6  UNL     1      29.710  31.625   8.650  1.00  0.00     0.117 A 
HETATM    4  N1  UNL     1      29.507  31.753   9.952  1.00  0.00    -0.363 N 
ATOM      5  H1  UNL     1      29.231  32.352  10.730  1.00  0.00     0.165 HD
ENDROOT
BRANCH   1   6
HETATM    6  C3  UNL     1      30.679  28.414   8.510  1.00  0.00     0.005 C 
HETATM    7  C2  UNL     1      29.782  27.898   7.725  1.00  0.00     0.041 C 
BRANCH   7   8
HETATM    8  C1  UNL     1      28.375  28.085   7.968  1.00  0.00     0.258 C 
HETATM    9  O1  UNL     1      27.532  28.048   7.014  1.00  0.00    -0.302 OA
ENDBRANCH   7   8
ENDBRANCH   1   6
TORSDOF 2
ENDMDL
MODEL 4
REMARK VINA RESULT: -4.882744528      2.667      3.717
REMARK  2 active torsions:
REMARK  status: ('A' for Active; 'I' for Inactive)
REMARK    1  A    between atoms: C1_2  and  C2_3 
REMARK    2  A    between atoms: C3_4  and  C4_5 
ROOT
HETATM    1  C4  UNL     1      29.007  29.609   7.759  1.00  0.00     0.031 C 
HETATM    2  C5  UNL     1      29.001  30.946   7.778  1.00  0.00     0.047 A 
HETATM    3  C6  UNL     1      28.650  32.189   8.442  1.00  0.00     0.117 A 
HETATM    4  N1  UNL     1      29.273  32.238   7.275  1.00  0.00    -0.363 N 
ATOM      5  H1  UNL     1      29.672  32.811   6.531  1.00  0.00     0.165 HD
ENDROOT
BRANCH   1   6
HETATM    6  C3  UNL     1      28.421  28.865   8.854  1.00  0.00     0.005 C 
HETATM    7  C2  UNL     1      29.149  28.435   9.839  1.00  0.00     0.041 C 
BRANCH   7   8
HETATM    8  C1  UNL     1      30.567  28.677   9.886  1.00  0.00     0.258 C 
HETATM    9  O1  UNL     1      31.403  27.748   9.639  1.00  0.00    -0.302 OA
ENDBRANCH   7   8
ENDBRANCH   1   6
TORSDOF 2
ENDMDL
MODEL 5
REMARK VINA RESULT: -4.778125467      2.752      3.830
REMARK  2 active torsions:
REMARK  status: ('A' for Active; 'I' for Inactive)
REMARK    1  A    between atoms: C1_2  and  C2_3 
REMARK    2  A    between atoms: C3_4  and  C4_5 
ROOT
HETATM    1  C4  UNL     1      29.623  30.557   8.157  1.00  0.00     0.031 C 
HETATM    2  C5  UNL     1      28.886  31.460   8.811  1.00  0.00     0.047 A 
HETATM    3  C6  UNL     1      27.623  31.849   9.415  1.00  0.00     0.117 A 
HETATM    4  N1  UNL     1      28.638  32.698   9.445  1.00  0.00    -0.363 N 
ATOM      5  H1  UNL     1      28.994  33.611   9.729  1.00  0.00     0.165 HD
ENDROOT
BRANCH   1   6
HETATM    6  C3  UNL     1      29.047  29.280   7.788  1.00  0.00     0.005 C 
HETATM    7  C2  UNL     1      29.721  28.178   7.914  1.00  0.00     0.041 C 
BRANCH   7   8
HETATM    8  C1  UNL     1      31.067  28.175   8.425  1.00  0.00     0.258 C 
HETATM    9  O1  UNL     1      31.323  27.771   9.605  1.00  0.00    -0.302 OA
ENDBRANCH   7   8
ENDBRANCH   1   6
TORSDOF 2
ENDMDL
