MODEL 1
REMARK VINA RESULT: -5.883104229      0.000      0.000
REMARK  2 active torsions:
REMARK  status: ('A' for Active; 'I' for Inactive)
REMARK    1  A    between atoms: C3_4  and  N2_5 
REMARK    2  A    between atoms: C4_14  and  N6_15 
ROOT
HETATM    1  C1  UNL     1      30.250  17.137  10.031  1.00  0.00     0.125 C 
HETATM    2  C2  UNL     1      31.165  16.346   9.847  1.00  0.00    -0.032 C 
HETATM    3  N1  UNL     1      32.199  15.434   9.636  1.00  0.00     0.060 N 
HETATM    4  C3  UNL     1      32.230  14.148  10.013  1.00  0.00     0.739 A 
HETATM    5  N4  UNL     1      33.404  13.652   9.610  1.00  0.00    -0.115 N 
ATOM      6  H4  UNL     1      33.705  12.689   9.763  1.00  0.00     0.206 HD
HETATM    7  N5  UNL     1      34.117  14.552   8.998  1.00  0.00    -0.116 N 
ATOM      8  H5  UNL     1      35.046  14.434   8.594  1.00  0.00     0.206 HD
HETATM    9  C4  UNL     1      33.359  15.688   9.010  1.00  0.00     0.719 A 
ENDROOT
BRANCH   4  10
HETATM   10  N2  UNL     1      31.173  13.486  10.715  1.00  0.00    -0.136 N 
HETATM   11  N3  UNL     1      31.094  12.217  10.619  1.00  0.00    -0.331 N 
ATOM     12  H32 UNL     1      31.773  11.705  10.055  1.00  0.00     0.177 HD
ATOM     13  H31 UNL     1      30.340  11.746  11.119  1.00  0.00     0.177 HD
ATOM     14  H2  UNL     1      30.503  14.013  11.275  1.00  0.00     0.205 HD
ENDBRANCH   4  10
BRANCH   9  15
HETATM   15  N6  UNL     1      33.714  16.824   8.496  1.00  0.00    -0.232 N 
ATOM     16  H62 UNL     1      33.264  17.719   8.689  1.00  0.00     0.174 HD
ATOM     17  H61 UNL     1      34.480  16.970   7.838  1.00  0.00     0.174 HD
ENDBRANCH   9  15
TORSDOF 2
ENDMDL
MODEL 2
REMARK VINA RESULT: -5.833546271      1.778      2.413
REMARK  2 active torsions:
REMARK  status: ('A' for Active; 'I' for Inactive)
REMARK    1  A    between atoms: C3_4  and  N2_5 
REMARK    2  A    between atoms: C4_14  and  N6_15 
ROOT
HETATM    1  C1  UNL     1      30.817  16.050   9.339  1.00  0.00     0.125 C 
HETATM    2  C2  UNL     1      31.314  14.934   9.411  1.00  0.00    -0.032 C 
HETATM    3  N1  UNL     1      31.873  13.658   9.482  1.00  0.00     0.060 N 
HETATM    4  C3  UNL     1      31.309  12.506   9.090  1.00  0.00     0.739 A 
HETATM    5  N4  UNL     1      32.193  11.535   9.340  1.00  0.00    -0.115 N 
ATOM      6  H4  UNL     1      32.032  10.547   9.142  1.00  0.00     0.206 HD
HETATM    7  N5  UNL     1      33.284  12.008   9.867  1.00  0.00    -0.116 N 
ATOM      8  H5  UNL     1      34.111  11.481  10.150  1.00  0.00     0.206 HD
HETATM    9  C4  UNL     1      33.090  13.356   9.961  1.00  0.00     0.719 A 
ENDROOT
BRANCH   4  10
HETATM   10  N2  UNL     1      30.001  12.401   8.518  1.00  0.00    -0.136 N 
HETATM   11  N3  UNL     1      29.410  11.274   8.583  1.00  0.00    -0.331 N 
ATOM     12  H32 UNL     1      29.868  10.482   9.032  1.00  0.00     0.177 HD
ATOM     13  H31 UNL     1      28.477  11.200   8.175  1.00  0.00     0.177 HD
ATOM     14  H2  UNL     1      29.557  13.204   8.071  1.00  0.00     0.205 HD
ENDBRANCH   4  10
BRANCH   9  15
HETATM   15  N6  UNL     1      33.950  14.199  10.440  1.00  0.00    -0.232 N 
ATOM     16  H62 UNL     1      34.111  14.371  11.433  1.00  0.00     0.174 HD
ATOM     17  H61 UNL     1      34.572  14.795   9.894  1.00  0.00     0.174 HD
ENDBRANCH   9  15
TORSDOF 2
ENDMDL
MODEL 3
REMARK VINA RESULT: -5.794170503      1.428      3.247
REMARK  2 active torsions:
REMARK  status: ('A' for Active; 'I' for Inactive)
REMARK    1  A    between atoms: C3_4  and  N2_5 
REMARK    2  A    between atoms: C4_14  and  N6_15 
ROOT
HETATM    1  C1  UNL     1      33.770  16.981   8.100  1.00  0.00     0.125 C 
HETATM    2  C2  UNL     1      33.093  16.249   8.807  1.00  0.00    -0.032 C 
HETATM    3  N1  UNL     1      32.308  15.422   9.611  1.00  0.00     0.060 N 
HETATM    4  C3  UNL     1      31.236  15.778  10.334  1.00  0.00     0.739 A 
HETATM    5  N4  UNL     1      30.796  14.676  10.947  1.00  0.00    -0.115 N 
ATOM      6  H4  UNL     1      29.987  14.648  11.569  1.00  0.00     0.206 HD
HETATM    7  N5  UNL     1      31.528  13.642  10.653  1.00  0.00    -0.116 N 
ATOM      8  H5  UNL     1      31.407  12.685  10.987  1.00  0.00     0.206 HD
HETATM    9  C4  UNL     1      32.491  14.106   9.805  1.00  0.00     0.719 A 
ENDROOT
BRANCH   4  10
HETATM   10  N2  UNL     1      30.710  17.109  10.396  1.00  0.00    -0.136 N 
HETATM   11  N3  UNL     1      30.071  17.546   9.384  1.00  0.00    -0.331 N 
ATOM     12  H32 UNL     1      29.947  16.954   8.563  1.00  0.00     0.177 HD
ATOM     13  H31 UNL     1      29.697  18.494   9.429  1.00  0.00     0.177 HD
ATOM     14  H2  UNL     1      30.844  17.688  11.225  1.00  0.00     0.205 HD
ENDBRANCH   4  10
BRANCH   9  15
HETATM   15  N6  UNL     1      33.429  13.383   9.278  1.00  0.00    -0.232 N 
ATOM     16  H62 UNL     1      33.772  12.501   9.660  1.00  0.00     0.174 HD
ATOM     17  H61 UNL     1      33.942  13.597   8.422  1.00  0.00     0.174 HD
ENDBRANCH   9  15
TORSDOF 2
ENDMDL
MODEL 4
REMARK VINA RESULT: -5.639158892      1.232      2.875
REMARK  2 active torsions:
REMARK  status: ('A' for Active; 'I' for Inactive)
REMARK    1  A    between atoms: C3_4  and  N2_5 
REMARK    2  A    between atoms: C4_14  and  N6_15 
ROOT
HETATM    1  C1  UNL     1      33.704  17.134   8.048  1.00  0.00     0.125 C 
HETATM    2  C2  UNL     1      33.007  16.447   8.781  1.00  0.00    -0.032 C 
HETATM    3  N1  UNL     1      32.224  15.655   9.622  1.00  0.00     0.060 N 
HETATM    4  C3  UNL     1      32.421  14.365   9.931  1.00  0.00     0.739 A 
HETATM    5  N4  UNL     1      31.437  14.009  10.762  1.00  0.00    -0.115 N 
ATOM      6  H4  UNL     1      31.332  13.077  11.162  1.00  0.00     0.206 HD
HETATM    7  N5  UNL     1      30.630  15.001  10.998  1.00  0.00    -0.116 N 
ATOM      8  H5  UNL     1      29.803  14.995  11.595  1.00  0.00     0.206 HD
HETATM    9  C4  UNL     1      31.122  16.051  10.277  1.00  0.00     0.719 A 
ENDROOT
BRANCH   4  10
HETATM   10  N2  UNL     1      33.502  13.571   9.430  1.00  0.00    -0.136 N 
HETATM   11  N3  UNL     1      34.547  13.462  10.151  1.00  0.00    -0.331 N 
ATOM     12  H32 UNL     1      34.596  13.933  11.055  1.00  0.00     0.177 HD
ATOM     13  H31 UNL     1      35.317  12.896   9.794  1.00  0.00     0.177 HD
ATOM     14  H2  UNL     1      33.437  13.106   8.524  1.00  0.00     0.205 HD
ENDBRANCH   4  10
BRANCH   9  15
HETATM   15  N6  UNL     1      30.599  17.236  10.239  1.00  0.00    -0.232 N 
ATOM     16  H62 UNL     1      30.534  17.821   9.405  1.00  0.00     0.174 HD
ATOM     17  H61 UNL     1      30.188  17.736  11.028  1.00  0.00     0.174 HD
ENDBRANCH   9  15
TORSDOF 2
ENDMDL
MODEL 5
REMARK VINA RESULT: -5.575680113      2.200      2.988
REMARK  2 active torsions:
REMARK  status: ('A' for Active; 'I' for Inactive)
REMARK    1  A    between atoms: C3_4  and  N2_5 
REMARK    2  A    between atoms: C4_14  and  N6_15 
ROOT
HETATM    1  C1  UNL     1      33.451  15.945   9.266  1.00  0.00     0.125 C 
HETATM    2  C2  UNL     1      33.349  14.747   9.491  1.00  0.00    -0.032 C 
HETATM    3  N1  UNL     1      33.224  13.379   9.736  1.00  0.00     0.060 N 
HETATM    4  C3  UNL     1      32.155  12.609   9.488  1.00  0.00     0.739 A 
HETATM    5  N4  UNL     1      32.470  11.370   9.877  1.00  0.00    -0.115 N 
ATOM      6  H4  UNL     1      31.841  10.569   9.807  1.00  0.00     0.206 HD
HETATM    7  N5  UNL     1      33.677  11.312  10.355  1.00  0.00    -0.116 N 
ATOM      8  H5  UNL     1      34.159  10.489  10.718  1.00  0.00     0.206 HD
HETATM    9  C4  UNL     1      34.165  12.585  10.270  1.00  0.00     0.719 A 
ENDROOT
BRANCH   4  10
HETATM   10  N2  UNL     1      30.932  13.084   8.914  1.00  0.00    -0.136 N 
HETATM   11  N3  UNL     1      30.074  12.221   8.538  1.00  0.00    -0.331 N 
ATOM     12  H32 UNL     1      30.267  11.226   8.650  1.00  0.00     0.177 HD
ATOM     13  H31 UNL     1      29.203  12.560   8.129  1.00  0.00     0.177 HD
ATOM     14  H2  UNL     1      30.755  14.083   8.809  1.00  0.00     0.205 HD
ENDBRANCH   4  10
BRANCH   9  15
HETATM   15  N6  UNL     1      35.348  12.954  10.648  1.00  0.00    -0.232 N 
ATOM     16  H62 UNL     1      36.045  13.391  10.045  1.00  0.00     0.174 HD
ATOM     17  H61 UNL     1      35.734  12.858  11.588  1.00  0.00     0.174 HD
ENDBRANCH   9  15
TORSDOF 2
ENDMDL
