MODEL 1
REMARK VINA RESULT: -7.931837148      0.000      0.000
REMARK  6 active torsions:
REMARK  status: ('A' for Active; 'I' for Inactive)
REMARK    1  A    between atoms: C5_5  and  N1_6 
REMARK    2  A    between atoms: N1_6  and  C6_8 
REMARK    3  A    between atoms: C7_11  and  N3_12 
REMARK    4  A    between atoms: C12_19  and  N5_20 
REMARK    5  A    between atoms: N5_20  and  C13_22 
REMARK    6  A    between atoms: C13_22  and  C14_23 
ROOT
HETATM    1  C6  UNL     1      28.687  -4.850  -6.108  1.00  0.00     0.711 A 
HETATM    2  N2  UNL     1      28.335  -5.278  -4.908  1.00  0.00    -0.021 N 
ATOM      3  H2  UNL     1      27.620  -4.774  -4.384  1.00  0.00     0.203 HD
HETATM    4  C7  UNL     1      28.914  -6.385  -4.359  1.00  0.00     0.709 A 
HETATM    5  N4  UNL     1      29.844  -7.044  -5.037  1.00  0.00    -0.021 N 
ATOM      6  H4  UNL     1      30.270  -7.871  -4.619  1.00  0.00     0.203 HD
HETATM    7  C12 UNL     1      30.249  -6.641  -6.293  1.00  0.00     0.707 A 
HETATM    8  N7  UNL     1      29.654  -5.569  -6.766  1.00  0.00    -0.021 N 
ATOM      9  H7  UNL     1      29.932  -5.246  -7.693  1.00  0.00     0.203 HD
ENDROOT
BRANCH   1  10
HETATM   10  N1  UNL     1      28.233  -3.857  -6.729  1.00  0.00    -0.190 N 
ATOM     11  H1  UNL     1      28.556  -3.711  -7.685  1.00  0.00     0.184 HD
BRANCH  10  12
HETATM   12  C5  UNL     1      27.317  -2.935  -6.206  1.00  0.00     0.056 A 
HETATM   13  C4  UNL     1      25.959  -3.239  -6.399  1.00  0.00    -0.025 A 
HETATM   14  C3  UNL     1      25.009  -2.390  -5.895  1.00  0.00    -0.050 A 
HETATM   15  C19 UNL     1      25.290  -4.391  -7.098  1.00  0.00     0.042 C 
HETATM   16  C2  UNL     1      25.378  -1.239  -5.201  1.00  0.00     0.008 A 
HETATM   17  C21 UNL     1      23.666  -2.935  -6.234  1.00  0.00     0.039 C 
HETATM   18  C1  UNL     1      26.725  -0.962  -5.024  1.00  0.00     0.003 A 
HETATM   19  C18 UNL     1      27.697  -1.788  -5.514  1.00  0.00     0.030 A 
HETATM   20  C20 UNL     1      23.965  -4.419  -6.360  1.00  0.00     0.009 C 
ENDBRANCH  10  12
ENDBRANCH   1  10
BRANCH   4  21
HETATM   21  N3  UNL     1      28.490  -6.774  -3.057  1.00  0.00    -0.217 N 
HETATM   22  C8  UNL     1      28.028  -5.906  -1.994  1.00  0.00     0.141 C 
HETATM   23  C9  UNL     1      27.650  -6.797  -0.861  1.00  0.00     0.022 C 
HETATM   24  C10 UNL     1      27.397  -8.144  -1.485  1.00  0.00     0.022 C 
HETATM   25  C11 UNL     1      28.442  -8.153  -2.587  1.00  0.00     0.141 C 
ENDBRANCH   4  21
BRANCH   7  26
HETATM   26  N5  UNL     1      31.146  -7.328  -6.878  1.00  0.00    -0.225 N 
ATOM     27  H5  UNL     1      31.539  -6.939  -7.735  1.00  0.00     0.177 HD
BRANCH  26  28
HETATM   28  C13 UNL     1      31.649  -8.580  -6.453  1.00  0.00     0.144 C 
BRANCH  28  29
HETATM   29  C14 UNL     1      31.016  -9.771  -7.164  1.00  0.00     0.031 C 
HETATM   30  C15 UNL     1      32.126 -10.728  -7.564  1.00  0.00     0.035 C 
HETATM   31  C16 UNL     1      31.956 -11.912  -6.680  1.00  0.00     0.232 C 
HETATM   32  N6  UNL     1      31.012 -11.592  -5.656  1.00  0.00    -0.075 N 
HETATM   33  C17 UNL     1      30.176 -10.514  -6.160  1.00  0.00     0.238 C 
ATOM     34  H62 UNL     1      30.475 -12.400  -5.342  1.00  0.00     0.277 HD
ATOM     35  H61 UNL     1      31.453 -11.371  -4.763  1.00  0.00     0.277 HD
ENDBRANCH  28  29
ENDBRANCH  26  28
ENDBRANCH   7  26
TORSDOF 6
ENDMDL
MODEL 2
REMARK VINA RESULT: -7.890223817      2.192      4.529
REMARK  6 active torsions:
REMARK  status: ('A' for Active; 'I' for Inactive)
REMARK    1  A    between atoms: C5_5  and  N1_6 
REMARK    2  A    between atoms: N1_6  and  C6_8 
REMARK    3  A    between atoms: C7_11  and  N3_12 
REMARK    4  A    between atoms: C12_19  and  N5_20 
REMARK    5  A    between atoms: N5_20  and  C13_22 
REMARK    6  A    between atoms: C13_22  and  C14_23 
ROOT
HETATM    1  C6  UNL     1      29.152  -4.190  -6.284  1.00  0.00     0.711 A 
HETATM    2  N2  UNL     1      30.103  -4.080  -7.195  1.00  0.00    -0.021 N 
ATOM      3  H2  UNL     1      30.263  -3.180  -7.649  1.00  0.00     0.203 HD
HETATM    4  C7  UNL     1      30.873  -5.151  -7.539  1.00  0.00     0.709 A 
HETATM    5  N4  UNL     1      30.669  -6.323  -6.952  1.00  0.00    -0.021 N 
ATOM      6  H4  UNL     1      31.250  -7.118  -7.215  1.00  0.00     0.203 HD
HETATM    7  C12 UNL     1      29.691  -6.493  -5.994  1.00  0.00     0.707 A 
HETATM    8  N7  UNL     1      28.983  -5.424  -5.707  1.00  0.00    -0.021 N 
ATOM      9  H7  UNL     1      28.251  -5.518  -5.002  1.00  0.00     0.203 HD
ENDROOT
BRANCH   1  10
HETATM   10  N1  UNL     1      28.380  -3.289  -5.870  1.00  0.00    -0.190 N 
ATOM     11  H1  UNL     1      28.802  -2.463  -5.447  1.00  0.00     0.184 HD
BRANCH  10  12
HETATM   12  C5  UNL     1      26.981  -3.335  -5.948  1.00  0.00     0.056 A 
HETATM   13  C4  UNL     1      26.286  -2.677  -4.919  1.00  0.00    -0.025 A 
HETATM   14  C3  UNL     1      24.916  -2.665  -4.944  1.00  0.00    -0.050 A 
HETATM   15  C19 UNL     1      26.777  -1.928  -3.710  1.00  0.00     0.042 C 
HETATM   16  C2  UNL     1      24.217  -3.297  -5.970  1.00  0.00     0.008 A 
HETATM   17  C21 UNL     1      24.432  -1.911  -3.756  1.00  0.00     0.039 C 
HETATM   18  C1  UNL     1      24.927  -3.940  -6.973  1.00  0.00     0.003 A 
HETATM   19  C18 UNL     1      26.293  -3.969  -6.977  1.00  0.00     0.030 A 
HETATM   20  C20 UNL     1      25.608  -0.989  -3.484  1.00  0.00     0.009 C 
ENDBRANCH  10  12
ENDBRANCH   1  10
BRANCH   4  21
HETATM   21  N3  UNL     1      31.867  -4.955  -8.540  1.00  0.00    -0.217 N 
HETATM   22  C8  UNL     1      32.106  -5.779  -9.706  1.00  0.00     0.141 C 
HETATM   23  C9  UNL     1      33.209  -5.122 -10.463  1.00  0.00     0.022 C 
HETATM   24  C10 UNL     1      33.201  -3.687 -10.008  1.00  0.00     0.022 C 
HETATM   25  C11 UNL     1      32.816  -3.848  -8.548  1.00  0.00     0.141 C 
ENDBRANCH   4  21
BRANCH   7  26
HETATM   26  N5  UNL     1      29.558  -7.649  -5.478  1.00  0.00    -0.225 N 
ATOM     27  H5  UNL     1      28.680  -7.841  -4.996  1.00  0.00     0.177 HD
BRANCH  26  28
HETATM   28  C13 UNL     1      30.514  -8.692  -5.507  1.00  0.00     0.144 C 
BRANCH  28  29
HETATM   29  C14 UNL     1      30.296  -9.694  -6.636  1.00  0.00     0.031 C 
HETATM   30  C15 UNL     1      31.651 -10.041  -7.228  1.00  0.00     0.035 C 
HETATM   31  C16 UNL     1      31.906 -11.448  -6.816  1.00  0.00     0.232 C 
HETATM   32  N6  UNL     1      30.934 -11.826  -5.840  1.00  0.00    -0.075 N 
HETATM   33  C17 UNL     1      29.775 -10.968  -6.027  1.00  0.00     0.238 C 
ATOM     34  H62 UNL     1      30.704 -12.819  -5.870  1.00  0.00     0.277 HD
ATOM     35  H61 UNL     1      31.297 -11.804  -4.887  1.00  0.00     0.277 HD
ENDBRANCH  28  29
ENDBRANCH  26  28
ENDBRANCH   7  26
TORSDOF 6
ENDMDL
MODEL 3
REMARK VINA RESULT: -7.781586124      1.787      2.011
REMARK  6 active torsions:
REMARK  status: ('A' for Active; 'I' for Inactive)
REMARK    1  A    between atoms: C5_5  and  N1_6 
REMARK    2  A    between atoms: N1_6  and  C6_8 
REMARK    3  A    between atoms: C7_11  and  N3_12 
REMARK    4  A    between atoms: C12_19  and  N5_20 
REMARK    5  A    between atoms: N5_20  and  C13_22 
REMARK    6  A    between atoms: C13_22  and  C14_23 
ROOT
HETATM    1  C6  UNL     1      28.731  -4.281  -5.817  1.00  0.00     0.711 A 
HETATM    2  N2  UNL     1      28.634  -5.069  -4.760  1.00  0.00    -0.021 N 
ATOM      3  H2  UNL     1      28.041  -4.791  -3.978  1.00  0.00     0.203 HD
HETATM    4  C7  UNL     1      29.314  -6.249  -4.699  1.00  0.00     0.709 A 
HETATM    5  N4  UNL     1      30.086  -6.616  -5.714  1.00  0.00    -0.021 N 
ATOM      6  H4  UNL     1      30.591  -7.500  -5.660  1.00  0.00     0.203 HD
HETATM    7  C12 UNL     1      30.223  -5.832  -6.841  1.00  0.00     0.707 A 
HETATM    8  N7  UNL     1      29.542  -4.708  -6.838  1.00  0.00    -0.021 N 
ATOM      9  H7  UNL     1      29.623  -4.106  -7.658  1.00  0.00     0.203 HD
ENDROOT
BRANCH   1  10
HETATM   10  N1  UNL     1      28.157  -3.179  -6.005  1.00  0.00    -0.190 N 
ATOM     11  H1  UNL     1      28.575  -2.538  -6.677  1.00  0.00     0.184 HD
BRANCH  10  12
HETATM   12  C5  UNL     1      26.984  -2.767  -5.358  1.00  0.00     0.056 A 
HETATM   13  C4  UNL     1      25.777  -3.157  -5.963  1.00  0.00    -0.025 A 
HETATM   14  C3  UNL     1      24.592  -2.804  -5.372  1.00  0.00    -0.050 A 
HETATM   15  C19 UNL     1      25.504  -3.940  -7.218  1.00  0.00     0.042 C 
HETATM   16  C2  UNL     1      24.578  -2.067  -4.190  1.00  0.00     0.008 A 
HETATM   17  C21 UNL     1      23.478  -3.334  -6.204  1.00  0.00     0.039 C 
HETATM   18  C1  UNL     1      25.783  -1.694  -3.613  1.00  0.00     0.003 A 
HETATM   19  C18 UNL     1      26.981  -2.031  -4.177  1.00  0.00     0.030 A 
HETATM   20  C20 UNL     1      24.144  -4.519  -6.881  1.00  0.00     0.009 C 
ENDBRANCH  10  12
ENDBRANCH   1  10
BRANCH   4  21
HETATM   21  N3  UNL     1      29.168  -7.035  -3.521  1.00  0.00    -0.217 N 
HETATM   22  C8  UNL     1      27.988  -7.153  -2.691  1.00  0.00     0.141 C 
HETATM   23  C9  UNL     1      28.325  -8.134  -1.621  1.00  0.00     0.022 C 
HETATM   24  C10 UNL     1      29.472  -8.939  -2.169  1.00  0.00     0.022 C 
HETATM   25  C11 UNL     1      30.218  -7.878  -2.961  1.00  0.00     0.141 C 
ENDBRANCH   4  21
BRANCH   7  26
HETATM   26  N5  UNL     1      30.981  -6.254  -7.771  1.00  0.00    -0.225 N 
ATOM     27  H5  UNL     1      30.697  -6.047  -8.728  1.00  0.00     0.177 HD
BRANCH  26  28
HETATM   28  C13 UNL     1      32.182  -6.984  -7.604  1.00  0.00     0.144 C 
BRANCH  28  29
HETATM   29  C14 UNL     1      32.771  -7.508  -8.910  1.00  0.00     0.031 C 
HETATM   30  C15 UNL     1      33.270  -8.922  -8.669  1.00  0.00     0.035 C 
HETATM   31  C16 UNL     1      32.333  -9.798  -9.422  1.00  0.00     0.232 C 
HETATM   32  N6  UNL     1      31.213  -9.019  -9.847  1.00  0.00    -0.075 N 
HETATM   33  C17 UNL     1      31.647  -7.633  -9.904  1.00  0.00     0.238 C 
ATOM     34  H62 UNL     1      30.810  -9.348 -10.724  1.00  0.00     0.277 HD
ATOM     35  H61 UNL     1      30.388  -9.155  -9.262  1.00  0.00     0.277 HD
ENDBRANCH  28  29
ENDBRANCH  26  28
ENDBRANCH   7  26
TORSDOF 6
ENDMDL
MODEL 4
REMARK VINA RESULT: -7.776999844      1.972      2.464
REMARK  6 active torsions:
REMARK  status: ('A' for Active; 'I' for Inactive)
REMARK    1  A    between atoms: C5_5  and  N1_6 
REMARK    2  A    between atoms: N1_6  and  C6_8 
REMARK    3  A    between atoms: C7_11  and  N3_12 
REMARK    4  A    between atoms: C12_19  and  N5_20 
REMARK    5  A    between atoms: N5_20  and  C13_22 
REMARK    6  A    between atoms: C13_22  and  C14_23 
ROOT
HETATM    1  C6  UNL     1      29.113  -5.487  -6.418  1.00  0.00     0.711 A 
HETATM    2  N2  UNL     1      29.174  -6.281  -5.362  1.00  0.00    -0.021 N 
ATOM      3  H2  UNL     1      28.407  -6.283  -4.690  1.00  0.00     0.203 HD
HETATM    4  C7  UNL     1      30.247  -7.097  -5.158  1.00  0.00     0.709 A 
HETATM    5  N4  UNL     1      31.247  -7.098  -6.030  1.00  0.00    -0.021 N 
ATOM      6  H4  UNL     1      32.045  -7.712  -5.869  1.00  0.00     0.203 HD
HETATM    7  C12 UNL     1      31.235  -6.291  -7.148  1.00  0.00     0.707 A 
HETATM    8  N7  UNL     1      30.174  -5.528  -7.288  1.00  0.00    -0.021 N 
ATOM      9  H7  UNL     1      30.136  -4.919  -8.106  1.00  0.00     0.203 HD
ENDROOT
BRANCH   1  10
HETATM   10  N1  UNL     1      28.187  -4.697  -6.729  1.00  0.00    -0.190 N 
ATOM     11  H1  UNL     1      27.956  -4.607  -7.718  1.00  0.00     0.184 HD
BRANCH  10  12
HETATM   12  C5  UNL     1      27.450  -3.930  -5.817  1.00  0.00     0.056 A 
HETATM   13  C4  UNL     1      26.083  -3.777  -6.104  1.00  0.00    -0.025 A 
HETATM   14  C3  UNL     1      25.299  -3.055  -5.244  1.00  0.00    -0.050 A 
HETATM   15  C19 UNL     1      25.247  -4.284  -7.248  1.00  0.00     0.042 C 
HETATM   16  C2  UNL     1      25.843  -2.476  -4.100  1.00  0.00     0.008 A 
HETATM   17  C21 UNL     1      23.907  -3.047  -5.772  1.00  0.00     0.039 C 
HETATM   18  C1  UNL     1      27.196  -2.641  -3.839  1.00  0.00     0.003 A 
HETATM   19  C18 UNL     1      28.004  -3.355  -4.677  1.00  0.00     0.030 A 
HETATM   20  C20 UNL     1      23.885  -4.332  -6.583  1.00  0.00     0.009 C 
ENDBRANCH  10  12
ENDBRANCH   1  10
BRANCH   4  21
HETATM   21  N3  UNL     1      30.244  -7.911  -3.990  1.00  0.00    -0.217 N 
HETATM   22  C8  UNL     1      31.364  -8.189  -3.117  1.00  0.00     0.141 C 
HETATM   23  C9  UNL     1      30.834  -9.039  -2.014  1.00  0.00     0.022 C 
HETATM   24  C10 UNL     1      29.352  -8.778  -1.991  1.00  0.00     0.022 C 
HETATM   25  C11 UNL     1      29.067  -8.599  -3.472  1.00  0.00     0.141 C 
ENDBRANCH   4  21
BRANCH   7  26
HETATM   26  N5  UNL     1      32.232  -6.351  -7.937  1.00  0.00    -0.225 N 
ATOM     27  H5  UNL     1      33.151  -6.468  -7.511  1.00  0.00     0.177 HD
BRANCH  26  28
HETATM   28  C13 UNL     1      32.186  -6.270  -9.349  1.00  0.00     0.144 C 
BRANCH  28  29
HETATM   29  C14 UNL     1      32.652  -7.540 -10.053  1.00  0.00     0.031 C 
HETATM   30  C15 UNL     1      33.228  -8.477  -9.006  1.00  0.00     0.035 C 
HETATM   31  C16 UNL     1      32.250  -9.593  -8.903  1.00  0.00     0.232 C 
HETATM   32  N6  UNL     1      31.062  -9.233  -9.610  1.00  0.00    -0.075 N 
HETATM   33  C17 UNL     1      31.434  -8.235 -10.601  1.00  0.00     0.238 C 
ATOM     34  H62 UNL     1      30.580 -10.036 -10.014  1.00  0.00     0.277 HD
ATOM     35  H61 UNL     1      30.310  -8.923  -8.994  1.00  0.00     0.277 HD
ENDBRANCH  28  29
ENDBRANCH  26  28
ENDBRANCH   7  26
TORSDOF 6
ENDMDL
MODEL 5
REMARK VINA RESULT: -7.747632364      2.371      4.016
REMARK  6 active torsions:
REMARK  status: ('A' for Active; 'I' for Inactive)
REMARK    1  A    between atoms: C5_5  and  N1_6 
REMARK    2  A    between atoms: N1_6  and  C6_8 
REMARK    3  A    between atoms: C7_11  and  N3_12 
REMARK    4  A    between atoms: C12_19  and  N5_20 
REMARK    5  A    between atoms: N5_20  and  C13_22 
REMARK    6  A    between atoms: C13_22  and  C14_23 
ROOT
HETATM    1  C6  UNL     1      29.286  -4.998  -6.610  1.00  0.00     0.711 A 
HETATM    2  N2  UNL     1      30.339  -4.262  -6.925  1.00  0.00    -0.021 N 
ATOM      3  H2  UNL     1      30.202  -3.338  -7.334  1.00  0.00     0.203 HD
HETATM    4  C7  UNL     1      31.605  -4.721  -6.712  1.00  0.00     0.709 A 
HETATM    5  N4  UNL     1      31.788  -5.922  -6.180  1.00  0.00    -0.021 N 
ATOM      6  H4  UNL     1      32.738  -6.256  -6.023  1.00  0.00     0.203 HD
HETATM    7  C12 UNL     1      30.726  -6.731  -5.832  1.00  0.00     0.707 A 
HETATM    8  N7  UNL     1      29.531  -6.232  -6.063  1.00  0.00    -0.021 N 
ATOM      9  H7  UNL     1      28.725  -6.806  -5.816  1.00  0.00     0.203 HD
ENDROOT
BRANCH   1  10
HETATM   10  N1  UNL     1      28.074  -4.696  -6.746  1.00  0.00    -0.190 N 
ATOM     11  H1  UNL     1      27.596  -5.029  -7.583  1.00  0.00     0.184 HD
BRANCH  10  12
HETATM   12  C5  UNL     1      27.331  -3.936  -5.833  1.00  0.00     0.056 A 
HETATM   13  C4  UNL     1      25.965  -3.786  -6.124  1.00  0.00    -0.025 A 
HETATM   14  C3  UNL     1      25.175  -3.071  -5.262  1.00  0.00    -0.050 A 
HETATM   15  C19 UNL     1      25.135  -4.289  -7.274  1.00  0.00     0.042 C 
HETATM   16  C2  UNL     1      25.714  -2.498  -4.113  1.00  0.00     0.008 A 
HETATM   17  C21 UNL     1      23.786  -3.064  -5.796  1.00  0.00     0.039 C 
HETATM   18  C1  UNL     1      27.065  -2.660  -3.848  1.00  0.00     0.003 A 
HETATM   19  C18 UNL     1      27.879  -3.367  -4.687  1.00  0.00     0.030 A 
HETATM   20  C20 UNL     1      23.770  -4.344  -6.615  1.00  0.00     0.009 C 
ENDBRANCH  10  12
ENDBRANCH   1  10
BRANCH   4  21
HETATM   21  N3  UNL     1      32.686  -3.875  -7.091  1.00  0.00    -0.217 N 
HETATM   22  C8  UNL     1      33.422  -2.965  -6.238  1.00  0.00     0.141 C 
HETATM   23  C9  UNL     1      34.484  -2.359  -7.091  1.00  0.00     0.022 C 
HETATM   24  C10 UNL     1      34.666  -3.320  -8.236  1.00  0.00     0.022 C 
HETATM   25  C11 UNL     1      33.242  -3.805  -8.437  1.00  0.00     0.141 C 
ENDBRANCH   4  21
BRANCH   7  26
HETATM   26  N5  UNL     1      30.984  -7.869  -5.327  1.00  0.00    -0.225 N 
ATOM     27  H5  UNL     1      30.548  -8.086  -4.431  1.00  0.00     0.177 HD
BRANCH  26  28
HETATM   28  C13 UNL     1      31.820  -8.863  -5.889  1.00  0.00     0.144 C 
BRANCH  28  29
HETATM   29  C14 UNL     1      31.109  -9.776  -6.882  1.00  0.00     0.031 C 
HETATM   30  C15 UNL     1      32.134 -10.737  -7.458  1.00  0.00     0.035 C 
HETATM   31  C16 UNL     1      31.787 -12.065  -6.884  1.00  0.00     0.232 C 
HETATM   32  N6  UNL     1      30.823 -11.882  -5.846  1.00  0.00    -0.075 N 
HETATM   33  C17 UNL     1      30.137 -10.627  -6.110  1.00  0.00     0.238 C 
ATOM     34  H62 UNL     1      30.186 -12.672  -5.750  1.00  0.00     0.277 HD
ATOM     35  H61 UNL     1      31.230 -11.925  -4.912  1.00  0.00     0.277 HD
ENDBRANCH  28  29
ENDBRANCH  26  28
ENDBRANCH   7  26
TORSDOF 6
ENDMDL
