MODEL 1
REMARK VINA RESULT: -8.212797932      0.000      0.000
REMARK  5 active torsions:
REMARK  status: ('A' for Active; 'I' for Inactive)
REMARK    1  A    between atoms: C6_8  and  C7_9 
REMARK    2  A    between atoms: C7_9  and  C8_10 
REMARK    3  A    between atoms: C8_10  and  C9_11 
REMARK    4  A    between atoms: C10_12  and  N2_13 
REMARK    5  A    between atoms: C20_30  and  N6_31 
ROOT
HETATM    1  C9  UNL     1      32.059  -5.510  -8.649  1.00  0.00     0.030 A 
HETATM    2  C10 UNL     1      32.263  -5.949  -7.344  1.00  0.00     0.114 A 
HETATM    3  N4  UNL     1      32.593  -5.014  -6.414  1.00  0.00    -0.338 N 
ATOM      4  H4  UNL     1      32.747  -5.315  -5.451  1.00  0.00     0.168 HD
HETATM    5  C19 UNL     1      32.724  -3.717  -6.709  1.00  0.00     0.183 A 
HETATM    6  N5  UNL     1      32.521  -3.306  -7.974  1.00  0.00    -0.338 N 
ATOM      7  H5  UNL     1      32.620  -2.317  -8.199  1.00  0.00     0.168 HD
HETATM    8  C20 UNL     1      32.190  -4.173  -8.950  1.00  0.00     0.109 A 
ENDROOT
BRANCH   2   9
HETATM    9  N2  UNL     1      32.140  -7.281  -6.895  1.00  0.00    -0.361 N 
HETATM   10  C11 UNL     1      30.896  -7.974  -6.627  1.00  0.00     0.136 C 
HETATM   11  C12 UNL     1      31.249  -9.133  -5.723  1.00  0.00     0.002 C 
HETATM   12  C13 UNL     1      30.419  -9.084  -4.434  1.00  0.00     0.134 C 
HETATM   13  C15 UNL     1      30.801 -10.449  -6.279  1.00  0.00     0.115 C 
HETATM   14  C16 UNL     1      32.689  -9.016  -5.389  1.00  0.00     0.038 C 
HETATM   15  N3  UNL     1      29.109  -9.507  -4.969  1.00  0.00    -0.360 N 
HETATM   16  C14 UNL     1      29.290 -10.283  -6.115  1.00  0.00     0.218 C 
ATOM     17  H3  UNL     1      28.206  -9.267  -4.562  1.00  0.00     0.162 HD
HETATM   18  O1  UNL     1      28.493 -10.783  -6.904  1.00  0.00    -0.274 OA
HETATM   19  C17 UNL     1      33.207  -8.194  -6.578  1.00  0.00     0.082 C 
HETATM   20  C18 UNL     1      33.520  -9.205  -7.648  1.00  0.00     0.032 C 
ENDBRANCH   2   9
BRANCH   1  21
HETATM   21  C8  UNL     1      31.735  -6.496  -9.667  1.00  0.00     0.051 C 
BRANCH  21  22
HETATM   22  C7  UNL     1      32.809  -7.114 -10.480  1.00  0.00     0.045 C 
BRANCH  22  23
HETATM   23  C6  UNL     1      32.208  -7.746 -11.724  1.00  0.00    -0.035 A 
HETATM   24  C4  UNL     1      31.925  -9.085 -11.745  1.00  0.00     0.011 A 
HETATM   25  N1  UNL     1      31.424  -9.592 -12.911  1.00  0.00    -0.368 N 
HETATM   26  C5  UNL     1      32.106 -10.004 -10.580  1.00  0.00     0.068 C 
HETATM   27  C3  UNL     1      31.210  -8.837 -14.002  1.00  0.00     0.095 A 
ATOM     28  H1  UNL     1      31.203 -10.587 -12.955  1.00  0.00     0.165 HD
HETATM   29  C2  UNL     1      31.487  -7.494 -13.996  1.00  0.00    -0.046 A 
HETATM   30  C1  UNL     1      31.240  -6.663 -15.216  1.00  0.00     0.049 C 
HETATM   31  C21 UNL     1      31.994  -6.954 -12.827  1.00  0.00     0.017 A 
ENDBRANCH  22  23
ENDBRANCH  21  22
ENDBRANCH   1  21
BRANCH   8  32
HETATM   32  N6  UNL     1      32.000  -3.666 -10.126  1.00  0.00    -0.385 N 
ATOM     33  H62 UNL     1      32.021  -4.320 -10.908  1.00  0.00     0.157 HD
ATOM     34  H61 UNL     1      31.847  -2.674 -10.308  1.00  0.00     0.157 HD
ENDBRANCH   8  32
TORSDOF 5
ENDMDL
MODEL 2
REMARK VINA RESULT: -7.772216787      1.866      2.507
REMARK  5 active torsions:
REMARK  status: ('A' for Active; 'I' for Inactive)
REMARK    1  A    between atoms: C6_8  and  C7_9 
REMARK    2  A    between atoms: C7_9  and  C8_10 
REMARK    3  A    between atoms: C8_10  and  C9_11 
REMARK    4  A    between atoms: C10_12  and  N2_13 
REMARK    5  A    between atoms: C20_30  and  N6_31 
ROOT
HETATM    1  C9  UNL     1      31.996  -5.183  -8.028  1.00  0.00     0.030 A 
HETATM    2  C10 UNL     1      31.968  -5.400  -6.653  1.00  0.00     0.114 A 
HETATM    3  N4  UNL     1      32.259  -4.346  -5.846  1.00  0.00    -0.338 N 
ATOM      4  H4  UNL     1      32.244  -4.484  -4.836  1.00  0.00     0.168 HD
HETATM    5  C19 UNL     1      32.563  -3.135  -6.324  1.00  0.00     0.183 A 
HETATM    6  N5  UNL     1      32.584  -2.938  -7.654  1.00  0.00    -0.338 N 
ATOM      7  H5  UNL     1      32.816  -2.014  -8.018  1.00  0.00     0.168 HD
HETATM    8  C20 UNL     1      32.305  -3.933  -8.517  1.00  0.00     0.109 A 
ENDROOT
BRANCH   2   9
HETATM    9  N2  UNL     1      31.647  -6.620  -6.020  1.00  0.00    -0.361 N 
HETATM   10  C11 UNL     1      32.568  -7.460  -5.280  1.00  0.00     0.136 C 
HETATM   11  C12 UNL     1      31.937  -8.832  -5.235  1.00  0.00     0.002 C 
HETATM   12  C13 UNL     1      32.895  -9.886  -5.805  1.00  0.00     0.134 C 
HETATM   13  C15 UNL     1      31.781  -9.343  -3.836  1.00  0.00     0.115 C 
HETATM   14  C16 UNL     1      30.706  -8.786  -6.059  1.00  0.00     0.038 C 
HETATM   15  N3  UNL     1      33.866  -9.962  -4.695  1.00  0.00    -0.360 N 
HETATM   16  C14 UNL     1      33.252  -9.587  -3.499  1.00  0.00     0.218 C 
ATOM     17  H3  UNL     1      34.841 -10.246  -4.789  1.00  0.00     0.162 HD
HETATM   18  O1  UNL     1      33.689  -9.447  -2.359  1.00  0.00    -0.274 OA
HETATM   19  C17 UNL     1      30.372  -7.288  -6.016  1.00  0.00     0.082 C 
HETATM   20  C18 UNL     1      29.560  -7.102  -4.761  1.00  0.00     0.032 C 
ENDBRANCH   2   9
BRANCH   1  21
HETATM   21  C8  UNL     1      31.718  -6.303  -8.911  1.00  0.00     0.051 C 
BRANCH  21  22
HETATM   22  C7  UNL     1      32.829  -7.041  -9.559  1.00  0.00     0.045 C 
BRANCH  22  23
HETATM   23  C6  UNL     1      32.297  -7.834 -10.739  1.00  0.00    -0.035 A 
HETATM   24  C4  UNL     1      32.087  -9.181 -10.623  1.00  0.00     0.011 A 
HETATM   25  N1  UNL     1      31.645  -9.836 -11.738  1.00  0.00    -0.368 N 
HETATM   26  C5  UNL     1      32.287  -9.960  -9.362  1.00  0.00     0.068 C 
HETATM   27  C3  UNL     1      31.419  -9.214 -12.906  1.00  0.00     0.095 A 
ATOM     28  H1  UNL     1      31.479 -10.841 -11.679  1.00  0.00     0.165 HD
HETATM   29  C2  UNL     1      31.622  -7.865 -13.040  1.00  0.00    -0.046 A 
HETATM   30  C1  UNL     1      31.362  -7.183 -14.346  1.00  0.00     0.049 C 
HETATM   31  C21 UNL     1      32.069  -7.177 -11.925  1.00  0.00     0.017 A 
ENDBRANCH  22  23
ENDBRANCH  21  22
ENDBRANCH   1  21
BRANCH   8  32
HETATM   32  N6  UNL     1      32.336  -3.627  -9.774  1.00  0.00    -0.385 N 
ATOM     33  H62 UNL     1      32.989  -4.157 -10.352  1.00  0.00     0.157 HD
ATOM     34  H61 UNL     1      31.767  -2.897 -10.204  1.00  0.00     0.157 HD
ENDBRANCH   8  32
TORSDOF 5
ENDMDL
MODEL 3
REMARK VINA RESULT: -7.712618875      3.749      5.842
REMARK  5 active torsions:
REMARK  status: ('A' for Active; 'I' for Inactive)
REMARK    1  A    between atoms: C6_8  and  C7_9 
REMARK    2  A    between atoms: C7_9  and  C8_10 
REMARK    3  A    between atoms: C8_10  and  C9_11 
REMARK    4  A    between atoms: C10_12  and  N2_13 
REMARK    5  A    between atoms: C20_30  and  N6_31 
ROOT
HETATM    1  C9  UNL     1      31.470  -5.204  -6.988  1.00  0.00     0.030 A 
HETATM    2  C10 UNL     1      32.314  -6.255  -6.642  1.00  0.00     0.114 A 
HETATM    3  N4  UNL     1      33.619  -6.157  -7.010  1.00  0.00    -0.338 N 
ATOM      4  H4  UNL     1      34.255  -6.917  -6.766  1.00  0.00     0.168 HD
HETATM    5  C19 UNL     1      34.103  -5.104  -7.677  1.00  0.00     0.183 A 
HETATM    6  N5  UNL     1      33.277  -4.094  -8.002  1.00  0.00    -0.338 N 
ATOM      7  H5  UNL     1      33.646  -3.291  -8.511  1.00  0.00     0.168 HD
HETATM    8  C20 UNL     1      31.972  -4.119  -7.671  1.00  0.00     0.109 A 
ENDROOT
BRANCH   2   9
HETATM    9  N2  UNL     1      31.938  -7.412  -5.926  1.00  0.00    -0.361 N 
HETATM   10  C11 UNL     1      31.342  -8.605  -6.495  1.00  0.00     0.136 C 
HETATM   11  C12 UNL     1      30.671  -9.324  -5.348  1.00  0.00     0.002 C 
HETATM   12  C13 UNL     1      29.187  -9.564  -5.657  1.00  0.00     0.134 C 
HETATM   13  C15 UNL     1      31.145 -10.736  -5.202  1.00  0.00     0.115 C 
HETATM   14  C16 UNL     1      30.792  -8.462  -4.148  1.00  0.00     0.038 C 
HETATM   15  N3  UNL     1      29.317 -10.644  -6.657  1.00  0.00    -0.360 N 
HETATM   16  C14 UNL     1      30.510 -11.339  -6.456  1.00  0.00     0.218 C 
ATOM     17  H3  UNL     1      28.634 -10.850  -7.386  1.00  0.00     0.162 HD
HETATM   18  O1  UNL     1      31.044 -12.253  -7.079  1.00  0.00    -0.274 OA
HETATM   19  C17 UNL     1      32.026  -7.622  -4.505  1.00  0.00     0.082 C 
HETATM   20  C18 UNL     1      33.205  -8.444  -4.056  1.00  0.00     0.032 C 
ENDBRANCH   2   9
BRANCH   1  21
HETATM   21  C8  UNL     1      30.064  -5.301  -6.632  1.00  0.00     0.051 C 
BRANCH  21  22
HETATM   22  C7  UNL     1      29.575  -4.744  -5.348  1.00  0.00     0.045 C 
BRANCH  22  23
HETATM   23  C6  UNL     1      28.417  -3.798  -5.610  1.00  0.00    -0.035 A 
HETATM   24  C4  UNL     1      28.567  -2.454  -5.402  1.00  0.00     0.011 A 
HETATM   25  N1  UNL     1      27.469  -1.668  -5.620  1.00  0.00    -0.368 N 
HETATM   26  C5  UNL     1      29.845  -1.803  -4.981  1.00  0.00     0.068 C 
HETATM   27  C3  UNL     1      26.286  -2.164  -6.018  1.00  0.00     0.095 A 
ATOM     28  H1  UNL     1      27.553  -0.663  -5.473  1.00  0.00     0.165 HD
HETATM   29  C2  UNL     1      26.119  -3.508  -6.233  1.00  0.00    -0.046 A 
HETATM   30  C1  UNL     1      24.797  -4.047  -6.682  1.00  0.00     0.049 C 
HETATM   31  C21 UNL     1      27.216  -4.326  -6.021  1.00  0.00     0.017 A 
ENDBRANCH  22  23
ENDBRANCH  21  22
ENDBRANCH   1  21
BRANCH   8  32
HETATM   32  N6  UNL     1      31.274  -3.086  -8.017  1.00  0.00    -0.385 N 
ATOM     33  H62 UNL     1      30.866  -3.109  -8.952  1.00  0.00     0.157 HD
ATOM     34  H61 UNL     1      31.123  -2.268  -7.426  1.00  0.00     0.157 HD
ENDBRANCH   8  32
TORSDOF 5
ENDMDL
MODEL 4
REMARK VINA RESULT: -7.698321809      4.303      7.046
REMARK  5 active torsions:
REMARK  status: ('A' for Active; 'I' for Inactive)
REMARK    1  A    between atoms: C6_8  and  C7_9 
REMARK    2  A    between atoms: C7_9  and  C8_10 
REMARK    3  A    between atoms: C8_10  and  C9_11 
REMARK    4  A    between atoms: C10_12  and  N2_13 
REMARK    5  A    between atoms: C20_30  and  N6_31 
ROOT
HETATM    1  C9  UNL     1      29.507  -5.781  -5.093  1.00  0.00     0.030 A 
HETATM    2  C10 UNL     1      30.792  -6.268  -5.317  1.00  0.00     0.114 A 
HETATM    3  N4  UNL     1      31.500  -6.685  -4.234  1.00  0.00    -0.338 N 
ATOM      4  H4  UNL     1      32.444  -7.046  -4.376  1.00  0.00     0.168 HD
HETATM    5  C19 UNL     1      31.010  -6.642  -2.991  1.00  0.00     0.183 A 
HETATM    6  N5  UNL     1      29.766  -6.172  -2.790  1.00  0.00    -0.338 N 
ATOM      7  H5  UNL     1      29.393  -6.139  -1.842  1.00  0.00     0.168 HD
HETATM    8  C20 UNL     1      29.003  -5.742  -3.812  1.00  0.00     0.109 A 
ENDROOT
BRANCH   2   9
HETATM    9  N2  UNL     1      31.420  -6.384  -6.575  1.00  0.00    -0.361 N 
HETATM   10  C11 UNL     1      31.342  -7.529  -7.460  1.00  0.00     0.136 C 
HETATM   11  C12 UNL     1      32.524  -7.418  -8.394  1.00  0.00     0.002 C 
HETATM   12  C13 UNL     1      33.376  -8.693  -8.341  1.00  0.00     0.134 C 
HETATM   13  C15 UNL     1      32.117  -7.429  -9.835  1.00  0.00     0.115 C 
HETATM   14  C16 UNL     1      33.337  -6.261  -7.950  1.00  0.00     0.038 C 
HETATM   15  N3  UNL     1      32.490  -9.611  -9.083  1.00  0.00    -0.360 N 
HETATM   16  C14 UNL     1      31.673  -8.887  -9.953  1.00  0.00     0.218 C 
ATOM     17  H3  UNL     1      32.476 -10.625  -8.975  1.00  0.00     0.162 HD
HETATM   18  O1  UNL     1      30.762  -9.229 -10.702  1.00  0.00    -0.274 OA
HETATM   19  C17 UNL     1      32.287  -5.423  -7.206  1.00  0.00     0.082 C 
HETATM   20  C18 UNL     1      31.635  -4.578  -8.268  1.00  0.00     0.032 C 
ENDBRANCH   2   9
BRANCH   1  21
HETATM   21  C8  UNL     1      28.742  -5.300  -6.232  1.00  0.00     0.051 C 
BRANCH  21  22
HETATM   22  C7  UNL     1      28.719  -3.856  -6.564  1.00  0.00     0.045 C 
BRANCH  22  23
HETATM   23  C6  UNL     1      27.346  -3.284  -6.257  1.00  0.00    -0.035 A 
HETATM   24  C4  UNL     1      27.232  -2.084  -5.608  1.00  0.00     0.011 A 
HETATM   25  N1  UNL     1      25.966  -1.650  -5.329  1.00  0.00    -0.368 N 
HETATM   26  C5  UNL     1      28.390  -1.225  -5.215  1.00  0.00     0.068 C 
HETATM   27  C3  UNL     1      24.867  -2.347  -5.663  1.00  0.00     0.095 A 
ATOM     28  H1  UNL     1      25.851  -0.759  -4.847  1.00  0.00     0.165 HD
HETATM   29  C2  UNL     1      24.964  -3.550  -6.316  1.00  0.00    -0.046 A 
HETATM   30  C1  UNL     1      23.732  -4.314  -6.686  1.00  0.00     0.049 C 
HETATM   31  C21 UNL     1      26.235  -4.012  -6.611  1.00  0.00     0.017 A 
ENDBRANCH  22  23
ENDBRANCH  21  22
ENDBRANCH   1  21
BRANCH   8  32
HETATM   32  N6  UNL     1      27.816  -5.327  -3.507  1.00  0.00    -0.385 N 
ATOM     33  H62 UNL     1      27.723  -4.332  -3.307  1.00  0.00     0.157 HD
ATOM     34  H61 UNL     1      26.994  -5.929  -3.444  1.00  0.00     0.157 HD
ENDBRANCH   8  32
TORSDOF 5
ENDMDL
MODEL 5
REMARK VINA RESULT: -7.628598443      2.637      5.177
REMARK  5 active torsions:
REMARK  status: ('A' for Active; 'I' for Inactive)
REMARK    1  A    between atoms: C6_8  and  C7_9 
REMARK    2  A    between atoms: C7_9  and  C8_10 
REMARK    3  A    between atoms: C8_10  and  C9_11 
REMARK    4  A    between atoms: C10_12  and  N2_13 
REMARK    5  A    between atoms: C20_30  and  N6_31 
ROOT
HETATM    1  C9  UNL     1      31.654  -9.383  -6.908  1.00  0.00     0.030 A 
HETATM    2  C10 UNL     1      31.807  -8.499  -5.843  1.00  0.00     0.114 A 
HETATM    3  N4  UNL     1      31.849  -9.028  -4.592  1.00  0.00    -0.338 N 
ATOM      4  H4  UNL     1      31.960  -8.398  -3.797  1.00  0.00     0.168 HD
HETATM    5  C19 UNL     1      31.749 -10.341  -4.360  1.00  0.00     0.183 A 
HETATM    6  N5  UNL     1      31.604 -11.184  -5.399  1.00  0.00    -0.338 N 
ATOM      7  H5  UNL     1      31.529 -12.185  -5.221  1.00  0.00     0.168 HD
HETATM    8  C20 UNL     1      31.557 -10.735  -6.667  1.00  0.00     0.109 A 
ENDROOT
BRANCH   2   9
HETATM    9  N2  UNL     1      31.941  -7.098  -5.950  1.00  0.00    -0.361 N 
HETATM   10  C11 UNL     1      33.165  -6.384  -6.255  1.00  0.00     0.136 C 
HETATM   11  C12 UNL     1      32.953  -4.967  -5.775  1.00  0.00     0.002 C 
HETATM   12  C13 UNL     1      34.060  -4.559  -4.793  1.00  0.00     0.134 C 
HETATM   13  C15 UNL     1      33.172  -3.958  -6.859  1.00  0.00     0.115 C 
HETATM   14  C16 UNL     1      31.641  -4.920  -5.088  1.00  0.00     0.038 C 
HETATM   15  N3  UNL     1      35.179  -4.393  -5.741  1.00  0.00    -0.360 N 
HETATM   16  C14 UNL     1      34.688  -4.087  -7.011  1.00  0.00     0.218 C 
ATOM     17  H3  UNL     1      36.167  -4.488  -5.503  1.00  0.00     0.162 HD
HETATM   18  O1  UNL     1      35.247  -3.930  -8.094  1.00  0.00    -0.274 OA
HETATM   19  C17 UNL     1      30.918  -6.108  -5.738  1.00  0.00     0.082 C 
HETATM   20  C18 UNL     1      30.300  -5.553  -6.994  1.00  0.00     0.032 C 
ENDBRANCH   2   9
BRANCH   1  21
HETATM   21  C8  UNL     1      31.577  -8.837  -8.254  1.00  0.00     0.051 C 
BRANCH  21  22
HETATM   22  C7  UNL     1      32.805  -8.673  -9.068  1.00  0.00     0.045 C 
BRANCH  22  23
HETATM   23  C6  UNL     1      32.427  -8.343 -10.501  1.00  0.00    -0.035 A 
HETATM   24  C4  UNL     1      32.450  -7.045 -10.936  1.00  0.00     0.011 A 
HETATM   25  N1  UNL     1      32.059  -6.819 -12.225  1.00  0.00    -0.368 N 
HETATM   26  C5  UNL     1      32.893  -5.886 -10.104  1.00  0.00     0.068 C 
HETATM   27  C3  UNL     1      31.664  -7.803 -13.051  1.00  0.00     0.095 A 
ATOM     28  H1  UNL     1      32.067  -5.861 -12.576  1.00  0.00     0.165 HD
HETATM   29  C2  UNL     1      31.637  -9.108 -12.632  1.00  0.00    -0.046 A 
HETATM   30  C1  UNL     1      31.200 -10.195 -13.562  1.00  0.00     0.049 C 
HETATM   31  C21 UNL     1      32.030  -9.366 -11.329  1.00  0.00     0.017 A 
ENDBRANCH  22  23
ENDBRANCH  21  22
ENDBRANCH   1  21
BRANCH   8  32
HETATM   32  N6  UNL     1      31.434 -11.635  -7.589  1.00  0.00    -0.385 N 
ATOM     33  H62 UNL     1      30.679 -11.494  -8.260  1.00  0.00     0.157 HD
ATOM     34  H61 UNL     1      32.028 -12.460  -7.671  1.00  0.00     0.157 HD
ENDBRANCH   8  32
TORSDOF 5
ENDMDL
