MODEL 1
REMARK VINA RESULT: -7.542529704      0.000      0.000
REMARK  5 active torsions:
REMARK  status: ('A' for Active; 'I' for Inactive)
REMARK    1  A    between atoms: C11_11  and  C12_12 
REMARK    2  A    between atoms: C12_12  and  C13_13 
REMARK    3  A    between atoms: C13_13  and  O1_14 
REMARK    4  A    between atoms: C14_16  and  O2_17 
REMARK    5  A    between atoms: O2_17  and  S1_18 
ROOT
HETATM    1  C1  UNL     1      -0.003  -0.328  23.218  1.00  0.00     0.011 C 
HETATM    2  C2  UNL     1       0.745   0.888  23.646  1.00  0.00    -0.010 C 
HETATM    3  C3  UNL     1       2.246   0.684  23.687  1.00  0.00     0.005 C 
HETATM    4  C4  UNL     1       2.691   1.157  25.073  1.00  0.00     0.006 C 
HETATM    5  C5  UNL     1       1.463   0.700  25.822  1.00  0.00     0.003 C 
HETATM    6  C6  UNL     1       0.371   1.333  25.069  1.00  0.00    -0.036 C 
HETATM    7  C7  UNL     1       0.303   2.806  25.024  1.00  0.00     0.016 C 
HETATM    8  C8  UNL     1      -0.908   0.707  25.536  1.00  0.00     0.010 C 
HETATM    9  C9  UNL     1      -0.716  -0.230  26.695  1.00  0.00     0.007 C 
HETATM   10  C10 UNL     1       0.132   0.382  27.806  1.00  0.00     0.001 C 
HETATM   11  C11 UNL     1       0.272  -0.663  28.852  1.00  0.00     0.023 C 
HETATM   12  C14 UNL     1       1.372  -0.422  29.849  1.00  0.00     0.149 C 
HETATM   13  C15 UNL     1       2.732  -0.353  29.171  1.00  0.00     0.034 C 
HETATM   14  C16 UNL     1       2.575  -0.219  27.707  1.00  0.00     0.012 C 
HETATM   15  C17 UNL     1       1.502   0.774  27.274  1.00  0.00    -0.035 C 
HETATM   16  C18 UNL     1       1.862   2.091  27.885  1.00  0.00     0.016 C 
ENDROOT
BRANCH  12  17
HETATM   17  O2  UNL     1       1.317  -1.499  30.736  1.00  0.00    -0.251 OA
BRANCH  17  18
HETATM   18  S1  UNL     1       1.361  -1.085  32.333  1.00  0.00     0.251 S 
HETATM   19  O3  UNL     1       0.213  -1.686  33.091  1.00  0.00    -0.572 OA
HETATM   20  O4  UNL     1       1.383   0.429  32.513  1.00  0.00    -0.572 OA
HETATM   21  O5  UNL     1       2.800  -1.639  32.999  1.00  0.00    -0.572 OA
ENDBRANCH  17  18
ENDBRANCH  12  17
BRANCH  11  22
HETATM   22  C12 UNL     1      -0.958  -1.122  29.523  1.00  0.00     0.033 C 
BRANCH  22  23
HETATM   23  C13 UNL     1      -1.286  -2.555  29.548  1.00  0.00     0.164 C 
BRANCH  23  24
HETATM   24  O1  UNL     1      -1.185  -3.218  30.741  1.00  0.00    -0.401 OA
ATOM     25  H1  UNL     1      -1.898  -3.791  30.997  1.00  0.00     0.209 HD
ENDBRANCH  23  24
ENDBRANCH  22  23
ENDBRANCH  11  22
TORSDOF 5
ENDMDL
MODEL 2
REMARK VINA RESULT: -7.433645243      3.857      6.132
REMARK  5 active torsions:
REMARK  status: ('A' for Active; 'I' for Inactive)
REMARK    1  A    between atoms: C11_11  and  C12_12 
REMARK    2  A    between atoms: C12_12  and  C13_13 
REMARK    3  A    between atoms: C13_13  and  O1_14 
REMARK    4  A    between atoms: C14_16  and  O2_17 
REMARK    5  A    between atoms: O2_17  and  S1_18 
ROOT
HETATM    1  C1  UNL     1       1.287   0.955  33.354  1.00  0.00     0.011 C 
HETATM    2  C2  UNL     1       2.467   1.201  32.478  1.00  0.00    -0.010 C 
HETATM    3  C3  UNL     1       2.520   2.612  31.927  1.00  0.00     0.005 C 
HETATM    4  C4  UNL     1       2.701   2.459  30.415  1.00  0.00     0.006 C 
HETATM    5  C5  UNL     1       1.867   1.211  30.258  1.00  0.00     0.003 C 
HETATM    6  C6  UNL     1       2.472   0.295  31.236  1.00  0.00    -0.036 C 
HETATM    7  C7  UNL     1       3.875  -0.119  31.046  1.00  0.00     0.016 C 
HETATM    8  C8  UNL     1       1.538  -0.869  31.386  1.00  0.00     0.010 C 
HETATM    9  C9  UNL     1       0.389  -0.829  30.418  1.00  0.00     0.007 C 
HETATM   10  C10 UNL     1       0.841  -0.559  28.986  1.00  0.00     0.001 C 
HETATM   11  C11 UNL     1      -0.393  -0.505  28.160  1.00  0.00     0.023 C 
HETATM   12  C14 UNL     1      -0.223   0.124  26.804  1.00  0.00     0.149 C 
HETATM   13  C15 UNL     1       0.246   1.566  26.915  1.00  0.00     0.034 C 
HETATM   14  C16 UNL     1       0.712   1.856  28.288  1.00  0.00     0.012 C 
HETATM   15  C17 UNL     1       1.582   0.766  28.903  1.00  0.00    -0.035 C 
HETATM   16  C18 UNL     1       2.746   0.574  27.984  1.00  0.00     0.016 C 
ENDROOT
BRANCH  12  17
HETATM   17  O2  UNL     1      -1.481   0.059  26.200  1.00  0.00    -0.251 OA
BRANCH  17  18
HETATM   18  S1  UNL     1      -1.484  -0.565  24.672  1.00  0.00     0.251 S 
HETATM   19  O3  UNL     1      -0.114  -0.527  24.058  1.00  0.00    -0.572 OA
HETATM   20  O4  UNL     1      -2.487   0.157  23.779  1.00  0.00    -0.572 OA
HETATM   21  O5  UNL     1      -2.006  -2.160  24.737  1.00  0.00    -0.572 OA
ENDBRANCH  17  18
ENDBRANCH  12  17
BRANCH  11  22
HETATM   22  C12 UNL     1      -1.209  -1.730  28.075  1.00  0.00     0.033 C 
BRANCH  22  23
HETATM   23  C13 UNL     1      -2.634  -1.685  28.434  1.00  0.00     0.164 C 
BRANCH  23  24
HETATM   24  O1  UNL     1      -3.551  -1.615  27.422  1.00  0.00    -0.401 OA
ATOM     25  H1  UNL     1      -3.961  -0.776  27.245  1.00  0.00     0.209 HD
ENDBRANCH  23  24
ENDBRANCH  22  23
ENDBRANCH  11  22
TORSDOF 5
ENDMDL
MODEL 3
REMARK VINA RESULT: -7.213854631      3.422      6.001
REMARK  5 active torsions:
REMARK  status: ('A' for Active; 'I' for Inactive)
REMARK    1  A    between atoms: C11_11  and  C12_12 
REMARK    2  A    between atoms: C12_12  and  C13_13 
REMARK    3  A    between atoms: C13_13  and  O1_14 
REMARK    4  A    between atoms: C14_16  and  O2_17 
REMARK    5  A    between atoms: O2_17  and  S1_18 
ROOT
HETATM    1  C1  UNL     1       1.476   1.415  33.386  1.00  0.00     0.011 C 
HETATM    2  C2  UNL     1       2.549   1.303  32.358  1.00  0.00    -0.010 C 
HETATM    3  C3  UNL     1       2.693   2.547  31.504  1.00  0.00     0.005 C 
HETATM    4  C4  UNL     1       2.650   2.060  30.053  1.00  0.00     0.006 C 
HETATM    5  C5  UNL     1       1.663   0.939  30.267  1.00  0.00     0.003 C 
HETATM    6  C6  UNL     1       2.282   0.168  31.355  1.00  0.00    -0.036 C 
HETATM    7  C7  UNL     1       3.588  -0.473  31.115  1.00  0.00     0.016 C 
HETATM    8  C8  UNL     1       1.246  -0.793  31.857  1.00  0.00     0.010 C 
HETATM    9  C9  UNL     1      -0.009  -0.790  31.032  1.00  0.00     0.007 C 
HETATM   10  C10 UNL     1       0.275  -0.890  29.536  1.00  0.00     0.001 C 
HETATM   11  C11 UNL     1      -1.043  -0.831  28.854  1.00  0.00     0.023 C 
HETATM   12  C14 UNL     1      -0.983  -0.527  27.382  1.00  0.00     0.149 C 
HETATM   13  C15 UNL     1      -0.338   0.825  27.119  1.00  0.00     0.034 C 
HETATM   14  C16 UNL     1       0.338   1.321  28.335  1.00  0.00     0.012 C 
HETATM   15  C17 UNL     1       1.149   0.269  29.083  1.00  0.00    -0.035 C 
HETATM   16  C18 UNL     1       2.149  -0.274  28.112  1.00  0.00     0.016 C 
ENDROOT
BRANCH  12  17
HETATM   17  O2  UNL     1      -2.310  -0.535  26.943  1.00  0.00    -0.251 OA
BRANCH  17  18
HETATM   18  S1  UNL     1      -2.539  -1.180  25.442  1.00  0.00     0.251 S 
HETATM   19  O3  UNL     1      -3.992  -1.444  25.170  1.00  0.00    -0.572 OA
HETATM   20  O4  UNL     1      -1.723  -2.454  25.254  1.00  0.00    -0.572 OA
HETATM   21  O5  UNL     1      -1.960  -0.101  24.292  1.00  0.00    -0.572 OA
ENDBRANCH  17  18
ENDBRANCH  12  17
BRANCH  11  22
HETATM   22  C12 UNL     1      -2.000  -1.918  29.131  1.00  0.00     0.033 C 
BRANCH  22  23
HETATM   23  C13 UNL     1      -1.528  -3.308  29.196  1.00  0.00     0.164 C 
BRANCH  23  24
HETATM   24  O1  UNL     1      -1.423  -3.896  30.427  1.00  0.00    -0.401 OA
ATOM     25  H1  UNL     1      -1.065  -4.775  30.474  1.00  0.00     0.209 HD
ENDBRANCH  23  24
ENDBRANCH  22  23
ENDBRANCH  11  22
TORSDOF 5
ENDMDL
MODEL 4
REMARK VINA RESULT: -7.137113845      3.418      5.900
REMARK  5 active torsions:
REMARK  status: ('A' for Active; 'I' for Inactive)
REMARK    1  A    between atoms: C11_11  and  C12_12 
REMARK    2  A    between atoms: C12_12  and  C13_13 
REMARK    3  A    between atoms: C13_13  and  O1_14 
REMARK    4  A    between atoms: C14_16  and  O2_17 
REMARK    5  A    between atoms: O2_17  and  S1_18 
ROOT
HETATM    1  C1  UNL     1       1.958   1.305  33.104  1.00  0.00     0.011 C 
HETATM    2  C2  UNL     1       2.925   1.463  31.982  1.00  0.00    -0.010 C 
HETATM    3  C3  UNL     1       2.801   2.794  31.267  1.00  0.00     0.005 C 
HETATM    4  C4  UNL     1       2.681   2.456  29.780  1.00  0.00     0.006 C 
HETATM    5  C5  UNL     1       1.893   1.181  29.947  1.00  0.00     0.003 C 
HETATM    6  C6  UNL     1       2.723   0.408  30.882  1.00  0.00    -0.036 C 
HETATM    7  C7  UNL     1       4.077   0.003  30.460  1.00  0.00     0.016 C 
HETATM    8  C8  UNL     1       1.893  -0.747  31.358  1.00  0.00     0.010 C 
HETATM    9  C9  UNL     1       0.573  -0.854  30.648  1.00  0.00     0.007 C 
HETATM   10  C10 UNL     1       0.715  -0.757  29.132  1.00  0.00     0.001 C 
HETATM   11  C11 UNL     1      -0.660  -0.834  28.576  1.00  0.00     0.023 C 
HETATM   12  C14 UNL     1      -0.795  -0.378  27.150  1.00  0.00     0.149 C 
HETATM   13  C15 UNL     1      -0.381   1.077  26.989  1.00  0.00     0.034 C 
HETATM   14  C16 UNL     1       0.337   1.547  28.192  1.00  0.00     0.012 C 
HETATM   15  C17 UNL     1       1.362   0.562  28.742  1.00  0.00    -0.035 C 
HETATM   16  C18 UNL     1       2.326   0.280  27.633  1.00  0.00     0.016 C 
ENDROOT
BRANCH  12  17
HETATM   17  O2  UNL     1      -2.144  -0.545  26.828  1.00  0.00    -0.251 OA
BRANCH  17  18
HETATM   18  S1  UNL     1      -2.427  -1.131  25.311  1.00  0.00     0.251 S 
HETATM   19  O3  UNL     1      -1.725  -2.438  25.084  1.00  0.00    -0.572 OA
HETATM   20  O4  UNL     1      -2.028  -0.120  24.242  1.00  0.00    -0.572 OA
HETATM   21  O5  UNL     1      -4.080  -1.363  25.118  1.00  0.00    -0.572 OA
ENDBRANCH  17  18
ENDBRANCH  12  17
BRANCH  11  22
HETATM   22  C12 UNL     1      -1.418  -2.077  28.807  1.00  0.00     0.033 C 
BRANCH  22  23
HETATM   23  C13 UNL     1      -1.714  -2.508  30.182  1.00  0.00     0.164 C 
BRANCH  23  24
HETATM   24  O1  UNL     1      -1.330  -3.765  30.560  1.00  0.00    -0.401 OA
ATOM     25  H1  UNL     1      -1.229  -3.943  31.488  1.00  0.00     0.209 HD
ENDBRANCH  23  24
ENDBRANCH  22  23
ENDBRANCH  11  22
TORSDOF 5
ENDMDL
MODEL 5
REMARK VINA RESULT: -7.067841744      3.925      6.337
REMARK  5 active torsions:
REMARK  status: ('A' for Active; 'I' for Inactive)
REMARK    1  A    between atoms: C11_11  and  C12_12 
REMARK    2  A    between atoms: C12_12  and  C13_13 
REMARK    3  A    between atoms: C13_13  and  O1_14 
REMARK    4  A    between atoms: C14_16  and  O2_17 
REMARK    5  A    between atoms: O2_17  and  S1_18 
ROOT
HETATM    1  C1  UNL     1       0.928   0.940  33.871  1.00  0.00     0.011 C 
HETATM    2  C2  UNL     1       2.232   1.157  33.184  1.00  0.00    -0.010 C 
HETATM    3  C3  UNL     1       2.427   2.581  32.702  1.00  0.00     0.005 C 
HETATM    4  C4  UNL     1       2.818   2.470  31.227  1.00  0.00     0.006 C 
HETATM    5  C5  UNL     1       1.962   1.270  30.903  1.00  0.00     0.003 C 
HETATM    6  C6  UNL     1       2.377   0.294  31.919  1.00  0.00    -0.036 C 
HETATM    7  C7  UNL     1       3.773  -0.183  31.916  1.00  0.00     0.016 C 
HETATM    8  C8  UNL     1       1.381  -0.827  31.887  1.00  0.00     0.010 C 
HETATM    9  C9  UNL     1       0.387  -0.698  30.768  1.00  0.00     0.007 C 
HETATM   10  C10 UNL     1       1.053  -0.404  29.427  1.00  0.00     0.001 C 
HETATM   11  C11 UNL     1      -0.044  -0.261  28.436  1.00  0.00     0.023 C 
HETATM   12  C14 UNL     1       0.348   0.403  27.145  1.00  0.00     0.149 C 
HETATM   13  C15 UNL     1       0.859   1.817  27.379  1.00  0.00     0.034 C 
HETATM   14  C16 UNL     1       1.134   2.037  28.815  1.00  0.00     0.012 C 
HETATM   15  C17 UNL     1       1.856   0.885  29.504  1.00  0.00    -0.035 C 
HETATM   16  C18 UNL     1       3.132   0.666  28.754  1.00  0.00     0.016 C 
ENDROOT
BRANCH  12  17
HETATM   17  O2  UNL     1      -0.811   0.421  26.365  1.00  0.00    -0.251 OA
BRANCH  17  18
HETATM   18  S1  UNL     1      -0.555   0.632  24.748  1.00  0.00     0.251 S 
HETATM   19  O3  UNL     1      -1.649   0.010  23.930  1.00  0.00    -0.572 OA
HETATM   20  O4  UNL     1       0.804   0.084  24.325  1.00  0.00    -0.572 OA
HETATM   21  O5  UNL     1      -0.498   2.278  24.418  1.00  0.00    -0.572 OA
ENDBRANCH  17  18
ENDBRANCH  12  17
BRANCH  11  22
HETATM   22  C12 UNL     1      -0.892  -1.441  28.187  1.00  0.00     0.033 C 
BRANCH  22  23
HETATM   23  C13 UNL     1      -2.345  -1.353  28.393  1.00  0.00     0.164 C 
BRANCH  23  24
HETATM   24  O1  UNL     1      -3.154  -1.351  27.289  1.00  0.00    -0.401 OA
ATOM     25  H1  UNL     1      -3.560  -2.170  27.030  1.00  0.00     0.209 HD
ENDBRANCH  23  24
ENDBRANCH  22  23
ENDBRANCH  11  22
TORSDOF 5
ENDMDL
