MODEL 1
REMARK VINA RESULT: -7.665216618      0.000      0.000
REMARK  6 active torsions:
REMARK  status: ('A' for Active; 'I' for Inactive)
REMARK    1  A    between atoms: C2_2  and  C4_4 
REMARK    2  A    between atoms: C5_6  and  O2_7 
REMARK    3  A    between atoms: O2_7  and  C6_8 
REMARK    4  A    between atoms: C6_8  and  C7_10 
REMARK    5  A    between atoms: C20_23  and  O4_24 
REMARK    6  A    between atoms: C21_26  and  O5_27 
ROOT
HETATM    1  C6  UNL     1       0.046   1.771  27.159  1.00  0.00     0.265 C 
HETATM    2  O3  UNL     1      -0.350   2.733  27.863  1.00  0.00    -0.265 OA
ENDROOT
BRANCH   1   3
HETATM    3  O2  UNL     1      -0.070   1.921  25.785  1.00  0.00    -0.287 OA
BRANCH   3   4
HETATM    4  C5  UNL     1       0.963   1.661  24.873  1.00  0.00     0.301 C 
HETATM    5  O1  UNL     1       0.750   0.622  24.019  1.00  0.00    -0.350 OA
HETATM    6  C4  UNL     1       1.227   0.942  22.767  1.00  0.00     0.159 C 
HETATM    7  C21 UNL     1       1.742   2.337  22.777  1.00  0.00     0.181 C 
HETATM    8  C20 UNL     1       1.174   2.910  24.051  1.00  0.00     0.205 C 
BRANCH   6   9
HETATM    9  C2  UNL     1       2.276   0.017  22.255  1.00  0.00     0.009 C 
HETATM   10  C1  UNL     1       1.790  -0.602  20.961  1.00  0.00     0.012 C 
HETATM   11  C3  UNL     1       2.693  -1.036  23.257  1.00  0.00     0.012 C 
ENDBRANCH   6   9
BRANCH   7  12
HETATM   12  O5  UNL     1       3.114   2.450  22.841  1.00  0.00    -0.390 OA
ATOM     13  H5  UNL     1       3.441   3.341  22.891  1.00  0.00     0.210 HD
ENDBRANCH   7  12
BRANCH   8  14
HETATM   14  O4  UNL     1      -0.009   3.550  23.770  1.00  0.00    -0.388 OA
ATOM     15  H4  UNL     1       0.051   4.085  22.987  1.00  0.00     0.210 HD
ENDBRANCH   8  14
ENDBRANCH   3   4
ENDBRANCH   1   3
BRANCH   1  16
HETATM   16  C7  UNL     1       0.607   0.548  27.788  1.00  0.00     0.086 C 
HETATM   17  C8  UNL     1      -0.492  -0.444  27.959  1.00  0.00     0.015 C 
HETATM   18  C9  UNL     1      -0.143  -1.679  28.691  1.00  0.00     0.007 C 
HETATM   19  C10 UNL     1       0.844  -1.577  29.784  1.00  0.00     0.001 C 
HETATM   20  C11 UNL     1       0.177  -1.758  31.120  1.00  0.00    -0.043 C 
HETATM   21  C17 UNL     1       1.778  -0.411  29.698  1.00  0.00    -0.039 C 
HETATM   22  C12 UNL     1      -0.481  -3.149  31.071  1.00  0.00     0.015 C 
HETATM   23  C13 UNL     1      -0.896  -0.784  31.430  1.00  0.00     0.015 C 
HETATM   24  C14 UNL     1       1.248  -1.849  32.172  1.00  0.00     0.009 C 
HETATM   25  C15 UNL     1       1.945  -0.507  32.213  1.00  0.00     0.002 C 
HETATM   26  C16 UNL     1       2.547  -0.113  30.918  1.00  0.00     0.010 C 
HETATM   27  C18 UNL     1       2.806  -0.774  28.604  1.00  0.00     0.015 C 
HETATM   28  C19 UNL     1       1.136   0.855  29.190  1.00  0.00     0.024 C 
ENDBRANCH   1  16
TORSDOF 6
ENDMDL
MODEL 2
REMARK VINA RESULT: -7.643604164      0.823      1.046
REMARK  6 active torsions:
REMARK  status: ('A' for Active; 'I' for Inactive)
REMARK    1  A    between atoms: C2_2  and  C4_4 
REMARK    2  A    between atoms: C5_6  and  O2_7 
REMARK    3  A    between atoms: O2_7  and  C6_8 
REMARK    4  A    between atoms: C6_8  and  C7_10 
REMARK    5  A    between atoms: C20_23  and  O4_24 
REMARK    6  A    between atoms: C21_26  and  O5_27 
ROOT
HETATM    1  C6  UNL     1       0.121   1.737  27.182  1.00  0.00     0.265 C 
HETATM    2  O3  UNL     1      -0.334   2.710  27.831  1.00  0.00    -0.265 OA
ENDROOT
BRANCH   1   3
HETATM    3  O2  UNL     1      -0.052   1.775  25.806  1.00  0.00    -0.287 OA
BRANCH   3   4
HETATM    4  C5  UNL     1       0.970   1.542  24.875  1.00  0.00     0.301 C 
HETATM    5  O1  UNL     1       0.735   0.548  23.975  1.00  0.00    -0.350 OA
HETATM    6  C4  UNL     1       1.209   0.919  22.737  1.00  0.00     0.159 C 
HETATM    7  C21 UNL     1       1.746   2.304  22.808  1.00  0.00     0.181 C 
HETATM    8  C20 UNL     1       1.196   2.825  24.111  1.00  0.00     0.205 C 
BRANCH   6   9
HETATM    9  C2  UNL     1       2.240   0.003  22.173  1.00  0.00     0.009 C 
HETATM   10  C1  UNL     1       1.714  -0.587  20.882  1.00  0.00     0.012 C 
HETATM   11  C3  UNL     1       2.684  -1.072  23.140  1.00  0.00     0.012 C 
ENDBRANCH   6   9
BRANCH   7  12
HETATM   12  O5  UNL     1       3.121   2.393  22.867  1.00  0.00    -0.390 OA
ATOM     13  H5  UNL     1       3.546   1.706  23.366  1.00  0.00     0.210 HD
ENDBRANCH   7  12
BRANCH   8  14
HETATM   14  O4  UNL     1       0.022   3.496  23.870  1.00  0.00    -0.388 OA
ATOM     15  H4  UNL     1       0.097   4.096  23.136  1.00  0.00     0.210 HD
ENDBRANCH   8  14
ENDBRANCH   3   4
ENDBRANCH   1   3
BRANCH   1  16
HETATM   16  C7  UNL     1       0.806   0.614  27.873  1.00  0.00     0.086 C 
HETATM   17  C8  UNL     1      -0.195  -0.115  28.702  1.00  0.00     0.015 C 
HETATM   18  C9  UNL     1       0.337  -1.189  29.565  1.00  0.00     0.007 C 
HETATM   19  C10 UNL     1       1.682  -1.005  30.146  1.00  0.00     0.001 C 
HETATM   20  C11 UNL     1       1.592  -0.761  31.628  1.00  0.00    -0.043 C 
HETATM   21  C17 UNL     1       2.576  -0.062  29.405  1.00  0.00    -0.039 C 
HETATM   22  C12 UNL     1       0.880  -1.996  32.210  1.00  0.00     0.015 C 
HETATM   23  C13 UNL     1       0.795   0.423  32.027  1.00  0.00     0.015 C 
HETATM   24  C14 UNL     1       2.984  -0.786  32.194  1.00  0.00     0.009 C 
HETATM   25  C15 UNL     1       3.724   0.395  31.605  1.00  0.00     0.002 C 
HETATM   26  C16 UNL     1       3.785   0.375  30.124  1.00  0.00     0.010 C 
HETATM   27  C18 UNL     1       3.060  -0.832  28.156  1.00  0.00     0.015 C 
HETATM   28  C19 UNL     1       1.868   1.142  28.839  1.00  0.00     0.024 C 
ENDBRANCH   1  16
TORSDOF 6
ENDMDL
MODEL 3
REMARK VINA RESULT: -7.614039583      2.737      7.189
REMARK  6 active torsions:
REMARK  status: ('A' for Active; 'I' for Inactive)
REMARK    1  A    between atoms: C2_2  and  C4_4 
REMARK    2  A    between atoms: C5_6  and  O2_7 
REMARK    3  A    between atoms: O2_7  and  C6_8 
REMARK    4  A    between atoms: C6_8  and  C7_10 
REMARK    5  A    between atoms: C20_23  and  O4_24 
REMARK    6  A    between atoms: C21_26  and  O5_27 
ROOT
HETATM    1  C6  UNL     1      -1.567  -0.743  24.907  1.00  0.00     0.265 C 
HETATM    2  O3  UNL     1      -1.971  -1.669  24.161  1.00  0.00    -0.265 OA
ENDROOT
BRANCH   1   3
HETATM    3  O2  UNL     1      -2.081  -0.717  26.195  1.00  0.00    -0.287 OA
BRANCH   3   4
HETATM    4  C5  UNL     1      -1.701  -1.603  27.213  1.00  0.00     0.301 C 
HETATM    5  O1  UNL     1      -1.037  -1.048  28.263  1.00  0.00    -0.350 OA
HETATM    6  C4  UNL     1      -1.457  -1.626  29.440  1.00  0.00     0.159 C 
HETATM    7  C21 UNL     1      -2.541  -2.602  29.151  1.00  0.00     0.181 C 
HETATM    8  C20 UNL     1      -2.956  -2.257  27.743  1.00  0.00     0.205 C 
BRANCH   6   9
HETATM    9  C2  UNL     1      -0.375  -2.285  30.223  1.00  0.00     0.009 C 
HETATM   10  C1  UNL     1      -0.817  -2.400  31.666  1.00  0.00     0.012 C 
HETATM   11  C3  UNL     1       0.964  -1.593  30.100  1.00  0.00     0.012 C 
ENDBRANCH   6   9
BRANCH   7  12
HETATM   12  O5  UNL     1      -2.151  -3.925  29.160  1.00  0.00    -0.390 OA
ATOM     13  H5  UNL     1      -2.482  -4.446  28.439  1.00  0.00     0.210 HD
ENDBRANCH   7  12
BRANCH   8  14
HETATM   14  O4  UNL     1      -4.015  -1.383  27.786  1.00  0.00    -0.388 OA
ATOM     15  H4  UNL     1      -4.806  -1.795  28.113  1.00  0.00     0.210 HD
ENDBRANCH   8  14
ENDBRANCH   3   4
ENDBRANCH   1   3
BRANCH   1  16
HETATM   16  C7  UNL     1      -0.590   0.261  24.413  1.00  0.00     0.086 C 
HETATM   17  C8  UNL     1       0.049  -0.267  23.174  1.00  0.00     0.015 C 
HETATM   18  C9  UNL     1       1.147   0.545  22.614  1.00  0.00     0.007 C 
HETATM   19  C10 UNL     1       2.016   1.276  23.558  1.00  0.00     0.001 C 
HETATM   20  C11 UNL     1       3.385   0.654  23.608  1.00  0.00    -0.043 C 
HETATM   21  C17 UNL     1       1.408   1.570  24.893  1.00  0.00    -0.039 C 
HETATM   22  C12 UNL     1       3.924   0.717  22.168  1.00  0.00     0.015 C 
HETATM   23  C13 UNL     1       3.419  -0.770  24.019  1.00  0.00     0.015 C 
HETATM   24  C14 UNL     1       4.279   1.550  24.419  1.00  0.00     0.009 C 
HETATM   25  C15 UNL     1       3.748   1.544  25.835  1.00  0.00     0.002 C 
HETATM   26  C16 UNL     1       2.344   2.007  25.942  1.00  0.00     0.010 C 
HETATM   27  C18 UNL     1       0.428   2.741  24.660  1.00  0.00     0.015 C 
HETATM   28  C19 UNL     1       0.535   0.465  25.429  1.00  0.00     0.024 C 
ENDBRANCH   1  16
TORSDOF 6
ENDMDL
MODEL 4
REMARK VINA RESULT: -7.515301564      1.920      3.367
REMARK  6 active torsions:
REMARK  status: ('A' for Active; 'I' for Inactive)
REMARK    1  A    between atoms: C2_2  and  C4_4 
REMARK    2  A    between atoms: C5_6  and  O2_7 
REMARK    3  A    between atoms: O2_7  and  C6_8 
REMARK    4  A    between atoms: C6_8  and  C7_10 
REMARK    5  A    between atoms: C20_23  and  O4_24 
REMARK    6  A    between atoms: C21_26  and  O5_27 
ROOT
HETATM    1  C6  UNL     1      -1.585  -0.803  24.731  1.00  0.00     0.265 C 
HETATM    2  O3  UNL     1      -1.866  -1.821  24.051  1.00  0.00    -0.265 OA
ENDROOT
BRANCH   1   3
HETATM    3  O2  UNL     1      -0.918   0.218  24.071  1.00  0.00    -0.287 OA
BRANCH   3   4
HETATM    4  C5  UNL     1       0.437   0.172  23.710  1.00  0.00     0.301 C 
HETATM    5  O1  UNL     1       0.691   0.041  22.379  1.00  0.00    -0.350 OA
HETATM    6  C4  UNL     1       1.770   0.823  22.032  1.00  0.00     0.159 C 
HETATM    7  C21 UNL     1       2.230   1.587  23.222  1.00  0.00     0.181 C 
HETATM    8  C20 UNL     1       1.082   1.450  24.189  1.00  0.00     0.205 C 
BRANCH   6   9
HETATM    9  C2  UNL     1       2.910   0.069  21.441  1.00  0.00     0.009 C 
HETATM   10  C1  UNL     1       3.494   0.880  20.304  1.00  0.00     0.012 C 
HETATM   11  C3  UNL     1       2.543  -1.330  20.999  1.00  0.00     0.012 C 
ENDBRANCH   6   9
BRANCH   7  12
HETATM   12  O5  UNL     1       3.357   1.085  23.836  1.00  0.00    -0.390 OA
ATOM     13  H5  UNL     1       4.139   1.615  23.735  1.00  0.00     0.210 HD
ENDBRANCH   7  12
BRANCH   8  14
HETATM   14  O4  UNL     1       0.246   2.533  24.054  1.00  0.00    -0.388 OA
ATOM     15  H4  UNL     1       0.511   3.103  23.341  1.00  0.00     0.210 HD
ENDBRANCH   8  14
ENDBRANCH   3   4
ENDBRANCH   1   3
BRANCH   1  16
HETATM   16  C7  UNL     1      -1.958  -0.721  26.167  1.00  0.00     0.086 C 
HETATM   17  C8  UNL     1      -0.970   0.150  26.865  1.00  0.00     0.015 C 
HETATM   18  C9  UNL     1      -1.110   0.242  28.332  1.00  0.00     0.007 C 
HETATM   19  C10 UNL     1      -1.578  -0.956  29.057  1.00  0.00     0.001 C 
HETATM   20  C11 UNL     1      -0.460  -1.561  29.862  1.00  0.00    -0.043 C 
HETATM   21  C17 UNL     1      -2.366  -1.932  28.241  1.00  0.00    -0.039 C 
HETATM   22  C12 UNL     1       0.005  -0.453  30.826  1.00  0.00     0.015 C 
HETATM   23  C13 UNL     1       0.729  -1.979  29.081  1.00  0.00     0.015 C 
HETATM   24  C14 UNL     1      -1.037  -2.643  30.731  1.00  0.00     0.009 C 
HETATM   25  C15 UNL     1      -1.544  -3.730  29.808  1.00  0.00     0.002 C 
HETATM   26  C16 UNL     1      -2.568  -3.259  28.847  1.00  0.00     0.010 C 
HETATM   27  C18 UNL     1      -3.767  -1.305  28.073  1.00  0.00     0.015 C 
HETATM   28  C19 UNL     1      -1.868  -2.097  26.828  1.00  0.00     0.024 C 
ENDBRANCH   1  16
TORSDOF 6
ENDMDL
MODEL 5
REMARK VINA RESULT: -7.330731958      2.874      7.641
REMARK  6 active torsions:
REMARK  status: ('A' for Active; 'I' for Inactive)
REMARK    1  A    between atoms: C2_2  and  C4_4 
REMARK    2  A    between atoms: C5_6  and  O2_7 
REMARK    3  A    between atoms: O2_7  and  C6_8 
REMARK    4  A    between atoms: C6_8  and  C7_10 
REMARK    5  A    between atoms: C20_23  and  O4_24 
REMARK    6  A    between atoms: C21_26  and  O5_27 
ROOT
HETATM    1  C6  UNL     1       3.342   1.055  28.647  1.00  0.00     0.265 C 
HETATM    2  O3  UNL     1       4.253   0.191  28.687  1.00  0.00    -0.265 OA
ENDROOT
BRANCH   1   3
HETATM    3  O2  UNL     1       2.866   1.510  29.868  1.00  0.00    -0.287 OA
BRANCH   3   4
HETATM    4  C5  UNL     1       2.002   0.782  30.699  1.00  0.00     0.301 C 
HETATM    5  O1  UNL     1       1.401  -0.297  30.128  1.00  0.00    -0.350 OA
HETATM    6  C4  UNL     1       1.349  -1.335  31.031  1.00  0.00     0.159 C 
HETATM    7  C21 UNL     1       2.032  -0.929  32.289  1.00  0.00     0.181 C 
HETATM    8  C20 UNL     1       2.804   0.301  31.885  1.00  0.00     0.205 C 
BRANCH   6   9
HETATM    9  C2  UNL     1      -0.028  -1.817  31.334  1.00  0.00     0.009 C 
HETATM   10  C1  UNL     1       0.002  -3.325  31.465  1.00  0.00     0.012 C 
HETATM   11  C3  UNL     1      -1.060  -1.362  30.328  1.00  0.00     0.012 C 
ENDBRANCH   6   9
BRANCH   7  12
HETATM   12  O5  UNL     1       1.189  -0.576  33.321  1.00  0.00    -0.390 OA
ATOM     13  H5  UNL     1       1.558   0.033  33.949  1.00  0.00     0.210 HD
ENDBRANCH   7  12
BRANCH   8  14
HETATM   14  O4  UNL     1       4.081  -0.063  31.533  1.00  0.00    -0.388 OA
ATOM     15  H4  UNL     1       4.689   0.019  32.258  1.00  0.00     0.210 HD
ENDBRANCH   8  14
ENDBRANCH   3   4
ENDBRANCH   1   3
BRANCH   1  16
HETATM   16  C7  UNL     1       2.819   1.550  27.348  1.00  0.00     0.086 C 
HETATM   17  C8  UNL     1       1.860   0.544  26.808  1.00  0.00     0.015 C 
HETATM   18  C9  UNL     1       1.337   0.810  25.453  1.00  0.00     0.007 C 
HETATM   19  C10 UNL     1       2.234   1.469  24.483  1.00  0.00     0.001 C 
HETATM   20  C11 UNL     1       2.661   0.502  23.413  1.00  0.00    -0.043 C 
HETATM   21  C17 UNL     1       3.342   2.277  25.082  1.00  0.00    -0.039 C 
HETATM   22  C12 UNL     1       1.361   0.014  22.750  1.00  0.00     0.015 C 
HETATM   23  C13 UNL     1       3.376  -0.703  23.897  1.00  0.00     0.015 C 
HETATM   24  C14 UNL     1       3.399   1.270  22.352  1.00  0.00     0.009 C 
HETATM   25  C15 UNL     1       4.665   1.801  22.987  1.00  0.00     0.002 C 
HETATM   26  C16 UNL     1       4.417   2.675  24.158  1.00  0.00     0.010 C 
HETATM   27  C18 UNL     1       2.687   3.582  25.586  1.00  0.00     0.015 C 
HETATM   28  C19 UNL     1       3.946   1.670  26.322  1.00  0.00     0.024 C 
ENDBRANCH   1  16
TORSDOF 6
ENDMDL
