MODEL 1
REMARK VINA RESULT: -7.052238028      0.000      0.000
REMARK  6 active torsions:
REMARK  status: ('A' for Active; 'I' for Inactive)
REMARK    1  A    between atoms: S1_2  and  C2_3 
REMARK       I    between atoms: C2_3  and  N1_5 
REMARK    2  A    between atoms: N1_5  and  C3_7 
REMARK    3  A    between atoms: C3_7  and  C4_8 
REMARK    4  A    between atoms: C4_8  and  C5_9 
REMARK    5  A    between atoms: C5_9  and  N2_10 
REMARK    6  A    between atoms: C13_19  and  O2_20 
ROOT
HETATM    1  N2  UNL     1       0.821  -1.057  30.908  1.00  0.00    -0.393 N 
ATOM      2  H2  UNL     1       0.818  -0.941  31.920  1.00  0.00     0.159 HD
HETATM    3  C6  UNL     1       1.590  -0.316  30.241  1.00  0.00     0.024 C 
HETATM    4  C7  UNL     1       1.735  -0.335  28.763  1.00  0.00     0.069 C 
HETATM    5  C8  UNL     1       3.212  -0.628  28.472  1.00  0.00     0.018 C 
HETATM    6  C9  UNL     1       4.067   0.398  29.149  1.00  0.00    -0.010 C 
HETATM    7  C10 UNL     1       3.761   1.772  28.615  1.00  0.00     0.012 C 
HETATM    8  C11 UNL     1       2.294   2.067  28.892  1.00  0.00     0.024 C 
HETATM    9  C12 UNL     1       2.085   2.040  30.387  1.00  0.00     0.052 C 
HETATM   10  C13 UNL     1       2.444   0.680  30.973  1.00  0.00     0.097 C 
HETATM   11  C14 UNL     1       3.901   0.433  30.644  1.00  0.00     0.048 C 
HETATM   12  C15 UNL     1       1.478   1.048  28.159  1.00  0.00     0.073 C 
HETATM   13  C16 UNL     1       0.010   1.368  28.122  1.00  0.00     0.039 C 
HETATM   14  C17 UNL     1      -0.536   0.879  26.792  1.00  0.00     0.005 C 
HETATM   15  C18 UNL     1       0.069   1.669  25.645  1.00  0.00     0.026 C 
HETATM   16  C19 UNL     1       1.486   2.041  26.078  1.00  0.00     0.168 C 
HETATM   17  O3  UNL     1       1.958   0.988  26.850  1.00  0.00    -0.379 OA
ENDROOT
BRANCH   1  18
HETATM   18  C5  UNL     1      -0.040  -2.039  30.361  1.00  0.00     0.121 C 
BRANCH  18  19
HETATM   19  C4  UNL     1      -1.396  -1.495  29.980  1.00  0.00     0.039 C 
BRANCH  19  20
HETATM   20  C3  UNL     1      -2.089  -2.551  29.145  1.00  0.00     0.125 C 
BRANCH  20  21
HETATM   21  N1  UNL     1      -2.135  -2.200  27.752  1.00  0.00    -0.352 N 
HETATM   22  C2  UNL     1      -3.299  -1.631  27.201  1.00  0.00     0.279 C 
HETATM   23  O1  UNL     1      -4.299  -1.427  27.912  1.00  0.00    -0.260 OA
ATOM     24  H1  UNL     1      -1.320  -2.364  27.160  1.00  0.00     0.163 HD
BRANCH  22  25
HETATM   25  S1  UNL     1      -3.347  -1.199  25.472  1.00  0.00    -0.074 SA
HETATM   26  C1  UNL     1      -1.908  -1.890  24.624  1.00  0.00     0.100 C 
ENDBRANCH  22  25
ENDBRANCH  20  21
ENDBRANCH  19  20
ENDBRANCH  18  19
ENDBRANCH   1  18
BRANCH  10  27
HETATM   27  O2  UNL     1       2.207   0.690  32.325  1.00  0.00    -0.384 OA
ATOM     28  H2  UNL     1       2.120  -0.184  32.689  1.00  0.00     0.211 HD
ENDBRANCH  10  27
TORSDOF 6
ENDMDL
MODEL 2
REMARK VINA RESULT: -7.038049152      2.441      5.178
REMARK  6 active torsions:
REMARK  status: ('A' for Active; 'I' for Inactive)
REMARK    1  A    between atoms: S1_2  and  C2_3 
REMARK       I    between atoms: C2_3  and  N1_5 
REMARK    2  A    between atoms: N1_5  and  C3_7 
REMARK    3  A    between atoms: C3_7  and  C4_8 
REMARK    4  A    between atoms: C4_8  and  C5_9 
REMARK    5  A    between atoms: C5_9  and  N2_10 
REMARK    6  A    between atoms: C13_19  and  O2_20 
ROOT
HETATM    1  N2  UNL     1      -0.771  -0.475  24.195  1.00  0.00    -0.393 N 
ATOM      2  H2  UNL     1      -0.675  -1.188  23.472  1.00  0.00     0.159 HD
HETATM    3  C6  UNL     1       0.171   0.351  24.325  1.00  0.00     0.024 C 
HETATM    4  C7  UNL     1       0.216   1.455  25.315  1.00  0.00     0.069 C 
HETATM    5  C8  UNL     1       0.368   2.756  24.515  1.00  0.00     0.018 C 
HETATM    6  C9  UNL     1       1.587   2.670  23.651  1.00  0.00    -0.010 C 
HETATM    7  C10 UNL     1       2.821   2.510  24.498  1.00  0.00     0.012 C 
HETATM    8  C11 UNL     1       2.675   1.227  25.303  1.00  0.00     0.024 C 
HETATM    9  C12 UNL     1       2.567   0.076  24.332  1.00  0.00     0.052 C 
HETATM   10  C13 UNL     1       1.361   0.234  23.415  1.00  0.00     0.097 C 
HETATM   11  C14 UNL     1       1.551   1.535  22.665  1.00  0.00     0.048 C 
HETATM   12  C15 UNL     1       1.474   1.375  26.185  1.00  0.00     0.073 C 
HETATM   13  C16 UNL     1       1.356   0.298  27.225  1.00  0.00     0.039 C 
HETATM   14  C17 UNL     1       0.749   0.922  28.469  1.00  0.00     0.005 C 
HETATM   15  C18 UNL     1       1.696   1.947  29.068  1.00  0.00     0.026 C 
HETATM   16  C19 UNL     1       2.456   2.567  27.897  1.00  0.00     0.168 C 
HETATM   17  O3  UNL     1       1.574   2.611  26.826  1.00  0.00    -0.379 OA
ENDROOT
BRANCH   1  18
HETATM   18  C5  UNL     1      -1.952  -0.493  24.976  1.00  0.00     0.121 C 
BRANCH  18  19
HETATM   19  C4  UNL     1      -2.129  -1.772  25.758  1.00  0.00     0.039 C 
BRANCH  19  20
HETATM   20  C3  UNL     1      -2.911  -1.433  27.009  1.00  0.00     0.125 C 
BRANCH  20  21
HETATM   21  N1  UNL     1      -2.056  -1.219  28.144  1.00  0.00    -0.352 N 
HETATM   22  C2  UNL     1      -1.865  -2.242  29.092  1.00  0.00     0.279 C 
HETATM   23  O1  UNL     1      -2.433  -3.341  28.958  1.00  0.00    -0.260 OA
ATOM     24  H1  UNL     1      -1.586  -0.321  28.265  1.00  0.00     0.163 HD
BRANCH  22  25
HETATM   25  S1  UNL     1      -0.802  -1.968  30.498  1.00  0.00    -0.074 SA
HETATM   26  C1  UNL     1      -0.358  -3.550  31.252  1.00  0.00     0.100 C 
ENDBRANCH  22  25
ENDBRANCH  20  21
ENDBRANCH  19  20
ENDBRANCH  18  19
ENDBRANCH   1  18
BRANCH  10  27
HETATM   27  O2  UNL     1       1.283  -0.848  22.574  1.00  0.00    -0.384 OA
ATOM     28  H2  UNL     1       0.838  -0.648  21.759  1.00  0.00     0.211 HD
ENDBRANCH  10  27
TORSDOF 6
ENDMDL
MODEL 3
REMARK VINA RESULT: -6.974990515      1.767      4.074
REMARK  6 active torsions:
REMARK  status: ('A' for Active; 'I' for Inactive)
REMARK    1  A    between atoms: S1_2  and  C2_3 
REMARK       I    between atoms: C2_3  and  N1_5 
REMARK    2  A    between atoms: N1_5  and  C3_7 
REMARK    3  A    between atoms: C3_7  and  C4_8 
REMARK    4  A    between atoms: C4_8  and  C5_9 
REMARK    5  A    between atoms: C5_9  and  N2_10 
REMARK    6  A    between atoms: C13_19  and  O2_20 
ROOT
HETATM    1  N2  UNL     1       1.773   2.237  27.882  1.00  0.00    -0.393 N 
ATOM      2  H2  UNL     1       2.344   2.469  27.069  1.00  0.00     0.159 HD
HETATM    3  C6  UNL     1       2.373   1.858  28.922  1.00  0.00     0.024 C 
HETATM    4  C7  UNL     1       1.721   1.479  30.200  1.00  0.00     0.069 C 
HETATM    5  C8  UNL     1       2.293   2.408  31.278  1.00  0.00     0.018 C 
HETATM    6  C9  UNL     1       3.785   2.285  31.302  1.00  0.00    -0.010 C 
HETATM    7  C10 UNL     1       4.190   0.878  31.652  1.00  0.00     0.012 C 
HETATM    8  C11 UNL     1       3.618  -0.052  30.593  1.00  0.00     0.024 C 
HETATM    9  C12 UNL     1       4.212   0.335  29.260  1.00  0.00     0.052 C 
HETATM   10  C13 UNL     1       3.873   1.775  28.899  1.00  0.00     0.097 C 
HETATM   11  C14 UNL     1       4.443   2.647  29.999  1.00  0.00     0.048 C 
HETATM   12  C15 UNL     1       2.126   0.068  30.637  1.00  0.00     0.073 C 
HETATM   13  C16 UNL     1       1.415  -0.983  29.832  1.00  0.00     0.039 C 
HETATM   14  C17 UNL     1       0.123  -1.321  30.555  1.00  0.00     0.005 C 
HETATM   15  C18 UNL     1       0.416  -1.978  31.892  1.00  0.00     0.026 C 
HETATM   16  C19 UNL     1       1.722  -1.367  32.395  1.00  0.00     0.168 C 
HETATM   17  O3  UNL     1       1.735  -0.045  31.972  1.00  0.00    -0.379 OA
ENDROOT
BRANCH   1  18
HETATM   18  C5  UNL     1       0.369   2.364  27.751  1.00  0.00     0.121 C 
BRANCH  18  19
HETATM   19  C4  UNL     1      -0.145   1.921  26.403  1.00  0.00     0.039 C 
BRANCH  19  20
HETATM   20  C3  UNL     1      -0.139   0.407  26.391  1.00  0.00     0.125 C 
BRANCH  20  21
HETATM   21  N1  UNL     1      -1.114  -0.149  27.288  1.00  0.00    -0.352 N 
HETATM   22  C2  UNL     1      -1.996  -1.152  26.845  1.00  0.00     0.279 C 
HETATM   23  O1  UNL     1      -1.943  -1.568  25.674  1.00  0.00    -0.260 OA
ATOM     24  H1  UNL     1      -1.168   0.186  28.251  1.00  0.00     0.163 HD
BRANCH  22  25
HETATM   25  S1  UNL     1      -3.203  -1.837  27.965  1.00  0.00    -0.074 SA
HETATM   26  C1  UNL     1      -2.517  -3.287  28.799  1.00  0.00     0.100 C 
ENDBRANCH  22  25
ENDBRANCH  20  21
ENDBRANCH  19  20
ENDBRANCH  18  19
ENDBRANCH   1  18
BRANCH  10  27
HETATM   27  O2  UNL     1       4.402   2.074  27.668  1.00  0.00    -0.384 OA
ATOM     28  H2  UNL     1       5.301   2.379  27.719  1.00  0.00     0.211 HD
ENDBRANCH  10  27
TORSDOF 6
ENDMDL
MODEL 4
REMARK VINA RESULT: -6.919604381      2.902      4.854
REMARK  6 active torsions:
REMARK  status: ('A' for Active; 'I' for Inactive)
REMARK    1  A    between atoms: S1_2  and  C2_3 
REMARK       I    between atoms: C2_3  and  N1_5 
REMARK    2  A    between atoms: N1_5  and  C3_7 
REMARK    3  A    between atoms: C3_7  and  C4_8 
REMARK    4  A    between atoms: C4_8  and  C5_9 
REMARK    5  A    between atoms: C5_9  and  N2_10 
REMARK    6  A    between atoms: C13_19  and  O2_20 
ROOT
HETATM    1  N2  UNL     1       1.696   2.121  27.797  1.00  0.00    -0.393 N 
ATOM      2  H2  UNL     1       2.254   2.341  26.973  1.00  0.00     0.159 HD
HETATM    3  C6  UNL     1       2.311   1.772  28.839  1.00  0.00     0.024 C 
HETATM    4  C7  UNL     1       1.677   1.415  30.133  1.00  0.00     0.069 C 
HETATM    5  C8  UNL     1       2.253   2.373  31.183  1.00  0.00     0.018 C 
HETATM    6  C9  UNL     1       3.746   2.265  31.192  1.00  0.00    -0.010 C 
HETATM    7  C10 UNL     1       4.168   0.869  31.569  1.00  0.00     0.012 C 
HETATM    8  C11 UNL     1       3.593  -0.089  30.537  1.00  0.00     0.024 C 
HETATM    9  C12 UNL     1       4.167   0.273  29.189  1.00  0.00     0.052 C 
HETATM   10  C13 UNL     1       3.811   1.702  28.800  1.00  0.00     0.097 C 
HETATM   11  C14 UNL     1       4.385   2.603  29.873  1.00  0.00     0.048 C 
HETATM   12  C15 UNL     1       2.101   0.018  30.596  1.00  0.00     0.073 C 
HETATM   13  C16 UNL     1       1.390  -1.057  29.823  1.00  0.00     0.039 C 
HETATM   14  C17 UNL     1       0.109  -1.391  30.568  1.00  0.00     0.005 C 
HETATM   15  C18 UNL     1       0.424  -2.015  31.916  1.00  0.00     0.026 C 
HETATM   16  C19 UNL     1       1.731  -1.381  32.391  1.00  0.00     0.168 C 
HETATM   17  O3  UNL     1       1.726  -0.069  31.937  1.00  0.00    -0.379 OA
ENDROOT
BRANCH   1  18
HETATM   18  C5  UNL     1       0.289   2.233  27.681  1.00  0.00     0.121 C 
BRANCH  18  19
HETATM   19  C4  UNL     1      -0.320   1.172  26.796  1.00  0.00     0.039 C 
BRANCH  19  20
HETATM   20  C3  UNL     1       0.051   1.506  25.367  1.00  0.00     0.125 C 
BRANCH  20  21
HETATM   21  N1  UNL     1       0.915   0.517  24.783  1.00  0.00    -0.352 N 
HETATM   22  C2  UNL     1       2.288   0.781  24.622  1.00  0.00     0.279 C 
HETATM   23  O1  UNL     1       2.768   1.871  24.980  1.00  0.00    -0.260 OA
ATOM     24  H1  UNL     1       0.532  -0.380  24.484  1.00  0.00     0.163 HD
BRANCH  22  25
HETATM   25  S1  UNL     1       3.354  -0.451  23.896  1.00  0.00    -0.074 SA
HETATM   26  C1  UNL     1       2.634  -1.056  22.352  1.00  0.00     0.100 C 
ENDBRANCH  22  25
ENDBRANCH  20  21
ENDBRANCH  19  20
ENDBRANCH  18  19
ENDBRANCH   1  18
BRANCH  10  27
HETATM   27  O2  UNL     1       4.323   1.978  27.557  1.00  0.00    -0.384 OA
ATOM     28  H2  UNL     1       5.030   2.612  27.583  1.00  0.00     0.211 HD
ENDBRANCH  10  27
TORSDOF 6
ENDMDL
MODEL 5
REMARK VINA RESULT: -6.914761875      3.058      5.006
REMARK  6 active torsions:
REMARK  status: ('A' for Active; 'I' for Inactive)
REMARK    1  A    between atoms: S1_2  and  C2_3 
REMARK       I    between atoms: C2_3  and  N1_5 
REMARK    2  A    between atoms: N1_5  and  C3_7 
REMARK    3  A    between atoms: C3_7  and  C4_8 
REMARK    4  A    between atoms: C4_8  and  C5_9 
REMARK    5  A    between atoms: C5_9  and  N2_10 
REMARK    6  A    between atoms: C13_19  and  O2_20 
ROOT
HETATM    1  N2  UNL     1       1.587  -0.073  30.067  1.00  0.00    -0.393 N 
ATOM      2  H2  UNL     1       1.797   0.537  30.857  1.00  0.00     0.159 HD
HETATM    3  C6  UNL     1       1.505   0.460  28.929  1.00  0.00     0.024 C 
HETATM    4  C7  UNL     1       1.209  -0.257  27.664  1.00  0.00     0.069 C 
HETATM    5  C8  UNL     1       2.392   0.005  26.724  1.00  0.00     0.018 C 
HETATM    6  C9  UNL     1       2.576   1.481  26.553  1.00  0.00    -0.010 C 
HETATM    7  C10 UNL     1       1.353   2.093  25.925  1.00  0.00     0.012 C 
HETATM    8  C11 UNL     1       0.171   1.830  26.847  1.00  0.00     0.024 C 
HETATM    9  C12 UNL     1       0.454   2.494  28.172  1.00  0.00     0.052 C 
HETATM   10  C13 UNL     1       1.722   1.942  28.811  1.00  0.00     0.097 C 
HETATM   11  C14 UNL     1       2.852   2.209  27.839  1.00  0.00     0.048 C 
HETATM   12  C15 UNL     1      -0.005   0.346  26.951  1.00  0.00     0.073 C 
HETATM   13  C16 UNL     1      -1.290  -0.061  27.614  1.00  0.00     0.039 C 
HETATM   14  C17 UNL     1      -1.763  -1.345  26.954  1.00  0.00     0.005 C 
HETATM   15  C18 UNL     1      -2.129  -1.095  25.502  1.00  0.00     0.026 C 
HETATM   16  C19 UNL     1      -1.196   0.009  25.006  1.00  0.00     0.168 C 
HETATM   17  O3  UNL     1       0.018  -0.171  25.655  1.00  0.00    -0.379 OA
ENDROOT
BRANCH   1  18
HETATM   18  C5  UNL     1       1.407  -1.451  30.336  1.00  0.00     0.121 C 
BRANCH  18  19
HETATM   19  C4  UNL     1       0.926  -1.725  31.741  1.00  0.00     0.039 C 
BRANCH  19  20
HETATM   20  C3  UNL     1       2.049  -1.351  32.685  1.00  0.00     0.125 C 
BRANCH  20  21
HETATM   21  N1  UNL     1       1.693  -0.258  33.549  1.00  0.00    -0.352 N 
HETATM   22  C2  UNL     1       2.239   1.022  33.335  1.00  0.00     0.279 C 
HETATM   23  O1  UNL     1       3.033   1.221  32.399  1.00  0.00    -0.260 OA
ATOM     24  H1  UNL     1       1.043  -0.411  34.320  1.00  0.00     0.163 HD
BRANCH  22  25
HETATM   25  S1  UNL     1       1.792   2.372  34.411  1.00  0.00    -0.074 SA
HETATM   26  C1  UNL     1       0.250   1.987  35.274  1.00  0.00     0.100 C 
ENDBRANCH  22  25
ENDBRANCH  20  21
ENDBRANCH  19  20
ENDBRANCH  18  19
ENDBRANCH   1  18
BRANCH  10  27
HETATM   27  O2  UNL     1       1.923   2.548  30.026  1.00  0.00    -0.384 OA
ATOM     28  H2  UNL     1       1.585   3.435  30.054  1.00  0.00     0.211 HD
ENDBRANCH  10  27
TORSDOF 6
ENDMDL
