MODEL 1
REMARK VINA RESULT: -6.634952361      0.000      0.000
REMARK  10 active torsions:
REMARK  status: ('A' for Active; 'I' for Inactive)
REMARK    1  A    between atoms: O1_2  and  C2_3 
REMARK    2  A    between atoms: C2_3  and  C4_5 
REMARK    3  A    between atoms: C4_5  and  N1_6 
REMARK    4  A    between atoms: C4_5  and  C12_21 
REMARK    5  A    between atoms: N1_6  and  C5_8 
REMARK    6  A    between atoms: C5_8  and  C6_9 
REMARK    7  A    between atoms: C6_9  and  N2_10 
REMARK    8  A    between atoms: C9_14  and  O2_15 
REMARK    9  A    between atoms: C15_24  and  S1_25 
REMARK   10  A    between atoms: S1_25  and  C16_26 
ROOT
HETATM    1  C4  UNL     1      36.848  -8.767  50.414  1.00  0.00     0.140 C 
ENDROOT
BRANCH   1   2
HETATM    2  C2  UNL     1      37.057  -9.159  51.830  1.00  0.00     0.143 C 
HETATM    3  C3  UNL     1      38.095  -8.207  52.490  1.00  0.00     0.042 C 
BRANCH   2   4
HETATM    4  O1  UNL     1      37.569 -10.447  51.932  1.00  0.00    -0.389 OA
HETATM    5  C1  UNL     1      38.558 -10.536  52.920  1.00  0.00     0.202 C 
ENDBRANCH   2   4
ENDBRANCH   1   2
BRANCH   1   6
HETATM    6  N1  UNL     1      35.966  -9.553  49.627  1.00  0.00    -0.409 N 
ATOM      7  H1  UNL     1      35.084  -9.852  50.042  1.00  0.00     0.154 HD
BRANCH   6   8
HETATM    8  C5  UNL     1      36.240  -9.935  48.325  1.00  0.00     0.134 C 
BRANCH   8   9
HETATM    9  C6  UNL     1      34.988  -9.687  47.431  1.00  0.00     0.140 C 
BRANCH   9  10
HETATM   10  N2  UNL     1      34.879  -8.306  47.122  1.00  0.00    -0.372 N 
HETATM   11  C7  UNL     1      33.977  -7.474  47.415  1.00  0.00     0.125 C 
HETATM   12  C8  UNL     1      32.747  -7.712  48.183  1.00  0.00     0.116 C 
HETATM   13  O4  UNL     1      34.165  -6.155  46.953  1.00  0.00    -0.266 OA
HETATM   14  C9  UNL     1      31.596  -7.133  47.363  1.00  0.00     0.135 C 
HETATM   15  C10 UNL     1      31.730  -5.643  47.252  1.00  0.00     0.143 C 
HETATM   16  C11 UNL     1      33.072  -5.294  46.775  1.00  0.00     0.267 C 
HETATM   17  O3  UNL     1      33.226  -4.178  46.190  1.00  0.00    -0.265 OA
ATOM     18  H2  UNL     1      35.652  -7.925  46.576  1.00  0.00     0.161 HD
BRANCH  14  19
HETATM   19  O2  UNL     1      30.403  -7.468  48.015  1.00  0.00    -0.395 OA
ATOM     20  H2  UNL     1      30.131  -6.711  48.521  1.00  0.00     0.210 HD
ENDBRANCH  14  19
ENDBRANCH   9  10
ENDBRANCH   8   9
ENDBRANCH   6   8
ENDBRANCH   1   6
BRANCH   1  21
HETATM   21  C12 UNL     1      36.275  -7.361  50.277  1.00  0.00    -0.012 A 
HETATM   22  C13 UNL     1      35.100  -6.978  50.844  1.00  0.00     0.012 A 
HETATM   23  C14 UNL     1      34.580  -5.701  50.651  1.00  0.00     0.019 A 
HETATM   24  C15 UNL     1      35.256  -4.760  49.859  1.00  0.00     0.002 A 
HETATM   25  C21 UNL     1      36.428  -5.176  49.308  1.00  0.00     0.043 A 
HETATM   26  C22 UNL     1      36.960  -6.439  49.488  1.00  0.00     0.043 A 
HETATM   27 CL1  UNL     1      38.478  -6.942  48.790  1.00  0.00    -0.084 Cl
BRANCH  24  28
HETATM   28  S1  UNL     1      34.565  -3.150  49.650  1.00  0.00    -0.125 SA
BRANCH  28  29
HETATM   29  C16 UNL     1      35.303  -1.842  50.585  1.00  0.00     0.052 C 
HETATM   30  C17 UNL     1      36.695  -2.267  51.027  1.00  0.00     0.015 C 
HETATM   31  C18 UNL     1      37.469  -0.984  51.145  1.00  0.00     0.001 C 
HETATM   32  C19 UNL     1      36.726   0.080  50.384  1.00  0.00     0.001 C 
HETATM   33  C20 UNL     1      35.406  -0.510  49.935  1.00  0.00     0.015 C 
ENDBRANCH  28  29
ENDBRANCH  24  28
ENDBRANCH   1  21
TORSDOF 10
ENDMDL
MODEL 2
REMARK VINA RESULT: -6.482158786      1.857      2.899
REMARK  10 active torsions:
REMARK  status: ('A' for Active; 'I' for Inactive)
REMARK    1  A    between atoms: O1_2  and  C2_3 
REMARK    2  A    between atoms: C2_3  and  C4_5 
REMARK    3  A    between atoms: C4_5  and  N1_6 
REMARK    4  A    between atoms: C4_5  and  C12_21 
REMARK    5  A    between atoms: N1_6  and  C5_8 
REMARK    6  A    between atoms: C5_8  and  C6_9 
REMARK    7  A    between atoms: C6_9  and  N2_10 
REMARK    8  A    between atoms: C9_14  and  O2_15 
REMARK    9  A    between atoms: C15_24  and  S1_25 
REMARK   10  A    between atoms: S1_25  and  C16_26 
ROOT
HETATM    1  C4  UNL     1      37.221  -8.397  51.964  1.00  0.00     0.140 C 
ENDROOT
BRANCH   1   2
HETATM    2  C2  UNL     1      37.464  -8.301  53.425  1.00  0.00     0.143 C 
HETATM    3  C3  UNL     1      38.463  -9.409  53.864  1.00  0.00     0.042 C 
BRANCH   2   4
HETATM    4  O1  UNL     1      36.296  -8.499  54.151  1.00  0.00    -0.389 OA
HETATM    5  C1  UNL     1      36.311  -7.796  55.362  1.00  0.00     0.202 C 
ENDBRANCH   2   4
ENDBRANCH   1   2
BRANCH   1   6
HETATM    6  N1  UNL     1      36.412  -9.464  51.491  1.00  0.00    -0.409 N 
ATOM      7  H1  UNL     1      35.399  -9.374  51.570  1.00  0.00     0.154 HD
BRANCH   6   8
HETATM    8  C5  UNL     1      36.925 -10.620  50.929  1.00  0.00     0.134 C 
BRANCH   8   9
HETATM    9  C6  UNL     1      35.916 -11.190  49.888  1.00  0.00     0.140 C 
BRANCH   9  10
HETATM   10  N2  UNL     1      35.193 -10.129  49.281  1.00  0.00    -0.372 N 
HETATM   11  C7  UNL     1      35.547  -9.305  48.394  1.00  0.00     0.125 C 
HETATM   12  C8  UNL     1      36.849  -9.210  47.721  1.00  0.00     0.116 C 
HETATM   13  O4  UNL     1      34.581  -8.358  47.996  1.00  0.00    -0.266 OA
HETATM   14  C9  UNL     1      37.287  -7.750  47.810  1.00  0.00     0.135 C 
HETATM   15  C10 UNL     1      36.353  -6.876  47.026  1.00  0.00     0.143 C 
HETATM   16  C11 UNL     1      34.966  -7.137  47.425  1.00  0.00     0.267 C 
HETATM   17  O3  UNL     1      34.108  -6.219  47.239  1.00  0.00    -0.265 OA
ATOM     18  H2  UNL     1      34.236 -10.016  49.615  1.00  0.00     0.161 HD
BRANCH  14  19
HETATM   19  O2  UNL     1      38.584  -7.665  47.292  1.00  0.00    -0.395 OA
ATOM     20  H2  UNL     1      39.170  -8.074  47.917  1.00  0.00     0.210 HD
ENDBRANCH  14  19
ENDBRANCH   9  10
ENDBRANCH   8   9
ENDBRANCH   6   8
ENDBRANCH   1   6
BRANCH   1  21
HETATM   21  C12 UNL     1      36.524  -7.162  51.406  1.00  0.00    -0.012 A 
HETATM   22  C13 UNL     1      35.172  -7.056  51.292  1.00  0.00     0.012 A 
HETATM   23  C14 UNL     1      34.574  -5.934  50.726  1.00  0.00     0.019 A 
HETATM   24  C15 UNL     1      35.351  -4.866  50.251  1.00  0.00     0.002 A 
HETATM   25  C21 UNL     1      36.698  -5.004  50.381  1.00  0.00     0.043 A 
HETATM   26  C22 UNL     1      37.310  -6.109  50.940  1.00  0.00     0.043 A 
HETATM   27 CL1  UNL     1      39.040  -6.253  51.117  1.00  0.00    -0.084 Cl
BRANCH  24  28
HETATM   28  S1  UNL     1      34.549  -3.459  49.550  1.00  0.00    -0.125 SA
BRANCH  28  29
HETATM   29  C16 UNL     1      34.830  -1.906  50.349  1.00  0.00     0.052 C 
HETATM   30  C17 UNL     1      36.269  -1.845  50.834  1.00  0.00     0.015 C 
HETATM   31  C18 UNL     1      36.618  -0.384  50.823  1.00  0.00     0.001 C 
HETATM   32  C19 UNL     1      35.614   0.328  49.957  1.00  0.00     0.001 C 
HETATM   33  C20 UNL     1      34.548  -0.673  49.568  1.00  0.00     0.015 C 
ENDBRANCH  28  29
ENDBRANCH  24  28
ENDBRANCH   1  21
TORSDOF 10
ENDMDL
MODEL 3
REMARK VINA RESULT: -6.457329920      1.702      2.134
REMARK  10 active torsions:
REMARK  status: ('A' for Active; 'I' for Inactive)
REMARK    1  A    between atoms: O1_2  and  C2_3 
REMARK    2  A    between atoms: C2_3  and  C4_5 
REMARK    3  A    between atoms: C4_5  and  N1_6 
REMARK    4  A    between atoms: C4_5  and  C12_21 
REMARK    5  A    between atoms: N1_6  and  C5_8 
REMARK    6  A    between atoms: C5_8  and  C6_9 
REMARK    7  A    between atoms: C6_9  and  N2_10 
REMARK    8  A    between atoms: C9_14  and  O2_15 
REMARK    9  A    between atoms: C15_24  and  S1_25 
REMARK   10  A    between atoms: S1_25  and  C16_26 
ROOT
HETATM    1  C4  UNL     1      36.858  -8.948  49.483  1.00  0.00     0.140 C 
ENDROOT
BRANCH   1   2
HETATM    2  C2  UNL     1      37.971  -9.820  49.935  1.00  0.00     0.143 C 
HETATM    3  C3  UNL     1      38.577 -10.571  48.715  1.00  0.00     0.042 C 
BRANCH   2   4
HETATM    4  O1  UNL     1      37.529 -10.790  50.827  1.00  0.00    -0.389 OA
HETATM    5  C1  UNL     1      38.274 -10.784  52.013  1.00  0.00     0.202 C 
ENDBRANCH   2   4
ENDBRANCH   1   2
BRANCH   1   6
HETATM    6  N1  UNL     1      35.539  -9.286  49.885  1.00  0.00    -0.409 N 
ATOM      7  H1  UNL     1      35.321  -9.280  50.882  1.00  0.00     0.154 HD
BRANCH   6   8
HETATM    8  C5  UNL     1      34.534  -9.624  48.997  1.00  0.00     0.134 C 
BRANCH   8   9
HETATM    9  C6  UNL     1      33.219  -8.884  49.387  1.00  0.00     0.140 C 
BRANCH   9  10
HETATM   10  N2  UNL     1      33.409  -7.480  49.306  1.00  0.00    -0.372 N 
HETATM   11  C7  UNL     1      33.008  -6.652  48.443  1.00  0.00     0.125 C 
HETATM   12  C8  UNL     1      32.205  -6.921  47.242  1.00  0.00     0.116 C 
HETATM   13  O4  UNL     1      33.368  -5.305  48.650  1.00  0.00    -0.266 OA
HETATM   14  C9  UNL     1      32.921  -6.246  46.074  1.00  0.00     0.135 C 
HETATM   15  C10 UNL     1      32.916  -4.756  46.248  1.00  0.00     0.143 C 
HETATM   16  C11 UNL     1      33.424  -4.403  47.578  1.00  0.00     0.267 C 
HETATM   17  O3  UNL     1      33.923  -3.247  47.740  1.00  0.00    -0.265 OA
ATOM     18  H2  UNL     1      33.957  -7.076  50.066  1.00  0.00     0.161 HD
BRANCH  14  19
HETATM   19  O2  UNL     1      32.244  -6.601  44.902  1.00  0.00    -0.395 OA
ATOM     20  H2  UNL     1      32.435  -5.939  44.248  1.00  0.00     0.210 HD
ENDBRANCH  14  19
ENDBRANCH   9  10
ENDBRANCH   8   9
ENDBRANCH   6   8
ENDBRANCH   1   6
BRANCH   1  21
HETATM   21  C12 UNL     1      37.010  -7.511  49.969  1.00  0.00    -0.012 A 
HETATM   22  C13 UNL     1      37.318  -7.188  51.254  1.00  0.00     0.012 A 
HETATM   23  C14 UNL     1      37.393  -5.862  51.674  1.00  0.00     0.019 A 
HETATM   24  C15 UNL     1      37.152  -4.809  50.779  1.00  0.00     0.002 A 
HETATM   25  C21 UNL     1      36.848  -5.167  49.503  1.00  0.00     0.043 A 
HETATM   26  C22 UNL     1      36.769  -6.476  49.067  1.00  0.00     0.043 A 
HETATM   27 CL1  UNL     1      36.399  -6.912  47.418  1.00  0.00    -0.084 Cl
BRANCH  24  28
HETATM   28  S1  UNL     1      37.269  -3.144  51.352  1.00  0.00    -0.125 SA
BRANCH  28  29
HETATM   29  C16 UNL     1      36.576  -1.895  50.308  1.00  0.00     0.052 C 
HETATM   30  C17 UNL     1      35.060  -1.943  50.407  1.00  0.00     0.015 C 
HETATM   31  C18 UNL     1      34.611  -0.537  50.127  1.00  0.00     0.001 C 
HETATM   32  C19 UNL     1      35.795   0.374  50.307  1.00  0.00     0.001 C 
HETATM   33  C20 UNL     1      37.014  -0.493  50.535  1.00  0.00     0.015 C 
ENDBRANCH  28  29
ENDBRANCH  24  28
ENDBRANCH   1  21
TORSDOF 10
ENDMDL
MODEL 4
REMARK VINA RESULT: -6.454513062      2.154      5.265
REMARK  10 active torsions:
REMARK  status: ('A' for Active; 'I' for Inactive)
REMARK    1  A    between atoms: O1_2  and  C2_3 
REMARK    2  A    between atoms: C2_3  and  C4_5 
REMARK    3  A    between atoms: C4_5  and  N1_6 
REMARK    4  A    between atoms: C4_5  and  C12_21 
REMARK    5  A    between atoms: N1_6  and  C5_8 
REMARK    6  A    between atoms: C5_8  and  C6_9 
REMARK    7  A    between atoms: C6_9  and  N2_10 
REMARK    8  A    between atoms: C9_14  and  O2_15 
REMARK    9  A    between atoms: C15_24  and  S1_25 
REMARK   10  A    between atoms: S1_25  and  C16_26 
ROOT
HETATM    1  C4  UNL     1      32.829  -8.136  47.258  1.00  0.00     0.140 C 
ENDROOT
BRANCH   1   2
HETATM    2  C2  UNL     1      31.720  -7.477  46.524  1.00  0.00     0.143 C 
HETATM    3  C3  UNL     1      30.373  -7.755  47.250  1.00  0.00     0.042 C 
BRANCH   2   4
HETATM    4  O1  UNL     1      31.594  -7.978  45.234  1.00  0.00    -0.389 OA
HETATM    5  C1  UNL     1      31.325  -6.962  44.307  1.00  0.00     0.202 C 
ENDBRANCH   2   4
ENDBRANCH   1   2
BRANCH   1   6
HETATM    6  N1  UNL     1      33.750  -8.920  46.513  1.00  0.00    -0.409 N 
ATOM      7  H1  UNL     1      34.143  -8.522  45.661  1.00  0.00     0.154 HD
BRANCH   6   8
HETATM    8  C5  UNL     1      34.141 -10.195  46.883  1.00  0.00     0.134 C 
BRANCH   8   9
HETATM    9  C6  UNL     1      35.559 -10.494  46.310  1.00  0.00     0.140 C 
BRANCH   9  10
HETATM   10  N2  UNL     1      36.436  -9.415  46.595  1.00  0.00    -0.372 N 
HETATM   11  C7  UNL     1      37.212  -9.231  47.572  1.00  0.00     0.125 C 
HETATM   12  C8  UNL     1      37.430 -10.114  48.727  1.00  0.00     0.116 C 
HETATM   13  O4  UNL     1      37.964  -8.039  47.562  1.00  0.00    -0.266 OA
HETATM   14  C9  UNL     1      37.300  -9.245  49.976  1.00  0.00     0.135 C 
HETATM   15  C10 UNL     1      38.400  -8.226  50.022  1.00  0.00     0.143 C 
HETATM   16  C11 UNL     1      38.457  -7.490  48.754  1.00  0.00     0.267 C 
HETATM   17  O3  UNL     1      38.971  -6.330  48.760  1.00  0.00    -0.265 OA
ATOM     18  H2  UNL     1      36.439  -8.670  45.898  1.00  0.00     0.161 HD
BRANCH  14  19
HETATM   19  O2  UNL     1      37.372 -10.091  51.088  1.00  0.00    -0.395 OA
ATOM     20  H2  UNL     1      38.224  -9.964  51.491  1.00  0.00     0.210 HD
ENDBRANCH  14  19
ENDBRANCH   9  10
ENDBRANCH   8   9
ENDBRANCH   6   8
ENDBRANCH   1   6
BRANCH   1  21
HETATM   21  C12 UNL     1      33.727  -7.138  47.978  1.00  0.00    -0.012 A 
HETATM   22  C13 UNL     1      34.235  -6.026  47.380  1.00  0.00     0.012 A 
HETATM   23  C14 UNL     1      35.097  -5.166  48.053  1.00  0.00     0.019 A 
HETATM   24  C15 UNL     1      35.474  -5.418  49.381  1.00  0.00     0.002 A 
HETATM   25  C21 UNL     1      34.948  -6.536  49.949  1.00  0.00     0.043 A 
HETATM   26  C22 UNL     1      34.091  -7.402  49.297  1.00  0.00     0.043 A 
HETATM   27 CL1  UNL     1      33.410  -8.819  50.054  1.00  0.00    -0.084 Cl
BRANCH  24  28
HETATM   28  S1  UNL     1      36.563  -4.294  50.198  1.00  0.00    -0.125 SA
BRANCH  28  29
HETATM   29  C16 UNL     1      35.854  -2.775  50.765  1.00  0.00     0.052 C 
HETATM   30  C17 UNL     1      36.934  -1.706  50.811  1.00  0.00     0.015 C 
HETATM   31  C18 UNL     1      36.203  -0.411  50.591  1.00  0.00     0.001 C 
HETATM   32  C19 UNL     1      34.858  -0.731  49.997  1.00  0.00     0.001 C 
HETATM   33  C20 UNL     1      34.695  -2.236  50.006  1.00  0.00     0.015 C 
ENDBRANCH  28  29
ENDBRANCH  24  28
ENDBRANCH   1  21
TORSDOF 10
ENDMDL
MODEL 5
REMARK VINA RESULT: -6.417305945      3.772      7.353
REMARK  10 active torsions:
REMARK  status: ('A' for Active; 'I' for Inactive)
REMARK    1  A    between atoms: O1_2  and  C2_3 
REMARK    2  A    between atoms: C2_3  and  C4_5 
REMARK    3  A    between atoms: C4_5  and  N1_6 
REMARK    4  A    between atoms: C4_5  and  C12_21 
REMARK    5  A    between atoms: N1_6  and  C5_8 
REMARK    6  A    between atoms: C5_8  and  C6_9 
REMARK    7  A    between atoms: C6_9  and  N2_10 
REMARK    8  A    between atoms: C9_14  and  O2_15 
REMARK    9  A    between atoms: C15_24  and  S1_25 
REMARK   10  A    between atoms: S1_25  and  C16_26 
ROOT
HETATM    1  C4  UNL     1      36.373  -5.169  50.063  1.00  0.00     0.140 C 
ENDROOT
BRANCH   1   2
HETATM    2  C2  UNL     1      36.267  -3.858  50.750  1.00  0.00     0.143 C 
HETATM    3  C3  UNL     1      35.036  -3.078  50.205  1.00  0.00     0.042 C 
BRANCH   2   4
HETATM    4  O1  UNL     1      37.383  -3.065  50.513  1.00  0.00    -0.389 OA
HETATM    5  C1  UNL     1      37.277  -1.817  51.139  1.00  0.00     0.202 C 
ENDBRANCH   2   4
ENDBRANCH   1   2
BRANCH   1   6
HETATM    6  N1  UNL     1      37.235  -5.266  48.939  1.00  0.00    -0.409 N 
ATOM      7  H1  UNL     1      37.983  -4.579  48.844  1.00  0.00     0.154 HD
BRANCH   6   8
HETATM    8  C5  UNL     1      37.113  -6.242  47.966  1.00  0.00     0.134 C 
BRANCH   8   9
HETATM    9  C6  UNL     1      38.491  -6.933  47.741  1.00  0.00     0.140 C 
BRANCH   9  10
HETATM   10  N2  UNL     1      38.301  -8.240  47.221  1.00  0.00    -0.372 N 
HETATM   11  C7  UNL     1      38.322  -9.359  47.802  1.00  0.00     0.125 C 
HETATM   12  C8  UNL     1      38.559  -9.630  49.227  1.00  0.00     0.116 C 
HETATM   13  O4  UNL     1      38.091 -10.491  46.993  1.00  0.00    -0.266 OA
HETATM   14  C9  UNL     1      39.630 -10.716  49.296  1.00  0.00     0.135 C 
HETATM   15  C10 UNL     1      39.113 -11.998  48.713  1.00  0.00     0.143 C 
HETATM   16  C11 UNL     1      38.558 -11.756  47.378  1.00  0.00     0.267 C 
HETATM   17  O3  UNL     1      38.509 -12.730  46.565  1.00  0.00    -0.265 OA
ATOM     18  H2  UNL     1      38.117  -8.280  46.218  1.00  0.00     0.161 HD
BRANCH  14  19
HETATM   19  O2  UNL     1      39.964 -10.894  50.644  1.00  0.00    -0.395 OA
ATOM     20  H2  UNL     1      39.498 -11.660  50.957  1.00  0.00     0.210 HD
ENDBRANCH  14  19
ENDBRANCH   9  10
ENDBRANCH   8   9
ENDBRANCH   6   8
ENDBRANCH   1   6
BRANCH   1  21
HETATM   21  C12 UNL     1      36.882  -6.271  50.985  1.00  0.00    -0.012 A 
HETATM   22  C13 UNL     1      38.178  -6.365  51.388  1.00  0.00     0.012 A 
HETATM   23  C14 UNL     1      38.618  -7.418  52.186  1.00  0.00     0.019 A 
HETATM   24  C15 UNL     1      37.733  -8.423  52.604  1.00  0.00     0.002 A 
HETATM   25  C21 UNL     1      36.445  -8.297  52.185  1.00  0.00     0.043 A 
HETATM   26  C22 UNL     1      35.990  -7.261  51.393  1.00  0.00     0.043 A 
HETATM   27 CL1  UNL     1      34.327  -7.108  50.886  1.00  0.00    -0.084 Cl
BRANCH  24  28
HETATM   28  S1  UNL     1      38.333  -9.733  53.623  1.00  0.00    -0.125 SA
BRANCH  28  29
HETATM   29  C16 UNL     1      39.126  -9.264  55.133  1.00  0.00     0.052 C 
HETATM   30  C17 UNL     1      38.503 -10.034  56.287  1.00  0.00     0.015 C 
HETATM   31  C18 UNL     1      39.598 -10.147  57.309  1.00  0.00     0.001 C 
HETATM   32  C19 UNL     1      40.907  -9.871  56.622  1.00  0.00     0.001 C 
HETATM   33  C20 UNL     1      40.602  -9.422  55.209  1.00  0.00     0.015 C 
ENDBRANCH  28  29
ENDBRANCH  24  28
ENDBRANCH   1  21
TORSDOF 10
ENDMDL
