MODEL 1
REMARK VINA RESULT: -6.537407736      0.000      0.000
REMARK  12 active torsions:
REMARK  status: ('A' for Active; 'I' for Inactive)
REMARK    1  A    between atoms: C2_2  and  C4_4 
REMARK    2  A    between atoms: C4_4  and  N1_5 
REMARK    3  A    between atoms: C4_4  and  C10_16 
REMARK       I    between atoms: N1_5  and  C5_7 
REMARK    4  A    between atoms: C5_7  and  C6_9 
REMARK    5  A    between atoms: C6_9  and  O2_12 
REMARK    6  A    between atoms: O2_12  and  C8_13 
REMARK    7  A    between atoms: C8_13  and  C9_14 
REMARK    8  A    between atoms: C10_16  and  C16_26 
REMARK    9  A    between atoms: C11_17  and  C12_18 
REMARK   10  A    between atoms: C15_22  and  O3_23 
REMARK   11  A    between atoms: C16_26  and  O6_28 
REMARK   12  A    between atoms: O6_28  and  C17_29 
ROOT
HETATM    1  C6  UNL     1      36.923  -2.896  51.097  1.00  0.00     0.319 C 
HETATM    2  C7  UNL     1      37.984  -3.535  51.915  1.00  0.00     0.101 C 
HETATM    3  N2  UNL     1      38.804  -4.043  52.540  1.00  0.00    -0.194 NA
ENDROOT
BRANCH   1   4
HETATM    4  C5  UNL     1      36.403  -3.910  50.088  1.00  0.00     0.265 C 
HETATM    5  N1  UNL     1      35.059  -4.208  49.992  1.00  0.00    -0.326 N 
ATOM      6  H1  UNL     1      34.465  -3.711  50.654  1.00  0.00     0.168 HD
HETATM    7  O1  UNL     1      37.280  -4.437  49.370  1.00  0.00    -0.269 OA
BRANCH   5   8
HETATM    8  C4  UNL     1      34.377  -5.082  49.133  1.00  0.00     0.032 C 
BRANCH   8   9
HETATM    9  C2  UNL     1      33.932  -4.569  47.806  1.00  0.00     0.028 C 
HETATM   10  C1  UNL     1      33.865  -3.062  47.778  1.00  0.00     0.016 C 
HETATM   11  C3  UNL     1      32.600  -5.175  47.380  1.00  0.00     0.016 C 
ENDBRANCH   8   9
BRANCH   8  12
HETATM   12  C10 UNL     1      34.991  -6.449  49.063  1.00  0.00     0.065 C 
HETATM   13  C11 UNL     1      35.616  -6.784  47.981  1.00  0.00     0.057 C 
BRANCH  13  14
HETATM   14  C12 UNL     1      36.293  -8.025  47.640  1.00  0.00     0.081 A 
HETATM   15  C13 UNL     1      35.579  -9.181  47.280  1.00  0.00     0.066 A 
HETATM   16  C14 UNL     1      36.507 -10.168  47.025  1.00  0.00     0.095 A 
HETATM   17 CL2  UNL     1      36.162 -11.838  46.531  1.00  0.00    -0.079 Cl
HETATM   18  C15 UNL     1      37.739  -9.591  47.235  1.00  0.00     0.206 A 
HETATM   19  O4  UNL     1      37.549  -8.358  47.587  1.00  0.00    -0.287 OA
BRANCH  18  20
HETATM   20  O3  UNL     1      38.971 -10.256  47.084  1.00  0.00    -0.339 OA
ATOM     21  H3  UNL     1      39.581 -10.108  46.371  1.00  0.00     0.220 HD
ENDBRANCH  18  20
ENDBRANCH  13  14
BRANCH  12  22
HETATM   22  C16 UNL     1      34.870  -7.268  50.225  1.00  0.00     0.296 C 
HETATM   23  O5  UNL     1      33.988  -8.186  50.337  1.00  0.00    -0.259 OA
BRANCH  22  24
HETATM   24  O6  UNL     1      35.690  -7.131  51.313  1.00  0.00    -0.307 OA
BRANCH  24  25
HETATM   25  C17 UNL     1      36.829  -7.938  51.542  1.00  0.00     0.060 C 
HETATM   26  C18 UNL     1      38.090  -7.278  50.988  1.00  0.00     0.046 C 
HETATM   27  C19 UNL     1      37.014  -8.046  53.042  1.00  0.00     0.046 C 
HETATM   28  C20 UNL     1      36.729  -9.306  50.942  1.00  0.00     0.046 C 
ENDBRANCH  24  25
ENDBRANCH  22  24
ENDBRANCH  12  22
ENDBRANCH   8  12
ENDBRANCH   5   8
ENDBRANCH   1   4
BRANCH   1  29
HETATM   29  O2  UNL     1      37.509  -1.813  50.491  1.00  0.00    -0.361 OA
BRANCH  29  30
HETATM   30  C8  UNL     1      37.053  -0.585  50.946  1.00  0.00     0.185 C 
BRANCH  30  31
HETATM   31  C9  UNL     1      36.120   0.087  49.981  1.00  0.00     0.141 C 
HETATM   32 CL1  UNL     1      34.438  -0.453  50.240  1.00  0.00    -0.128 Cl
ENDBRANCH  30  31
ENDBRANCH  29  30
ENDBRANCH   1  29
TORSDOF 12
ENDMDL
MODEL 2
REMARK VINA RESULT: -6.460536744      2.236      4.680
REMARK  12 active torsions:
REMARK  status: ('A' for Active; 'I' for Inactive)
REMARK    1  A    between atoms: C2_2  and  C4_4 
REMARK    2  A    between atoms: C4_4  and  N1_5 
REMARK    3  A    between atoms: C4_4  and  C10_16 
REMARK       I    between atoms: N1_5  and  C5_7 
REMARK    4  A    between atoms: C5_7  and  C6_9 
REMARK    5  A    between atoms: C6_9  and  O2_12 
REMARK    6  A    between atoms: O2_12  and  C8_13 
REMARK    7  A    between atoms: C8_13  and  C9_14 
REMARK    8  A    between atoms: C10_16  and  C16_26 
REMARK    9  A    between atoms: C11_17  and  C12_18 
REMARK   10  A    between atoms: C15_22  and  O3_23 
REMARK   11  A    between atoms: C16_26  and  O6_28 
REMARK   12  A    between atoms: O6_28  and  C17_29 
ROOT
HETATM    1  C6  UNL     1      38.634  -3.604  52.278  1.00  0.00     0.319 C 
HETATM    2  C7  UNL     1      40.087  -3.375  52.473  1.00  0.00     0.101 C 
HETATM    3  N2  UNL     1      41.216  -3.212  52.617  1.00  0.00    -0.194 NA
ENDROOT
BRANCH   1   4
HETATM    4  C5  UNL     1      38.430  -4.992  51.689  1.00  0.00     0.265 C 
HETATM    5  N1  UNL     1      37.496  -5.865  52.208  1.00  0.00    -0.326 N 
ATOM      6  H1  UNL     1      36.980  -5.508  53.012  1.00  0.00     0.168 HD
HETATM    7  O1  UNL     1      39.165  -5.267  50.717  1.00  0.00    -0.269 OA
BRANCH   5   8
HETATM    8  C4  UNL     1      37.138  -7.163  51.812  1.00  0.00     0.032 C 
BRANCH   8   9
HETATM    9  C2  UNL     1      36.887  -8.183  52.868  1.00  0.00     0.028 C 
HETATM   10  C1  UNL     1      36.390  -7.558  54.148  1.00  0.00     0.016 C 
HETATM   11  C3  UNL     1      38.118  -9.042  53.132  1.00  0.00     0.016 C 
ENDBRANCH   8   9
BRANCH   8  12
HETATM   12  C10 UNL     1      36.121  -7.189  50.710  1.00  0.00     0.065 C 
HETATM   13  C11 UNL     1      35.435  -6.115  50.484  1.00  0.00     0.057 C 
BRANCH  13  14
HETATM   14  C12 UNL     1      34.396  -5.860  49.499  1.00  0.00     0.081 A 
HETATM   15  C13 UNL     1      34.540  -4.867  48.515  1.00  0.00     0.066 A 
HETATM   16  C14 UNL     1      33.390  -4.881  47.754  1.00  0.00     0.095 A 
HETATM   17 CL2  UNL     1      33.029  -3.831  46.369  1.00  0.00    -0.079 Cl
HETATM   18  C15 UNL     1      32.594  -5.868  48.291  1.00  0.00     0.206 A 
HETATM   19  O4  UNL     1      33.228  -6.394  49.292  1.00  0.00    -0.287 OA
BRANCH  18  20
HETATM   20  O3  UNL     1      31.318  -6.217  47.809  1.00  0.00    -0.339 OA
ATOM     21  H3  UNL     1      30.636  -6.623  48.331  1.00  0.00     0.220 HD
ENDBRANCH  18  20
ENDBRANCH  13  14
BRANCH  12  22
HETATM   22  C16 UNL     1      36.013  -8.401  49.963  1.00  0.00     0.296 C 
HETATM   23  O5  UNL     1      34.961  -9.124  49.963  1.00  0.00    -0.259 OA
BRANCH  22  24
HETATM   24  O6  UNL     1      37.035  -8.883  49.188  1.00  0.00    -0.307 OA
BRANCH  24  25
HETATM   25  C17 UNL     1      37.293  -8.442  47.869  1.00  0.00     0.060 C 
HETATM   26  C18 UNL     1      38.284  -7.280  47.862  1.00  0.00     0.046 C 
HETATM   27  C19 UNL     1      37.955  -9.588  47.131  1.00  0.00     0.046 C 
HETATM   28  C20 UNL     1      36.067  -8.001  47.131  1.00  0.00     0.046 C 
ENDBRANCH  24  25
ENDBRANCH  22  24
ENDBRANCH  12  22
ENDBRANCH   8  12
ENDBRANCH   5   8
ENDBRANCH   1   4
BRANCH   1  29
HETATM   29  O2  UNL     1      38.202  -2.613  51.432  1.00  0.00    -0.361 OA
BRANCH  29  30
HETATM   30  C8  UNL     1      36.840  -2.633  51.174  1.00  0.00     0.185 C 
BRANCH  30  31
HETATM   31  C9  UNL     1      36.320  -1.317  50.670  1.00  0.00     0.141 C 
HETATM   32 CL1  UNL     1      34.613  -1.457  50.168  1.00  0.00    -0.128 Cl
ENDBRANCH  30  31
ENDBRANCH  29  30
ENDBRANCH   1  29
TORSDOF 12
ENDMDL
MODEL 3
REMARK VINA RESULT: -6.390286998      1.631      3.858
REMARK  12 active torsions:
REMARK  status: ('A' for Active; 'I' for Inactive)
REMARK    1  A    between atoms: C2_2  and  C4_4 
REMARK    2  A    between atoms: C4_4  and  N1_5 
REMARK    3  A    between atoms: C4_4  and  C10_16 
REMARK       I    between atoms: N1_5  and  C5_7 
REMARK    4  A    between atoms: C5_7  and  C6_9 
REMARK    5  A    between atoms: C6_9  and  O2_12 
REMARK    6  A    between atoms: O2_12  and  C8_13 
REMARK    7  A    between atoms: C8_13  and  C9_14 
REMARK    8  A    between atoms: C10_16  and  C16_26 
REMARK    9  A    between atoms: C11_17  and  C12_18 
REMARK   10  A    between atoms: C15_22  and  O3_23 
REMARK   11  A    between atoms: C16_26  and  O6_28 
REMARK   12  A    between atoms: O6_28  and  C17_29 
ROOT
HETATM    1  C6  UNL     1      38.067  -3.827  51.903  1.00  0.00     0.319 C 
HETATM    2  C7  UNL     1      39.404  -3.352  52.336  1.00  0.00     0.101 C 
HETATM    3  N2  UNL     1      40.446  -2.998  52.668  1.00  0.00    -0.194 NA
ENDROOT
BRANCH   1   4
HETATM    4  C5  UNL     1      38.158  -5.307  51.562  1.00  0.00     0.265 C 
HETATM    5  N1  UNL     1      37.370  -6.244  52.198  1.00  0.00    -0.326 N 
ATOM      6  H1  UNL     1      36.748  -5.863  52.912  1.00  0.00     0.168 HD
HETATM    7  O1  UNL     1      38.990  -5.594  50.674  1.00  0.00    -0.269 OA
BRANCH   5   8
HETATM    8  C4  UNL     1      37.282  -7.634  52.026  1.00  0.00     0.032 C 
BRANCH   8   9
HETATM    9  C2  UNL     1      37.095  -8.488  53.232  1.00  0.00     0.028 C 
HETATM   10  C1  UNL     1      36.446  -7.729  54.365  1.00  0.00     0.016 C 
HETATM   11  C3  UNL     1      38.405  -9.119  53.690  1.00  0.00     0.016 C 
ENDBRANCH   8   9
BRANCH   8  12
HETATM   12  C10 UNL     1      36.408  -8.036  50.875  1.00  0.00     0.065 C 
HETATM   13  C11 UNL     1      36.797  -9.016  50.124  1.00  0.00     0.057 C 
BRANCH  13  14
HETATM   14  C12 UNL     1      36.163  -9.607  48.957  1.00  0.00     0.081 A 
HETATM   15  C13 UNL     1      35.118 -10.538  49.077  1.00  0.00     0.066 A 
HETATM   16  C14 UNL     1      34.749 -10.901  47.799  1.00  0.00     0.095 A 
HETATM   17 CL2  UNL     1      33.474 -12.053  47.356  1.00  0.00    -0.079 Cl
HETATM   18  C15 UNL     1      35.570 -10.189  46.953  1.00  0.00     0.206 A 
HETATM   19  O4  UNL     1      36.362  -9.463  47.679  1.00  0.00    -0.287 OA
BRANCH  18  20
HETATM   20  O3  UNL     1      35.528 -10.263  45.547  1.00  0.00    -0.339 OA
ATOM     21  H3  UNL     1      35.717  -9.538  44.963  1.00  0.00     0.220 HD
ENDBRANCH  18  20
ENDBRANCH  13  14
BRANCH  12  22
HETATM   22  C16 UNL     1      35.182  -7.323  50.718  1.00  0.00     0.296 C 
HETATM   23  O5  UNL     1      34.048  -7.814  51.040  1.00  0.00    -0.259 OA
BRANCH  22  24
HETATM   24  O6  UNL     1      35.127  -6.053  50.207  1.00  0.00    -0.307 OA
BRANCH  24  25
HETATM   25  C17 UNL     1      35.126  -5.767  48.822  1.00  0.00     0.060 C 
HETATM   26  C18 UNL     1      34.233  -6.744  48.059  1.00  0.00     0.046 C 
HETATM   27  C19 UNL     1      34.518  -4.390  48.646  1.00  0.00     0.046 C 
HETATM   28  C20 UNL     1      36.485  -5.806  48.196  1.00  0.00     0.046 C 
ENDBRANCH  24  25
ENDBRANCH  22  24
ENDBRANCH  12  22
ENDBRANCH   8  12
ENDBRANCH   5   8
ENDBRANCH   1   4
BRANCH   1  29
HETATM   29  O2  UNL     1      37.725  -3.063  50.815  1.00  0.00    -0.361 OA
BRANCH  29  30
HETATM   30  C8  UNL     1      36.528  -2.375  50.951  1.00  0.00     0.185 C 
BRANCH  30  31
HETATM   31  C9  UNL     1      36.659  -0.910  50.652  1.00  0.00     0.141 C 
HETATM   32 CL1  UNL     1      35.112  -0.238  50.069  1.00  0.00    -0.128 Cl
ENDBRANCH  30  31
ENDBRANCH  29  30
ENDBRANCH   1  29
TORSDOF 12
ENDMDL
MODEL 4
REMARK VINA RESULT: -6.310040314      3.233      4.863
REMARK  12 active torsions:
REMARK  status: ('A' for Active; 'I' for Inactive)
REMARK    1  A    between atoms: C2_2  and  C4_4 
REMARK    2  A    between atoms: C4_4  and  N1_5 
REMARK    3  A    between atoms: C4_4  and  C10_16 
REMARK       I    between atoms: N1_5  and  C5_7 
REMARK    4  A    between atoms: C5_7  and  C6_9 
REMARK    5  A    between atoms: C6_9  and  O2_12 
REMARK    6  A    between atoms: O2_12  and  C8_13 
REMARK    7  A    between atoms: C8_13  and  C9_14 
REMARK    8  A    between atoms: C10_16  and  C16_26 
REMARK    9  A    between atoms: C11_17  and  C12_18 
REMARK   10  A    between atoms: C15_22  and  O3_23 
REMARK   11  A    between atoms: C16_26  and  O6_28 
REMARK   12  A    between atoms: O6_28  and  C17_29 
ROOT
HETATM    1  C6  UNL     1      38.754  -3.512  52.223  1.00  0.00     0.319 C 
HETATM    2  C7  UNL     1      38.807  -4.776  51.448  1.00  0.00     0.101 C 
HETATM    3  N2  UNL     1      38.834  -5.751  50.841  1.00  0.00    -0.194 NA
ENDROOT
BRANCH   1   4
HETATM    4  C5  UNL     1      37.419  -2.831  51.961  1.00  0.00     0.265 C 
HETATM    5  N1  UNL     1      36.709  -3.057  50.799  1.00  0.00    -0.326 N 
ATOM      6  H1  UNL     1      37.160  -3.694  50.143  1.00  0.00     0.168 HD
HETATM    7  O1  UNL     1      37.028  -2.067  52.870  1.00  0.00    -0.269 OA
BRANCH   5   8
HETATM    8  C4  UNL     1      35.470  -2.556  50.373  1.00  0.00     0.032 C 
BRANCH   8   9
HETATM    9  C2  UNL     1      35.425  -1.193  49.774  1.00  0.00     0.028 C 
HETATM   10  C1  UNL     1      36.754  -0.485  49.881  1.00  0.00     0.016 C 
HETATM   11  C3  UNL     1      34.314  -0.343  50.379  1.00  0.00     0.016 C 
ENDBRANCH   8   9
BRANCH   8  12
HETATM   12  C10 UNL     1      34.649  -3.561  49.620  1.00  0.00     0.065 C 
HETATM   13  C11 UNL     1      34.259  -3.259  48.424  1.00  0.00     0.057 C 
BRANCH  13  14
HETATM   14  C12 UNL     1      33.462  -4.026  47.480  1.00  0.00     0.081 A 
HETATM   15  C13 UNL     1      32.070  -3.861  47.385  1.00  0.00     0.066 A 
HETATM   16  C14 UNL     1      31.625  -4.729  46.410  1.00  0.00     0.095 A 
HETATM   17 CL2  UNL     1      29.946  -4.942  45.874  1.00  0.00    -0.079 Cl
HETATM   18  C15 UNL     1      32.744  -5.387  45.950  1.00  0.00     0.206 A 
HETATM   19  O4  UNL     1      33.769  -4.938  46.605  1.00  0.00    -0.287 OA
BRANCH  18  20
HETATM   20  O3  UNL     1      32.737  -6.369  44.941  1.00  0.00    -0.339 OA
ATOM     21  H3  UNL     1      32.222  -7.166  44.968  1.00  0.00     0.220 HD
ENDBRANCH  18  20
ENDBRANCH  13  14
BRANCH  12  22
HETATM   22  C16 UNL     1      34.391  -4.802  50.277  1.00  0.00     0.296 C 
HETATM   23  O5  UNL     1      33.262  -5.087  50.801  1.00  0.00    -0.259 OA
BRANCH  22  24
HETATM   24  O6  UNL     1      35.339  -5.783  50.397  1.00  0.00    -0.307 OA
BRANCH  24  25
HETATM   25  C17 UNL     1      35.475  -6.856  49.485  1.00  0.00     0.060 C 
HETATM   26  C18 UNL     1      36.366  -6.468  48.307  1.00  0.00     0.046 C 
HETATM   27  C19 UNL     1      36.179  -7.983  50.214  1.00  0.00     0.046 C 
HETATM   28  C20 UNL     1      34.172  -7.345  48.931  1.00  0.00     0.046 C 
ENDBRANCH  24  25
ENDBRANCH  22  24
ENDBRANCH  12  22
ENDBRANCH   8  12
ENDBRANCH   5   8
ENDBRANCH   1   4
BRANCH   1  29
HETATM   29  O2  UNL     1      39.816  -2.756  51.793  1.00  0.00    -0.361 OA
BRANCH  29  30
HETATM   30  C8  UNL     1      40.985  -2.948  52.513  1.00  0.00     0.185 C 
BRANCH  30  31
HETATM   31  C9  UNL     1      41.882  -1.744  52.507  1.00  0.00     0.141 C 
HETATM   32 CL1  UNL     1      43.543  -2.183  52.989  1.00  0.00    -0.128 Cl
ENDBRANCH  30  31
ENDBRANCH  29  30
ENDBRANCH   1  29
TORSDOF 12
ENDMDL
MODEL 5
REMARK VINA RESULT: -6.292123167      2.804      4.253
REMARK  12 active torsions:
REMARK  status: ('A' for Active; 'I' for Inactive)
REMARK    1  A    between atoms: C2_2  and  C4_4 
REMARK    2  A    between atoms: C4_4  and  N1_5 
REMARK    3  A    between atoms: C4_4  and  C10_16 
REMARK       I    between atoms: N1_5  and  C5_7 
REMARK    4  A    between atoms: C5_7  and  C6_9 
REMARK    5  A    between atoms: C6_9  and  O2_12 
REMARK    6  A    between atoms: O2_12  and  C8_13 
REMARK    7  A    between atoms: C8_13  and  C9_14 
REMARK    8  A    between atoms: C10_16  and  C16_26 
REMARK    9  A    between atoms: C11_17  and  C12_18 
REMARK   10  A    between atoms: C15_22  and  O3_23 
REMARK   11  A    between atoms: C16_26  and  O6_28 
REMARK   12  A    between atoms: O6_28  and  C17_29 
ROOT
HETATM    1  C6  UNL     1      37.371  -2.641  51.454  1.00  0.00     0.319 C 
HETATM    2  C7  UNL     1      38.660  -3.230  51.896  1.00  0.00     0.101 C 
HETATM    3  N2  UNL     1      39.654  -3.699  52.231  1.00  0.00    -0.194 NA
ENDROOT
BRANCH   1   4
HETATM    4  C5  UNL     1      36.518  -3.738  50.833  1.00  0.00     0.265 C 
HETATM    5  N1  UNL     1      37.009  -5.014  50.645  1.00  0.00    -0.326 N 
ATOM      6  H1  UNL     1      37.977  -5.145  50.939  1.00  0.00     0.168 HD
HETATM    7  O1  UNL     1      35.360  -3.391  50.515  1.00  0.00    -0.269 OA
BRANCH   5   8
HETATM    8  C4  UNL     1      36.397  -6.160  50.117  1.00  0.00     0.032 C 
BRANCH   8   9
HETATM    9  C2  UNL     1      36.485  -6.399  48.649  1.00  0.00     0.028 C 
HETATM   10  C1  UNL     1      37.815  -5.961  48.086  1.00  0.00     0.016 C 
HETATM   11  C3  UNL     1      35.338  -5.737  47.895  1.00  0.00     0.016 C 
ENDBRANCH   8   9
BRANCH   8  12
HETATM   12  C10 UNL     1      36.641  -7.395  50.933  1.00  0.00     0.065 C 
HETATM   13  C11 UNL     1      37.383  -7.294  51.988  1.00  0.00     0.057 C 
BRANCH  13  14
HETATM   14  C12 UNL     1      37.785  -8.310  52.948  1.00  0.00     0.081 A 
HETATM   15  C13 UNL     1      37.433  -8.224  54.305  1.00  0.00     0.066 A 
HETATM   16  C14 UNL     1      37.966  -9.329  54.934  1.00  0.00     0.095 A 
HETATM   17 CL2  UNL     1      37.831  -9.729  56.658  1.00  0.00    -0.079 Cl
HETATM   18  C15 UNL     1      38.618 -10.043  53.954  1.00  0.00     0.206 A 
HETATM   19  O4  UNL     1      38.478  -9.406  52.833  1.00  0.00    -0.287 OA
BRANCH  18  20
HETATM   20  O3  UNL     1      39.306 -11.253  54.168  1.00  0.00    -0.339 OA
ATOM     21  H3  UNL     1      40.092 -11.340  54.694  1.00  0.00     0.220 HD
ENDBRANCH  18  20
ENDBRANCH  13  14
BRANCH  12  22
HETATM   22  C16 UNL     1      35.996  -8.592  50.497  1.00  0.00     0.296 C 
HETATM   23  O5  UNL     1      34.758  -8.639  50.189  1.00  0.00    -0.259 OA
BRANCH  22  24
HETATM   24  O6  UNL     1      36.659  -9.785  50.378  1.00  0.00    -0.307 OA
BRANCH  24  25
HETATM   25  C17 UNL     1      37.455 -10.130  49.261  1.00  0.00     0.060 C 
HETATM   26  C18 UNL     1      38.807  -9.421  49.310  1.00  0.00     0.046 C 
HETATM   27  C19 UNL     1      37.736 -11.617  49.349  1.00  0.00     0.046 C 
HETATM   28  C20 UNL     1      36.818  -9.809  47.945  1.00  0.00     0.046 C 
ENDBRANCH  24  25
ENDBRANCH  22  24
ENDBRANCH  12  22
ENDBRANCH   8  12
ENDBRANCH   5   8
ENDBRANCH   1   4
BRANCH   1  29
HETATM   29  O2  UNL     1      37.690  -1.657  50.553  1.00  0.00    -0.361 OA
BRANCH  29  30
HETATM   30  C8  UNL     1      37.196  -0.402  50.876  1.00  0.00     0.185 C 
BRANCH  30  31
HETATM   31  C9  UNL     1      36.258   0.143  49.838  1.00  0.00     0.141 C 
HETATM   32 CL1  UNL     1      34.559  -0.153  50.296  1.00  0.00    -0.128 Cl
ENDBRANCH  30  31
ENDBRANCH  29  30
ENDBRANCH   1  29
TORSDOF 12
ENDMDL
