MODEL 1
REMARK VINA RESULT: -6.056408639      0.000      0.000
REMARK  9 active torsions:
REMARK  status: ('A' for Active; 'I' for Inactive)
REMARK    1  A    between atoms: O1_2  and  N1_3 
REMARK    2  A    between atoms: C2_5  and  C3_6 
REMARK    3  A    between atoms: C2_5  and  C19_30 
REMARK    4  A    between atoms: C4_7  and  O2_8 
REMARK    5  A    between atoms: C7_11  and  O3_12 
REMARK    6  A    between atoms: C9_14  and  C10_15 
REMARK    7  A    between atoms: C11_16  and  C12_17 
REMARK    8  A    between atoms: C13_20  and  O6_21 
REMARK    9  A    between atoms: O6_21  and  C14_22 
ROOT
HETATM    1  C3  UNL     1      36.080  -5.315  50.091  1.00  0.00     0.059 A 
HETATM    2  C4  UNL     1      35.153  -4.360  49.845  1.00  0.00     0.086 A 
HETATM    3  C6  UNL     1      35.423  -3.071  50.336  1.00  0.00     0.075 A 
HETATM    4  C7  UNL     1      36.575  -2.787  51.034  1.00  0.00     0.084 A 
HETATM    5  C9  UNL     1      37.524  -3.741  51.298  1.00  0.00     0.032 A 
HETATM    6  C13 UNL     1      37.254  -5.034  50.817  1.00  0.00     0.099 A 
ENDROOT
BRANCH   1   7
HETATM    7  C2  UNL     1      36.003  -6.640  49.446  1.00  0.00     0.086 C 
HETATM    8  N1  UNL     1      35.279  -7.530  50.031  1.00  0.00    -0.267 N 
ATOM      9  H1  UNL     1      34.836  -7.204  50.890  1.00  0.00     0.194 HD
BRANCH   8  10
HETATM   10  O1  UNL     1      35.006  -8.763  49.734  1.00  0.00    -0.285 OA
HETATM   11  C1  UNL     1      33.708  -9.129  49.283  1.00  0.00     0.237 C 
ENDBRANCH   8  10
BRANCH   7  12
HETATM   12  C19 UNL     1      36.690  -7.092  48.237  1.00  0.00     0.154 C 
HETATM   13  C20 UNL     1      35.863  -7.209  46.997  1.00  0.00     0.057 C 
HETATM   14 CL1  UNL     1      37.979  -5.872  47.734  1.00  0.00    -0.095 Cl
HETATM   15 CL2  UNL     1      37.665  -8.571  48.449  1.00  0.00    -0.095 Cl
ENDBRANCH   7  12
ENDBRANCH   1   7
BRANCH   2  16
HETATM   16  O2  UNL     1      33.959  -4.531  49.162  1.00  0.00    -0.355 OA
HETATM   17  C5  UNL     1      33.808  -4.167  47.806  1.00  0.00     0.210 C 
ENDBRANCH   2  16
BRANCH   6  18
HETATM   18  O6  UNL     1      38.199  -6.011  51.135  1.00  0.00    -0.316 OA
BRANCH  18  19
HETATM   19  C14 UNL     1      38.044  -6.833  52.284  1.00  0.00     0.327 C 
HETATM   20  C15 UNL     1      38.173  -8.291  51.950  1.00  0.00     0.062 C 
HETATM   21  C16 UNL     1      38.469  -9.017  53.265  1.00  0.00     0.006 C 
HETATM   22  C17 UNL     1      37.438  -8.672  54.288  1.00  0.00     0.028 C 
HETATM   23  C18 UNL     1      36.342  -7.837  53.648  1.00  0.00     0.235 C 
HETATM   24  N2  UNL     1      36.847  -6.622  53.062  1.00  0.00    -0.048 N 
ATOM     25  H22 UNL     1      36.996  -5.906  53.774  1.00  0.00     0.280 HD
ATOM     26  H21 UNL     1      36.129  -6.156  52.508  1.00  0.00     0.280 HD
ENDBRANCH  18  19
ENDBRANCH   6  18
BRANCH   5  27
HETATM   27  C10 UNL     1      38.772  -3.476  52.000  1.00  0.00     0.024 C 
HETATM   28  C11 UNL     1      39.697  -2.660  51.629  1.00  0.00     0.085 C 
BRANCH  28  29
HETATM   29  C12 UNL     1      40.889  -2.572  52.534  1.00  0.00     0.198 C 
HETATM   30  O4  UNL     1      40.945  -3.322  53.514  1.00  0.00    -0.645 OA
HETATM   31  O5  UNL     1      41.910  -1.683  52.297  1.00  0.00    -0.645 OA
ENDBRANCH  28  29
ENDBRANCH   5  27
BRANCH   4  32
HETATM   32  O3  UNL     1      36.764  -1.485  51.474  1.00  0.00    -0.355 OA
HETATM   33  C8  UNL     1      36.754  -0.434  50.541  1.00  0.00     0.210 C 
ENDBRANCH   4  32
TORSDOF 9
ENDMDL
MODEL 2
REMARK VINA RESULT: -6.021318436      2.277      5.768
REMARK  9 active torsions:
REMARK  status: ('A' for Active; 'I' for Inactive)
REMARK    1  A    between atoms: O1_2  and  N1_3 
REMARK    2  A    between atoms: C2_5  and  C3_6 
REMARK    3  A    between atoms: C2_5  and  C19_30 
REMARK    4  A    between atoms: C4_7  and  O2_8 
REMARK    5  A    between atoms: C7_11  and  O3_12 
REMARK    6  A    between atoms: C9_14  and  C10_15 
REMARK    7  A    between atoms: C11_16  and  C12_17 
REMARK    8  A    between atoms: C13_20  and  O6_21 
REMARK    9  A    between atoms: O6_21  and  C14_22 
ROOT
HETATM    1  C3  UNL     1      36.570  -5.527  49.886  1.00  0.00     0.059 A 
HETATM    2  C4  UNL     1      37.063  -4.552  50.684  1.00  0.00     0.086 A 
HETATM    3  C6  UNL     1      36.357  -3.338  50.714  1.00  0.00     0.075 A 
HETATM    4  C7  UNL     1      35.216  -3.143  49.969  1.00  0.00     0.084 A 
HETATM    5  C9  UNL     1      34.703  -4.115  49.150  1.00  0.00     0.032 A 
HETATM    6  C13 UNL     1      35.411  -5.330  49.110  1.00  0.00     0.099 A 
ENDROOT
BRANCH   1   7
HETATM    7  C2  UNL     1      37.103  -6.902  49.939  1.00  0.00     0.086 C 
HETATM    8  N1  UNL     1      37.710  -7.332  48.886  1.00  0.00    -0.267 N 
ATOM      9  H1  UNL     1      37.748  -6.653  48.125  1.00  0.00     0.194 HD
BRANCH   8  10
HETATM   10  O1  UNL     1      38.279  -8.464  48.611  1.00  0.00    -0.285 OA
HETATM   11  C1  UNL     1      37.926  -9.184  47.436  1.00  0.00     0.237 C 
ENDBRANCH   8  10
BRANCH   7  12
HETATM   12  C19 UNL     1      36.988  -7.869  51.030  1.00  0.00     0.154 C 
HETATM   13  C20 UNL     1      38.115  -7.912  52.012  1.00  0.00     0.057 C 
HETATM   14 CL1  UNL     1      35.547  -7.459  52.105  1.00  0.00    -0.095 Cl
HETATM   15 CL2  UNL     1      36.584  -9.527  50.510  1.00  0.00    -0.095 Cl
ENDBRANCH   7  12
ENDBRANCH   1   7
BRANCH   2  16
HETATM   16  O2  UNL     1      38.201  -4.633  51.471  1.00  0.00    -0.355 OA
HETATM   17  C5  UNL     1      38.655  -3.548  52.253  1.00  0.00     0.210 C 
ENDBRANCH   2  16
BRANCH   6  18
HETATM   18  O6  UNL     1      34.913  -6.296  48.234  1.00  0.00    -0.316 OA
BRANCH  18  19
HETATM   19  C14 UNL     1      33.939  -7.238  48.660  1.00  0.00     0.327 C 
HETATM   20  C15 UNL     1      34.228  -8.616  48.138  1.00  0.00     0.062 C 
HETATM   21  C16 UNL     1      33.439  -9.591  49.016  1.00  0.00     0.006 C 
HETATM   22  C17 UNL     1      31.999  -9.199  49.057  1.00  0.00     0.028 C 
HETATM   23  C18 UNL     1      31.753  -8.053  48.090  1.00  0.00     0.235 C 
HETATM   24  N2  UNL     1      32.563  -6.899  48.387  1.00  0.00    -0.048 N 
ATOM     25  H22 UNL     1      32.161  -6.357  49.153  1.00  0.00     0.280 HD
ATOM     26  H21 UNL     1      32.498  -6.205  47.643  1.00  0.00     0.280 HD
ENDBRANCH  18  19
ENDBRANCH   6  18
BRANCH   5  27
HETATM   27  C10 UNL     1      33.481  -3.964  48.373  1.00  0.00     0.024 C 
HETATM   28  C11 UNL     1      33.385  -3.458  47.192  1.00  0.00     0.085 C 
BRANCH  28  29
HETATM   29  C12 UNL     1      32.004  -3.416  46.611  1.00  0.00     0.198 C 
HETATM   30  O4  UNL     1      31.413  -4.483  46.411  1.00  0.00    -0.645 OA
HETATM   31  O5  UNL     1      31.388  -2.228  46.300  1.00  0.00    -0.645 OA
ENDBRANCH  28  29
ENDBRANCH   5  27
BRANCH   4  32
HETATM   32  O3  UNL     1      34.579  -1.914  50.066  1.00  0.00    -0.355 OA
HETATM   33  C8  UNL     1      35.338  -0.764  50.341  1.00  0.00     0.210 C 
ENDBRANCH   4  32
TORSDOF 9
ENDMDL
MODEL 3
REMARK VINA RESULT: -5.968550726      2.493      3.913
REMARK  9 active torsions:
REMARK  status: ('A' for Active; 'I' for Inactive)
REMARK    1  A    between atoms: O1_2  and  N1_3 
REMARK    2  A    between atoms: C2_5  and  C3_6 
REMARK    3  A    between atoms: C2_5  and  C19_30 
REMARK    4  A    between atoms: C4_7  and  O2_8 
REMARK    5  A    between atoms: C7_11  and  O3_12 
REMARK    6  A    between atoms: C9_14  and  C10_15 
REMARK    7  A    between atoms: C11_16  and  C12_17 
REMARK    8  A    between atoms: C13_20  and  O6_21 
REMARK    9  A    between atoms: O6_21  and  C14_22 
ROOT
HETATM    1  C3  UNL     1      34.523  -7.296  47.833  1.00  0.00     0.059 A 
HETATM    2  C4  UNL     1      33.434  -6.764  47.231  1.00  0.00     0.086 A 
HETATM    3  C6  UNL     1      33.249  -5.377  47.362  1.00  0.00     0.075 A 
HETATM    4  C7  UNL     1      34.133  -4.591  48.068  1.00  0.00     0.084 A 
HETATM    5  C9  UNL     1      35.238  -5.112  48.690  1.00  0.00     0.032 A 
HETATM    6  C13 UNL     1      35.422  -6.500  48.569  1.00  0.00     0.099 A 
ENDROOT
BRANCH   1   7
HETATM    7  C2  UNL     1      34.927  -8.693  47.585  1.00  0.00     0.086 C 
HETATM    8  N1  UNL     1      36.004  -8.874  46.900  1.00  0.00    -0.267 N 
ATOM      9  H1  UNL     1      36.457  -8.009  46.606  1.00  0.00     0.194 HD
BRANCH   8  10
HETATM   10  O1  UNL     1      36.620  -9.948  46.515  1.00  0.00    -0.285 OA
HETATM   11  C1  UNL     1      37.971 -10.182  46.894  1.00  0.00     0.237 C 
ENDBRANCH   8  10
BRANCH   7  12
HETATM   12  C19 UNL     1      34.228  -9.916  47.980  1.00  0.00     0.154 C 
HETATM   13  C20 UNL     1      35.026 -10.935  48.728  1.00  0.00     0.057 C 
HETATM   14 CL1  UNL     1      32.875  -9.526  49.172  1.00  0.00    -0.095 Cl
HETATM   15 CL2  UNL     1      33.324 -10.710  46.663  1.00  0.00    -0.095 Cl
ENDBRANCH   7  12
ENDBRANCH   1   7
BRANCH   2  16
HETATM   16  O2  UNL     1      32.478  -7.455  46.503  1.00  0.00    -0.355 OA
HETATM   17  C5  UNL     1      31.758  -6.857  45.445  1.00  0.00     0.210 C 
ENDBRANCH   2  16
BRANCH   6  18
HETATM   18  O6  UNL     1      36.520  -7.030  49.248  1.00  0.00    -0.316 OA
BRANCH  18  19
HETATM   19  C14 UNL     1      36.443  -7.348  50.631  1.00  0.00     0.327 C 
HETATM   20  C15 UNL     1      37.650  -6.866  51.383  1.00  0.00     0.062 C 
HETATM   21  C16 UNL     1      37.256  -6.822  52.862  1.00  0.00     0.006 C 
HETATM   22  C17 UNL     1      36.705  -8.143  53.288  1.00  0.00     0.028 C 
HETATM   23  C18 UNL     1      36.861  -9.150  52.161  1.00  0.00     0.235 C 
HETATM   24  N2  UNL     1      36.194  -8.731  50.954  1.00  0.00    -0.048 N 
ATOM     25  H22 UNL     1      35.193  -8.921  51.004  1.00  0.00     0.280 HD
ATOM     26  H21 UNL     1      36.438  -9.339  50.172  1.00  0.00     0.280 HD
ENDBRANCH  18  19
ENDBRANCH   6  18
BRANCH   5  27
HETATM   27  C10 UNL     1      36.216  -4.312  49.416  1.00  0.00     0.024 C 
HETATM   28  C11 UNL     1      36.012  -3.671  50.514  1.00  0.00     0.085 C 
BRANCH  28  29
HETATM   29  C12 UNL     1      37.190  -2.920  51.057  1.00  0.00     0.198 C 
HETATM   30  O4  UNL     1      37.622  -1.954  50.419  1.00  0.00    -0.645 OA
HETATM   31  O5  UNL     1      37.791  -3.279  52.240  1.00  0.00    -0.645 OA
ENDBRANCH  28  29
ENDBRANCH   5  27
BRANCH   4  32
HETATM   32  O3  UNL     1      33.877  -3.229  48.139  1.00  0.00    -0.355 OA
HETATM   33  C8  UNL     1      33.360  -2.566  47.014  1.00  0.00     0.210 C 
ENDBRANCH   4  32
TORSDOF 9
ENDMDL
MODEL 4
REMARK VINA RESULT: -5.883887104      2.366      3.832
REMARK  9 active torsions:
REMARK  status: ('A' for Active; 'I' for Inactive)
REMARK    1  A    between atoms: O1_2  and  N1_3 
REMARK    2  A    between atoms: C2_5  and  C3_6 
REMARK    3  A    between atoms: C2_5  and  C19_30 
REMARK    4  A    between atoms: C4_7  and  O2_8 
REMARK    5  A    between atoms: C7_11  and  O3_12 
REMARK    6  A    between atoms: C9_14  and  C10_15 
REMARK    7  A    between atoms: C11_16  and  C12_17 
REMARK    8  A    between atoms: C13_20  and  O6_21 
REMARK    9  A    between atoms: O6_21  and  C14_22 
ROOT
HETATM    1  C3  UNL     1      34.576  -7.315  47.851  1.00  0.00     0.059 A 
HETATM    2  C4  UNL     1      33.484  -6.803  47.236  1.00  0.00     0.086 A 
HETATM    3  C6  UNL     1      33.279  -5.418  47.354  1.00  0.00     0.075 A 
HETATM    4  C7  UNL     1      34.146  -4.613  48.059  1.00  0.00     0.084 A 
HETATM    5  C9  UNL     1      35.254  -5.113  48.693  1.00  0.00     0.032 A 
HETATM    6  C13 UNL     1      35.459  -6.500  48.586  1.00  0.00     0.099 A 
ENDROOT
BRANCH   1   7
HETATM    7  C2  UNL     1      35.002  -8.708  47.618  1.00  0.00     0.086 C 
HETATM    8  N1  UNL     1      36.061  -8.882  46.904  1.00  0.00    -0.267 N 
ATOM      9  H1  UNL     1      36.487  -8.014  46.578  1.00  0.00     0.194 HD
BRANCH   8  10
HETATM   10  O1  UNL     1      36.687  -9.950  46.521  1.00  0.00    -0.285 OA
HETATM   11  C1  UNL     1      38.052 -10.153  46.870  1.00  0.00     0.237 C 
ENDBRANCH   8  10
BRANCH   7  12
HETATM   12  C19 UNL     1      34.341  -9.936  48.060  1.00  0.00     0.154 C 
HETATM   13  C20 UNL     1      33.183  -9.778  48.992  1.00  0.00     0.057 C 
HETATM   14 CL1  UNL     1      33.574 -10.806  46.625  1.00  0.00    -0.095 Cl
HETATM   15 CL2  UNL     1      35.447 -11.189  48.684  1.00  0.00    -0.095 Cl
ENDBRANCH   7  12
ENDBRANCH   1   7
BRANCH   2  16
HETATM   16  O2  UNL     1      32.544  -7.515  46.508  1.00  0.00    -0.355 OA
HETATM   17  C5  UNL     1      31.715  -6.900  45.544  1.00  0.00     0.210 C 
ENDBRANCH   2  16
BRANCH   6  18
HETATM   18  O6  UNL     1      36.560  -7.008  49.277  1.00  0.00    -0.316 OA
BRANCH  18  19
HETATM   19  C14 UNL     1      36.468  -7.344  50.655  1.00  0.00     0.327 C 
HETATM   20  C15 UNL     1      37.657  -6.854  51.430  1.00  0.00     0.062 C 
HETATM   21  C16 UNL     1      37.241  -6.834  52.904  1.00  0.00     0.006 C 
HETATM   22  C17 UNL     1      36.706  -8.169  53.306  1.00  0.00     0.028 C 
HETATM   23  C18 UNL     1      36.893  -9.159  52.169  1.00  0.00     0.235 C 
HETATM   24  N2  UNL     1      36.237  -8.735  50.957  1.00  0.00    -0.048 N 
ATOM     25  H22 UNL     1      35.238  -8.941  50.991  1.00  0.00     0.280 HD
ATOM     26  H21 UNL     1      36.501  -9.329  50.171  1.00  0.00     0.280 HD
ENDBRANCH  18  19
ENDBRANCH   6  18
BRANCH   5  27
HETATM   27  C10 UNL     1      36.216  -4.293  49.418  1.00  0.00     0.024 C 
HETATM   28  C11 UNL     1      36.019  -3.709  50.549  1.00  0.00     0.085 C 
BRANCH  28  29
HETATM   29  C12 UNL     1      37.176  -2.919  51.084  1.00  0.00     0.198 C 
HETATM   30  O4  UNL     1      37.648  -3.231  52.182  1.00  0.00    -0.645 OA
HETATM   31  O5  UNL     1      37.716  -1.867  50.384  1.00  0.00    -0.645 OA
ENDBRANCH  28  29
ENDBRANCH   5  27
BRANCH   4  32
HETATM   32  O3  UNL     1      33.870  -3.255  48.116  1.00  0.00    -0.355 OA
HETATM   33  C8  UNL     1      33.365  -2.606  46.976  1.00  0.00     0.210 C 
ENDBRANCH   4  32
TORSDOF 9
ENDMDL
MODEL 5
REMARK VINA RESULT: -5.849414399      1.645      2.070
REMARK  9 active torsions:
REMARK  status: ('A' for Active; 'I' for Inactive)
REMARK    1  A    between atoms: O1_2  and  N1_3 
REMARK    2  A    between atoms: C2_5  and  C3_6 
REMARK    3  A    between atoms: C2_5  and  C19_30 
REMARK    4  A    between atoms: C4_7  and  O2_8 
REMARK    5  A    between atoms: C7_11  and  O3_12 
REMARK    6  A    between atoms: C9_14  and  C10_15 
REMARK    7  A    between atoms: C11_16  and  C12_17 
REMARK    8  A    between atoms: C13_20  and  O6_21 
REMARK    9  A    between atoms: O6_21  and  C14_22 
ROOT
HETATM    1  C3  UNL     1      35.916  -4.921  49.908  1.00  0.00     0.059 A 
HETATM    2  C4  UNL     1      34.998  -3.952  49.681  1.00  0.00     0.086 A 
HETATM    3  C6  UNL     1      35.262  -2.686  50.230  1.00  0.00     0.075 A 
HETATM    4  C7  UNL     1      36.399  -2.436  50.966  1.00  0.00     0.084 A 
HETATM    5  C9  UNL     1      37.337  -3.405  51.212  1.00  0.00     0.032 A 
HETATM    6  C13 UNL     1      37.074  -4.676  50.671  1.00  0.00     0.099 A 
ENDROOT
BRANCH   1   7
HETATM    7  C2  UNL     1      35.848  -6.218  49.207  1.00  0.00     0.086 C 
HETATM    8  N1  UNL     1      36.699  -6.412  48.260  1.00  0.00    -0.267 N 
ATOM      9  H1  UNL     1      37.332  -5.627  48.105  1.00  0.00     0.194 HD
BRANCH   8  10
HETATM   10  O1  UNL     1      36.904  -7.416  47.465  1.00  0.00    -0.285 OA
HETATM   11  C1  UNL     1      38.056  -8.236  47.618  1.00  0.00     0.237 C 
ENDBRANCH   8  10
BRANCH   7  12
HETATM   12  C19 UNL     1      34.895  -7.307  49.421  1.00  0.00     0.154 C 
HETATM   13  C20 UNL     1      35.471  -8.659  49.693  1.00  0.00     0.057 C 
HETATM   14 CL1  UNL     1      33.891  -6.995  50.937  1.00  0.00    -0.095 Cl
HETATM   15 CL2  UNL     1      33.626  -7.435  48.174  1.00  0.00    -0.095 Cl
ENDBRANCH   7  12
ENDBRANCH   1   7
BRANCH   2  16
HETATM   16  O2  UNL     1      33.820  -4.089  48.964  1.00  0.00    -0.355 OA
HETATM   17  C5  UNL     1      33.740  -3.802  47.584  1.00  0.00     0.210 C 
ENDBRANCH   2  16
BRANCH   6  18
HETATM   18  O6  UNL     1      38.007  -5.670  50.971  1.00  0.00    -0.316 OA
BRANCH  18  19
HETATM   19  C14 UNL     1      37.610  -6.884  51.594  1.00  0.00     0.327 C 
HETATM   20  C15 UNL     1      37.136  -6.660  53.002  1.00  0.00     0.062 C 
HETATM   21  C16 UNL     1      36.311  -7.891  53.387  1.00  0.00     0.006 C 
HETATM   22  C17 UNL     1      37.103  -9.135  53.156  1.00  0.00     0.028 C 
HETATM   23  C18 UNL     1      38.525  -8.772  52.762  1.00  0.00     0.235 C 
HETATM   24  N2  UNL     1      38.576  -7.955  51.576  1.00  0.00    -0.048 N 
ATOM     25  H22 UNL     1      38.474  -8.525  50.735  1.00  0.00     0.280 HD
ATOM     26  H21 UNL     1      39.517  -7.596  51.418  1.00  0.00     0.280 HD
ENDBRANCH  18  19
ENDBRANCH   6  18
BRANCH   5  27
HETATM   27  C10 UNL     1      38.570  -3.175  51.953  1.00  0.00     0.024 C 
HETATM   28  C11 UNL     1      39.625  -2.583  51.512  1.00  0.00     0.085 C 
BRANCH  28  29
HETATM   29  C12 UNL     1      40.765  -2.477  52.481  1.00  0.00     0.198 C 
HETATM   30  O4  UNL     1      40.841  -3.302  53.397  1.00  0.00    -0.645 OA
HETATM   31  O5  UNL     1      41.716  -1.491  52.370  1.00  0.00    -0.645 OA
ENDBRANCH  28  29
ENDBRANCH   5  27
BRANCH   4  32
HETATM   32  O3  UNL     1      36.582  -1.154  51.464  1.00  0.00    -0.355 OA
HETATM   33  C8  UNL     1      36.659  -0.072  50.570  1.00  0.00     0.210 C 
ENDBRANCH   4  32
TORSDOF 9
ENDMDL
