MODEL 1
REMARK VINA RESULT: -7.213864146      0.000      0.000
REMARK  11 active torsions:
REMARK  status: ('A' for Active; 'I' for Inactive)
REMARK    1  A    between atoms: O1_2  and  C2_3 
REMARK    2  A    between atoms: C4_5  and  C5_6 
REMARK    3  A    between atoms: C6_7  and  C7_8 
REMARK    4  A    between atoms: C9_10  and  O2_11 
REMARK    5  A    between atoms: O2_11  and  C10_12 
REMARK    6  A    between atoms: C14_16  and  O3_17 
REMARK    7  A    between atoms: C15_19  and  O4_20 
REMARK    8  A    between atoms: C18_24  and  O5_25 
REMARK    9  A    between atoms: O5_25  and  C19_26 
REMARK   10  A    between atoms: C21_30  and  O6_31 
REMARK   11  A    between atoms: C23_33  and  O7_34 
ROOT
HETATM    1  C7  UNL     1      37.759  -7.314  50.383  1.00  0.00     0.000 A 
HETATM    2  C8  UNL     1      37.197  -6.138  50.914  1.00  0.00     0.051 A 
HETATM    3  C9  UNL     1      36.609  -5.188  50.116  1.00  0.00     0.070 A 
HETATM    4  C16 UNL     1      36.577  -5.411  48.768  1.00  0.00     0.039 A 
HETATM    5  C17 UNL     1      37.122  -6.557  48.228  1.00  0.00     0.040 A 
HETATM    6  C18 UNL     1      37.724  -7.536  49.017  1.00  0.00     0.085 A 
ENDROOT
BRANCH   1   7
HETATM    7  C6  UNL     1      38.343  -8.226  51.321  1.00  0.00     0.015 C 
HETATM    8  C5  UNL     1      37.863  -8.692  52.430  1.00  0.00     0.012 C 
BRANCH   8   9
HETATM    9  C4  UNL     1      38.573  -9.639  53.318  1.00  0.00    -0.031 A 
HETATM   10  C3  UNL     1      38.897 -10.911  52.880  1.00  0.00     0.051 A 
HETATM   11  C2  UNL     1      39.556 -11.844  53.647  1.00  0.00     0.105 A 
HETATM   12  C23 UNL     1      39.901 -11.462  54.922  1.00  0.00     0.135 A 
HETATM   13  C21 UNL     1      39.620 -10.225  55.438  1.00  0.00     0.105 A 
HETATM   14  C20 UNL     1      38.946  -9.326  54.597  1.00  0.00     0.051 A 
BRANCH  11  15
HETATM   15  O1  UNL     1      39.867 -13.113  53.178  1.00  0.00    -0.353 OA
HETATM   16  C1  UNL     1      40.878 -13.212  52.191  1.00  0.00     0.210 C 
ENDBRANCH  11  15
BRANCH  12  17
HETATM   17  O7  UNL     1      40.565 -12.392  55.707  1.00  0.00    -0.351 OA
HETATM   18  C24 UNL     1      41.963 -12.389  55.723  1.00  0.00     0.210 C 
ENDBRANCH  12  17
BRANCH  13  19
HETATM   19  O6  UNL     1      39.980  -9.864  56.729  1.00  0.00    -0.353 OA
HETATM   20  C22 UNL     1      41.050  -8.940  56.897  1.00  0.00     0.210 C 
ENDBRANCH  13  19
ENDBRANCH   8   9
ENDBRANCH   1   7
BRANCH   6  21
HETATM   21  O5  UNL     1      38.261  -8.667  48.470  1.00  0.00    -0.289 OA
BRANCH  21  22
HETATM   22  C19 UNL     1      37.582  -9.780  48.014  1.00  0.00     0.505 C 
HETATM   23  F1  UNL     1      36.362  -9.887  48.687  1.00  0.00    -0.184 F 
HETATM   24  F2  UNL     1      37.212  -9.590  46.676  1.00  0.00    -0.184 F 
ENDBRANCH  21  22
ENDBRANCH   6  21
BRANCH   3  25
HETATM   25  O2  UNL     1      36.083  -4.064  50.726  1.00  0.00    -0.343 OA
BRANCH  25  26
HETATM   26  C10 UNL     1      36.034  -2.776  50.211  1.00  0.00     0.160 C 
HETATM   27  C11 UNL     1      34.580  -2.299  50.350  1.00  0.00     0.035 C 
HETATM   28  C12 UNL     1      34.500  -0.974  49.669  1.00  0.00     0.005 C 
HETATM   29  C13 UNL     1      35.448   0.052  50.165  1.00  0.00     0.034 C 
HETATM   30  C14 UNL     1      36.795  -0.438  50.546  1.00  0.00     0.149 C 
HETATM   31  C15 UNL     1      36.819  -1.821  51.121  1.00  0.00     0.176 C 
BRANCH  30  32
HETATM   32  O3  UNL     1      37.327   0.428  51.508  1.00  0.00    -0.393 OA
ATOM     33  H3  UNL     1      37.697  -0.093  52.211  1.00  0.00     0.210 HD
ENDBRANCH  30  32
BRANCH  31  34
HETATM   34  O4  UNL     1      38.121  -2.220  51.290  1.00  0.00    -0.390 OA
ATOM     35  H4  UNL     1      38.379  -2.222  52.205  1.00  0.00     0.210 HD
ENDBRANCH  31  34
ENDBRANCH  25  26
ENDBRANCH   3  25
TORSDOF 11
ENDMDL
MODEL 2
REMARK VINA RESULT: -7.204245068      0.100      2.134
REMARK  11 active torsions:
REMARK  status: ('A' for Active; 'I' for Inactive)
REMARK    1  A    between atoms: O1_2  and  C2_3 
REMARK    2  A    between atoms: C4_5  and  C5_6 
REMARK    3  A    between atoms: C6_7  and  C7_8 
REMARK    4  A    between atoms: C9_10  and  O2_11 
REMARK    5  A    between atoms: O2_11  and  C10_12 
REMARK    6  A    between atoms: C14_16  and  O3_17 
REMARK    7  A    between atoms: C15_19  and  O4_20 
REMARK    8  A    between atoms: C18_24  and  O5_25 
REMARK    9  A    between atoms: O5_25  and  C19_26 
REMARK   10  A    between atoms: C21_30  and  O6_31 
REMARK   11  A    between atoms: C23_33  and  O7_34 
ROOT
HETATM    1  C7  UNL     1      37.763  -7.424  50.345  1.00  0.00     0.000 A 
HETATM    2  C8  UNL     1      37.237  -6.241  50.895  1.00  0.00     0.051 A 
HETATM    3  C9  UNL     1      36.669  -5.265  50.114  1.00  0.00     0.070 A 
HETATM    4  C16 UNL     1      36.622  -5.469  48.764  1.00  0.00     0.039 A 
HETATM    5  C17 UNL     1      37.132  -6.621  48.205  1.00  0.00     0.040 A 
HETATM    6  C18 UNL     1      37.714  -7.627  48.976  1.00  0.00     0.085 A 
ENDROOT
BRANCH   1   7
HETATM    7  C6  UNL     1      38.328  -8.364  51.267  1.00  0.00     0.015 C 
HETATM    8  C5  UNL     1      37.948  -8.679  52.465  1.00  0.00     0.012 C 
BRANCH   8   9
HETATM    9  C4  UNL     1      38.625  -9.677  53.322  1.00  0.00    -0.031 A 
HETATM   10  C3  UNL     1      38.996  -9.360  54.617  1.00  0.00     0.051 A 
HETATM   11  C2  UNL     1      39.627 -10.234  55.473  1.00  0.00     0.105 A 
HETATM   12  C23 UNL     1      39.892 -11.492  54.984  1.00  0.00     0.135 A 
HETATM   13  C21 UNL     1      39.562 -11.891  53.716  1.00  0.00     0.105 A 
HETATM   14  C20 UNL     1      38.920 -10.945  52.901  1.00  0.00     0.051 A 
BRANCH  11  15
HETATM   15  O1  UNL     1      39.986  -9.886  56.767  1.00  0.00    -0.353 OA
HETATM   16  C1  UNL     1      41.048  -8.962  56.921  1.00  0.00     0.210 C 
ENDBRANCH  11  15
BRANCH  12  17
HETATM   17  O7  UNL     1      40.528 -12.384  55.833  1.00  0.00    -0.351 OA
HETATM   18  C24 UNL     1      41.925 -12.459  55.813  1.00  0.00     0.210 C 
ENDBRANCH  12  17
BRANCH  13  19
HETATM   19  O6  UNL     1      39.842 -13.168  53.247  1.00  0.00    -0.353 OA
HETATM   20  C22 UNL     1      40.871 -13.318  52.277  1.00  0.00     0.210 C 
ENDBRANCH  13  19
ENDBRANCH   8   9
ENDBRANCH   1   7
BRANCH   6  21
HETATM   21  O5  UNL     1      38.216  -8.765  48.411  1.00  0.00    -0.289 OA
BRANCH  21  22
HETATM   22  C19 UNL     1      37.503  -9.849  47.938  1.00  0.00     0.505 C 
HETATM   23  F1  UNL     1      36.247  -9.882  48.550  1.00  0.00    -0.184 F 
HETATM   24  F2  UNL     1      37.210  -9.664  46.580  1.00  0.00    -0.184 F 
ENDBRANCH  21  22
ENDBRANCH   6  21
BRANCH   3  25
HETATM   25  O2  UNL     1      36.179  -4.135  50.743  1.00  0.00    -0.343 OA
BRANCH  25  26
HETATM   26  C10 UNL     1      36.104  -2.851  50.222  1.00  0.00     0.160 C 
HETATM   27  C11 UNL     1      34.636  -2.413  50.334  1.00  0.00     0.035 C 
HETATM   28  C12 UNL     1      34.532  -1.093  49.646  1.00  0.00     0.005 C 
HETATM   29  C13 UNL     1      35.444  -0.040  50.153  1.00  0.00     0.034 C 
HETATM   30  C14 UNL     1      36.797  -0.492  50.559  1.00  0.00     0.149 C 
HETATM   31  C15 UNL     1      36.848  -1.872  51.140  1.00  0.00     0.176 C 
BRANCH  30  32
HETATM   32  O3  UNL     1      37.289   0.391  51.526  1.00  0.00    -0.393 OA
ATOM     33  H3  UNL     1      38.047  -0.007  51.940  1.00  0.00     0.210 HD
ENDBRANCH  30  32
BRANCH  31  34
HETATM   34  O4  UNL     1      38.157  -2.236  51.333  1.00  0.00    -0.390 OA
ATOM     35  H4  UNL     1      38.730  -1.883  50.662  1.00  0.00     0.210 HD
ENDBRANCH  31  34
ENDBRANCH  25  26
ENDBRANCH   3  25
TORSDOF 11
ENDMDL
MODEL 3
REMARK VINA RESULT: -7.171642824      4.871      8.802
REMARK  11 active torsions:
REMARK  status: ('A' for Active; 'I' for Inactive)
REMARK    1  A    between atoms: O1_2  and  C2_3 
REMARK    2  A    between atoms: C4_5  and  C5_6 
REMARK    3  A    between atoms: C6_7  and  C7_8 
REMARK    4  A    between atoms: C9_10  and  O2_11 
REMARK    5  A    between atoms: O2_11  and  C10_12 
REMARK    6  A    between atoms: C14_16  and  O3_17 
REMARK    7  A    between atoms: C15_19  and  O4_20 
REMARK    8  A    between atoms: C18_24  and  O5_25 
REMARK    9  A    between atoms: O5_25  and  C19_26 
REMARK   10  A    between atoms: C21_30  and  O6_31 
REMARK   11  A    between atoms: C23_33  and  O7_34 
ROOT
HETATM    1  C7  UNL     1      33.682  -5.780  47.357  1.00  0.00     0.000 A 
HETATM    2  C8  UNL     1      33.159  -7.078  47.506  1.00  0.00     0.051 A 
HETATM    3  C9  UNL     1      32.159  -7.558  46.697  1.00  0.00     0.070 A 
HETATM    4  C16 UNL     1      31.672  -6.735  45.721  1.00  0.00     0.039 A 
HETATM    5  C17 UNL     1      32.171  -5.460  45.558  1.00  0.00     0.040 A 
HETATM    6  C18 UNL     1      33.185  -4.950  46.367  1.00  0.00     0.085 A 
ENDROOT
BRANCH   1   7
HETATM    7  C6  UNL     1      34.723  -5.399  48.265  1.00  0.00     0.015 C 
HETATM    8  C5  UNL     1      34.654  -4.708  49.358  1.00  0.00     0.012 C 
BRANCH   8   9
HETATM    9  C4  UNL     1      35.815  -4.380  50.215  1.00  0.00    -0.031 A 
HETATM   10  C3  UNL     1      36.684  -5.370  50.637  1.00  0.00     0.051 A 
HETATM   11  C2  UNL     1      37.783  -5.142  51.433  1.00  0.00     0.105 A 
HETATM   12  C23 UNL     1      38.005  -3.841  51.819  1.00  0.00     0.135 A 
HETATM   13  C21 UNL     1      37.197  -2.798  51.450  1.00  0.00     0.105 A 
HETATM   14  C20 UNL     1      36.095  -3.108  50.637  1.00  0.00     0.051 A 
BRANCH  11  15
HETATM   15  O1  UNL     1      38.637  -6.157  51.838  1.00  0.00    -0.353 OA
HETATM   16  C1  UNL     1      38.270  -7.486  51.512  1.00  0.00     0.210 C 
ENDBRANCH  11  15
BRANCH  12  17
HETATM   17  O7  UNL     1      39.108  -3.595  52.622  1.00  0.00    -0.351 OA
HETATM   18  C24 UNL     1      40.275  -3.096  52.035  1.00  0.00     0.210 C 
ENDBRANCH  12  17
BRANCH  13  19
HETATM   19  O6  UNL     1      37.444  -1.494  51.854  1.00  0.00    -0.353 OA
HETATM   20  C22 UNL     1      36.966  -0.433  51.034  1.00  0.00     0.210 C 
ENDBRANCH  13  19
ENDBRANCH   8   9
ENDBRANCH   1   7
BRANCH   6  21
HETATM   21  O5  UNL     1      33.671  -3.684  46.195  1.00  0.00    -0.289 OA
BRANCH  21  22
HETATM   22  C19 UNL     1      33.086  -2.501  46.599  1.00  0.00     0.505 C 
HETATM   23  F1  UNL     1      31.732  -2.720  46.866  1.00  0.00    -0.184 F 
HETATM   24  F2  UNL     1      33.614  -2.114  47.838  1.00  0.00    -0.184 F 
ENDBRANCH  21  22
ENDBRANCH   6  21
BRANCH   3  25
HETATM   25  O2  UNL     1      31.708  -8.846  46.919  1.00  0.00    -0.343 OA
BRANCH  25  26
HETATM   26  C10 UNL     1      31.645  -9.883  45.998  1.00  0.00     0.160 C 
HETATM   27  C11 UNL     1      30.629  -9.461  44.925  1.00  0.00     0.035 C 
HETATM   28  C12 UNL     1      30.459 -10.632  44.017  1.00  0.00     0.005 C 
HETATM   29  C13 UNL     1      31.706 -11.142  43.399  1.00  0.00     0.034 C 
HETATM   30  C14 UNL     1      32.914 -11.117  44.258  1.00  0.00     0.149 C 
HETATM   31  C15 UNL     1      32.970  -9.976  45.228  1.00  0.00     0.176 C 
BRANCH  30  32
HETATM   32  O3  UNL     1      34.043 -11.028  43.437  1.00  0.00    -0.393 OA
ATOM     33  H3  UNL     1      34.800 -11.323  43.930  1.00  0.00     0.210 HD
ENDBRANCH  30  32
BRANCH  31  34
HETATM   34  O4  UNL     1      34.044 -10.143  46.065  1.00  0.00    -0.390 OA
ATOM     35  H4  UNL     1      34.579  -9.359  46.122  1.00  0.00     0.210 HD
ENDBRANCH  31  34
ENDBRANCH  25  26
ENDBRANCH   3  25
TORSDOF 11
ENDMDL
MODEL 4
REMARK VINA RESULT: -7.160011733      1.704      3.100
REMARK  11 active torsions:
REMARK  status: ('A' for Active; 'I' for Inactive)
REMARK    1  A    between atoms: O1_2  and  C2_3 
REMARK    2  A    between atoms: C4_5  and  C5_6 
REMARK    3  A    between atoms: C6_7  and  C7_8 
REMARK    4  A    between atoms: C9_10  and  O2_11 
REMARK    5  A    between atoms: O2_11  and  C10_12 
REMARK    6  A    between atoms: C14_16  and  O3_17 
REMARK    7  A    between atoms: C15_19  and  O4_20 
REMARK    8  A    between atoms: C18_24  and  O5_25 
REMARK    9  A    between atoms: O5_25  and  C19_26 
REMARK   10  A    between atoms: C21_30  and  O6_31 
REMARK   11  A    between atoms: C23_33  and  O7_34 
ROOT
HETATM    1  C7  UNL     1      35.558  -6.779  49.603  1.00  0.00     0.000 A 
HETATM    2  C8  UNL     1      35.198  -5.522  50.124  1.00  0.00     0.051 A 
HETATM    3  C9  UNL     1      34.608  -4.555  49.349  1.00  0.00     0.070 A 
HETATM    4  C16 UNL     1      34.370  -4.842  48.034  1.00  0.00     0.039 A 
HETATM    5  C17 UNL     1      34.716  -6.067  47.504  1.00  0.00     0.040 A 
HETATM    6  C18 UNL     1      35.315  -7.065  48.270  1.00  0.00     0.085 A 
ENDROOT
BRANCH   1   7
HETATM    7  C6  UNL     1      36.167  -7.701  50.515  1.00  0.00     0.015 C 
HETATM    8  C5  UNL     1      37.420  -7.896  50.782  1.00  0.00     0.012 C 
BRANCH   8   9
HETATM    9  C4  UNL     1      37.924  -8.889  51.755  1.00  0.00    -0.031 A 
HETATM   10  C3  UNL     1      37.921  -8.614  53.111  1.00  0.00     0.051 A 
HETATM   11  C2  UNL     1      38.373  -9.488  54.074  1.00  0.00     0.105 A 
HETATM   12  C23 UNL     1      38.852 -10.699  53.633  1.00  0.00     0.135 A 
HETATM   13  C21 UNL     1      38.893 -11.055  52.310  1.00  0.00     0.105 A 
HETATM   14  C20 UNL     1      38.415 -10.113  51.386  1.00  0.00     0.051 A 
BRANCH  11  15
HETATM   15  O1  UNL     1      38.356  -9.183  55.428  1.00  0.00    -0.353 OA
HETATM   16  C1  UNL     1      37.174  -8.603  55.949  1.00  0.00     0.210 C 
ENDBRANCH  11  15
BRANCH  12  17
HETATM   17  O7  UNL     1      39.311 -11.589  54.591  1.00  0.00    -0.351 OA
HETATM   18  C24 UNL     1      40.655 -11.535  54.975  1.00  0.00     0.210 C 
ENDBRANCH  12  17
BRANCH  13  19
HETATM   19  O6  UNL     1      39.381 -12.285  51.892  1.00  0.00    -0.353 OA
HETATM   20  C22 UNL     1      40.672 -12.329  51.294  1.00  0.00     0.210 C 
ENDBRANCH  13  19
ENDBRANCH   8   9
ENDBRANCH   1   7
BRANCH   6  21
HETATM   21  O5  UNL     1      35.653  -8.276  47.734  1.00  0.00    -0.289 OA
BRANCH  21  22
HETATM   22  C19 UNL     1      36.878  -8.651  47.218  1.00  0.00     0.505 C 
HETATM   23  F1  UNL     1      37.796  -7.613  47.400  1.00  0.00    -0.184 F 
HETATM   24  F2  UNL     1      37.406  -9.703  47.978  1.00  0.00    -0.184 F 
ENDBRANCH  21  22
ENDBRANCH   6  21
BRANCH   3  25
HETATM   25  O2  UNL     1      34.290  -3.350  49.947  1.00  0.00    -0.343 OA
BRANCH  25  26
HETATM   26  C10 UNL     1      35.147  -2.507  50.641  1.00  0.00     0.160 C 
HETATM   27  C11 UNL     1      36.559  -3.094  50.496  1.00  0.00     0.035 C 
HETATM   28  C12 UNL     1      37.454  -2.266  51.357  1.00  0.00     0.005 C 
HETATM   29  C13 UNL     1      37.447  -0.813  51.067  1.00  0.00     0.034 C 
HETATM   30  C14 UNL     1      36.136  -0.231  50.691  1.00  0.00     0.149 C 
HETATM   31  C15 UNL     1      35.239  -1.153  49.923  1.00  0.00     0.176 C 
BRANCH  30  32
HETATM   32  O3  UNL     1      36.362   0.897  49.895  1.00  0.00    -0.393 OA
ATOM     33  H3  UNL     1      36.141   0.682  48.996  1.00  0.00     0.210 HD
ENDBRANCH  30  32
BRANCH  31  34
HETATM   34  O4  UNL     1      34.009  -0.565  49.767  1.00  0.00    -0.390 OA
ATOM     35  H4  UNL     1      33.321  -1.050  50.208  1.00  0.00     0.210 HD
ENDBRANCH  31  34
ENDBRANCH  25  26
ENDBRANCH   3  25
TORSDOF 11
ENDMDL
MODEL 5
REMARK VINA RESULT: -7.158602189      5.052     10.511
REMARK  11 active torsions:
REMARK  status: ('A' for Active; 'I' for Inactive)
REMARK    1  A    between atoms: O1_2  and  C2_3 
REMARK    2  A    between atoms: C4_5  and  C5_6 
REMARK    3  A    between atoms: C6_7  and  C7_8 
REMARK    4  A    between atoms: C9_10  and  O2_11 
REMARK    5  A    between atoms: O2_11  and  C10_12 
REMARK    6  A    between atoms: C14_16  and  O3_17 
REMARK    7  A    between atoms: C15_19  and  O4_20 
REMARK    8  A    between atoms: C18_24  and  O5_25 
REMARK    9  A    between atoms: O5_25  and  C19_26 
REMARK   10  A    between atoms: C21_30  and  O6_31 
REMARK   11  A    between atoms: C23_33  and  O7_34 
ROOT
HETATM    1  C7  UNL     1      35.369  -4.103  49.751  1.00  0.00     0.000 A 
HETATM    2  C8  UNL     1      36.237  -5.189  49.972  1.00  0.00     0.051 A 
HETATM    3  C9  UNL     1      37.346  -5.083  50.775  1.00  0.00     0.070 A 
HETATM    4  C16 UNL     1      37.595  -3.879  51.370  1.00  0.00     0.039 A 
HETATM    5  C17 UNL     1      36.758  -2.803  51.166  1.00  0.00     0.040 A 
HETATM    6  C18 UNL     1      35.627  -2.885  50.355  1.00  0.00     0.085 A 
ENDROOT
BRANCH   1   7
HETATM    7  C6  UNL     1      34.248  -4.342  48.892  1.00  0.00     0.015 C 
HETATM    8  C5  UNL     1      34.174  -5.041  47.803  1.00  0.00     0.012 C 
BRANCH   8   9
HETATM    9  C4  UNL     1      32.943  -5.212  47.000  1.00  0.00    -0.031 A 
HETATM   10  C3  UNL     1      31.792  -4.508  47.312  1.00  0.00     0.051 A 
HETATM   11  C2  UNL     1      30.612  -4.615  46.612  1.00  0.00     0.105 A 
HETATM   12  C23 UNL     1      30.605  -5.480  45.544  1.00  0.00     0.135 A 
HETATM   13  C21 UNL     1      31.695  -6.217  45.165  1.00  0.00     0.105 A 
HETATM   14  C20 UNL     1      32.864  -6.056  45.926  1.00  0.00     0.051 A 
BRANCH  11  15
HETATM   15  O1  UNL     1      29.475  -3.894  46.949  1.00  0.00    -0.353 OA
HETATM   16  C1  UNL     1      29.455  -2.517  46.618  1.00  0.00     0.210 C 
ENDBRANCH  11  15
BRANCH  12  17
HETATM   17  O7  UNL     1      29.422  -5.599  44.830  1.00  0.00    -0.351 OA
HETATM   18  C24 UNL     1      28.461  -6.519  45.260  1.00  0.00     0.210 C 
ENDBRANCH  12  17
BRANCH  13  19
HETATM   19  O6  UNL     1      31.660  -7.084  44.081  1.00  0.00    -0.353 OA
HETATM   20  C22 UNL     1      31.433  -8.466  44.332  1.00  0.00     0.210 C 
ENDBRANCH  13  19
ENDBRANCH   8   9
ENDBRANCH   1   7
BRANCH   6  21
HETATM   21  O5  UNL     1      34.804  -1.811  50.162  1.00  0.00    -0.289 OA
BRANCH  21  22
HETATM   22  C19 UNL     1      35.093  -0.481  50.398  1.00  0.00     0.505 C 
HETATM   23  F1  UNL     1      35.980  -0.018  49.422  1.00  0.00    -0.184 F 
HETATM   24  F2  UNL     1      33.942   0.293  50.201  1.00  0.00    -0.184 F 
ENDBRANCH  21  22
ENDBRANCH   6  21
BRANCH   3  25
HETATM   25  O2  UNL     1      38.140  -6.204  50.933  1.00  0.00    -0.343 OA
BRANCH  25  26
HETATM   26  C10 UNL     1      37.742  -7.531  50.858  1.00  0.00     0.160 C 
HETATM   27  C11 UNL     1      38.550  -8.172  49.719  1.00  0.00     0.035 C 
HETATM   28  C12 UNL     1      38.019  -9.556  49.548  1.00  0.00     0.005 C 
HETATM   29  C13 UNL     1      38.048 -10.401  50.765  1.00  0.00     0.034 C 
HETATM   30  C14 UNL     1      37.750  -9.712  52.043  1.00  0.00     0.149 C 
HETATM   31  C15 UNL     1      38.211  -8.287  52.109  1.00  0.00     0.176 C 
BRANCH  30  32
HETATM   32  O3  UNL     1      38.380 -10.406  53.081  1.00  0.00    -0.393 OA
ATOM     33  H3  UNL     1      37.737 -10.961  53.508  1.00  0.00     0.210 HD
ENDBRANCH  30  32
BRANCH  31  34
HETATM   34  O4  UNL     1      37.748  -7.713  53.265  1.00  0.00    -0.390 OA
ATOM     35  H4  UNL     1      37.611  -6.777  53.171  1.00  0.00     0.210 HD
ENDBRANCH  31  34
ENDBRANCH  25  26
ENDBRANCH   3  25
TORSDOF 11
ENDMDL
