MODEL 1
REMARK VINA RESULT: -6.418695135      0.000      0.000
REMARK  13 active torsions:
REMARK  status: ('A' for Active; 'I' for Inactive)
REMARK    1  A    between atoms: C2_2  and  N1_3 
REMARK    2  A    between atoms: N1_3  and  C3_5 
REMARK    3  A    between atoms: C3_5  and  O2_10 
REMARK    4  A    between atoms: N2_6  and  O1_8 
REMARK    5  A    between atoms: O2_10  and  C4_11 
REMARK    6  A    between atoms: C4_11  and  O3_12 
REMARK    7  A    between atoms: C4_11  and  C5_14 
REMARK    8  A    between atoms: C7_16  and  C8_17 
REMARK    9  A    between atoms: C9_18  and  C10_19 
REMARK   10  A    between atoms: C10_19  and  S1_31 
REMARK   11  A    between atoms: C11_20  and  C12_21 
REMARK   12  A    between atoms: C12_21  and  O4_22 
REMARK   13  A    between atoms: O4_22  and  C13_23 
ROOT
HETATM    1  C8  UNL     1      40.806 -12.816  56.289  1.00  0.00     0.002 C 
HETATM    2  C9  UNL     1      40.257 -11.692  56.632  1.00  0.00     0.021 C 
ENDROOT
BRANCH   1   3
HETATM    3  C7  UNL     1      42.151 -13.192  55.962  1.00  0.00     0.007 C 
HETATM    4  C5  UNL     1      42.768 -12.945  54.823  1.00  0.00    -0.029 C 
HETATM    5  C6  UNL     1      44.170 -13.517  54.706  1.00  0.00     0.048 C 
BRANCH   4   6
HETATM    6  C4  UNL     1      42.235 -12.241  53.655  1.00  0.00     0.296 C 
BRANCH   6   7
HETATM    7  O2  UNL     1      43.186 -12.500  52.595  1.00  0.00    -0.285 OA
BRANCH   7   8
HETATM    8  C3  UNL     1      43.442 -11.515  51.664  1.00  0.00     0.241 C 
HETATM    9  N2  UNL     1      44.512 -10.805  51.871  1.00  0.00    -0.233 N 
ATOM     10  H2  UNL     1      45.073 -11.026  52.693  1.00  0.00     0.198 HD
BRANCH   8  11
HETATM   11  N1  UNL     1      42.608 -11.270  50.540  1.00  0.00    -0.355 N 
ATOM     12  H1  UNL     1      42.601 -10.340  50.123  1.00  0.00     0.163 HD
BRANCH  11  13
HETATM   13  C2  UNL     1      41.772 -12.294  49.972  1.00  0.00     0.118 C 
HETATM   14  C1  UNL     1      40.995 -11.826  48.764  1.00  0.00     0.026 C 
ENDBRANCH  11  13
ENDBRANCH   8  11
BRANCH   9  15
HETATM   15  O1  UNL     1      44.936  -9.794  51.074  1.00  0.00    -0.287 OA
ATOM     16  H1  UNL     1      45.345  -8.995  51.384  1.00  0.00     0.244 HD
ENDBRANCH   9  15
ENDBRANCH   7   8
ENDBRANCH   6   7
BRANCH   6  17
HETATM   17  O3  UNL     1      42.244 -10.841  53.777  1.00  0.00    -0.367 OA
ATOM     18  H3  UNL     1      41.348 -10.592  53.586  1.00  0.00     0.213 HD
ENDBRANCH   6  17
ENDBRANCH   4   6
ENDBRANCH   1   3
BRANCH   2  19
HETATM   19  C10 UNL     1      40.786 -10.384  56.804  1.00  0.00     0.029 C 
HETATM   20  C11 UNL     1      40.037  -9.296  56.472  1.00  0.00     0.020 C 
BRANCH  20  21
HETATM   21  C12 UNL     1      38.695  -9.360  55.934  1.00  0.00     0.204 C 
BRANCH  21  22
HETATM   22  O4  UNL     1      38.634  -8.967  54.603  1.00  0.00    -0.346 OA
BRANCH  22  23
HETATM   23  C13 UNL     1      38.484  -9.691  53.471  1.00  0.00     0.092 A 
HETATM   24  C14 UNL     1      38.822 -11.010  53.290  1.00  0.00     0.062 A 
HETATM   25  C15 UNL     1      38.641 -11.702  52.096  1.00  0.00     0.036 A 
HETATM   26 CL1  UNL     1      39.091 -13.381  51.917  1.00  0.00    -0.084 Cl
HETATM   27  C16 UNL     1      38.092 -11.059  51.010  1.00  0.00     0.026 A 
HETATM   28  C17 UNL     1      37.744  -9.740  51.160  1.00  0.00     0.028 A 
HETATM   29  C18 UNL     1      37.926  -9.063  52.342  1.00  0.00     0.067 A 
HETATM   30 CL2  UNL     1      37.473  -7.388  52.493  1.00  0.00    -0.081 Cl
ENDBRANCH  22  23
ENDBRANCH  21  22
ENDBRANCH  20  21
BRANCH  19  31
HETATM   31  S1  UNL     1      42.438  -9.982  57.191  1.00  0.00     0.045 S 
HETATM   32  C19 UNL     1      42.815  -9.725  58.855  1.00  0.00     0.133 C 
HETATM   33  O5  UNL     1      43.180  -9.068  56.063  1.00  0.00    -0.253 OA
ENDBRANCH  19  31
ENDBRANCH   2  19
TORSDOF 13
ENDMDL
MODEL 2
REMARK VINA RESULT: -6.386499288      8.505     11.838
REMARK  13 active torsions:
REMARK  status: ('A' for Active; 'I' for Inactive)
REMARK    1  A    between atoms: C2_2  and  N1_3 
REMARK    2  A    between atoms: N1_3  and  C3_5 
REMARK    3  A    between atoms: C3_5  and  O2_10 
REMARK    4  A    between atoms: N2_6  and  O1_8 
REMARK    5  A    between atoms: O2_10  and  C4_11 
REMARK    6  A    between atoms: C4_11  and  O3_12 
REMARK    7  A    between atoms: C4_11  and  C5_14 
REMARK    8  A    between atoms: C7_16  and  C8_17 
REMARK    9  A    between atoms: C9_18  and  C10_19 
REMARK   10  A    between atoms: C10_19  and  S1_31 
REMARK   11  A    between atoms: C11_20  and  C12_21 
REMARK   12  A    between atoms: C12_21  and  O4_22 
REMARK   13  A    between atoms: O4_22  and  C13_23 
ROOT
HETATM    1  C8  UNL     1      34.283  -5.392  49.661  1.00  0.00     0.002 C 
HETATM    2  C9  UNL     1      35.259  -6.179  49.989  1.00  0.00     0.021 C 
ENDROOT
BRANCH   1   3
HETATM    3  C7  UNL     1      34.115  -4.419  48.620  1.00  0.00     0.007 C 
HETATM    4  C5  UNL     1      33.342  -4.546  47.559  1.00  0.00    -0.029 C 
HETATM    5  C6  UNL     1      33.401  -3.394  46.570  1.00  0.00     0.048 C 
BRANCH   4   6
HETATM    6  C4  UNL     1      32.491  -5.684  47.209  1.00  0.00     0.296 C 
BRANCH   6   7
HETATM    7  O2  UNL     1      32.341  -5.610  45.770  1.00  0.00    -0.285 OA
BRANCH   7   8
HETATM    8  C3  UNL     1      31.898  -6.721  45.082  1.00  0.00     0.241 C 
HETATM    9  N2  UNL     1      32.267  -7.870  45.564  1.00  0.00    -0.233 N 
ATOM     10  H2  UNL     1      32.849  -7.866  46.403  1.00  0.00     0.198 HD
BRANCH   8  11
HETATM   11  N1  UNL     1      31.087  -6.642  43.918  1.00  0.00    -0.355 N 
ATOM     12  H1  UNL     1      31.504  -6.850  43.010  1.00  0.00     0.163 HD
BRANCH  11  13
HETATM   13  C2  UNL     1      29.695  -6.281  43.979  1.00  0.00     0.118 C 
HETATM   14  C1  UNL     1      28.791  -7.445  44.308  1.00  0.00     0.026 C 
ENDBRANCH  11  13
ENDBRANCH   8  11
BRANCH   9  15
HETATM   15  O1  UNL     1      31.937  -9.074  45.037  1.00  0.00    -0.287 OA
ATOM     16  H1  UNL     1      31.935  -9.894  45.516  1.00  0.00     0.244 HD
ENDBRANCH   9  15
ENDBRANCH   7   8
ENDBRANCH   6   7
BRANCH   6  17
HETATM   17  O3  UNL     1      31.173  -5.584  47.687  1.00  0.00    -0.367 OA
ATOM     18  H3  UNL     1      31.145  -4.725  48.092  1.00  0.00     0.213 HD
ENDBRANCH   6  17
ENDBRANCH   4   6
ENDBRANCH   1   3
BRANCH   2  19
HETATM   19  C10 UNL     1      36.558  -6.371  49.444  1.00  0.00     0.029 C 
HETATM   20  C11 UNL     1      37.658  -6.014  50.161  1.00  0.00     0.020 C 
BRANCH  20  21
HETATM   21  C12 UNL     1      37.619  -5.429  51.484  1.00  0.00     0.204 C 
BRANCH  21  22
HETATM   22  O4  UNL     1      38.170  -4.154  51.521  1.00  0.00    -0.346 OA
BRANCH  22  23
HETATM   23  C13 UNL     1      37.626  -2.945  51.254  1.00  0.00     0.092 A 
HETATM   24  C14 UNL     1      36.344  -2.698  50.830  1.00  0.00     0.062 A 
HETATM   25  C15 UNL     1      35.842  -1.425  50.572  1.00  0.00     0.036 A 
HETATM   26 CL1  UNL     1      34.202  -1.164  50.030  1.00  0.00    -0.084 Cl
HETATM   27  C16 UNL     1      36.650  -0.324  50.745  1.00  0.00     0.026 A 
HETATM   28  C17 UNL     1      37.938  -0.540  51.169  1.00  0.00     0.028 A 
HETATM   29  C18 UNL     1      38.426  -1.799  51.421  1.00  0.00     0.067 A 
HETATM   30 CL2  UNL     1      40.067  -2.031  51.957  1.00  0.00    -0.081 Cl
ENDBRANCH  22  23
ENDBRANCH  21  22
ENDBRANCH  20  21
BRANCH  19  31
HETATM   31  S1  UNL     1      36.930  -6.817  47.800  1.00  0.00     0.045 S 
HETATM   32  C19 UNL     1      36.391  -8.366  47.265  1.00  0.00     0.133 C 
HETATM   33  O5  UNL     1      38.365  -6.253  47.268  1.00  0.00    -0.253 OA
ENDBRANCH  19  31
ENDBRANCH   2  19
TORSDOF 13
ENDMDL
MODEL 3
REMARK VINA RESULT: -6.376974780      4.749      7.182
REMARK  13 active torsions:
REMARK  status: ('A' for Active; 'I' for Inactive)
REMARK    1  A    between atoms: C2_2  and  N1_3 
REMARK    2  A    between atoms: N1_3  and  C3_5 
REMARK    3  A    between atoms: C3_5  and  O2_10 
REMARK    4  A    between atoms: N2_6  and  O1_8 
REMARK    5  A    between atoms: O2_10  and  C4_11 
REMARK    6  A    between atoms: C4_11  and  O3_12 
REMARK    7  A    between atoms: C4_11  and  C5_14 
REMARK    8  A    between atoms: C7_16  and  C8_17 
REMARK    9  A    between atoms: C9_18  and  C10_19 
REMARK   10  A    between atoms: C10_19  and  S1_31 
REMARK   11  A    between atoms: C11_20  and  C12_21 
REMARK   12  A    between atoms: C12_21  and  O4_22 
REMARK   13  A    between atoms: O4_22  and  C13_23 
ROOT
HETATM    1  C8  UNL     1      37.926  -8.967  53.177  1.00  0.00     0.002 C 
HETATM    2  C9  UNL     1      37.711  -8.088  52.249  1.00  0.00     0.021 C 
ENDROOT
BRANCH   1   3
HETATM    3  C7  UNL     1      38.607 -10.230  53.193  1.00  0.00     0.007 C 
HETATM    4  C5  UNL     1      39.313 -10.715  54.196  1.00  0.00    -0.029 C 
HETATM    5  C6  UNL     1      39.994 -12.046  53.926  1.00  0.00     0.048 C 
BRANCH   4   6
HETATM    6  C4  UNL     1      39.554 -10.093  55.498  1.00  0.00     0.296 C 
BRANCH   6   7
HETATM    7  O2  UNL     1      40.414  -8.962  55.219  1.00  0.00    -0.285 OA
BRANCH   7   8
HETATM    8  C3  UNL     1      41.708  -8.964  55.699  1.00  0.00     0.241 C 
HETATM    9  N2  UNL     1      41.851  -8.605  56.940  1.00  0.00    -0.233 N 
ATOM     10  H2  UNL     1      41.010  -8.351  57.458  1.00  0.00     0.198 HD
BRANCH   8  11
HETATM   11  N1  UNL     1      42.830  -9.334  54.910  1.00  0.00    -0.355 N 
ATOM     12  H1  UNL     1      43.408  -8.602  54.499  1.00  0.00     0.163 HD
BRANCH  11  13
HETATM   13  C2  UNL     1      43.178 -10.711  54.673  1.00  0.00     0.118 C 
HETATM   14  C1  UNL     1      44.018 -11.311  55.776  1.00  0.00     0.026 C 
ENDBRANCH  11  13
ENDBRANCH   8  11
BRANCH   9  15
HETATM   15  O1  UNL     1      43.035  -8.543  57.597  1.00  0.00    -0.287 OA
ATOM     16  H1  UNL     1      43.822  -8.133  57.258  1.00  0.00     0.244 HD
ENDBRANCH   9  15
ENDBRANCH   7   8
ENDBRANCH   6   7
BRANCH   6  17
HETATM   17  O3  UNL     1      40.315 -10.881  56.378  1.00  0.00    -0.367 OA
ATOM     18  H3  UNL     1      39.751 -11.622  56.563  1.00  0.00     0.213 HD
ENDBRANCH   6  17
ENDBRANCH   4   6
ENDBRANCH   1   3
BRANCH   2  19
HETATM   19  C10 UNL     1      38.060  -8.045  50.872  1.00  0.00     0.029 C 
HETATM   20  C11 UNL     1      38.222  -6.848  50.245  1.00  0.00     0.020 C 
BRANCH  20  21
HETATM   21  C12 UNL     1      38.060  -5.561  50.886  1.00  0.00     0.204 C 
BRANCH  21  22
HETATM   22  O4  UNL     1      36.770  -5.061  50.761  1.00  0.00    -0.346 OA
BRANCH  22  23
HETATM   23  C13 UNL     1      36.317  -3.791  50.654  1.00  0.00     0.092 A 
HETATM   24  C14 UNL     1      36.947  -2.656  51.101  1.00  0.00     0.062 A 
HETATM   25  C15 UNL     1      36.428  -1.372  50.960  1.00  0.00     0.036 A 
HETATM   26 CL1  UNL     1      37.270   0.042  51.549  1.00  0.00    -0.084 Cl
HETATM   27  C16 UNL     1      35.213  -1.190  50.338  1.00  0.00     0.026 A 
HETATM   28  C17 UNL     1      34.560  -2.307  49.881  1.00  0.00     0.028 A 
HETATM   29  C18 UNL     1      35.079  -3.572  50.025  1.00  0.00     0.067 A 
HETATM   30 CL2  UNL     1      34.217  -4.964  49.432  1.00  0.00    -0.081 Cl
ENDBRANCH  22  23
ENDBRANCH  21  22
ENDBRANCH  20  21
BRANCH  19  31
HETATM   31  S1  UNL     1      38.086  -9.399  49.773  1.00  0.00     0.045 S 
HETATM   32  C19 UNL     1      36.699 -10.425  49.758  1.00  0.00     0.133 C 
HETATM   33  O5  UNL     1      39.563 -10.064  49.575  1.00  0.00    -0.253 OA
ENDBRANCH  19  31
ENDBRANCH   2  19
TORSDOF 13
ENDMDL
MODEL 4
REMARK VINA RESULT: -6.345456141      6.413      9.172
REMARK  13 active torsions:
REMARK  status: ('A' for Active; 'I' for Inactive)
REMARK    1  A    between atoms: C2_2  and  N1_3 
REMARK    2  A    between atoms: N1_3  and  C3_5 
REMARK    3  A    between atoms: C3_5  and  O2_10 
REMARK    4  A    between atoms: N2_6  and  O1_8 
REMARK    5  A    between atoms: O2_10  and  C4_11 
REMARK    6  A    between atoms: C4_11  and  O3_12 
REMARK    7  A    between atoms: C4_11  and  C5_14 
REMARK    8  A    between atoms: C7_16  and  C8_17 
REMARK    9  A    between atoms: C9_18  and  C10_19 
REMARK   10  A    between atoms: C10_19  and  S1_31 
REMARK   11  A    between atoms: C11_20  and  C12_21 
REMARK   12  A    between atoms: C12_21  and  O4_22 
REMARK   13  A    between atoms: O4_22  and  C13_23 
ROOT
HETATM    1  C8  UNL     1      37.205  -5.973  48.949  1.00  0.00     0.002 C 
HETATM    2  C9  UNL     1      36.160  -5.765  48.210  1.00  0.00     0.021 C 
ENDROOT
BRANCH   1   3
HETATM    3  C7  UNL     1      37.381  -6.498  50.272  1.00  0.00     0.007 C 
HETATM    4  C5  UNL     1      37.992  -7.625  50.583  1.00  0.00    -0.029 C 
HETATM    5  C6  UNL     1      37.977  -7.987  52.058  1.00  0.00     0.048 C 
BRANCH   4   6
HETATM    6  C4  UNL     1      38.623  -8.577  49.668  1.00  0.00     0.296 C 
BRANCH   6   7
HETATM    7  O2  UNL     1      37.525  -9.316  49.081  1.00  0.00    -0.285 OA
BRANCH   7   8
HETATM    8  C3  UNL     1      37.558  -9.615  47.735  1.00  0.00     0.241 C 
HETATM    9  N2  UNL     1      36.462  -9.379  47.076  1.00  0.00    -0.233 N 
ATOM     10  H2  UNL     1      35.672  -8.997  47.595  1.00  0.00     0.198 HD
BRANCH   8  11
HETATM   11  N1  UNL     1      38.703 -10.145  47.083  1.00  0.00    -0.355 N 
ATOM     12  H1  UNL     1      39.226  -9.551  46.440  1.00  0.00     0.163 HD
BRANCH  11  13
HETATM   13  C2  UNL     1      39.150 -11.496  47.302  1.00  0.00     0.118 C 
HETATM   14  C1  UNL     1      38.124 -12.533  46.910  1.00  0.00     0.026 C 
ENDBRANCH  11  13
ENDBRANCH   8  11
BRANCH   9  15
HETATM   15  O1  UNL     1      36.292  -9.602  45.750  1.00  0.00    -0.287 OA
ATOM     16  H1  UNL     1      36.336 -10.455  45.334  1.00  0.00     0.244 HD
ENDBRANCH   9  15
ENDBRANCH   7   8
ENDBRANCH   6   7
BRANCH   6  17
HETATM   17  O3  UNL     1      39.387  -9.567  50.308  1.00  0.00    -0.367 OA
ATOM     18  H3  UNL     1      39.043 -10.380  49.957  1.00  0.00     0.213 HD
ENDBRANCH   6  17
ENDBRANCH   4   6
ENDBRANCH   1   3
BRANCH   2  19
HETATM   19  C10 UNL     1      34.772  -5.966  48.437  1.00  0.00     0.029 C 
HETATM   20  C11 UNL     1      33.957  -4.901  48.671  1.00  0.00     0.020 C 
BRANCH  20  21
HETATM   21  C12 UNL     1      34.401  -3.525  48.711  1.00  0.00     0.204 C 
BRANCH  21  22
HETATM   22  O4  UNL     1      34.645  -3.080  50.004  1.00  0.00    -0.346 OA
BRANCH  22  23
HETATM   23  C13 UNL     1      35.731  -2.486  50.548  1.00  0.00     0.092 A 
HETATM   24  C14 UNL     1      36.823  -3.115  51.092  1.00  0.00     0.062 A 
HETATM   25  C15 UNL     1      37.915  -2.445  51.638  1.00  0.00     0.036 A 
HETATM   26 CL1  UNL     1      39.281  -3.294  52.321  1.00  0.00    -0.084 Cl
HETATM   27  C16 UNL     1      37.936  -1.068  51.648  1.00  0.00     0.026 A 
HETATM   28  C17 UNL     1      36.857  -0.411  51.111  1.00  0.00     0.028 A 
HETATM   29  C18 UNL     1      35.783  -1.080  50.574  1.00  0.00     0.067 A 
HETATM   30 CL2  UNL     1      34.433  -0.209  49.903  1.00  0.00    -0.081 Cl
ENDBRANCH  22  23
ENDBRANCH  21  22
ENDBRANCH  20  21
BRANCH  19  31
HETATM   31  S1  UNL     1      33.981  -7.499  48.694  1.00  0.00     0.045 S 
HETATM   32  C19 UNL     1      34.271  -8.290  50.200  1.00  0.00     0.133 C 
HETATM   33  O5  UNL     1      33.831  -8.402  47.344  1.00  0.00    -0.253 OA
ENDBRANCH  19  31
ENDBRANCH   2  19
TORSDOF 13
ENDMDL
MODEL 5
REMARK VINA RESULT: -6.321924222      5.029      7.291
REMARK  13 active torsions:
REMARK  status: ('A' for Active; 'I' for Inactive)
REMARK    1  A    between atoms: C2_2  and  N1_3 
REMARK    2  A    between atoms: N1_3  and  C3_5 
REMARK    3  A    between atoms: C3_5  and  O2_10 
REMARK    4  A    between atoms: N2_6  and  O1_8 
REMARK    5  A    between atoms: O2_10  and  C4_11 
REMARK    6  A    between atoms: C4_11  and  O3_12 
REMARK    7  A    between atoms: C4_11  and  C5_14 
REMARK    8  A    between atoms: C7_16  and  C8_17 
REMARK    9  A    between atoms: C9_18  and  C10_19 
REMARK   10  A    between atoms: C10_19  and  S1_31 
REMARK   11  A    between atoms: C11_20  and  C12_21 
REMARK   12  A    between atoms: C12_21  and  O4_22 
REMARK   13  A    between atoms: O4_22  and  C13_23 
ROOT
HETATM    1  C8  UNL     1      36.192  -9.204  50.803  1.00  0.00     0.002 C 
HETATM    2  C9  UNL     1      36.184  -8.050  51.394  1.00  0.00     0.021 C 
ENDROOT
BRANCH   1   3
HETATM    3  C7  UNL     1      37.005 -10.377  50.953  1.00  0.00     0.007 C 
HETATM    4  C5  UNL     1      38.181 -10.580  50.392  1.00  0.00    -0.029 C 
HETATM    5  C6  UNL     1      38.801 -11.941  50.656  1.00  0.00     0.048 C 
BRANCH   4   6
HETATM    6  C4  UNL     1      38.916  -9.671  49.511  1.00  0.00     0.296 C 
BRANCH   6   7
HETATM    7  O2  UNL     1      38.376  -9.914  48.189  1.00  0.00    -0.285 OA
BRANCH   7   8
HETATM    8  C3  UNL     1      37.862  -8.857  47.467  1.00  0.00     0.241 C 
HETATM    9  N2  UNL     1      38.537  -7.747  47.531  1.00  0.00    -0.233 N 
ATOM     10  H2  UNL     1      39.382  -7.741  48.103  1.00  0.00     0.198 HD
BRANCH   8  11
HETATM   11  N1  UNL     1      36.676  -8.948  46.691  1.00  0.00    -0.355 N 
ATOM     12  H1  UNL     1      36.685  -8.602  45.731  1.00  0.00     0.163 HD
BRANCH  11  13
HETATM   13  C2  UNL     1      35.460  -9.512  47.216  1.00  0.00     0.118 C 
HETATM   14  C1  UNL     1      34.467  -8.469  47.671  1.00  0.00     0.026 C 
ENDBRANCH  11  13
ENDBRANCH   8  11
BRANCH   9  15
HETATM   15  O1  UNL     1      38.201  -6.598  46.896  1.00  0.00    -0.287 OA
ATOM     16  H1  UNL     1      38.045  -5.766  47.326  1.00  0.00     0.244 HD
ENDBRANCH   9  15
ENDBRANCH   7   8
ENDBRANCH   6   7
BRANCH   6  17
HETATM   17  O3  UNL     1      40.280  -9.981  49.375  1.00  0.00    -0.367 OA
ATOM     18  H3  UNL     1      40.686  -9.140  49.204  1.00  0.00     0.213 HD
ENDBRANCH   6  17
ENDBRANCH   4   6
ENDBRANCH   1   3
BRANCH   2  19
HETATM   19  C10 UNL     1      36.997  -7.495  52.420  1.00  0.00     0.029 C 
HETATM   20  C11 UNL     1      37.994  -6.624  52.104  1.00  0.00     0.020 C 
BRANCH  20  21
HETATM   21  C12 UNL     1      38.314  -6.199  50.759  1.00  0.00     0.204 C 
BRANCH  21  22
HETATM   22  O4  UNL     1      37.966  -4.876  50.520  1.00  0.00    -0.346 OA
BRANCH  22  23
HETATM   23  C13 UNL     1      36.778  -4.315  50.196  1.00  0.00     0.092 A 
HETATM   24  C14 UNL     1      35.804  -4.863  49.399  1.00  0.00     0.062 A 
HETATM   25  C15 UNL     1      34.597  -4.234  49.103  1.00  0.00     0.036 A 
HETATM   26 CL1  UNL     1      33.390  -4.973  48.079  1.00  0.00    -0.084 Cl
HETATM   27  C16 UNL     1      34.330  -2.989  49.625  1.00  0.00     0.026 A 
HETATM   28  C17 UNL     1      35.285  -2.416  50.427  1.00  0.00     0.028 A 
HETATM   29  C18 UNL     1      36.474  -3.043  50.714  1.00  0.00     0.067 A 
HETATM   30 CL2  UNL     1      37.663  -2.282  51.734  1.00  0.00    -0.081 Cl
ENDBRANCH  22  23
ENDBRANCH  21  22
ENDBRANCH  20  21
BRANCH  19  31
HETATM   31  S1  UNL     1      37.026  -7.989  54.092  1.00  0.00     0.045 S 
HETATM   32  C19 UNL     1      38.141  -9.232  54.526  1.00  0.00     0.133 C 
HETATM   33  O5  UNL     1      35.567  -7.947  54.821  1.00  0.00    -0.253 OA
ENDBRANCH  19  31
ENDBRANCH   2  19
TORSDOF 13
ENDMDL
