MODEL 1
REMARK VINA RESULT: -7.547266327      0.000      0.000
REMARK  11 active torsions:
REMARK  status: ('A' for Active; 'I' for Inactive)
REMARK    1  A    between atoms: C2_2  and  C4_4 
REMARK    2  A    between atoms: C4_4  and  C5_5 
REMARK    3  A    between atoms: C5_5  and  O1_6 
REMARK    4  A    between atoms: C5_5  and  C6_8 
REMARK    5  A    between atoms: C6_8  and  O2_9 
REMARK    6  A    between atoms: O2_9  and  C7_10 
REMARK    7  A    between atoms: N1_16  and  C13_17 
REMARK    8  A    between atoms: C18_24  and  C19_25 
REMARK    9  A    between atoms: C19_25  and  O3_28 
REMARK   10  A    between atoms: N3_30  and  C22_31 
REMARK   11  A    between atoms: C22_31  and  C23_32 
ROOT
HETATM    1  C13 UNL     1      37.489  -8.265  51.199  1.00  0.00     0.121 A 
HETATM    2  C14 UNL     1      38.079  -9.424  50.751  1.00  0.00     0.138 A 
HETATM    3  N2  UNL     1      38.690 -10.306  51.575  1.00  0.00    -0.347 N 
ATOM      4  H2  UNL     1      39.113 -11.153  51.193  1.00  0.00     0.167 HD
HETATM    5  C15 UNL     1      38.739 -10.063  52.900  1.00  0.00     0.135 A 
HETATM    6  C16 UNL     1      38.165  -8.925  53.390  1.00  0.00     0.080 A 
HETATM    7  C17 UNL     1      38.385  -8.987  54.753  1.00  0.00     0.061 A 
HETATM    8  C18 UNL     1      39.081 -10.157  55.036  1.00  0.00     0.049 A 
HETATM    9  N3  UNL     1      39.288 -10.799  53.898  1.00  0.00    -0.327 N 
HETATM   10  N4  UNL     1      37.573  -8.078  52.558  1.00  0.00    -0.338 N 
ATOM     11  H4  UNL     1      37.154  -7.235  52.951  1.00  0.00     0.167 HD
ENDROOT
BRANCH   1  12
HETATM   12  N1  UNL     1      36.850  -7.293  50.394  1.00  0.00    -0.339 N 
HETATM   13  C7  UNL     1      37.613  -6.362  49.642  1.00  0.00     0.224 C 
HETATM   14  C8  UNL     1      37.520  -6.596  48.143  1.00  0.00     0.054 C 
HETATM   15  C9  UNL     1      36.183  -7.150  47.730  1.00  0.00     0.004 C 
HETATM   16  C10 UNL     1      35.915  -8.521  48.255  1.00  0.00     0.002 C 
HETATM   17  C11 UNL     1      35.010  -8.482  49.472  1.00  0.00     0.020 C 
HETATM   18  C12 UNL     1      35.371  -7.430  50.470  1.00  0.00     0.127 C 
BRANCH  13  19
HETATM   19  O2  UNL     1      37.233  -5.039  49.942  1.00  0.00    -0.364 OA
BRANCH  19  20
HETATM   20  C6  UNL     1      37.621  -4.561  51.146  1.00  0.00     0.202 C 
BRANCH  20  21
HETATM   21  C5  UNL     1      37.474  -3.082  51.373  1.00  0.00     0.142 C 
BRANCH  21  22
HETATM   22  C4  UNL     1      36.174  -2.594  50.751  1.00  0.00     0.037 C 
BRANCH  22  23
HETATM   23  C2  UNL     1      36.030  -1.099  50.884  1.00  0.00    -0.020 C 
HETATM   24  C1  UNL     1      34.713  -0.700  50.255  1.00  0.00     0.009 C 
HETATM   25  C3  UNL     1      37.153  -0.341  50.236  1.00  0.00     0.009 C 
ENDBRANCH  22  23
ENDBRANCH  21  22
BRANCH  21  26
HETATM   26  O1  UNL     1      37.518  -2.844  52.741  1.00  0.00    -0.393 OA
ATOM     27  H1  UNL     1      38.346  -2.465  53.010  1.00  0.00     0.210 HD
ENDBRANCH  21  26
ENDBRANCH  20  21
ENDBRANCH  19  20
ENDBRANCH  13  19
ENDBRANCH   1  12
BRANCH   9  28
HETATM   28  C22 UNL     1      39.972 -12.064  53.726  1.00  0.00     0.201 C 
BRANCH  28  29
HETATM   29  C23 UNL     1      41.372 -11.899  53.173  1.00  0.00     0.371 C 
HETATM   30  F1  UNL     1      41.943 -13.181  53.230  1.00  0.00    -0.213 F 
HETATM   31  F2  UNL     1      42.100 -11.113  54.039  1.00  0.00    -0.213 F 
ENDBRANCH  28  29
ENDBRANCH   9  28
BRANCH   8  32
HETATM   32  C19 UNL     1      39.452 -10.517  56.422  1.00  0.00     0.093 C 
HETATM   33  C20 UNL     1      40.349  -9.405  56.953  1.00  0.00     0.052 C 
HETATM   34  C21 UNL     1      40.210 -11.779  56.605  1.00  0.00     0.052 C 
BRANCH  32  35
HETATM   35  O3  UNL     1      38.313 -10.468  57.270  1.00  0.00    -0.384 OA
ATOM     36  H3  UNL     1      37.858 -11.302  57.264  1.00  0.00     0.211 HD
ENDBRANCH  32  35
ENDBRANCH   8  32
TORSDOF 11
ENDMDL
MODEL 2
REMARK VINA RESULT: -7.289854374      5.472      8.310
REMARK  11 active torsions:
REMARK  status: ('A' for Active; 'I' for Inactive)
REMARK    1  A    between atoms: C2_2  and  C4_4 
REMARK    2  A    between atoms: C4_4  and  C5_5 
REMARK    3  A    between atoms: C5_5  and  O1_6 
REMARK    4  A    between atoms: C5_5  and  C6_8 
REMARK    5  A    between atoms: C6_8  and  O2_9 
REMARK    6  A    between atoms: O2_9  and  C7_10 
REMARK    7  A    between atoms: N1_16  and  C13_17 
REMARK    8  A    between atoms: C18_24  and  C19_25 
REMARK    9  A    between atoms: C19_25  and  O3_28 
REMARK   10  A    between atoms: N3_30  and  C22_31 
REMARK   11  A    between atoms: C22_31  and  C23_32 
ROOT
HETATM    1  C13 UNL     1      35.349  -6.523  48.301  1.00  0.00     0.121 A 
HETATM    2  C14 UNL     1      34.880  -5.983  47.126  1.00  0.00     0.138 A 
HETATM    3  N2  UNL     1      33.650  -6.251  46.632  1.00  0.00    -0.347 N 
ATOM      4  H2  UNL     1      33.347  -5.825  45.755  1.00  0.00     0.167 HD
HETATM    5  C15 UNL     1      32.825  -7.081  47.299  1.00  0.00     0.135 A 
HETATM    6  C16 UNL     1      33.248  -7.640  48.472  1.00  0.00     0.080 A 
HETATM    7  C17 UNL     1      32.183  -8.416  48.889  1.00  0.00     0.061 A 
HETATM    8  C18 UNL     1      31.157  -8.298  47.957  1.00  0.00     0.049 A 
HETATM    9  N3  UNL     1      31.565  -7.484  46.997  1.00  0.00    -0.327 N 
HETATM   10  N4  UNL     1      34.460  -7.359  48.932  1.00  0.00    -0.338 N 
ATOM     11  H4  UNL     1      34.750  -7.791  49.810  1.00  0.00     0.167 HD
ENDROOT
BRANCH   1  12
HETATM   12  N1  UNL     1      36.627  -6.301  48.866  1.00  0.00    -0.339 N 
HETATM   13  C7  UNL     1      36.761  -5.930  50.229  1.00  0.00     0.224 C 
HETATM   14  C8  UNL     1      37.387  -7.023  51.079  1.00  0.00     0.054 C 
HETATM   15  C9  UNL     1      38.379  -7.852  50.309  1.00  0.00     0.004 C 
HETATM   16  C10 UNL     1      37.765  -8.655  49.212  1.00  0.00     0.002 C 
HETATM   17  C11 UNL     1      37.961  -7.993  47.862  1.00  0.00     0.020 C 
HETATM   18  C12 UNL     1      37.699  -6.522  47.857  1.00  0.00     0.127 C 
BRANCH  13  19
HETATM   19  O2  UNL     1      37.504  -4.741  50.358  1.00  0.00    -0.364 OA
BRANCH  19  20
HETATM   20  C6  UNL     1      36.818  -3.642  50.744  1.00  0.00     0.202 C 
BRANCH  20  21
HETATM   21  C5  UNL     1      37.580  -2.592  51.503  1.00  0.00     0.142 C 
BRANCH  21  22
HETATM   22  C4  UNL     1      36.726  -1.341  51.646  1.00  0.00     0.037 C 
BRANCH  22  23
HETATM   23  C2  UNL     1      36.098  -0.953  50.331  1.00  0.00    -0.020 C 
HETATM   24  C1  UNL     1      36.859   0.236  49.785  1.00  0.00     0.009 C 
HETATM   25  C3  UNL     1      34.641  -0.610  50.454  1.00  0.00     0.009 C 
ENDBRANCH  22  23
ENDBRANCH  21  22
BRANCH  21  26
HETATM   26  O1  UNL     1      37.939  -3.120  52.737  1.00  0.00    -0.393 OA
ATOM     27  H1  UNL     1      37.464  -3.919  52.934  1.00  0.00     0.210 HD
ENDBRANCH  21  26
ENDBRANCH  20  21
ENDBRANCH  19  20
ENDBRANCH  13  19
ENDBRANCH   1  12
BRANCH   9  28
HETATM   28  C22 UNL     1      30.816  -7.077  45.827  1.00  0.00     0.201 C 
BRANCH  28  29
HETATM   29  C23 UNL     1      31.235  -7.824  44.578  1.00  0.00     0.371 C 
HETATM   30  F1  UNL     1      31.673  -6.832  43.686  1.00  0.00    -0.213 F 
HETATM   31  F2  UNL     1      30.117  -8.391  44.005  1.00  0.00    -0.213 F 
ENDBRANCH  28  29
ENDBRANCH   9  28
BRANCH   8  32
HETATM   32  C19 UNL     1      29.870  -9.003  48.135  1.00  0.00     0.093 C 
HETATM   33  C20 UNL     1      29.971  -9.809  49.424  1.00  0.00     0.052 C 
HETATM   34  C21 UNL     1      29.484  -9.968  47.076  1.00  0.00     0.052 C 
BRANCH  32  35
HETATM   35  O3  UNL     1      28.827  -8.075  48.395  1.00  0.00    -0.384 OA
ATOM     36  H3  UNL     1      28.750  -7.452  47.683  1.00  0.00     0.211 HD
ENDBRANCH  32  35
ENDBRANCH   8  32
TORSDOF 11
ENDMDL
MODEL 3
REMARK VINA RESULT: -7.285578735      5.483      9.021
REMARK  11 active torsions:
REMARK  status: ('A' for Active; 'I' for Inactive)
REMARK    1  A    between atoms: C2_2  and  C4_4 
REMARK    2  A    between atoms: C4_4  and  C5_5 
REMARK    3  A    between atoms: C5_5  and  O1_6 
REMARK    4  A    between atoms: C5_5  and  C6_8 
REMARK    5  A    between atoms: C6_8  and  O2_9 
REMARK    6  A    between atoms: O2_9  and  C7_10 
REMARK    7  A    between atoms: N1_16  and  C13_17 
REMARK    8  A    between atoms: C18_24  and  C19_25 
REMARK    9  A    between atoms: C19_25  and  O3_28 
REMARK   10  A    between atoms: N3_30  and  C22_31 
REMARK   11  A    between atoms: C22_31  and  C23_32 
ROOT
HETATM    1  C13 UNL     1      35.153  -6.296  48.010  1.00  0.00     0.121 A 
HETATM    2  C14 UNL     1      34.776  -7.552  47.592  1.00  0.00     0.138 A 
HETATM    3  N2  UNL     1      33.572  -7.812  47.035  1.00  0.00    -0.347 N 
ATOM      4  H2  UNL     1      33.339  -8.762  46.741  1.00  0.00     0.167 HD
HETATM    5  C15 UNL     1      32.680  -6.816  46.869  1.00  0.00     0.135 A 
HETATM    6  C16 UNL     1      33.011  -5.552  47.268  1.00  0.00     0.080 A 
HETATM    7  C17 UNL     1      31.901  -4.790  46.957  1.00  0.00     0.061 A 
HETATM    8  C18 UNL     1      30.942  -5.618  46.383  1.00  0.00     0.049 A 
HETATM    9  N3  UNL     1      31.432  -6.846  46.338  1.00  0.00    -0.327 N 
HETATM   10  N4  UNL     1      34.200  -5.326  47.812  1.00  0.00    -0.338 N 
ATOM     11  H4  UNL     1      34.421  -4.374  48.101  1.00  0.00     0.167 HD
ENDROOT
BRANCH   1  12
HETATM   12  N1  UNL     1      36.386  -5.957  48.614  1.00  0.00    -0.339 N 
HETATM   13  C7  UNL     1      36.422  -5.382  49.911  1.00  0.00     0.224 C 
HETATM   14  C8  UNL     1      37.008  -6.317  50.956  1.00  0.00     0.054 C 
HETATM   15  C9  UNL     1      38.063  -7.225  50.386  1.00  0.00     0.004 C 
HETATM   16  C10 UNL     1      37.538  -8.201  49.387  1.00  0.00     0.002 C 
HETATM   17  C11 UNL     1      37.813  -7.744  47.967  1.00  0.00     0.020 C 
HETATM   18  C12 UNL     1      37.527  -6.298  47.722  1.00  0.00     0.127 C 
BRANCH  13  19
HETATM   19  O2  UNL     1      37.134  -4.167  49.905  1.00  0.00    -0.364 OA
BRANCH  19  20
HETATM   20  C6  UNL     1      37.147  -3.472  51.064  1.00  0.00     0.202 C 
BRANCH  20  21
HETATM   21  C5  UNL     1      37.679  -2.067  51.012  1.00  0.00     0.142 C 
BRANCH  21  22
HETATM   22  C4  UNL     1      36.741  -1.134  51.764  1.00  0.00     0.037 C 
BRANCH  22  23
HETATM   23  C2  UNL     1      36.045  -0.182  50.825  1.00  0.00    -0.020 C 
HETATM   24  C1  UNL     1      34.765  -0.840  50.358  1.00  0.00     0.009 C 
HETATM   25  C3  UNL     1      36.886   0.192  49.637  1.00  0.00     0.009 C 
ENDBRANCH  22  23
ENDBRANCH  21  22
BRANCH  21  26
HETATM   26  O1  UNL     1      38.959  -2.064  51.554  1.00  0.00    -0.393 OA
ATOM     27  H1  UNL     1      38.976  -2.437  52.427  1.00  0.00     0.210 HD
ENDBRANCH  21  26
ENDBRANCH  20  21
ENDBRANCH  19  20
ENDBRANCH  13  19
ENDBRANCH   1  12
BRANCH   9  28
HETATM   28  C22 UNL     1      30.774  -8.025  45.815  1.00  0.00     0.201 C 
BRANCH  28  29
HETATM   29  C23 UNL     1      31.092  -8.271  44.355  1.00  0.00     0.371 C 
HETATM   30  F1  UNL     1      32.002  -9.340  44.352  1.00  0.00    -0.213 F 
HETATM   31  F2  UNL     1      31.775  -7.181  43.861  1.00  0.00    -0.213 F 
ENDBRANCH  28  29
ENDBRANCH   9  28
BRANCH   8  32
HETATM   32  C19 UNL     1      29.640  -5.087  45.925  1.00  0.00     0.093 C 
HETATM   33  C20 UNL     1      29.652  -3.584  46.177  1.00  0.00     0.052 C 
HETATM   34  C21 UNL     1      28.429  -5.609  46.605  1.00  0.00     0.052 C 
BRANCH  32  35
HETATM   35  O3  UNL     1      29.529  -5.193  44.513  1.00  0.00    -0.384 OA
ATOM     36  H3  UNL     1      28.951  -4.520  44.173  1.00  0.00     0.211 HD
ENDBRANCH  32  35
ENDBRANCH   8  32
TORSDOF 11
ENDMDL
MODEL 4
REMARK VINA RESULT: -7.176080108      4.568      7.319
REMARK  11 active torsions:
REMARK  status: ('A' for Active; 'I' for Inactive)
REMARK    1  A    between atoms: C2_2  and  C4_4 
REMARK    2  A    between atoms: C4_4  and  C5_5 
REMARK    3  A    between atoms: C5_5  and  O1_6 
REMARK    4  A    between atoms: C5_5  and  C6_8 
REMARK    5  A    between atoms: C6_8  and  O2_9 
REMARK    6  A    between atoms: O2_9  and  C7_10 
REMARK    7  A    between atoms: N1_16  and  C13_17 
REMARK    8  A    between atoms: C18_24  and  C19_25 
REMARK    9  A    between atoms: C19_25  and  O3_28 
REMARK   10  A    between atoms: N3_30  and  C22_31 
REMARK   11  A    between atoms: C22_31  and  C23_32 
ROOT
HETATM    1  C13 UNL     1      36.342  -7.077  50.000  1.00  0.00     0.121 A 
HETATM    2  C14 UNL     1      37.302  -7.024  50.984  1.00  0.00     0.138 A 
HETATM    3  N2  UNL     1      37.715  -5.866  51.548  1.00  0.00    -0.347 N 
ATOM      4  H2  UNL     1      38.430  -5.879  52.276  1.00  0.00     0.167 HD
HETATM    5  C15 UNL     1      37.179  -4.696  51.148  1.00  0.00     0.135 A 
HETATM    6  C16 UNL     1      36.221  -4.700  50.174  1.00  0.00     0.080 A 
HETATM    7  C17 UNL     1      35.890  -3.370  50.009  1.00  0.00     0.061 A 
HETATM    8  C18 UNL     1      36.656  -2.610  50.887  1.00  0.00     0.049 A 
HETATM    9  N3  UNL     1      37.434  -3.433  51.571  1.00  0.00    -0.327 N 
HETATM   10  N4  UNL     1      35.837  -5.852  49.638  1.00  0.00    -0.338 N 
ATOM     11  H4  UNL     1      35.120  -5.826  48.912  1.00  0.00     0.167 HD
ENDROOT
BRANCH   1  12
HETATM   12  N1  UNL     1      35.878  -8.248  49.355  1.00  0.00    -0.339 N 
HETATM   13  C7  UNL     1      35.062  -8.160  48.197  1.00  0.00     0.224 C 
HETATM   14  C8  UNL     1      35.771  -8.635  46.939  1.00  0.00     0.054 C 
HETATM   15  C9  UNL     1      36.759  -9.735  47.217  1.00  0.00     0.004 C 
HETATM   16  C10 UNL     1      37.916  -9.303  48.055  1.00  0.00     0.002 C 
HETATM   17  C11 UNL     1      37.739  -9.719  49.503  1.00  0.00     0.020 C 
HETATM   18  C12 UNL     1      36.371  -9.468  50.049  1.00  0.00     0.127 C 
BRANCH  13  19
HETATM   19  O2  UNL     1      33.863  -8.878  48.369  1.00  0.00    -0.364 OA
BRANCH  19  20
HETATM   20  C6  UNL     1      32.773  -8.154  48.710  1.00  0.00     0.202 C 
BRANCH  20  21
HETATM   21  C5  UNL     1      32.730  -6.725  48.246  1.00  0.00     0.142 C 
BRANCH  21  22
HETATM   22  C4  UNL     1      31.553  -6.527  47.302  1.00  0.00     0.037 C 
BRANCH  22  23
HETATM   23  C2  UNL     1      31.971  -5.797  46.050  1.00  0.00    -0.020 C 
HETATM   24  C1  UNL     1      31.677  -6.695  44.868  1.00  0.00     0.009 C 
HETATM   25  C3  UNL     1      33.425  -5.416  46.050  1.00  0.00     0.009 C 
ENDBRANCH  22  23
ENDBRANCH  21  22
BRANCH  21  26
HETATM   26  O1  UNL     1      32.643  -5.906  49.365  1.00  0.00    -0.393 OA
ATOM     27  H1  UNL     1      31.751  -5.624  49.531  1.00  0.00     0.210 HD
ENDBRANCH  21  26
ENDBRANCH  20  21
ENDBRANCH  19  20
ENDBRANCH  13  19
ENDBRANCH   1  12
BRANCH   9  28
HETATM   28  C22 UNL     1      38.392  -3.072  52.596  1.00  0.00     0.201 C 
BRANCH  28  29
HETATM   29  C23 UNL     1      39.809  -2.987  52.066  1.00  0.00     0.371 C 
HETATM   30  F1  UNL     1      40.630  -3.058  53.203  1.00  0.00    -0.213 F 
HETATM   31  F2  UNL     1      40.004  -1.734  51.527  1.00  0.00    -0.213 F 
ENDBRANCH  28  29
ENDBRANCH   9  28
BRANCH   8  32
HETATM   32  C19 UNL     1      36.517  -1.140  50.959  1.00  0.00     0.093 C 
HETATM   33  C20 UNL     1      35.077  -0.805  50.586  1.00  0.00     0.052 C 
HETATM   34  C21 UNL     1      37.374  -0.342  50.048  1.00  0.00     0.052 C 
BRANCH  32  35
HETATM   35  O3  UNL     1      36.631  -0.695  52.303  1.00  0.00    -0.384 OA
ATOM     36  H3  UNL     1      36.894   0.218  52.330  1.00  0.00     0.211 HD
ENDBRANCH  32  35
ENDBRANCH   8  32
TORSDOF 11
ENDMDL
MODEL 5
REMARK VINA RESULT: -7.151844994      3.602      8.706
REMARK  11 active torsions:
REMARK  status: ('A' for Active; 'I' for Inactive)
REMARK    1  A    between atoms: C2_2  and  C4_4 
REMARK    2  A    between atoms: C4_4  and  C5_5 
REMARK    3  A    between atoms: C5_5  and  O1_6 
REMARK    4  A    between atoms: C5_5  and  C6_8 
REMARK    5  A    between atoms: C6_8  and  O2_9 
REMARK    6  A    between atoms: O2_9  and  C7_10 
REMARK    7  A    between atoms: N1_16  and  C13_17 
REMARK    8  A    between atoms: C18_24  and  C19_25 
REMARK    9  A    between atoms: C19_25  and  O3_28 
REMARK   10  A    between atoms: N3_30  and  C22_31 
REMARK   11  A    between atoms: C22_31  and  C23_32 
ROOT
HETATM    1  C13 UNL     1      38.748 -11.343  51.407  1.00  0.00     0.121 A 
HETATM    2  C14 UNL     1      37.381 -11.495  51.452  1.00  0.00     0.138 A 
HETATM    3  N2  UNL     1      36.526 -10.670  50.806  1.00  0.00    -0.347 N 
ATOM      4  H2  UNL     1      35.520 -10.826  50.870  1.00  0.00     0.167 HD
HETATM    5  C15 UNL     1      37.007  -9.643  50.079  1.00  0.00     0.135 A 
HETATM    6  C16 UNL     1      38.358  -9.453  50.004  1.00  0.00     0.080 A 
HETATM    7  C17 UNL     1      38.506  -8.343  49.195  1.00  0.00     0.061 A 
HETATM    8  C18 UNL     1      37.244  -7.904  48.808  1.00  0.00     0.049 A 
HETATM    9  N3  UNL     1      36.345  -8.705  49.355  1.00  0.00    -0.327 N 
HETATM   10  N4  UNL     1      39.172 -10.279  50.649  1.00  0.00    -0.338 N 
ATOM     11  H4  UNL     1      40.176 -10.113  50.577  1.00  0.00     0.167 HD
ENDROOT
BRANCH   1  12
HETATM   12  N1  UNL     1      39.697 -12.156  52.071  1.00  0.00    -0.339 N 
HETATM   13  C7  UNL     1      39.403 -12.725  53.337  1.00  0.00     0.224 C 
HETATM   14  C8  UNL     1      39.240 -14.235  53.283  1.00  0.00     0.054 C 
HETATM   15  C9  UNL     1      40.113 -14.869  52.234  1.00  0.00     0.004 C 
HETATM   16  C10 UNL     1      39.746 -14.488  50.839  1.00  0.00     0.002 C 
HETATM   17  C11 UNL     1      40.664 -13.409  50.297  1.00  0.00     0.020 C 
HETATM   18  C12 UNL     1      40.935 -12.297  51.258  1.00  0.00     0.127 C 
BRANCH  13  19
HETATM   19  O2  UNL     1      40.388 -12.385  54.283  1.00  0.00    -0.364 OA
BRANCH  19  20
HETATM   20  C6  UNL     1      40.207 -11.222  54.949  1.00  0.00     0.202 C 
BRANCH  20  21
HETATM   21  C5  UNL     1      40.466 -11.234  56.429  1.00  0.00     0.142 C 
BRANCH  21  22
HETATM   22  C4  UNL     1      41.371 -10.069  56.802  1.00  0.00     0.037 C 
BRANCH  22  23
HETATM   23  C2  UNL     1      42.640 -10.549  57.460  1.00  0.00    -0.020 C 
HETATM   24  C1  UNL     1      43.362  -9.341  58.016  1.00  0.00     0.009 C 
HETATM   25  C3  UNL     1      43.544 -11.294  56.520  1.00  0.00     0.009 C 
ENDBRANCH  22  23
ENDBRANCH  21  22
BRANCH  21  26
HETATM   26  O1  UNL     1      39.244 -11.174  57.087  1.00  0.00    -0.393 OA
ATOM     27  H1  UNL     1      38.825 -12.026  57.138  1.00  0.00     0.210 HD
ENDBRANCH  21  26
ENDBRANCH  20  21
ENDBRANCH  19  20
ENDBRANCH  13  19
ENDBRANCH   1  12
BRANCH   9  28
HETATM   28  C22 UNL     1      34.906  -8.618  49.217  1.00  0.00     0.201 C 
BRANCH  28  29
HETATM   29  C23 UNL     1      34.260  -7.819  50.330  1.00  0.00     0.371 C 
HETATM   30  F1  UNL     1      33.617  -6.749  49.687  1.00  0.00    -0.213 F 
HETATM   31  F2  UNL     1      35.252  -7.262  51.107  1.00  0.00    -0.213 F 
ENDBRANCH  28  29
ENDBRANCH   9  28
BRANCH   8  32
HETATM   32  C19 UNL     1      37.074  -6.736  47.919  1.00  0.00     0.093 C 
HETATM   33  C20 UNL     1      38.461  -6.334  47.430  1.00  0.00     0.052 C 
HETATM   34  C21 UNL     1      36.482  -5.516  48.522  1.00  0.00     0.052 C 
BRANCH  32  35
HETATM   35  O3  UNL     1      36.391  -7.111  46.731  1.00  0.00    -0.384 OA
ATOM     36  H3  UNL     1      35.455  -7.153  46.885  1.00  0.00     0.211 HD
ENDBRANCH  32  35
ENDBRANCH   8  32
TORSDOF 11
ENDMDL
