MODEL 1
REMARK VINA RESULT: -6.624125850      0.000      0.000
REMARK  11 active torsions:
REMARK  status: ('A' for Active; 'I' for Inactive)
REMARK    1  A    between atoms: C3_5  and  N2_6 
REMARK    2  A    between atoms: C4_10  and  S2_11 
REMARK    3  A    between atoms: S2_11  and  C5_12 
REMARK    4  A    between atoms: C5_12  and  C6_13 
REMARK    5  A    between atoms: C5_12  and  C7_16 
REMARK    6  A    between atoms: C7_16  and  N3_18 
REMARK    7  A    between atoms: C12_22  and  C13_23 
REMARK    8  A    between atoms: C13_23  and  C14_24 
REMARK    9  A    between atoms: C14_24  and  C15_25 
REMARK   10  A    between atoms: C15_25  and  O2_27 
REMARK   11  A    between atoms: O2_27  and  C16_28 
ROOT
HETATM    1  C16 UNL     1      42.255 -11.932  55.719  1.00  0.00     0.151 C 
HETATM    2  C17 UNL     1      41.325 -13.019  56.232  1.00  0.00     0.063 C 
HETATM    3  C18 UNL     1      43.192 -11.574  56.848  1.00  0.00     0.063 C 
HETATM    4  C19 UNL     1      43.023 -12.475  54.579  1.00  0.00     0.097 C 
HETATM    5  N4  UNL     1      43.612 -12.915  53.676  1.00  0.00    -0.194 NA
ENDROOT
BRANCH   1   6
HETATM    6  O2  UNL     1      41.483 -10.866  55.263  1.00  0.00    -0.296 OA
BRANCH   6   7
HETATM    7  C15 UNL     1      41.463  -9.610  55.840  1.00  0.00     0.260 C 
HETATM    8  O1  UNL     1      42.357  -8.792  55.513  1.00  0.00    -0.265 OA
BRANCH   7   9
HETATM    9  C14 UNL     1      40.422  -9.216  56.824  1.00  0.00     0.115 C 
BRANCH   9  10
HETATM   10  C13 UNL     1      39.189 -10.060  56.549  1.00  0.00     0.045 C 
BRANCH  10  11
HETATM   11  C12 UNL     1      38.226  -9.307  55.685  1.00  0.00    -0.055 C 
HETATM   12  C11 UNL     1      37.197  -8.690  56.258  1.00  0.00    -0.021 C 
HETATM   13  C10 UNL     1      36.238  -7.946  55.416  1.00  0.00     0.058 C 
HETATM   14  C9  UNL     1      36.920  -7.504  54.148  1.00  0.00     0.277 C 
HETATM   15  N3  UNL     1      37.494  -8.608  53.460  1.00  0.00     0.098 N 
HETATM   16  C20 UNL     1      38.488  -9.303  54.226  1.00  0.00     0.307 C 
BRANCH  15  17
HETATM   17  C7  UNL     1      37.921  -8.351  52.110  1.00  0.00     0.238 C 
HETATM   18  C8  UNL     1      37.571  -6.891  51.741  1.00  0.00     0.044 C 
BRANCH  17  19
HETATM   19  C5  UNL     1      37.206  -9.208  51.126  1.00  0.00     0.151 C 
BRANCH  19  20
HETATM   20  S2  UNL     1      35.902  -8.226  50.258  1.00  0.00    -0.108 SA
BRANCH  20  21
HETATM   21  C4  UNL     1      35.898  -8.868  48.570  1.00  0.00     0.067 A 
HETATM   22  C2  UNL     1      36.468  -8.325  47.449  1.00  0.00     0.031 A 
HETATM   23  C1  UNL     1      37.219  -7.003  47.568  1.00  0.00     0.070 C 
HETATM   24  N1  UNL     1      36.334  -8.973  46.325  1.00  0.00    -0.339 N 
HETATM   25  C3  UNL     1      35.656 -10.120  46.322  1.00  0.00     0.143 A 
ATOM     26  H1  UNL     1      36.739  -8.608  45.463  1.00  0.00     0.168 HD
HETATM   27  S1  UNL     1      35.192 -10.298  47.953  1.00  0.00    -0.045 SA
BRANCH  25  28
HETATM   28  N2  UNL     1      35.409 -10.922  45.310  1.00  0.00    -0.380 N 
ATOM     29  H22 UNL     1      34.534 -11.390  45.072  1.00  0.00     0.158 HD
ATOM     30  H21 UNL     1      36.043 -11.230  44.573  1.00  0.00     0.158 HD
ENDBRANCH  25  28
ENDBRANCH  20  21
ENDBRANCH  19  20
BRANCH  19  31
HETATM   31  C6  UNL     1      38.188  -9.724  50.091  1.00  0.00     0.369 C 
HETATM   32  F1  UNL     1      39.121  -8.776  49.731  1.00  0.00    -0.213 F 
HETATM   33  F2  UNL     1      38.728 -10.930  50.455  1.00  0.00    -0.213 F 
ENDBRANCH  19  31
ENDBRANCH  17  19
ENDBRANCH  15  17
ENDBRANCH  10  11
ENDBRANCH   9  10
ENDBRANCH   7   9
ENDBRANCH   6   7
ENDBRANCH   1   6
TORSDOF 11
ENDMDL
MODEL 2
REMARK VINA RESULT: -6.611498864      3.555      5.063
REMARK  11 active torsions:
REMARK  status: ('A' for Active; 'I' for Inactive)
REMARK    1  A    between atoms: C3_5  and  N2_6 
REMARK    2  A    between atoms: C4_10  and  S2_11 
REMARK    3  A    between atoms: S2_11  and  C5_12 
REMARK    4  A    between atoms: C5_12  and  C6_13 
REMARK    5  A    between atoms: C5_12  and  C7_16 
REMARK    6  A    between atoms: C7_16  and  N3_18 
REMARK    7  A    between atoms: C12_22  and  C13_23 
REMARK    8  A    between atoms: C13_23  and  C14_24 
REMARK    9  A    between atoms: C14_24  and  C15_25 
REMARK   10  A    between atoms: C15_25  and  O2_27 
REMARK   11  A    between atoms: O2_27  and  C16_28 
ROOT
HETATM    1  C16 UNL     1      41.354  -9.937  56.623  1.00  0.00     0.151 C 
HETATM    2  C17 UNL     1      42.170  -9.765  57.894  1.00  0.00     0.063 C 
HETATM    3  C18 UNL     1      42.175  -9.380  55.484  1.00  0.00     0.063 C 
HETATM    4  C19 UNL     1      41.116 -11.380  56.414  1.00  0.00     0.097 C 
HETATM    5  N4  UNL     1      40.928 -12.520  56.269  1.00  0.00    -0.194 NA
ENDROOT
BRANCH   1   6
HETATM    6  O2  UNL     1      40.124  -9.307  56.797  1.00  0.00    -0.296 OA
BRANCH   6   7
HETATM    7  C15 UNL     1      38.957  -9.676  56.154  1.00  0.00     0.260 C 
HETATM    8  O1  UNL     1      38.163 -10.440  56.755  1.00  0.00    -0.265 OA
BRANCH   7   9
HETATM    9  C14 UNL     1      38.631  -9.194  54.786  1.00  0.00     0.115 C 
BRANCH   9  10
HETATM   10  C13 UNL     1      38.873 -10.345  53.825  1.00  0.00     0.045 C 
BRANCH  10  11
HETATM   11  C12 UNL     1      38.322 -10.018  52.472  1.00  0.00    -0.055 C 
HETATM   12  C11 UNL     1      38.546 -10.860  51.468  1.00  0.00    -0.021 C 
HETATM   13  C10 UNL     1      38.010 -10.547  50.127  1.00  0.00     0.058 C 
HETATM   14  C9  UNL     1      36.802  -9.658  50.264  1.00  0.00     0.277 C 
HETATM   15  N3  UNL     1      37.106  -8.484  51.007  1.00  0.00     0.098 N 
HETATM   16  C20 UNL     1      37.555  -8.756  52.342  1.00  0.00     0.307 C 
BRANCH  15  17
HETATM   17  C7  UNL     1      36.118  -7.441  50.961  1.00  0.00     0.238 C 
HETATM   18  C8  UNL     1      34.838  -7.987  50.286  1.00  0.00     0.044 C 
BRANCH  17  19
HETATM   19  C5  UNL     1      36.562  -6.288  50.131  1.00  0.00     0.151 C 
BRANCH  19  20
HETATM   20  S2  UNL     1      37.419  -5.037  51.187  1.00  0.00    -0.108 SA
BRANCH  20  21
HETATM   21  C4  UNL     1      36.588  -3.479  50.812  1.00  0.00     0.067 A 
HETATM   22  C2  UNL     1      37.035  -2.200  51.022  1.00  0.00     0.031 A 
HETATM   23  C1  UNL     1      38.405  -1.992  51.656  1.00  0.00     0.070 C 
HETATM   24  N1  UNL     1      36.253  -1.218  50.668  1.00  0.00    -0.339 N 
HETATM   25  C3  UNL     1      35.071  -1.501  50.123  1.00  0.00     0.143 A 
ATOM     26  H1  UNL     1      36.542  -0.249  50.806  1.00  0.00     0.168 HD
HETATM   27  S1  UNL     1      35.054  -3.207  50.107  1.00  0.00    -0.045 SA
BRANCH  25  28
HETATM   28  N2  UNL     1      34.145  -0.671  49.700  1.00  0.00    -0.380 N 
ATOM     29  H22 UNL     1      33.683   0.079  50.214  1.00  0.00     0.158 HD
ATOM     30  H21 UNL     1      33.710  -0.620  48.778  1.00  0.00     0.158 HD
ENDBRANCH  25  28
ENDBRANCH  20  21
ENDBRANCH  19  20
BRANCH  19  31
HETATM   31  C6  UNL     1      37.534  -6.768  49.070  1.00  0.00     0.369 C 
HETATM   32  F1  UNL     1      37.208  -6.314  47.811  1.00  0.00    -0.213 F 
HETATM   33  F2  UNL     1      38.837  -6.536  49.428  1.00  0.00    -0.213 F 
ENDBRANCH  19  31
ENDBRANCH  17  19
ENDBRANCH  15  17
ENDBRANCH  10  11
ENDBRANCH   9  10
ENDBRANCH   7   9
ENDBRANCH   6   7
ENDBRANCH   1   6
TORSDOF 11
ENDMDL
MODEL 3
REMARK VINA RESULT: -6.533930405      2.075      2.291
REMARK  11 active torsions:
REMARK  status: ('A' for Active; 'I' for Inactive)
REMARK    1  A    between atoms: C3_5  and  N2_6 
REMARK    2  A    between atoms: C4_10  and  S2_11 
REMARK    3  A    between atoms: S2_11  and  C5_12 
REMARK    4  A    between atoms: C5_12  and  C6_13 
REMARK    5  A    between atoms: C5_12  and  C7_16 
REMARK    6  A    between atoms: C7_16  and  N3_18 
REMARK    7  A    between atoms: C12_22  and  C13_23 
REMARK    8  A    between atoms: C13_23  and  C14_24 
REMARK    9  A    between atoms: C14_24  and  C15_25 
REMARK   10  A    between atoms: C15_25  and  O2_27 
REMARK   11  A    between atoms: O2_27  and  C16_28 
ROOT
HETATM    1  C16 UNL     1      42.131 -11.849  55.760  1.00  0.00     0.151 C 
HETATM    2  C17 UNL     1      41.166 -12.907  56.272  1.00  0.00     0.063 C 
HETATM    3  C18 UNL     1      43.017 -11.453  56.916  1.00  0.00     0.063 C 
HETATM    4  C19 UNL     1      42.945 -12.445  54.681  1.00  0.00     0.097 C 
HETATM    5  N4  UNL     1      43.572 -12.927  53.825  1.00  0.00    -0.194 NA
ENDROOT
BRANCH   1   6
HETATM    6  O2  UNL     1      41.391 -10.797  55.224  1.00  0.00    -0.296 OA
BRANCH   6   7
HETATM    7  C15 UNL     1      41.348  -9.520  55.754  1.00  0.00     0.260 C 
HETATM    8  O1  UNL     1      42.295  -8.738  55.495  1.00  0.00    -0.265 OA
BRANCH   7   9
HETATM    9  C14 UNL     1      40.223  -9.066  56.612  1.00  0.00     0.115 C 
BRANCH   9  10
HETATM   10  C13 UNL     1      39.020  -9.935  56.288  1.00  0.00     0.045 C 
BRANCH  10  11
HETATM   11  C12 UNL     1      38.079  -9.203  55.383  1.00  0.00    -0.055 C 
HETATM   12  C11 UNL     1      37.080  -8.511  55.921  1.00  0.00    -0.021 C 
HETATM   13  C10 UNL     1      36.142  -7.786  55.038  1.00  0.00     0.058 C 
HETATM   14  C9  UNL     1      36.830  -7.456  53.739  1.00  0.00     0.277 C 
HETATM   15  N3  UNL     1      37.354  -8.624  53.121  1.00  0.00     0.098 N 
HETATM   16  C20 UNL     1      38.328  -9.305  53.925  1.00  0.00     0.307 C 
BRANCH  15  17
HETATM   17  C7  UNL     1      37.779  -8.472  51.755  1.00  0.00     0.238 C 
HETATM   18  C8  UNL     1      38.250  -7.017  51.532  1.00  0.00     0.044 C 
BRANCH  17  19
HETATM   19  C5  UNL     1      36.663  -8.696  50.796  1.00  0.00     0.151 C 
BRANCH  19  20
HETATM   20  S2  UNL     1      36.868  -7.606  49.317  1.00  0.00    -0.108 SA
BRANCH  20  21
HETATM   21  C4  UNL     1      35.221  -6.928  49.019  1.00  0.00     0.067 A 
HETATM   22  C2  UNL     1      34.759  -5.664  49.274  1.00  0.00     0.031 A 
HETATM   23  C1  UNL     1      35.706  -4.642  49.893  1.00  0.00     0.070 C 
HETATM   24  N1  UNL     1      33.518  -5.399  48.973  1.00  0.00    -0.339 N 
HETATM   25  C3  UNL     1      32.768  -6.360  48.437  1.00  0.00     0.143 A 
ATOM     26  H1  UNL     1      33.129  -4.472  49.145  1.00  0.00     0.168 HD
HETATM   27  S1  UNL     1      33.840  -7.683  48.351  1.00  0.00    -0.045 SA
BRANCH  25  28
HETATM   28  N2  UNL     1      31.509  -6.303  48.062  1.00  0.00    -0.380 N 
ATOM     29  H22 UNL     1      30.686  -6.105  48.633  1.00  0.00     0.158 HD
ATOM     30  H21 UNL     1      31.115  -6.448  47.132  1.00  0.00     0.158 HD
ENDBRANCH  25  28
ENDBRANCH  20  21
ENDBRANCH  19  20
BRANCH  19  31
HETATM   31  C6  UNL     1      36.671 -10.140  50.333  1.00  0.00     0.369 C 
HETATM   32  F1  UNL     1      36.339 -10.269  49.001  1.00  0.00    -0.213 F 
HETATM   33  F2  UNL     1      37.828 -10.784  50.685  1.00  0.00    -0.213 F 
ENDBRANCH  19  31
ENDBRANCH  17  19
ENDBRANCH  15  17
ENDBRANCH  10  11
ENDBRANCH   9  10
ENDBRANCH   7   9
ENDBRANCH   6   7
ENDBRANCH   1   6
TORSDOF 11
ENDMDL
MODEL 4
REMARK VINA RESULT: -6.506519420      3.734      6.869
REMARK  11 active torsions:
REMARK  status: ('A' for Active; 'I' for Inactive)
REMARK    1  A    between atoms: C3_5  and  N2_6 
REMARK    2  A    between atoms: C4_10  and  S2_11 
REMARK    3  A    between atoms: S2_11  and  C5_12 
REMARK    4  A    between atoms: C5_12  and  C6_13 
REMARK    5  A    between atoms: C5_12  and  C7_16 
REMARK    6  A    between atoms: C7_16  and  N3_18 
REMARK    7  A    between atoms: C12_22  and  C13_23 
REMARK    8  A    between atoms: C13_23  and  C14_24 
REMARK    9  A    between atoms: C14_24  and  C15_25 
REMARK   10  A    between atoms: C15_25  and  O2_27 
REMARK   11  A    between atoms: O2_27  and  C16_28 
ROOT
HETATM    1  C16 UNL     1      37.384  -8.277  51.229  1.00  0.00     0.151 C 
HETATM    2  C17 UNL     1      36.212  -8.040  50.290  1.00  0.00     0.063 C 
HETATM    3  C18 UNL     1      38.285  -9.297  50.574  1.00  0.00     0.063 C 
HETATM    4  C19 UNL     1      38.108  -7.001  51.400  1.00  0.00     0.097 C 
HETATM    5  N4  UNL     1      38.662  -5.985  51.533  1.00  0.00    -0.194 NA
ENDROOT
BRANCH   1   6
HETATM    6  O2  UNL     1      36.886  -8.672  52.468  1.00  0.00    -0.296 OA
BRANCH   6   7
HETATM    7  C15 UNL     1      37.556  -8.517  53.668  1.00  0.00     0.260 C 
HETATM    8  O1  UNL     1      37.194  -7.591  54.434  1.00  0.00    -0.265 OA
BRANCH   7   9
HETATM    9  C14 UNL     1      38.679  -9.407  54.058  1.00  0.00     0.115 C 
BRANCH   9  10
HETATM   10  C13 UNL     1      38.749  -9.419  55.575  1.00  0.00     0.045 C 
BRANCH  10  11
HETATM   11  C12 UNL     1      40.152  -9.683  56.029  1.00  0.00    -0.055 C 
HETATM   12  C11 UNL     1      40.688  -8.888  56.949  1.00  0.00    -0.021 C 
HETATM   13  C10 UNL     1      42.071  -9.136  57.404  1.00  0.00     0.058 C 
HETATM   14  C9  UNL     1      42.412 -10.589  57.206  1.00  0.00     0.277 C 
HETATM   15  N3  UNL     1      42.212 -10.987  55.856  1.00  0.00     0.098 N 
HETATM   16  C20 UNL     1      40.857 -10.830  55.410  1.00  0.00     0.307 C 
BRANCH  15  17
HETATM   17  C7  UNL     1      42.767 -12.263  55.490  1.00  0.00     0.238 C 
HETATM   18  C8  UNL     1      44.203 -12.054  54.955  1.00  0.00     0.044 C 
BRANCH  17  19
HETATM   19  C5  UNL     1      42.005 -12.906  54.386  1.00  0.00     0.151 C 
BRANCH  19  20
HETATM   20  S2  UNL     1      43.153 -13.390  53.020  1.00  0.00    -0.108 SA
BRANCH  20  21
HETATM   21  C4  UNL     1      42.535 -12.506  51.571  1.00  0.00     0.067 A 
HETATM   22  C2  UNL     1      43.060 -11.399  50.958  1.00  0.00     0.031 A 
HETATM   23  C1  UNL     1      44.332 -10.776  51.522  1.00  0.00     0.070 C 
HETATM   24  N1  UNL     1      42.435 -10.929  49.915  1.00  0.00    -0.339 N 
HETATM   25  C3  UNL     1      41.328 -11.542  49.499  1.00  0.00     0.143 A 
ATOM     26  H1  UNL     1      42.787 -10.106  49.426  1.00  0.00     0.168 HD
HETATM   27  S1  UNL     1      41.157 -12.824  50.610  1.00  0.00    -0.045 SA
BRANCH  25  28
HETATM   28  N2  UNL     1      40.556 -11.236  48.480  1.00  0.00    -0.380 N 
ATOM     29  H22 UNL     1      40.733 -10.568  47.729  1.00  0.00     0.158 HD
ATOM     30  H21 UNL     1      39.635 -11.607  48.246  1.00  0.00     0.158 HD
ENDBRANCH  25  28
ENDBRANCH  20  21
ENDBRANCH  19  20
BRANCH  19  31
HETATM   31  C6  UNL     1      41.318 -14.156  54.901  1.00  0.00     0.369 C 
HETATM   32  F1  UNL     1      41.095 -14.113  56.260  1.00  0.00    -0.213 F 
HETATM   33  F2  UNL     1      40.207 -14.470  54.161  1.00  0.00    -0.213 F 
ENDBRANCH  19  31
ENDBRANCH  17  19
ENDBRANCH  15  17
ENDBRANCH  10  11
ENDBRANCH   9  10
ENDBRANCH   7   9
ENDBRANCH   6   7
ENDBRANCH   1   6
TORSDOF 11
ENDMDL
MODEL 5
REMARK VINA RESULT: -6.487981274      3.123      4.038
REMARK  11 active torsions:
REMARK  status: ('A' for Active; 'I' for Inactive)
REMARK    1  A    between atoms: C3_5  and  N2_6 
REMARK    2  A    between atoms: C4_10  and  S2_11 
REMARK    3  A    between atoms: S2_11  and  C5_12 
REMARK    4  A    between atoms: C5_12  and  C6_13 
REMARK    5  A    between atoms: C5_12  and  C7_16 
REMARK    6  A    between atoms: C7_16  and  N3_18 
REMARK    7  A    between atoms: C12_22  and  C13_23 
REMARK    8  A    between atoms: C13_23  and  C14_24 
REMARK    9  A    between atoms: C14_24  and  C15_25 
REMARK   10  A    between atoms: C15_25  and  O2_27 
REMARK   11  A    between atoms: O2_27  and  C16_28 
ROOT
HETATM    1  C16 UNL     1      41.717  -9.957  56.618  1.00  0.00     0.151 C 
HETATM    2  C17 UNL     1      42.495  -9.246  55.522  1.00  0.00     0.063 C 
HETATM    3  C18 UNL     1      41.639 -11.417  56.238  1.00  0.00     0.063 C 
HETATM    4  C19 UNL     1      42.457  -9.805  57.887  1.00  0.00     0.097 C 
HETATM    5  N4  UNL     1      43.047  -9.668  58.882  1.00  0.00    -0.194 NA
ENDROOT
BRANCH   1   6
HETATM    6  O2  UNL     1      40.476  -9.339  56.753  1.00  0.00    -0.296 OA
BRANCH   6   7
HETATM    7  C15 UNL     1      39.299  -9.818  56.210  1.00  0.00     0.260 C 
HETATM    8  O1  UNL     1      38.693 -10.733  56.820  1.00  0.00    -0.265 OA
BRANCH   7   9
HETATM    9  C14 UNL     1      38.747  -9.282  54.939  1.00  0.00     0.115 C 
BRANCH   9  10
HETATM   10  C13 UNL     1      38.904 -10.359  53.880  1.00  0.00     0.045 C 
BRANCH  10  11
HETATM   11  C12 UNL     1      38.315  -9.902  52.582  1.00  0.00    -0.055 C 
HETATM   12  C11 UNL     1      38.372 -10.714  51.532  1.00  0.00    -0.021 C 
HETATM   13  C10 UNL     1      37.796 -10.275  50.244  1.00  0.00     0.058 C 
HETATM   14  C9  UNL     1      36.715  -9.258  50.498  1.00  0.00     0.277 C 
HETATM   15  N3  UNL     1      37.204  -8.166  51.267  1.00  0.00     0.098 N 
HETATM   16  C20 UNL     1      37.699  -8.554  52.557  1.00  0.00     0.307 C 
BRANCH  15  17
HETATM   17  C7  UNL     1      36.347  -7.013  51.331  1.00  0.00     0.238 C 
HETATM   18  C8  UNL     1      35.081  -7.369  52.144  1.00  0.00     0.044 C 
BRANCH  17  19
HETATM   19  C5  UNL     1      35.869  -6.597  49.985  1.00  0.00     0.151 C 
BRANCH  19  20
HETATM   20  S2  UNL     1      34.189  -5.837  50.114  1.00  0.00    -0.108 SA
BRANCH  20  21
HETATM   21  C4  UNL     1      33.533  -5.896  48.433  1.00  0.00     0.067 A 
HETATM   22  C2  UNL     1      33.444  -4.882  47.514  1.00  0.00     0.031 A 
HETATM   23  C1  UNL     1      33.945  -3.494  47.897  1.00  0.00     0.070 C 
HETATM   24  N1  UNL     1      32.928  -5.161  46.350  1.00  0.00    -0.339 N 
HETATM   25  C3  UNL     1      32.516  -6.405  46.111  1.00  0.00     0.143 A 
ATOM     26  H1  UNL     1      32.840  -4.439  45.635  1.00  0.00     0.168 HD
HETATM   27  S1  UNL     1      32.866  -7.214  47.572  1.00  0.00    -0.045 SA
BRANCH  25  28
HETATM   28  N2  UNL     1      31.974  -6.893  45.017  1.00  0.00    -0.380 N 
ATOM     29  H22 UNL     1      30.988  -6.928  44.760  1.00  0.00     0.158 HD
ATOM     30  H21 UNL     1      32.436  -7.330  44.220  1.00  0.00     0.158 HD
ENDBRANCH  25  28
ENDBRANCH  20  21
ENDBRANCH  19  20
BRANCH  19  31
HETATM   31  C6  UNL     1      36.819  -5.568  49.402  1.00  0.00     0.369 C 
HETATM   32  F1  UNL     1      36.847  -5.596  48.025  1.00  0.00    -0.213 F 
HETATM   33  F2  UNL     1      36.608  -4.321  49.931  1.00  0.00    -0.213 F 
ENDBRANCH  19  31
ENDBRANCH  17  19
ENDBRANCH  15  17
ENDBRANCH  10  11
ENDBRANCH   9  10
ENDBRANCH   7   9
ENDBRANCH   6   7
ENDBRANCH   1   6
TORSDOF 11
ENDMDL
