MODEL 1
REMARK VINA RESULT: -7.300105125      0.000      0.000
REMARK  10 active torsions:
REMARK  status: ('A' for Active; 'I' for Inactive)
REMARK    1  A    between atoms: C2_2  and  C3_3 
REMARK    2  A    between atoms: C3_3  and  O1_4 
REMARK    3  A    between atoms: C3_3  and  C4_6 
REMARK    4  A    between atoms: C4_6  and  S1_7 
REMARK    5  A    between atoms: S1_7  and  C5_8 
REMARK    6  A    between atoms: C7_10  and  O2_11 
REMARK    7  A    between atoms: O2_11  and  C8_12 
REMARK    8  A    between atoms: C15_22  and  O4_23 
REMARK    9  A    between atoms: O4_23  and  C16_24 
REMARK   10  A    between atoms: C16_24  and  C18_26 
ROOT
HETATM    1  C5  UNL     1      35.970  -6.747  49.243  1.00  0.00     0.038 A 
HETATM    2  C6  UNL     1      36.316  -5.383  49.232  1.00  0.00     0.058 A 
HETATM    3  C7  UNL     1      36.906  -4.783  50.323  1.00  0.00     0.072 A 
HETATM    4  C13 UNL     1      37.158  -5.543  51.439  1.00  0.00     0.063 A 
HETATM    5  C14 UNL     1      36.831  -6.882  51.479  1.00  0.00     0.071 A 
HETATM    6 CL1  UNL     1      37.232  -7.820  52.887  1.00  0.00    -0.081 Cl
HETATM    7  C15 UNL     1      36.228  -7.487  50.368  1.00  0.00     0.108 A 
ENDROOT
BRANCH   7   8
HETATM    8  O4  UNL     1      35.910  -8.820  50.425  1.00  0.00    -0.341 OA
BRANCH   8   9
HETATM    9  C16 UNL     1      36.610  -9.820  49.756  1.00  0.00     0.156 C 
HETATM   10  C17 UNL     1      35.938 -11.204  49.837  1.00  0.00     0.042 C 
BRANCH   9  11
HETATM   11  C18 UNL     1      38.005 -10.078  50.214  1.00  0.00     0.180 C 
HETATM   12  C19 UNL     1      39.034  -9.463  49.272  1.00  0.00     0.160 C 
HETATM   13  N1  UNL     1      40.231 -10.221  49.619  1.00  0.00    -0.334 N 
HETATM   14  C20 UNL     1      39.808 -11.402  50.289  1.00  0.00     0.361 C 
ATOM     15  H1  UNL     1      41.194  -9.954  49.417  1.00  0.00     0.164 HD
HETATM   16  O5  UNL     1      40.528 -12.322  50.756  1.00  0.00    -0.239 OA
HETATM   17  O6  UNL     1      38.445 -11.367  50.340  1.00  0.00    -0.294 OA
ENDBRANCH   9  11
ENDBRANCH   8   9
ENDBRANCH   7   8
BRANCH   1  18
HETATM   18  S1  UNL     1      35.255  -7.502  47.810  1.00  0.00    -0.124 SA
BRANCH  18  19
HETATM   19  C4  UNL     1      33.602  -6.962  47.413  1.00  0.00     0.111 C 
BRANCH  19  20
HETATM   20  C3  UNL     1      33.705  -5.669  46.638  1.00  0.00     0.127 C 
BRANCH  20  21
HETATM   21  C2  UNL     1      33.090  -4.508  47.367  1.00  0.00     0.028 C 
HETATM   22  C1  UNL     1      33.324  -3.188  46.702  1.00  0.00     0.007 C 
ENDBRANCH  20  21
BRANCH  20  23
HETATM   23  O1  UNL     1      33.165  -5.764  45.374  1.00  0.00    -0.395 OA
ATOM     24  H1  UNL     1      32.492  -6.434  45.360  1.00  0.00     0.210 HD
ENDBRANCH  20  23
ENDBRANCH  19  20
ENDBRANCH  18  19
ENDBRANCH   1  18
BRANCH   3  25
HETATM   25  O2  UNL     1      37.220  -3.471  50.268  1.00  0.00    -0.346 OA
BRANCH  25  26
HETATM   26  C8  UNL     1      36.521  -2.348  50.725  1.00  0.00     0.136 C 
HETATM   27  C9  UNL     1      37.310  -1.079  50.769  1.00  0.00     0.059 C 
HETATM   28  C10 UNL     1      36.557   0.152  50.429  1.00  0.00     0.173 C 
HETATM   29  O3  UNL     1      35.549   0.023  49.512  1.00  0.00    -0.357 OA
HETATM   30  C11 UNL     1      34.622  -0.873  50.004  1.00  0.00     0.309 C 
HETATM   31  F1  UNL     1      34.244  -0.529  51.290  1.00  0.00    -0.220 F 
HETATM   32  C12 UNL     1      35.198  -2.265  50.064  1.00  0.00     0.098 C 
ENDBRANCH  25  26
ENDBRANCH   3  25
TORSDOF 10
ENDMDL
MODEL 2
REMARK VINA RESULT: -7.244156680      1.262      1.305
REMARK  10 active torsions:
REMARK  status: ('A' for Active; 'I' for Inactive)
REMARK    1  A    between atoms: C2_2  and  C3_3 
REMARK    2  A    between atoms: C3_3  and  O1_4 
REMARK    3  A    between atoms: C3_3  and  C4_6 
REMARK    4  A    between atoms: C4_6  and  S1_7 
REMARK    5  A    between atoms: S1_7  and  C5_8 
REMARK    6  A    between atoms: C7_10  and  O2_11 
REMARK    7  A    between atoms: O2_11  and  C8_12 
REMARK    8  A    between atoms: C15_22  and  O4_23 
REMARK    9  A    between atoms: O4_23  and  C16_24 
REMARK   10  A    between atoms: C16_24  and  C18_26 
ROOT
HETATM    1  C5  UNL     1      35.355  -6.636  49.330  1.00  0.00     0.038 A 
HETATM    2  C6  UNL     1      35.767  -5.290  49.360  1.00  0.00     0.058 A 
HETATM    3  C7  UNL     1      36.740  -4.856  50.234  1.00  0.00     0.072 A 
HETATM    4  C13 UNL     1      37.314  -5.764  51.089  1.00  0.00     0.063 A 
HETATM    5  C14 UNL     1      36.932  -7.089  51.082  1.00  0.00     0.071 A 
HETATM    6 CL1  UNL     1      37.735  -8.218  52.133  1.00  0.00    -0.081 Cl
HETATM    7  C15 UNL     1      35.940  -7.526  50.194  1.00  0.00     0.108 A 
ENDROOT
BRANCH   7   8
HETATM    8  O4  UNL     1      35.573  -8.847  50.200  1.00  0.00    -0.341 OA
BRANCH   8   9
HETATM    9  C16 UNL     1      35.816  -9.732  49.152  1.00  0.00     0.156 C 
HETATM   10  C17 UNL     1      35.424 -11.188  49.470  1.00  0.00     0.042 C 
BRANCH   9  11
HETATM   11  C18 UNL     1      37.228  -9.840  48.686  1.00  0.00     0.180 C 
HETATM   12  C19 UNL     1      37.419  -9.222  47.306  1.00  0.00     0.160 C 
HETATM   13  N1  UNL     1      38.662  -9.853  46.877  1.00  0.00    -0.334 N 
HETATM   14  C20 UNL     1      38.856 -11.006  47.685  1.00  0.00     0.361 C 
ATOM     15  H1  UNL     1      39.279  -9.526  46.134  1.00  0.00     0.164 HD
HETATM   16  O5  UNL     1      39.809 -11.826  47.642  1.00  0.00    -0.239 OA
HETATM   17  O6  UNL     1      37.797 -11.077  48.544  1.00  0.00    -0.294 OA
ENDBRANCH   9  11
ENDBRANCH   8   9
ENDBRANCH   7   8
BRANCH   1  18
HETATM   18  S1  UNL     1      34.137  -7.174  48.166  1.00  0.00    -0.124 SA
BRANCH  18  19
HETATM   19  C4  UNL     1      32.841  -5.997  47.824  1.00  0.00     0.111 C 
BRANCH  19  20
HETATM   20  C3  UNL     1      33.333  -5.058  46.747  1.00  0.00     0.127 C 
BRANCH  20  21
HETATM   21  C2  UNL     1      32.538  -3.785  46.682  1.00  0.00     0.028 C 
HETATM   22  C1  UNL     1      33.380  -2.555  46.560  1.00  0.00     0.007 C 
ENDBRANCH  20  21
BRANCH  20  23
HETATM   23  O1  UNL     1      33.368  -5.650  45.503  1.00  0.00    -0.395 OA
ATOM     24  H1  UNL     1      33.955  -6.396  45.518  1.00  0.00     0.210 HD
ENDBRANCH  20  23
ENDBRANCH  19  20
ENDBRANCH  18  19
ENDBRANCH   1  18
BRANCH   3  25
HETATM   25  O2  UNL     1      37.103  -3.555  50.228  1.00  0.00    -0.346 OA
BRANCH  25  26
HETATM   26  C8  UNL     1      36.439  -2.423  50.715  1.00  0.00     0.136 C 
HETATM   27  C9  UNL     1      37.291  -1.207  50.886  1.00  0.00     0.059 C 
HETATM   28  C10 UNL     1      36.629   0.084  50.582  1.00  0.00     0.173 C 
HETATM   29  O3  UNL     1      35.674   0.070  49.602  1.00  0.00    -0.357 OA
HETATM   30  C11 UNL     1      34.671  -0.799  49.981  1.00  0.00     0.309 C 
HETATM   31  F1  UNL     1      34.233  -0.512  51.262  1.00  0.00    -0.220 F 
HETATM   32  C12 UNL     1      35.165  -2.223  49.985  1.00  0.00     0.098 C 
ENDBRANCH  25  26
ENDBRANCH   3  25
TORSDOF 10
ENDMDL
MODEL 3
REMARK VINA RESULT: -7.230267808      3.403      6.580
REMARK  10 active torsions:
REMARK  status: ('A' for Active; 'I' for Inactive)
REMARK    1  A    between atoms: C2_2  and  C3_3 
REMARK    2  A    between atoms: C3_3  and  O1_4 
REMARK    3  A    between atoms: C3_3  and  C4_6 
REMARK    4  A    between atoms: C4_6  and  S1_7 
REMARK    5  A    between atoms: S1_7  and  C5_8 
REMARK    6  A    between atoms: C7_10  and  O2_11 
REMARK    7  A    between atoms: O2_11  and  C8_12 
REMARK    8  A    between atoms: C15_22  and  O4_23 
REMARK    9  A    between atoms: O4_23  and  C16_24 
REMARK   10  A    between atoms: C16_24  and  C18_26 
ROOT
HETATM    1  C5  UNL     1      34.877  -4.312  49.041  1.00  0.00     0.038 A 
HETATM    2  C6  UNL     1      33.755  -4.495  48.210  1.00  0.00     0.058 A 
HETATM    3  C7  UNL     1      33.711  -5.508  47.277  1.00  0.00     0.072 A 
HETATM    4  C13 UNL     1      34.788  -6.351  47.165  1.00  0.00     0.063 A 
HETATM    5  C14 UNL     1      35.900  -6.198  47.965  1.00  0.00     0.071 A 
HETATM    6 CL1  UNL     1      37.212  -7.332  47.837  1.00  0.00    -0.081 Cl
HETATM    7  C15 UNL     1      35.943  -5.165  48.911  1.00  0.00     0.108 A 
ENDROOT
BRANCH   7   8
HETATM    8  O4  UNL     1      37.057  -5.027  49.699  1.00  0.00    -0.341 OA
BRANCH   8   9
HETATM    9  C16 UNL     1      37.107  -5.369  51.048  1.00  0.00     0.156 C 
HETATM   10  C17 UNL     1      38.222  -4.646  51.827  1.00  0.00     0.042 C 
BRANCH   9  11
HETATM   11  C18 UNL     1      37.334  -6.809  51.362  1.00  0.00     0.180 C 
HETATM   12  C19 UNL     1      36.025  -7.550  51.604  1.00  0.00     0.160 C 
HETATM   13  N1  UNL     1      36.489  -8.722  52.337  1.00  0.00    -0.334 N 
HETATM   14  C20 UNL     1      37.781  -8.422  52.848  1.00  0.00     0.361 C 
ATOM     15  H1  UNL     1      35.979  -9.598  52.461  1.00  0.00     0.164 HD
HETATM   16  O5  UNL     1      38.531  -9.165  53.532  1.00  0.00    -0.239 OA
HETATM   17  O6  UNL     1      38.080  -7.149  52.458  1.00  0.00    -0.294 OA
ENDBRANCH   9  11
ENDBRANCH   8   9
ENDBRANCH   7   8
BRANCH   1  18
HETATM   18  S1  UNL     1      34.888  -3.031  50.262  1.00  0.00    -0.124 SA
BRANCH  18  19
HETATM   19  C4  UNL     1      34.549  -1.392  49.645  1.00  0.00     0.111 C 
BRANCH  19  20
HETATM   20  C3  UNL     1      35.734  -0.514  49.974  1.00  0.00     0.127 C 
BRANCH  20  21
HETATM   21  C2  UNL     1      36.417  -0.918  51.250  1.00  0.00     0.028 C 
HETATM   22  C1  UNL     1      37.889  -1.142  51.100  1.00  0.00     0.007 C 
ENDBRANCH  20  21
BRANCH  20  23
HETATM   23  O1  UNL     1      35.406   0.824  50.024  1.00  0.00    -0.395 OA
ATOM     24  H1  UNL     1      35.887   1.247  50.725  1.00  0.00     0.210 HD
ENDBRANCH  20  23
ENDBRANCH  19  20
ENDBRANCH  18  19
ENDBRANCH   1  18
BRANCH   3  25
HETATM   25  O2  UNL     1      32.614  -5.645  46.500  1.00  0.00    -0.346 OA
BRANCH  25  26
HETATM   26  C8  UNL     1      31.953  -6.795  46.055  1.00  0.00     0.136 C 
HETATM   27  C9  UNL     1      30.923  -7.343  46.990  1.00  0.00     0.059 C 
HETATM   28  C10 UNL     1      29.722  -7.927  46.346  1.00  0.00     0.173 C 
HETATM   29  O3  UNL     1      29.320  -7.362  45.166  1.00  0.00    -0.357 OA
HETATM   30  C11 UNL     1      30.347  -7.482  44.252  1.00  0.00     0.309 C 
HETATM   31  F1  UNL     1      30.793  -8.790  44.187  1.00  0.00    -0.220 F 
HETATM   32  C12 UNL     1      31.524  -6.626  44.647  1.00  0.00     0.098 C 
ENDBRANCH  25  26
ENDBRANCH   3  25
TORSDOF 10
ENDMDL
MODEL 4
REMARK VINA RESULT: -7.161322940      1.928      2.657
REMARK  10 active torsions:
REMARK  status: ('A' for Active; 'I' for Inactive)
REMARK    1  A    between atoms: C2_2  and  C3_3 
REMARK    2  A    between atoms: C3_3  and  O1_4 
REMARK    3  A    between atoms: C3_3  and  C4_6 
REMARK    4  A    between atoms: C4_6  and  S1_7 
REMARK    5  A    between atoms: S1_7  and  C5_8 
REMARK    6  A    between atoms: C7_10  and  O2_11 
REMARK    7  A    between atoms: O2_11  and  C8_12 
REMARK    8  A    between atoms: C15_22  and  O4_23 
REMARK    9  A    between atoms: O4_23  and  C16_24 
REMARK   10  A    between atoms: C16_24  and  C18_26 
ROOT
HETATM    1  C5  UNL     1      35.905  -6.448  48.992  1.00  0.00     0.038 A 
HETATM    2  C6  UNL     1      36.346  -5.137  49.252  1.00  0.00     0.058 A 
HETATM    3  C7  UNL     1      36.963  -4.809  50.440  1.00  0.00     0.072 A 
HETATM    4  C13 UNL     1      37.148  -5.790  51.381  1.00  0.00     0.063 A 
HETATM    5  C14 UNL     1      36.729  -7.084  51.155  1.00  0.00     0.071 A 
HETATM    6 CL1  UNL     1      37.046  -8.309  52.347  1.00  0.00    -0.081 Cl
HETATM    7  C15 UNL     1      36.098  -7.413  49.948  1.00  0.00     0.108 A 
ENDROOT
BRANCH   7   8
HETATM    8  O4  UNL     1      35.687  -8.705  49.739  1.00  0.00    -0.341 OA
BRANCH   8   9
HETATM    9  C16 UNL     1      36.506  -9.715  49.241  1.00  0.00     0.156 C 
HETATM   10  C17 UNL     1      37.881  -9.214  48.760  1.00  0.00     0.042 C 
BRANCH   9  11
HETATM   11  C18 UNL     1      35.982 -10.482  48.075  1.00  0.00     0.180 C 
HETATM   12  C19 UNL     1      36.666 -10.076  46.775  1.00  0.00     0.160 C 
HETATM   13  N1  UNL     1      35.709 -10.553  45.784  1.00  0.00    -0.334 N 
HETATM   14  C20 UNL     1      34.467 -10.743  46.449  1.00  0.00     0.361 C 
ATOM     15  H1  UNL     1      35.896 -10.721  44.795  1.00  0.00     0.164 HD
HETATM   16  O5  UNL     1      33.383 -11.150  45.956  1.00  0.00    -0.239 OA
HETATM   17  O6  UNL     1      34.654 -10.398  47.756  1.00  0.00    -0.294 OA
ENDBRANCH   9  11
ENDBRANCH   8   9
ENDBRANCH   7   8
BRANCH   1  18
HETATM   18  S1  UNL     1      35.156  -6.851  47.440  1.00  0.00    -0.124 SA
BRANCH  18  19
HETATM   19  C4  UNL     1      33.416  -6.479  47.318  1.00  0.00     0.111 C 
BRANCH  19  20
HETATM   20  C3  UNL     1      33.224  -5.505  46.178  1.00  0.00     0.127 C 
BRANCH  20  21
HETATM   21  C2  UNL     1      32.471  -4.273  46.590  1.00  0.00     0.028 C 
HETATM   22  C1  UNL     1      33.352  -3.103  46.897  1.00  0.00     0.007 C 
ENDBRANCH  20  21
BRANCH  20  23
HETATM   23  O1  UNL     1      32.614  -6.081  45.085  1.00  0.00    -0.395 OA
ATOM     24  H1  UNL     1      33.231  -6.643  44.631  1.00  0.00     0.210 HD
ENDBRANCH  20  23
ENDBRANCH  19  20
ENDBRANCH  18  19
ENDBRANCH   1  18
BRANCH   3  25
HETATM   25  O2  UNL     1      37.369  -3.537  50.646  1.00  0.00    -0.346 OA
BRANCH  25  26
HETATM   26  C8  UNL     1      36.633  -2.384  50.944  1.00  0.00     0.136 C 
HETATM   27  C9  UNL     1      37.398  -1.102  50.870  1.00  0.00     0.059 C 
HETATM   28  C10 UNL     1      36.639   0.065  50.362  1.00  0.00     0.173 C 
HETATM   29  O3  UNL     1      35.670  -0.189  49.429  1.00  0.00    -0.357 OA
HETATM   30  C11 UNL     1      34.740  -1.043  49.987  1.00  0.00     0.309 C 
HETATM   31  F1  UNL     1      34.305  -0.562  51.209  1.00  0.00    -0.220 F 
HETATM   32  C12 UNL     1      35.336  -2.406  50.229  1.00  0.00     0.098 C 
ENDBRANCH  25  26
ENDBRANCH   3  25
TORSDOF 10
ENDMDL
MODEL 5
REMARK VINA RESULT: -7.128022021      2.675      4.881
REMARK  10 active torsions:
REMARK  status: ('A' for Active; 'I' for Inactive)
REMARK    1  A    between atoms: C2_2  and  C3_3 
REMARK    2  A    between atoms: C3_3  and  O1_4 
REMARK    3  A    between atoms: C3_3  and  C4_6 
REMARK    4  A    between atoms: C4_6  and  S1_7 
REMARK    5  A    between atoms: S1_7  and  C5_8 
REMARK    6  A    between atoms: C7_10  and  O2_11 
REMARK    7  A    between atoms: O2_11  and  C8_12 
REMARK    8  A    between atoms: C15_22  and  O4_23 
REMARK    9  A    between atoms: O4_23  and  C16_24 
REMARK   10  A    between atoms: C16_24  and  C18_26 
ROOT
HETATM    1  C5  UNL     1      37.100  -7.092  51.059  1.00  0.00     0.038 A 
HETATM    2  C6  UNL     1      37.459  -5.730  51.047  1.00  0.00     0.058 A 
HETATM    3  C7  UNL     1      36.744  -4.806  50.317  1.00  0.00     0.072 A 
HETATM    4  C13 UNL     1      35.659  -5.233  49.591  1.00  0.00     0.063 A 
HETATM    5  C14 UNL     1      35.283  -6.559  49.584  1.00  0.00     0.071 A 
HETATM    6 CL1  UNL     1      33.862  -7.043  48.706  1.00  0.00    -0.081 Cl
HETATM    7  C15 UNL     1      36.015  -7.497  50.325  1.00  0.00     0.108 A 
ENDROOT
BRANCH   7   8
HETATM    8  O4  UNL     1      35.626  -8.812  50.308  1.00  0.00    -0.341 OA
BRANCH   8   9
HETATM    9  C16 UNL     1      35.803  -9.665  49.221  1.00  0.00     0.156 C 
HETATM   10  C17 UNL     1      35.363 -11.115  49.496  1.00  0.00     0.042 C 
BRANCH   9  11
HETATM   11  C18 UNL     1      37.195  -9.810  48.708  1.00  0.00     0.180 C 
HETATM   12  C19 UNL     1      37.370  -9.151  47.345  1.00  0.00     0.160 C 
HETATM   13  N1  UNL     1      38.574  -9.813  46.857  1.00  0.00    -0.334 N 
HETATM   14  C20 UNL     1      38.746 -11.001  47.618  1.00  0.00     0.361 C 
ATOM     15  H1  UNL     1      39.182  -9.484  46.107  1.00  0.00     0.164 HD
HETATM   16  O5  UNL     1      39.664 -11.855  47.517  1.00  0.00    -0.239 OA
HETATM   17  O6  UNL     1      37.711 -11.062  48.505  1.00  0.00    -0.294 OA
ENDBRANCH   9  11
ENDBRANCH   8   9
ENDBRANCH   7   8
BRANCH   1  18
HETATM   18  S1  UNL     1      38.009  -8.249  52.042  1.00  0.00    -0.124 SA
BRANCH  18  19
HETATM   19  C4  UNL     1      37.487  -8.375  53.743  1.00  0.00     0.111 C 
BRANCH  19  20
HETATM   20  C3  UNL     1      38.450  -9.291  54.462  1.00  0.00     0.127 C 
BRANCH  20  21
HETATM   21  C2  UNL     1      38.210  -9.334  55.945  1.00  0.00     0.028 C 
HETATM   22  C1  UNL     1      39.181 -10.196  56.687  1.00  0.00     0.007 C 
ENDBRANCH  20  21
BRANCH  20  23
HETATM   23  O1  UNL     1      39.768  -8.977  54.212  1.00  0.00    -0.395 OA
ATOM     24  H1  UNL     1      39.818  -8.320  53.528  1.00  0.00     0.210 HD
ENDBRANCH  20  23
ENDBRANCH  19  20
ENDBRANCH  18  19
ENDBRANCH   1  18
BRANCH   3  25
HETATM   25  O2  UNL     1      37.125  -3.510  50.334  1.00  0.00    -0.346 OA
BRANCH  25  26
HETATM   26  C8  UNL     1      36.448  -2.369  50.779  1.00  0.00     0.136 C 
HETATM   27  C9  UNL     1      37.291  -1.142  50.923  1.00  0.00     0.059 C 
HETATM   28  C10 UNL     1      36.623   0.134  50.573  1.00  0.00     0.173 C 
HETATM   29  O3  UNL     1      35.679   0.084  49.583  1.00  0.00    -0.357 OA
HETATM   30  C11 UNL     1      34.678  -0.780  49.977  1.00  0.00     0.309 C 
HETATM   31  F1  UNL     1      34.224  -0.458  51.244  1.00  0.00    -0.220 F 
HETATM   32  C12 UNL     1      35.181  -2.200  50.030  1.00  0.00     0.098 C 
ENDBRANCH  25  26
ENDBRANCH   3  25
TORSDOF 10
ENDMDL
