MODEL 1
REMARK VINA RESULT: -7.241850569      0.000      0.000
REMARK  2 active torsions:
REMARK  status: ('A' for Active; 'I' for Inactive)
REMARK    1  A    between atoms: C2_2  and  C5_5 
REMARK    2  A    between atoms: C7_8  and  N1_9 
ROOT
HETATM    1  C5  UNL     1      24.050   7.692  18.360  1.00  0.00     0.025 A 
HETATM    2  C6  UNL     1      24.747   6.520  18.503  1.00  0.00     0.079 A 
HETATM    3  S1  UNL     1      24.246   6.023  20.071  1.00  0.00    -0.064 SA
HETATM    4  C7  UNL     1      23.202   7.324  20.427  1.00  0.00     0.148 A 
HETATM    5  N4  UNL     1      23.290   8.067  19.331  1.00  0.00    -0.339 N 
ATOM      6  H4  UNL     1      22.757   8.934  19.257  1.00  0.00     0.168 HD
ENDROOT
BRANCH   4   7
HETATM    7  N1  UNL     1      22.449   7.581  21.632  1.00  0.00    -0.335 N 
HETATM    8  C8  UNL     1      22.185   6.407  22.443  1.00  0.00     0.134 C 
HETATM    9  C9  UNL     1      22.181   6.784  23.925  1.00  0.00     0.092 C 
HETATM   10  C10 UNL     1      21.427   8.042  24.138  1.00  0.00     0.092 C 
HETATM   11  N2  UNL     1      20.757   8.164  25.404  1.00  0.00    -0.088 NA
HETATM   12  N3  UNL     1      21.384   8.934  23.252  1.00  0.00    -0.356 N 
HETATM   13  C11 UNL     1      22.012   8.905  21.961  1.00  0.00     0.101 C 
ATOM     14  H3  UNL     1      20.843   9.769  23.475  1.00  0.00     0.163 HD
HETATM   15  C12 UNL     1      23.090   9.952  21.959  1.00  0.00     0.063 C 
HETATM   16  C13 UNL     1      20.921   9.370  20.978  1.00  0.00     0.063 C 
ENDBRANCH   4   7
BRANCH   1  17
HETATM   17  C2  UNL     1      24.240   8.507  17.096  1.00  0.00    -0.008 C 
HETATM   18  C1  UNL     1      25.432   9.423  17.212  1.00  0.00     0.021 C 
HETATM   19  C3  UNL     1      24.401   7.651  15.888  1.00  0.00     0.021 C 
HETATM   20  C4  UNL     1      23.025   9.426  16.935  1.00  0.00     0.021 C 
ENDBRANCH   1  17
TORSDOF 2
ENDMDL
MODEL 2
REMARK VINA RESULT: -7.221879137      0.121      1.014
REMARK  2 active torsions:
REMARK  status: ('A' for Active; 'I' for Inactive)
REMARK    1  A    between atoms: C2_2  and  C5_5 
REMARK    2  A    between atoms: C7_8  and  N1_9 
ROOT
HETATM    1  C5  UNL     1      24.010   7.808  18.292  1.00  0.00     0.025 A 
HETATM    2  C6  UNL     1      24.744   6.655  18.400  1.00  0.00     0.079 A 
HETATM    3  S1  UNL     1      24.277   6.106  19.961  1.00  0.00    -0.064 SA
HETATM    4  C7  UNL     1      23.198   7.365  20.359  1.00  0.00     0.148 A 
HETATM    5  N4  UNL     1      23.251   8.137  19.280  1.00  0.00    -0.339 N 
ATOM      6  H4  UNL     1      22.691   8.988  19.232  1.00  0.00     0.168 HD
ENDROOT
BRANCH   4   7
HETATM    7  N1  UNL     1      22.452   7.571  21.578  1.00  0.00    -0.335 N 
HETATM    8  C8  UNL     1      22.214   6.367  22.352  1.00  0.00     0.134 C 
HETATM    9  C9  UNL     1      22.217   6.695  23.845  1.00  0.00     0.092 C 
HETATM   10  C10 UNL     1      21.445   7.933  24.106  1.00  0.00     0.092 C 
HETATM   11  N2  UNL     1      20.784   8.003  25.381  1.00  0.00    -0.088 NA
HETATM   12  N3  UNL     1      21.379   8.852  23.250  1.00  0.00    -0.356 N 
HETATM   13  C11 UNL     1      21.997   8.876  21.954  1.00  0.00     0.101 C 
ATOM     14  H3  UNL     1      20.827   9.670  23.505  1.00  0.00     0.163 HD
HETATM   15  C12 UNL     1      23.057   9.940  21.977  1.00  0.00     0.063 C 
HETATM   16  C13 UNL     1      20.890   9.355  20.995  1.00  0.00     0.063 C 
ENDBRANCH   4   7
BRANCH   1  17
HETATM   17  C2  UNL     1      24.161   8.659  17.046  1.00  0.00    -0.008 C 
HETATM   18  C1  UNL     1      24.337   7.800  15.819  1.00  0.00     0.021 C 
HETATM   19  C3  UNL     1      23.004   9.573  16.839  1.00  0.00     0.021 C 
HETATM   20  C4  UNL     1      25.456   9.466  17.176  1.00  0.00     0.021 C 
ENDBRANCH   1  17
TORSDOF 2
ENDMDL
MODEL 3
REMARK VINA RESULT: -7.089752048      1.531      2.504
REMARK  2 active torsions:
REMARK  status: ('A' for Active; 'I' for Inactive)
REMARK    1  A    between atoms: C2_2  and  C5_5 
REMARK    2  A    between atoms: C7_8  and  N1_9 
ROOT
HETATM    1  C5  UNL     1      23.518   8.535  18.324  1.00  0.00     0.025 A 
HETATM    2  C6  UNL     1      22.399   9.254  17.988  1.00  0.00     0.079 A 
HETATM    3  S1  UNL     1      21.529   9.229  19.471  1.00  0.00    -0.064 SA
HETATM    4  C7  UNL     1      22.634   8.319  20.398  1.00  0.00     0.148 A 
HETATM    5  N4  UNL     1      23.609   8.084  19.527  1.00  0.00    -0.339 N 
ATOM      6  H4  UNL     1      24.428   7.546  19.810  1.00  0.00     0.168 HD
ENDROOT
BRANCH   4   7
HETATM    7  N1  UNL     1      22.522   7.874  21.767  1.00  0.00    -0.335 N 
HETATM    8  C8  UNL     1      21.933   8.844  22.672  1.00  0.00     0.134 C 
HETATM    9  C9  UNL     1      21.118   8.127  23.749  1.00  0.00     0.092 C 
HETATM   10  C10 UNL     1      21.861   6.954  24.268  1.00  0.00     0.092 C 
HETATM   11  N2  UNL     1      21.616   6.615  25.643  1.00  0.00    -0.088 NA
HETATM   12  N3  UNL     1      22.657   6.312  23.536  1.00  0.00    -0.356 N 
HETATM   13  C11 UNL     1      22.972   6.572  22.159  1.00  0.00     0.101 C 
ATOM     14  H3  UNL     1      23.131   5.519  23.968  1.00  0.00     0.163 HD
HETATM   15  C12 UNL     1      22.423   5.434  21.346  1.00  0.00     0.063 C 
HETATM   16  C13 UNL     1      24.509   6.490  22.080  1.00  0.00     0.063 C 
ENDBRANCH   4   7
BRANCH   1  17
HETATM   17  C2  UNL     1      24.565   8.270  17.259  1.00  0.00    -0.008 C 
HETATM   18  C1  UNL     1      25.607   9.359  17.237  1.00  0.00     0.021 C 
HETATM   19  C3  UNL     1      25.238   6.954  17.441  1.00  0.00     0.021 C 
HETATM   20  C4  UNL     1      23.876   8.327  15.892  1.00  0.00     0.021 C 
ENDBRANCH   1  17
TORSDOF 2
ENDMDL
MODEL 4
REMARK VINA RESULT: -6.937130182      2.170      6.185
REMARK  2 active torsions:
REMARK  status: ('A' for Active; 'I' for Inactive)
REMARK    1  A    between atoms: C2_2  and  C5_5 
REMARK    2  A    between atoms: C7_8  and  N1_9 
ROOT
HETATM    1  C5  UNL     1      21.988   8.868  20.996  1.00  0.00     0.025 A 
HETATM    2  C6  UNL     1      21.295   9.633  20.093  1.00  0.00     0.079 A 
HETATM    3  S1  UNL     1      22.093   9.224  18.626  1.00  0.00    -0.064 SA
HETATM    4  C7  UNL     1      23.234   8.125  19.257  1.00  0.00     0.148 A 
HETATM    5  N4  UNL     1      22.945   8.128  20.553  1.00  0.00    -0.339 N 
ATOM      6  H4  UNL     1      23.480   7.546  21.198  1.00  0.00     0.168 HD
ENDROOT
BRANCH   4   7
HETATM    7  N1  UNL     1      24.282   7.408  18.570  1.00  0.00    -0.335 N 
HETATM    8  C8  UNL     1      24.711   6.187  19.226  1.00  0.00     0.134 C 
HETATM    9  C9  UNL     1      25.111   5.144  18.183  1.00  0.00     0.092 C 
HETATM   10  C10 UNL     1      25.933   5.765  17.117  1.00  0.00     0.092 C 
HETATM   11  N2  UNL     1      26.913   4.911  16.503  1.00  0.00    -0.088 NA
HETATM   12  N3  UNL     1      25.772   6.968  16.788  1.00  0.00    -0.356 N 
HETATM   13  C11 UNL     1      24.829   7.900  17.340  1.00  0.00     0.101 C 
ATOM     14  H3  UNL     1      26.377   7.321  16.047  1.00  0.00     0.163 HD
HETATM   15  C12 UNL     1      23.821   8.211  16.271  1.00  0.00     0.063 C 
HETATM   16  C13 UNL     1      25.640   9.185  17.591  1.00  0.00     0.063 C 
ENDBRANCH   4   7
BRANCH   1  17
HETATM   17  C2  UNL     1      21.626   8.962  22.465  1.00  0.00    -0.008 C 
HETATM   18  C1  UNL     1      22.029   7.713  23.207  1.00  0.00     0.021 C 
HETATM   19  C3  UNL     1      22.247  10.144  23.127  1.00  0.00     0.021 C 
HETATM   20  C4  UNL     1      20.100   9.037  22.575  1.00  0.00     0.021 C 
ENDBRANCH   1  17
TORSDOF 2
ENDMDL
MODEL 5
REMARK VINA RESULT: -6.830149841      2.162      3.151
REMARK  2 active torsions:
REMARK  status: ('A' for Active; 'I' for Inactive)
REMARK    1  A    between atoms: C2_2  and  C5_5 
REMARK    2  A    between atoms: C7_8  and  N1_9 
ROOT
HETATM    1  C5  UNL     1      23.562   8.410  18.528  1.00  0.00     0.025 A 
HETATM    2  C6  UNL     1      22.619   9.368  18.796  1.00  0.00     0.079 A 
HETATM    3  S1  UNL     1      22.031   8.842  20.323  1.00  0.00    -0.064 SA
HETATM    4  C7  UNL     1      23.012   7.459  20.508  1.00  0.00     0.148 A 
HETATM    5  N4  UNL     1      23.737   7.474  19.396  1.00  0.00    -0.339 N 
ATOM      6  H4  UNL     1      24.431   6.745  19.228  1.00  0.00     0.168 HD
ENDROOT
BRANCH   4   7
HETATM    7  N1  UNL     1      23.023   6.489  21.578  1.00  0.00    -0.335 N 
HETATM    8  C8  UNL     1      22.565   6.995  22.859  1.00  0.00     0.134 C 
HETATM    9  C9  UNL     1      21.837   5.892  23.628  1.00  0.00     0.092 C 
HETATM   10  C10 UNL     1      22.586   4.616  23.536  1.00  0.00     0.092 C 
HETATM   11  N2  UNL     1      22.469   3.738  24.669  1.00  0.00    -0.088 NA
HETATM   12  N3  UNL     1      23.279   4.338  22.524  1.00  0.00    -0.356 N 
HETATM   13  C11 UNL     1      23.462   5.145  21.351  1.00  0.00     0.101 C 
ATOM     14  H3  UNL     1      23.765   3.442  22.539  1.00  0.00     0.163 HD
HETATM   15  C12 UNL     1      22.792   4.438  20.207  1.00  0.00     0.063 C 
HETATM   16  C13 UNL     1      24.979   5.115  21.080  1.00  0.00     0.063 C 
ENDBRANCH   4   7
BRANCH   1  17
HETATM   17  C2  UNL     1      24.316   8.471  17.214  1.00  0.00    -0.008 C 
HETATM   18  C1  UNL     1      25.538   9.347  17.326  1.00  0.00     0.021 C 
HETATM   19  C3  UNL     1      24.725   7.123  16.731  1.00  0.00     0.021 C 
HETATM   20  C4  UNL     1      23.412   9.151  16.180  1.00  0.00     0.021 C 
ENDBRANCH   1  17
TORSDOF 2
ENDMDL
