MODEL 1
REMARK VINA RESULT: -6.925689017      0.000      0.000
REMARK  2 active torsions:
REMARK  status: ('A' for Active; 'I' for Inactive)
REMARK    1  A    between atoms: C4_9  and  N3_10 
REMARK    2  A    between atoms: N3_10  and  C5_12 
ROOT
HETATM    1  N3  UNL     1      23.528   7.779  19.179  1.00  0.00    -0.374 N 
ATOM      2  H3  UNL     1      22.725   7.773  18.550  1.00  0.00     0.160 HD
ENDROOT
BRANCH   1   3
HETATM    3  C4  UNL     1      23.123   7.738  20.358  1.00  0.00     0.112 A 
HETATM    4  C3  UNL     1      22.962   6.648  21.180  1.00  0.00     0.149 A 
HETATM    5  N2  UNL     1      22.523   6.678  22.435  1.00  0.00    -0.287 N 
HETATM    6  S1  UNL     1      23.352   5.165  20.537  1.00  0.00    -0.056 SA
HETATM    7  N1  UNL     1      22.157   7.696  23.158  1.00  0.00    -0.297 N 
ATOM      8  H2  UNL     1      22.465   5.771  22.898  1.00  0.00     0.188 HD
HETATM    9  C2  UNL     1      22.150   8.968  22.768  1.00  0.00     0.064 A 
ATOM     10  H1  UNL     1      21.848   7.502  24.110  1.00  0.00     0.187 HD
HETATM   11  C1  UNL     1      21.709  10.086  23.674  1.00  0.00     0.078 C 
HETATM   12  S2  UNL     1      22.676   9.207  21.173  1.00  0.00    -0.055 SA
ENDBRANCH   1   3
BRANCH   1  13
HETATM   13  C5  UNL     1      24.683   7.831  18.430  1.00  0.00     0.115 C 
HETATM   14  C6  UNL     1      24.859   6.723  17.410  1.00  0.00     0.009 C 
HETATM   15  C7  UNL     1      26.324   6.581  17.062  1.00  0.00     0.012 C 
HETATM   16  C8  UNL     1      24.150   7.083  16.106  1.00  0.00     0.038 C 
HETATM   17  C9  UNL     1      24.552   8.446  15.621  1.00  0.00     0.122 C 
HETATM   18  C10 UNL     1      23.317   9.337  15.741  1.00  0.00     0.034 C 
HETATM   19  O1  UNL     1      25.452   9.042  16.532  1.00  0.00    -0.379 OA
HETATM   20  C11 UNL     1      23.287   9.558  17.244  1.00  0.00     0.036 C 
HETATM   21  C12 UNL     1      24.674   9.192  17.677  1.00  0.00     0.145 C 
ENDBRANCH   1  13
TORSDOF 2
ENDMDL
MODEL 2
REMARK VINA RESULT: -6.878200068      4.998      7.994
REMARK  2 active torsions:
REMARK  status: ('A' for Active; 'I' for Inactive)
REMARK    1  A    between atoms: C4_9  and  N3_10 
REMARK    2  A    between atoms: N3_10  and  C5_12 
ROOT
HETATM    1  N3  UNL     1      25.517   3.489  19.060  1.00  0.00    -0.374 N 
ATOM      2  H3  UNL     1      24.621   3.087  18.780  1.00  0.00     0.160 HD
ENDROOT
BRANCH   1   3
HETATM    3  C4  UNL     1      26.348   3.307  18.146  1.00  0.00     0.112 A 
HETATM    4  C3  UNL     1      26.729   4.161  17.140  1.00  0.00     0.149 A 
HETATM    5  N2  UNL     1      27.626   3.900  16.195  1.00  0.00    -0.287 N 
HETATM    6  S1  UNL     1      25.992   5.652  17.109  1.00  0.00    -0.056 SA
HETATM    7  N1  UNL     1      28.332   2.824  16.001  1.00  0.00    -0.297 N 
ATOM      8  H2  UNL     1      27.785   4.653  15.524  1.00  0.00     0.188 HD
HETATM    9  C2  UNL     1      28.294   1.721  16.744  1.00  0.00     0.064 A 
ATOM     10  H1  UNL     1      28.972   2.826  15.207  1.00  0.00     0.187 HD
HETATM   11  C1  UNL     1      29.148   0.519  16.445  1.00  0.00     0.078 C 
HETATM   12  S2  UNL     1      27.204   1.797  18.041  1.00  0.00    -0.055 SA
ENDBRANCH   1   3
BRANCH   1  13
HETATM   13  C5  UNL     1      25.388   4.043  20.314  1.00  0.00     0.115 C 
HETATM   14  C6  UNL     1      24.230   5.004  20.495  1.00  0.00     0.009 C 
HETATM   15  C7  UNL     1      24.504   5.913  21.672  1.00  0.00     0.012 C 
HETATM   16  C8  UNL     1      22.954   4.240  20.842  1.00  0.00     0.038 C 
HETATM   17  C9  UNL     1      23.172   3.302  21.994  1.00  0.00     0.122 C 
HETATM   18  C10 UNL     1      23.054   1.884  21.436  1.00  0.00     0.034 C 
HETATM   19  O1  UNL     1      24.519   3.355  22.419  1.00  0.00    -0.379 OA
HETATM   20  C11 UNL     1      24.383   1.769  20.708  1.00  0.00     0.036 C 
HETATM   21  C12 UNL     1      25.206   2.864  21.312  1.00  0.00     0.145 C 
ENDBRANCH   1  13
TORSDOF 2
ENDMDL
MODEL 3
REMARK VINA RESULT: -6.793673917      4.785      7.766
REMARK  2 active torsions:
REMARK  status: ('A' for Active; 'I' for Inactive)
REMARK    1  A    between atoms: C4_9  and  N3_10 
REMARK    2  A    between atoms: N3_10  and  C5_12 
ROOT
HETATM    1  N3  UNL     1      25.630   3.672  19.109  1.00  0.00    -0.374 N 
ATOM      2  H3  UNL     1      25.943   4.491  19.631  1.00  0.00     0.160 HD
ENDROOT
BRANCH   1   3
HETATM    3  C4  UNL     1      26.411   3.472  18.157  1.00  0.00     0.112 A 
HETATM    4  C3  UNL     1      26.720   4.297  17.103  1.00  0.00     0.149 A 
HETATM    5  N2  UNL     1      27.568   4.017  16.118  1.00  0.00    -0.287 N 
HETATM    6  S1  UNL     1      25.959   5.775  17.066  1.00  0.00    -0.056 SA
HETATM    7  N1  UNL     1      28.279   2.945  15.920  1.00  0.00    -0.297 N 
ATOM      8  H2  UNL     1      27.676   4.749  15.415  1.00  0.00     0.188 HD
HETATM    9  C2  UNL     1      28.301   1.868  16.699  1.00  0.00     0.064 A 
ATOM     10  H1  UNL     1      28.874   2.930  15.091  1.00  0.00     0.187 HD
HETATM   11  C1  UNL     1      29.156   0.669  16.392  1.00  0.00     0.078 C 
HETATM   12  S2  UNL     1      27.284   1.972  18.053  1.00  0.00    -0.055 SA
ENDBRANCH   1   3
BRANCH   1  13
HETATM   13  C5  UNL     1      24.491   3.171  19.701  1.00  0.00     0.115 C 
HETATM   14  C6  UNL     1      24.706   2.366  20.968  1.00  0.00     0.009 C 
HETATM   15  C7  UNL     1      23.516   1.462  21.202  1.00  0.00     0.012 C 
HETATM   16  C8  UNL     1      24.775   3.291  22.181  1.00  0.00     0.038 C 
HETATM   17  C9  UNL     1      23.601   4.225  22.227  1.00  0.00     0.122 C 
HETATM   18  C10 UNL     1      24.146   5.631  21.981  1.00  0.00     0.034 C 
HETATM   19  O1  UNL     1      22.767   4.017  21.105  1.00  0.00    -0.379 OA
HETATM   20  C11 UNL     1      24.407   5.562  20.486  1.00  0.00     0.036 C 
HETATM   21  C12 UNL     1      23.587   4.390  20.044  1.00  0.00     0.145 C 
ENDBRANCH   1  13
TORSDOF 2
ENDMDL
MODEL 4
REMARK VINA RESULT: -6.682931094      1.017      2.177
REMARK  2 active torsions:
REMARK  status: ('A' for Active; 'I' for Inactive)
REMARK    1  A    between atoms: C4_9  and  N3_10 
REMARK    2  A    between atoms: N3_10  and  C5_12 
ROOT
HETATM    1  N3  UNL     1      23.513   7.899  19.137  1.00  0.00    -0.374 N 
ATOM      2  H3  UNL     1      22.751   8.282  18.576  1.00  0.00     0.160 HD
ENDROOT
BRANCH   1   3
HETATM    3  C4  UNL     1      23.070   7.576  20.259  1.00  0.00     0.112 A 
HETATM    4  C3  UNL     1      22.282   8.301  21.120  1.00  0.00     0.149 A 
HETATM    5  N2  UNL     1      21.845   7.892  22.307  1.00  0.00    -0.287 N 
HETATM    6  S1  UNL     1      21.844   9.827  20.623  1.00  0.00    -0.056 SA
HETATM    7  N1  UNL     1      22.045   6.759  22.915  1.00  0.00    -0.297 N 
ATOM      8  H2  UNL     1      21.269   8.564  22.814  1.00  0.00     0.188 HD
HETATM    9  C2  UNL     1      22.760   5.738  22.449  1.00  0.00     0.064 A 
ATOM     10  H1  UNL     1      21.616   6.643  23.832  1.00  0.00     0.187 HD
HETATM   11  C1  UNL     1      22.939   4.461  23.223  1.00  0.00     0.078 C 
HETATM   12  S2  UNL     1      23.441   6.011  20.919  1.00  0.00    -0.055 SA
ENDBRANCH   1   3
BRANCH   1  13
HETATM   13  C5  UNL     1      24.671   7.917  18.393  1.00  0.00     0.115 C 
HETATM   14  C6  UNL     1      24.842   6.777  17.409  1.00  0.00     0.009 C 
HETATM   15  C7  UNL     1      26.307   6.611  17.073  1.00  0.00     0.012 C 
HETATM   16  C8  UNL     1      24.143   7.102  16.091  1.00  0.00     0.038 C 
HETATM   17  C9  UNL     1      24.558   8.445  15.566  1.00  0.00     0.122 C 
HETATM   18  C10 UNL     1      23.330   9.350  15.652  1.00  0.00     0.034 C 
HETATM   19  O1  UNL     1      25.460   9.063  16.462  1.00  0.00    -0.379 OA
HETATM   20  C11 UNL     1      23.296   9.618  17.147  1.00  0.00     0.036 C 
HETATM   21  C12 UNL     1      24.677   9.254  17.598  1.00  0.00     0.145 C 
ENDBRANCH   1  13
TORSDOF 2
ENDMDL
MODEL 5
REMARK VINA RESULT: -6.466313942      1.475      2.549
REMARK  2 active torsions:
REMARK  status: ('A' for Active; 'I' for Inactive)
REMARK    1  A    between atoms: C4_9  and  N3_10 
REMARK    2  A    between atoms: N3_10  and  C5_12 
ROOT
HETATM    1  N3  UNL     1      23.107   8.286  20.060  1.00  0.00    -0.374 N 
ATOM      2  H3  UNL     1      24.065   8.625  19.971  1.00  0.00     0.160 HD
ENDROOT
BRANCH   1   3
HETATM    3  C4  UNL     1      22.924   7.885  21.228  1.00  0.00     0.112 A 
HETATM    4  C3  UNL     1      23.400   6.749  21.837  1.00  0.00     0.149 A 
HETATM    5  N2  UNL     1      23.164   6.382  23.093  1.00  0.00    -0.287 N 
HETATM    6  S1  UNL     1      24.353   5.750  20.910  1.00  0.00    -0.056 SA
HETATM    7  N1  UNL     1      22.460   6.980  24.009  1.00  0.00    -0.297 N 
ATOM      8  H2  UNL     1      23.598   5.504  23.379  1.00  0.00     0.188 HD
HETATM    9  C2  UNL     1      21.807   8.129  23.866  1.00  0.00     0.064 A 
ATOM     10  H1  UNL     1      22.404   6.525  24.921  1.00  0.00     0.187 HD
HETATM   11  C1  UNL     1      21.015   8.750  24.985  1.00  0.00     0.078 C 
HETATM   12  S2  UNL     1      21.949   8.819  22.323  1.00  0.00    -0.055 SA
ENDBRANCH   1   3
BRANCH   1  13
HETATM   13  C5  UNL     1      22.464   8.432  18.851  1.00  0.00     0.115 C 
HETATM   14  C6  UNL     1      22.049   9.844  18.489  1.00  0.00     0.009 C 
HETATM   15  C7  UNL     1      20.935   9.800  17.468  1.00  0.00     0.012 C 
HETATM   16  C8  UNL     1      23.205  10.582  17.818  1.00  0.00     0.038 C 
HETATM   17  C9  UNL     1      23.776   9.789  16.678  1.00  0.00     0.122 C 
HETATM   18  C10 UNL     1      25.185   9.371  17.095  1.00  0.00     0.034 C 
HETATM   19  O1  UNL     1      23.107   8.550  16.563  1.00  0.00    -0.379 OA
HETATM   20  C11 UNL     1      24.857   8.266  18.085  1.00  0.00     0.036 C 
HETATM   21  C12 UNL     1      23.439   7.913  17.756  1.00  0.00     0.145 C 
ENDBRANCH   1  13
TORSDOF 2
ENDMDL
