MODEL 1
REMARK VINA RESULT: -7.038550998      0.000      0.000
REMARK  3 active torsions:
REMARK  status: ('A' for Active; 'I' for Inactive)
REMARK    1  A    between atoms: C2_2  and  O1_5 
REMARK    2  A    between atoms: O1_5  and  C5_6 
REMARK       I    between atoms: C5_6  and  N1_8 
REMARK    3  A    between atoms: N1_8  and  C6_10 
ROOT
HETATM    1  C6  UNL     1      22.541   8.352  21.495  1.00  0.00     0.153 A 
HETATM    2  N2  UNL     1      22.381   9.451  22.211  1.00  0.00    -0.339 N 
ATOM      3  H2  UNL     1      22.516  10.365  21.782  1.00  0.00     0.168 HD
HETATM    4  C7  UNL     1      22.053   9.363  23.454  1.00  0.00     0.026 A 
HETATM    5  C8  UNL     1      21.883   8.114  23.992  1.00  0.00     0.011 A 
HETATM    6  S1  UNL     1      22.211   7.120  22.643  1.00  0.00    -0.056 SA
HETATM    7  C9  UNL     1      21.510   7.674  25.382  1.00  0.00     0.074 C 
HETATM    8  C10 UNL     1      20.506   8.668  25.947  1.00  0.00     0.172 C 
HETATM    9  O3  UNL     1      19.931   9.412  24.909  1.00  0.00    -0.390 OA
HETATM   10  C11 UNL     1      20.482  10.674  24.876  1.00  0.00     0.173 C 
HETATM   11  C12 UNL     1      21.866  10.617  24.288  1.00  0.00     0.084 C 
ENDROOT
BRANCH   1  12
HETATM   12  N1  UNL     1      22.901   8.222  20.102  1.00  0.00    -0.282 N 
HETATM   13  C5  UNL     1      22.119   8.849  19.096  1.00  0.00     0.367 C 
HETATM   14  O2  UNL     1      21.116   9.511  19.463  1.00  0.00    -0.238 OA
ATOM     15  H1  UNL     1      23.722   7.676  19.839  1.00  0.00     0.173 HD
BRANCH  13  16
HETATM   16  O1  UNL     1      22.393   8.773  17.764  1.00  0.00    -0.294 OA
BRANCH  16  17
HETATM   17  C2  UNL     1      23.200   9.700  17.063  1.00  0.00     0.061 C 
HETATM   18  C1  UNL     1      23.119   9.291  15.588  1.00  0.00     0.046 C 
HETATM   19  C3  UNL     1      24.631   9.697  17.504  1.00  0.00     0.046 C 
HETATM   20  C4  UNL     1      22.628  11.096  17.139  1.00  0.00     0.046 C 
ENDBRANCH  16  17
ENDBRANCH  13  16
ENDBRANCH   1  12
TORSDOF 3
ENDMDL
MODEL 2
REMARK VINA RESULT: -6.871604379      2.029      7.172
REMARK  3 active torsions:
REMARK  status: ('A' for Active; 'I' for Inactive)
REMARK    1  A    between atoms: C2_2  and  O1_5 
REMARK    2  A    between atoms: O1_5  and  C5_6 
REMARK       I    between atoms: C5_6  and  N1_8 
REMARK    3  A    between atoms: N1_8  and  C6_10 
ROOT
HETATM    1  C6  UNL     1      21.998   9.717  19.464  1.00  0.00     0.153 A 
HETATM    2  N2  UNL     1      23.211   9.211  19.322  1.00  0.00    -0.339 N 
ATOM      3  H2  UNL     1      23.728   8.888  20.139  1.00  0.00     0.168 HD
HETATM    4  C7  UNL     1      23.738   9.129  18.149  1.00  0.00     0.026 A 
HETATM    5  C8  UNL     1      23.008   9.577  17.079  1.00  0.00     0.011 A 
HETATM    6  S1  UNL     1      21.574  10.101  17.846  1.00  0.00    -0.056 SA
HETATM    7  C9  UNL     1      23.327   9.622  15.609  1.00  0.00     0.074 C 
HETATM    8  C10 UNL     1      24.136   8.384  15.255  1.00  0.00     0.172 C 
HETATM    9  O3  UNL     1      23.983   7.410  16.250  1.00  0.00    -0.390 OA
HETATM   10  C11 UNL     1      25.110   7.368  17.042  1.00  0.00     0.173 C 
HETATM   11  C12 UNL     1      25.129   8.550  17.973  1.00  0.00     0.084 C 
ENDROOT
BRANCH   1  12
HETATM   12  N1  UNL     1      21.227   9.899  20.672  1.00  0.00    -0.282 N 
HETATM   13  C5  UNL     1      21.319   8.959  21.732  1.00  0.00     0.367 C 
HETATM   14  O2  UNL     1      22.088   7.978  21.577  1.00  0.00    -0.238 OA
ATOM     15  H1  UNL     1      20.613  10.708  20.763  1.00  0.00     0.173 HD
BRANCH  13  16
HETATM   16  O1  UNL     1      20.625   9.062  22.899  1.00  0.00    -0.294 OA
BRANCH  16  17
HETATM   17  C2  UNL     1      21.209   9.383  24.147  1.00  0.00     0.061 C 
HETATM   18  C1  UNL     1      20.054   9.852  25.040  1.00  0.00     0.046 C 
HETATM   19  C3  UNL     1      22.241  10.465  24.059  1.00  0.00     0.046 C 
HETATM   20  C4  UNL     1      21.784   8.159  24.819  1.00  0.00     0.046 C 
ENDBRANCH  16  17
ENDBRANCH  13  16
ENDBRANCH   1  12
TORSDOF 3
ENDMDL
MODEL 3
REMARK VINA RESULT: -6.841275158      4.974      7.008
REMARK  3 active torsions:
REMARK  status: ('A' for Active; 'I' for Inactive)
REMARK    1  A    between atoms: C2_2  and  O1_5 
REMARK    2  A    between atoms: O1_5  and  C5_6 
REMARK       I    between atoms: C5_6  and  N1_8 
REMARK    3  A    between atoms: N1_8  and  C6_10 
ROOT
HETATM    1  C6  UNL     1      24.759   6.168  17.994  1.00  0.00     0.153 A 
HETATM    2  N2  UNL     1      24.641   7.293  17.311  1.00  0.00    -0.339 N 
ATOM      3  H2  UNL     1      24.988   7.348  16.354  1.00  0.00     0.168 HD
HETATM    4  C7  UNL     1      24.088   8.320  17.857  1.00  0.00     0.026 A 
HETATM    5  C8  UNL     1      23.637   8.203  19.147  1.00  0.00     0.011 A 
HETATM    6  S1  UNL     1      24.047   6.583  19.500  1.00  0.00    -0.056 SA
HETATM    7  C9  UNL     1      22.959   9.193  20.055  1.00  0.00     0.074 C 
HETATM    8  C10 UNL     1      22.033  10.060  19.215  1.00  0.00     0.172 C 
HETATM    9  O3  UNL     1      21.772   9.435  17.989  1.00  0.00    -0.390 OA
HETATM   10  C11 UNL     1      22.505  10.038  16.991  1.00  0.00     0.173 C 
HETATM   11  C12 UNL     1      23.947   9.617  17.083  1.00  0.00     0.084 C 
ENDROOT
BRANCH   1  12
HETATM   12  N1  UNL     1      25.337   4.911  17.580  1.00  0.00    -0.282 N 
HETATM   13  C5  UNL     1      26.675   4.857  17.106  1.00  0.00     0.367 C 
HETATM   14  O2  UNL     1      27.323   5.932  17.063  1.00  0.00    -0.238 OA
ATOM     15  H1  UNL     1      24.782   4.057  17.629  1.00  0.00     0.173 HD
BRANCH  13  16
HETATM   16  O1  UNL     1      27.290   3.712  16.698  1.00  0.00    -0.294 OA
BRANCH  16  17
HETATM   17  C2  UNL     1      27.556   2.608  17.542  1.00  0.00     0.061 C 
HETATM   18  C1  UNL     1      28.788   1.916  16.946  1.00  0.00     0.046 C 
HETATM   19  C3  UNL     1      26.424   1.631  17.619  1.00  0.00     0.046 C 
HETATM   20  C4  UNL     1      27.961   3.057  18.926  1.00  0.00     0.046 C 
ENDBRANCH  16  17
ENDBRANCH  13  16
ENDBRANCH   1  12
TORSDOF 3
ENDMDL
MODEL 4
REMARK VINA RESULT: -6.551443433      4.731      6.928
REMARK  3 active torsions:
REMARK  status: ('A' for Active; 'I' for Inactive)
REMARK    1  A    between atoms: C2_2  and  O1_5 
REMARK    2  A    between atoms: O1_5  and  C5_6 
REMARK       I    between atoms: C5_6  and  N1_8 
REMARK    3  A    between atoms: N1_8  and  C6_10 
ROOT
HETATM    1  C6  UNL     1      24.353   6.312  19.196  1.00  0.00     0.153 A 
HETATM    2  N2  UNL     1      24.671   7.184  18.255  1.00  0.00    -0.339 N 
ATOM      3  H2  UNL     1      25.357   6.939  17.542  1.00  0.00     0.168 HD
HETATM    4  C7  UNL     1      24.112   8.345  18.242  1.00  0.00     0.026 A 
HETATM    5  C8  UNL     1      23.198   8.634  19.221  1.00  0.00     0.011 A 
HETATM    6  S1  UNL     1      23.197   7.181  20.119  1.00  0.00    -0.056 SA
HETATM    7  C9  UNL     1      22.383   9.871  19.484  1.00  0.00     0.074 C 
HETATM    8  C10 UNL     1      21.982  10.476  18.148  1.00  0.00     0.172 C 
HETATM    9  O3  UNL     1      22.112   9.522  17.131  1.00  0.00    -0.390 OA
HETATM   10  C11 UNL     1      23.248   9.775  16.394  1.00  0.00     0.173 C 
HETATM   11  C12 UNL     1      24.469   9.355  17.167  1.00  0.00     0.084 C 
ENDROOT
BRANCH   1  12
HETATM   12  N1  UNL     1      24.851   4.970  19.395  1.00  0.00    -0.282 N 
HETATM   13  C5  UNL     1      25.124   4.132  18.282  1.00  0.00     0.367 C 
HETATM   14  O2  UNL     1      24.916   4.600  17.134  1.00  0.00    -0.238 OA
ATOM     15  H1  UNL     1      25.008   4.624  20.341  1.00  0.00     0.173 HD
BRANCH  13  16
HETATM   16  O1  UNL     1      25.594   2.858  18.388  1.00  0.00    -0.294 OA
BRANCH  16  17
HETATM   17  C2  UNL     1      26.966   2.519  18.447  1.00  0.00     0.061 C 
HETATM   18  C1  UNL     1      27.015   1.057  18.908  1.00  0.00     0.046 C 
HETATM   19  C3  UNL     1      27.749   3.368  19.400  1.00  0.00     0.046 C 
HETATM   20  C4  UNL     1      27.600   2.544  17.076  1.00  0.00     0.046 C 
ENDBRANCH  16  17
ENDBRANCH  13  16
ENDBRANCH   1  12
TORSDOF 3
ENDMDL
MODEL 5
REMARK VINA RESULT: -6.369156976      3.669      7.513
REMARK  3 active torsions:
REMARK  status: ('A' for Active; 'I' for Inactive)
REMARK    1  A    between atoms: C2_2  and  O1_5 
REMARK    2  A    between atoms: O1_5  and  C5_6 
REMARK       I    between atoms: C5_6  and  N1_8 
REMARK    3  A    between atoms: N1_8  and  C6_10 
ROOT
HETATM    1  C6  UNL     1      23.109   7.762  19.878  1.00  0.00     0.153 A 
HETATM    2  N2  UNL     1      24.100   7.567  19.026  1.00  0.00    -0.339 N 
ATOM      3  H2  UNL     1      24.826   6.882  19.234  1.00  0.00     0.168 HD
HETATM    4  C7  UNL     1      24.148   8.246  17.932  1.00  0.00     0.026 A 
HETATM    5  C8  UNL     1      23.153   9.158  17.693  1.00  0.00     0.011 A 
HETATM    6  S1  UNL     1      22.188   8.977  19.090  1.00  0.00    -0.056 SA
HETATM    7  C9  UNL     1      22.920  10.092  16.536  1.00  0.00     0.074 C 
HETATM    8  C10 UNL     1      23.357   9.392  15.258  1.00  0.00     0.172 C 
HETATM    9  O3  UNL     1      23.435   8.010  15.471  1.00  0.00    -0.390 OA
HETATM   10  C11 UNL     1      24.754   7.630  15.595  1.00  0.00     0.173 C 
HETATM   11  C12 UNL     1      25.281   8.032  16.946  1.00  0.00     0.084 C 
ENDROOT
BRANCH   1  12
HETATM   12  N1  UNL     1      22.863   7.117  21.147  1.00  0.00    -0.282 N 
HETATM   13  C5  UNL     1      23.699   6.058  21.588  1.00  0.00     0.367 C 
HETATM   14  O2  UNL     1      24.647   5.711  20.840  1.00  0.00    -0.238 OA
ATOM     15  H1  UNL     1      22.085   7.424  21.729  1.00  0.00     0.173 HD
BRANCH  13  16
HETATM   16  O1  UNL     1      23.532   5.401  22.770  1.00  0.00    -0.294 OA
BRANCH  16  17
HETATM   17  C2  UNL     1      23.092   4.061  22.880  1.00  0.00     0.061 C 
HETATM   18  C1  UNL     1      22.143   4.032  24.084  1.00  0.00     0.046 C 
HETATM   19  C3  UNL     1      24.206   3.085  23.101  1.00  0.00     0.046 C 
HETATM   20  C4  UNL     1      22.262   3.653  21.686  1.00  0.00     0.046 C 
ENDBRANCH  16  17
ENDBRANCH  13  16
ENDBRANCH   1  12
TORSDOF 3
ENDMDL
