MODEL 1
REMARK VINA RESULT: -5.792155607      0.000      0.000
REMARK  2 active torsions:
REMARK  status: ('A' for Active; 'I' for Inactive)
REMARK    1  A    between atoms: C7_7  and  N1_8 
REMARK    2  A    between atoms: N1_8  and  C8_10 
ROOT
HETATM    1  N1  UNL     1      -0.491  24.192  47.890  1.00  0.00    -0.190 N 
ATOM      2  H1  UNL     1      -1.201  23.519  47.600  1.00  0.00     0.184 HD
ENDROOT
BRANCH   1   3
HETATM    3  C7  UNL     1      -0.311  24.511  49.275  1.00  0.00     0.055 A 
HETATM    4  C2  UNL     1       0.010  23.532  50.191  1.00  0.00    -0.035 A 
HETATM    5  C1  UNL     1       0.167  22.140  49.714  1.00  0.00     0.050 C 
HETATM    6  C3  UNL     1       0.181  23.847  51.519  1.00  0.00     0.009 A 
HETATM    7  C4  UNL     1       0.022  25.171  51.908  1.00  0.00     0.001 A 
HETATM    8  C5  UNL     1      -0.299  26.148  50.998  1.00  0.00     0.002 A 
HETATM    9  C6  UNL     1      -0.463  25.804  49.677  1.00  0.00     0.030 A 
ENDBRANCH   1   3
BRANCH   1  10
HETATM   10  C8  UNL     1       0.268  24.775  47.010  1.00  0.00     0.698 A 
HETATM   11  N2  UNL     1       1.589  24.601  46.878  1.00  0.00    -0.185 N 
HETATM   12  C9  UNL     1       1.974  25.382  45.860  1.00  0.00     0.215 A 
ATOM     13  H2  UNL     1       2.184  23.994  47.441  1.00  0.00     0.185 HD
HETATM   14  N3  UNL     1       0.913  26.035  45.362  1.00  0.00    -0.281 N 
HETATM   15  N4  UNL     1      -0.125  25.652  46.078  1.00  0.00    -0.131 N 
ATOM     16  H3  UNL     1       0.910  26.696  44.585  1.00  0.00     0.188 HD
ATOM     17  H4  UNL     1      -1.083  25.975  45.942  1.00  0.00     0.205 HD
ENDBRANCH   1  10
TORSDOF 2
ENDMDL
MODEL 2
REMARK VINA RESULT: -5.615430020      3.124      4.949
REMARK  2 active torsions:
REMARK  status: ('A' for Active; 'I' for Inactive)
REMARK    1  A    between atoms: C7_7  and  N1_8 
REMARK    2  A    between atoms: N1_8  and  C8_10 
ROOT
HETATM    1  N1  UNL     1      -1.213  23.614  50.267  1.00  0.00    -0.190 N 
ATOM      2  H1  UNL     1      -1.885  24.333  50.000  1.00  0.00     0.184 HD
ENDROOT
BRANCH   1   3
HETATM    3  C7  UNL     1       0.187  23.914  50.336  1.00  0.00     0.055 A 
HETATM    4  C2  UNL     1       0.626  25.133  50.805  1.00  0.00    -0.035 A 
HETATM    5  C1  UNL     1      -0.379  26.130  51.236  1.00  0.00     0.050 C 
HETATM    6  C3  UNL     1       1.971  25.413  50.869  1.00  0.00     0.009 A 
HETATM    7  C4  UNL     1       2.868  24.439  50.450  1.00  0.00     0.001 A 
HETATM    8  C5  UNL     1       2.433  23.223  49.982  1.00  0.00     0.002 A 
HETATM    9  C6  UNL     1       1.082  22.971  49.930  1.00  0.00     0.030 A 
ENDBRANCH   1   3
BRANCH   1  10
HETATM   10  C8  UNL     1      -1.609  22.409  50.550  1.00  0.00     0.698 A 
HETATM   11  N2  UNL     1      -2.116  21.527  49.680  1.00  0.00    -0.185 N 
HETATM   12  C9  UNL     1      -2.392  20.419  50.381  1.00  0.00     0.215 A 
ATOM     13  H2  UNL     1      -2.264  21.670  48.681  1.00  0.00     0.185 HD
HETATM   14  N3  UNL     1      -2.063  20.602  51.668  1.00  0.00    -0.281 N 
HETATM   15  N4  UNL     1      -1.585  21.826  51.756  1.00  0.00    -0.131 N 
ATOM     16  H3  UNL     1      -2.163  19.928  52.427  1.00  0.00     0.188 HD
ATOM     17  H4  UNL     1      -1.247  22.265  52.613  1.00  0.00     0.205 HD
ENDBRANCH   1  10
TORSDOF 2
ENDMDL
MODEL 3
REMARK VINA RESULT: -5.565931364      1.039      1.471
REMARK  2 active torsions:
REMARK  status: ('A' for Active; 'I' for Inactive)
REMARK    1  A    between atoms: C7_7  and  N1_8 
REMARK    2  A    between atoms: N1_8  and  C8_10 
ROOT
HETATM    1  N1  UNL     1       1.197  24.380  48.224  1.00  0.00    -0.190 N 
ATOM      2  H1  UNL     1       2.150  24.067  48.038  1.00  0.00     0.184 HD
ENDROOT
BRANCH   1   3
HETATM    3  C7  UNL     1       0.751  24.599  49.568  1.00  0.00     0.055 A 
HETATM    4  C2  UNL     1       0.780  23.582  50.497  1.00  0.00    -0.035 A 
HETATM    5  C1  UNL     1       1.282  22.255  50.079  1.00  0.00     0.050 C 
HETATM    6  C3  UNL     1       0.350  23.801  51.786  1.00  0.00     0.009 A 
HETATM    7  C4  UNL     1      -0.111  25.068  52.121  1.00  0.00     0.001 A 
HETATM    8  C5  UNL     1      -0.141  26.083  51.196  1.00  0.00     0.002 A 
HETATM    9  C6  UNL     1       0.295  25.835  49.916  1.00  0.00     0.030 A 
ENDBRANCH   1   3
BRANCH   1  10
HETATM   10  C8  UNL     1       0.365  24.586  47.247  1.00  0.00     0.698 A 
HETATM   11  N2  UNL     1      -0.785  23.929  47.047  1.00  0.00    -0.185 N 
HETATM   12  C9  UNL     1      -1.329  24.448  45.938  1.00  0.00     0.215 A 
ATOM     13  H2  UNL     1      -1.170  23.182  47.623  1.00  0.00     0.185 HD
HETATM   14  N3  UNL     1      -0.535  25.414  45.451  1.00  0.00    -0.281 N 
HETATM   15  N4  UNL     1       0.499  25.486  46.264  1.00  0.00    -0.131 N 
ATOM     16  H3  UNL     1      -0.699  25.979  44.618  1.00  0.00     0.188 HD
ATOM     17  H4  UNL     1       1.283  26.130  46.161  1.00  0.00     0.205 HD
ENDBRANCH   1  10
TORSDOF 2
ENDMDL
MODEL 4
REMARK VINA RESULT: -5.539371981      3.106      4.740
REMARK  2 active torsions:
REMARK  status: ('A' for Active; 'I' for Inactive)
REMARK    1  A    between atoms: C7_7  and  N1_8 
REMARK    2  A    between atoms: N1_8  and  C8_10 
ROOT
HETATM    1  N1  UNL     1       0.208  23.049  51.858  1.00  0.00    -0.190 N 
ATOM      2  H1  UNL     1       0.864  22.781  52.592  1.00  0.00     0.184 HD
ENDROOT
BRANCH   1   3
HETATM    3  C7  UNL     1      -0.437  22.052  51.056  1.00  0.00     0.055 A 
HETATM    4  C2  UNL     1       0.266  21.352  50.099  1.00  0.00    -0.035 A 
HETATM    5  C1  UNL     1       1.703  21.652  49.916  1.00  0.00     0.050 C 
HETATM    6  C3  UNL     1      -0.360  20.395  49.334  1.00  0.00     0.009 A 
HETATM    7  C4  UNL     1      -1.711  20.157  49.551  1.00  0.00     0.001 A 
HETATM    8  C5  UNL     1      -2.413  20.854  50.504  1.00  0.00     0.002 A 
HETATM    9  C6  UNL     1      -1.761  21.804  51.255  1.00  0.00     0.030 A 
ENDBRANCH   1   3
BRANCH   1  10
HETATM   10  C8  UNL     1      -0.060  24.301  51.633  1.00  0.00     0.698 A 
HETATM   11  N2  UNL     1      -0.022  24.908  50.440  1.00  0.00    -0.185 N 
HETATM   12  C9  UNL     1      -0.363  26.186  50.654  1.00  0.00     0.215 A 
ATOM     13  H2  UNL     1       0.219  24.481  49.546  1.00  0.00     0.185 HD
HETATM   14  N3  UNL     1      -0.611  26.378  51.958  1.00  0.00    -0.281 N 
HETATM   15  N4  UNL     1      -0.420  25.214  52.545  1.00  0.00    -0.131 N 
ATOM     16  H3  UNL     1      -0.890  27.251  52.406  1.00  0.00     0.188 HD
ATOM     17  H4  UNL     1      -0.530  25.035  53.543  1.00  0.00     0.205 HD
ENDBRANCH   1  10
TORSDOF 2
ENDMDL
MODEL 5
REMARK VINA RESULT: -5.502144602      1.253      2.252
REMARK  2 active torsions:
REMARK  status: ('A' for Active; 'I' for Inactive)
REMARK    1  A    between atoms: C7_7  and  N1_8 
REMARK    2  A    between atoms: N1_8  and  C8_10 
ROOT
HETATM    1  N1  UNL     1      -0.439  25.578  48.704  1.00  0.00    -0.190 N 
ATOM      2  H1  UNL     1      -0.757  26.508  48.976  1.00  0.00     0.184 HD
ENDROOT
BRANCH   1   3
HETATM    3  C7  UNL     1      -0.676  24.449  49.554  1.00  0.00     0.055 A 
HETATM    4  C2  UNL     1       0.047  24.273  50.714  1.00  0.00    -0.035 A 
HETATM    5  C1  UNL     1       1.077  25.277  51.065  1.00  0.00     0.050 C 
HETATM    6  C3  UNL     1      -0.187  23.187  51.525  1.00  0.00     0.009 A 
HETATM    7  C4  UNL     1      -1.165  22.278  51.144  1.00  0.00     0.001 A 
HETATM    8  C5  UNL     1      -1.887  22.451  49.988  1.00  0.00     0.002 A 
HETATM    9  C6  UNL     1      -1.632  23.547  49.197  1.00  0.00     0.030 A 
ENDBRANCH   1   3
BRANCH   1  10
HETATM   10  C8  UNL     1       0.188  25.394  47.580  1.00  0.00     0.698 A 
HETATM   11  N2  UNL     1      -0.133  25.951  46.405  1.00  0.00    -0.185 N 
HETATM   12  C9  UNL     1       0.762  25.499  45.516  1.00  0.00     0.215 A 
ATOM     13  H2  UNL     1      -0.905  26.591  46.223  1.00  0.00     0.185 HD
HETATM   14  N3  UNL     1       1.629  24.674  46.122  1.00  0.00    -0.281 N 
HETATM   15  N4  UNL     1       1.264  24.620  47.386  1.00  0.00    -0.131 N 
ATOM     16  H3  UNL     1       2.413  24.186  45.690  1.00  0.00     0.188 HD
ATOM     17  H4  UNL     1       1.729  24.071  48.109  1.00  0.00     0.205 HD
ENDBRANCH   1  10
TORSDOF 2
ENDMDL
