MODEL 1
REMARK VINA RESULT: -5.608461823      0.000      0.000
REMARK  3 active torsions:
REMARK  status: ('A' for Active; 'I' for Inactive)
REMARK    1  A    between atoms: C2_2  and  C3_3 
REMARK    2  A    between atoms: C3_3  and  N1_4 
REMARK    3  A    between atoms: N1_4  and  C4_6 
ROOT
HETATM    1  C4  UNL     1      -0.249  23.949  50.261  1.00  0.00     0.120 A 
HETATM    2  N2  UNL     1      -0.950  25.028  50.698  1.00  0.00    -0.338 N 
ATOM      3  H2  UNL     1      -1.968  24.964  50.674  1.00  0.00     0.168 HD
HETATM    4  C5  UNL     1      -0.425  26.155  51.154  1.00  0.00     0.183 A 
HETATM    5  N3  UNL     1       0.905  26.264  51.197  1.00  0.00    -0.338 N 
ATOM      6  H3  UNL     1       1.330  27.123  51.543  1.00  0.00     0.168 HD
HETATM    7  C6  UNL     1       1.693  25.249  50.786  1.00  0.00     0.120 A 
HETATM    8  N4  UNL     1       3.036  25.133  50.737  1.00  0.00    -0.351 N 
ATOM      9  H4  UNL     1       3.700  25.851  51.026  1.00  0.00     0.166 HD
HETATM   10  C7  UNL     1       3.360  23.932  50.250  1.00  0.00     0.091 A 
HETATM   11  C8  UNL     1       2.192  23.242  49.974  1.00  0.00     0.036 A 
HETATM   12  C9  UNL     1       1.137  24.061  50.305  1.00  0.00     0.053 A 
ENDROOT
BRANCH   1  13
HETATM   13  N1  UNL     1      -0.807  22.921  49.845  1.00  0.00    -0.352 N 
ATOM     14  H1  UNL     1      -0.183  22.389  49.238  1.00  0.00     0.166 HD
BRANCH  13  15
HETATM   15  C3  UNL     1      -2.032  22.290  49.968  1.00  0.00     0.089 C 
BRANCH  15  16
HETATM   16  C2  UNL     1      -2.116  21.337  51.135  1.00  0.00     0.007 C 
HETATM   17  C1  UNL     1      -1.787  20.073  51.055  1.00  0.00     0.012 C 
ENDBRANCH  15  16
ENDBRANCH  13  15
ENDBRANCH   1  13
TORSDOF 3
ENDMDL
MODEL 2
REMARK VINA RESULT: -5.534840861      2.459      4.239
REMARK  3 active torsions:
REMARK  status: ('A' for Active; 'I' for Inactive)
REMARK    1  A    between atoms: C2_2  and  C3_3 
REMARK    2  A    between atoms: C3_3  and  N1_4 
REMARK    3  A    between atoms: N1_4  and  C4_6 
ROOT
HETATM    1  C4  UNL     1       0.993  23.983  48.962  1.00  0.00     0.120 A 
HETATM    2  N2  UNL     1       1.120  22.642  49.144  1.00  0.00    -0.338 N 
ATOM      3  H2  UNL     1       1.525  22.103  48.378  1.00  0.00     0.168 HD
HETATM    4  C5  UNL     1       0.763  21.975  50.231  1.00  0.00     0.183 A 
HETATM    5  N3  UNL     1       0.231  22.656  51.248  1.00  0.00    -0.338 N 
ATOM      6  H3  UNL     1      -0.051  22.162  52.094  1.00  0.00     0.168 HD
HETATM    7  C6  UNL     1       0.062  23.992  51.168  1.00  0.00     0.120 A 
HETATM    8  N4  UNL     1      -0.446  24.875  52.053  1.00  0.00    -0.351 N 
ATOM      9  H4  UNL     1      -0.802  24.643  52.980  1.00  0.00     0.166 HD
HETATM   10  C7  UNL     1      -0.410  26.101  51.525  1.00  0.00     0.091 A 
HETATM   11  C8  UNL     1       0.138  26.016  50.257  1.00  0.00     0.036 A 
HETATM   12  C9  UNL     1       0.438  24.694  50.021  1.00  0.00     0.053 A 
ENDROOT
BRANCH   1  13
HETATM   13  N1  UNL     1       1.348  24.545  47.914  1.00  0.00    -0.352 N 
ATOM     14  H1  UNL     1       2.264  24.980  48.027  1.00  0.00     0.166 HD
BRANCH  13  15
HETATM   15  C3  UNL     1       0.860  24.752  46.637  1.00  0.00     0.089 C 
BRANCH  15  16
HETATM   16  C2  UNL     1      -0.165  25.856  46.544  1.00  0.00     0.007 C 
HETATM   17  C1  UNL     1      -1.456  25.642  46.580  1.00  0.00     0.012 C 
ENDBRANCH  15  16
ENDBRANCH  13  15
ENDBRANCH   1  13
TORSDOF 3
ENDMDL
MODEL 3
REMARK VINA RESULT: -5.503654835      2.577      4.421
REMARK  3 active torsions:
REMARK  status: ('A' for Active; 'I' for Inactive)
REMARK    1  A    between atoms: C2_2  and  C3_3 
REMARK    2  A    between atoms: C3_3  and  N1_4 
REMARK    3  A    between atoms: N1_4  and  C4_6 
ROOT
HETATM    1  C4  UNL     1       1.447  24.423  48.792  1.00  0.00     0.120 A 
HETATM    2  N2  UNL     1       2.776  24.303  49.051  1.00  0.00    -0.338 N 
ATOM      3  H2  UNL     1       3.342  23.803  48.364  1.00  0.00     0.168 HD
HETATM    4  C5  UNL     1       3.400  24.780  50.117  1.00  0.00     0.183 A 
HETATM    5  N3  UNL     1       2.683  25.439  51.029  1.00  0.00    -0.338 N 
ATOM      6  H3  UNL     1       3.143  25.814  51.858  1.00  0.00     0.168 HD
HETATM    7  C6  UNL     1       1.355  25.613  50.868  1.00  0.00     0.120 A 
HETATM    8  N4  UNL     1       0.441  26.233  51.643  1.00  0.00    -0.351 N 
ATOM      9  H4  UNL     1       0.638  26.695  52.531  1.00  0.00     0.166 HD
HETATM   10  C7  UNL     1      -0.760  26.148  51.067  1.00  0.00     0.091 A 
HETATM   11  C8  UNL     1      -0.627  25.451  49.878  1.00  0.00     0.036 A 
HETATM   12  C9  UNL     1       0.699  25.109  49.743  1.00  0.00     0.053 A 
ENDROOT
BRANCH   1  13
HETATM   13  N1  UNL     1       0.927  23.949  47.770  1.00  0.00    -0.352 N 
ATOM     14  H1  UNL     1       0.839  22.935  47.842  1.00  0.00     0.166 HD
BRANCH  13  15
HETATM   15  C3  UNL     1       0.430  24.400  46.560  1.00  0.00     0.089 C 
BRANCH  15  16
HETATM   16  C2  UNL     1       1.246  25.506  45.937  1.00  0.00     0.007 C 
HETATM   17  C1  UNL     1       2.327  25.291  45.231  1.00  0.00     0.012 C 
ENDBRANCH  15  16
ENDBRANCH  13  15
ENDBRANCH   1  13
TORSDOF 3
ENDMDL
MODEL 4
REMARK VINA RESULT: -5.487586342      0.714      1.322
REMARK  3 active torsions:
REMARK  status: ('A' for Active; 'I' for Inactive)
REMARK    1  A    between atoms: C2_2  and  C3_3 
REMARK    2  A    between atoms: C3_3  and  N1_4 
REMARK    3  A    between atoms: N1_4  and  C4_6 
ROOT
HETATM    1  C4  UNL     1      -0.131  23.749  50.696  1.00  0.00     0.120 A 
HETATM    2  N2  UNL     1      -0.881  24.809  51.097  1.00  0.00    -0.338 N 
ATOM      3  H2  UNL     1      -1.883  24.655  51.210  1.00  0.00     0.168 HD
HETATM    4  C5  UNL     1      -0.422  26.024  51.355  1.00  0.00     0.183 A 
HETATM    5  N3  UNL     1       0.886  26.252  51.215  1.00  0.00    -0.338 N 
ATOM      6  H3  UNL     1       1.260  27.180  51.408  1.00  0.00     0.168 HD
HETATM    7  C6  UNL     1       1.718  25.266  50.821  1.00  0.00     0.120 A 
HETATM    8  N4  UNL     1       3.051  25.261  50.615  1.00  0.00    -0.351 N 
ATOM      9  H4  UNL     1       3.669  26.063  50.736  1.00  0.00     0.166 HD
HETATM   10  C7  UNL     1       3.435  24.043  50.226  1.00  0.00     0.091 A 
HETATM   11  C8  UNL     1       2.319  23.226  50.178  1.00  0.00     0.036 A 
HETATM   12  C9  UNL     1       1.232  23.985  50.550  1.00  0.00     0.053 A 
ENDROOT
BRANCH   1  13
HETATM   13  N1  UNL     1      -0.628  22.634  50.470  1.00  0.00    -0.352 N 
ATOM     14  H1  UNL     1       0.084  21.977  50.152  1.00  0.00     0.166 HD
BRANCH  13  15
HETATM   15  C3  UNL     1      -1.869  22.027  50.527  1.00  0.00     0.089 C 
BRANCH  15  16
HETATM   16  C2  UNL     1      -2.618  22.042  49.217  1.00  0.00     0.007 C 
HETATM   17  C1  UNL     1      -3.164  23.121  48.715  1.00  0.00     0.012 C 
ENDBRANCH  15  16
ENDBRANCH  13  15
ENDBRANCH   1  13
TORSDOF 3
ENDMDL
MODEL 5
REMARK VINA RESULT: -5.454412788      3.557      4.993
REMARK  3 active torsions:
REMARK  status: ('A' for Active; 'I' for Inactive)
REMARK    1  A    between atoms: C2_2  and  C3_3 
REMARK    2  A    between atoms: C3_3  and  N1_4 
REMARK    3  A    between atoms: N1_4  and  C4_6 
ROOT
HETATM    1  C4  UNL     1       1.215  24.642  47.654  1.00  0.00     0.120 A 
HETATM    2  N2  UNL     1       2.102  24.909  46.658  1.00  0.00    -0.338 N 
ATOM      3  H2  UNL     1       3.073  24.633  46.813  1.00  0.00     0.168 HD
HETATM    4  C5  UNL     1       1.815  25.494  45.506  1.00  0.00     0.183 A 
HETATM    5  N3  UNL     1       0.553  25.863  45.279  1.00  0.00    -0.338 N 
ATOM      6  H3  UNL     1       0.310  26.316  44.399  1.00  0.00     0.168 HD
HETATM    7  C6  UNL     1      -0.406  25.644  46.203  1.00  0.00     0.120 A 
HETATM    8  N4  UNL     1      -1.725  25.927  46.196  1.00  0.00    -0.351 N 
ATOM      9  H4  UNL     1      -2.226  26.380  45.433  1.00  0.00     0.166 HD
HETATM   10  C7  UNL     1      -2.272  25.519  47.344  1.00  0.00     0.091 A 
HETATM   11  C8  UNL     1      -1.279  24.953  48.125  1.00  0.00     0.036 A 
HETATM   12  C9  UNL     1      -0.100  25.027  47.418  1.00  0.00     0.053 A 
ENDROOT
BRANCH   1  13
HETATM   13  N1  UNL     1       1.554  24.090  48.712  1.00  0.00    -0.352 N 
ATOM     14  H1  UNL     1       1.293  23.104  48.707  1.00  0.00     0.166 HD
BRANCH  13  15
HETATM   15  C3  UNL     1       2.183  24.426  49.897  1.00  0.00     0.089 C 
BRANCH  15  16
HETATM   16  C2  UNL     1       1.239  24.865  50.989  1.00  0.00     0.007 C 
HETATM   17  C1  UNL     1       0.322  24.084  51.502  1.00  0.00     0.012 C 
ENDBRANCH  15  16
ENDBRANCH  13  15
ENDBRANCH   1  13
TORSDOF 3
ENDMDL
