MODEL 1
REMARK VINA RESULT: -5.830072172      0.000      0.000
REMARK  3 active torsions:
REMARK  status: ('A' for Active; 'I' for Inactive)
REMARK    1  A    between atoms: C4_4  and  C5_5 
REMARK    2  A    between atoms: C5_5  and  N1_6 
REMARK    3  A    between atoms: N1_6  and  C6_8 
ROOT
HETATM    1  N1  UNL     1      -0.310  24.589  47.271  1.00  0.00    -0.221 N 
ATOM      2  H1  UNL     1      -1.264  24.949  47.296  1.00  0.00     0.178 HD
ENDROOT
BRANCH   1   3
HETATM    3  C5  UNL     1       0.141  23.652  48.282  1.00  0.00     0.176 C 
BRANCH   3   4
HETATM    4  C4  UNL     1       0.046  24.270  49.645  1.00  0.00    -0.040 A 
HETATM    5  C3  UNL     1       0.255  23.504  50.770  1.00  0.00     0.009 A 
HETATM    6  C2  UNL     1       0.170  24.058  52.022  1.00  0.00     0.001 A 
HETATM    7  C1  UNL     1      -0.124  25.383  52.188  1.00  0.00     0.000 A 
HETATM    8  C9  UNL     1      -0.340  26.178  51.082  1.00  0.00     0.001 A 
HETATM    9  C8  UNL     1      -0.250  25.603  49.833  1.00  0.00     0.009 A 
ENDBRANCH   3   4
ENDBRANCH   1   3
BRANCH   1  10
HETATM   10  C6  UNL     1       0.499  24.965  46.339  1.00  0.00     0.693 A 
HETATM   11  N2  UNL     1       1.336  24.145  45.659  1.00  0.00    -0.185 N 
HETATM   12  C7  UNL     1       2.043  24.832  44.761  1.00  0.00     0.215 A 
ATOM     13  H2  UNL     1       1.416  23.140  45.814  1.00  0.00     0.185 HD
HETATM   14  N3  UNL     1       1.648  26.113  44.869  1.00  0.00    -0.281 N 
HETATM   15  N4  UNL     1       0.719  26.184  45.821  1.00  0.00    -0.131 N 
ATOM     16  H3  UNL     1       1.999  26.896  44.317  1.00  0.00     0.188 HD
ATOM     17  H4  UNL     1       0.244  27.038  46.114  1.00  0.00     0.205 HD
ENDBRANCH   1  10
TORSDOF 3
ENDMDL
MODEL 2
REMARK VINA RESULT: -5.818510707      0.026      1.311
REMARK  3 active torsions:
REMARK  status: ('A' for Active; 'I' for Inactive)
REMARK    1  A    between atoms: C4_4  and  C5_5 
REMARK    2  A    between atoms: C5_5  and  N1_6 
REMARK    3  A    between atoms: N1_6  and  C6_8 
ROOT
HETATM    1  N1  UNL     1      -0.299  24.620  47.286  1.00  0.00    -0.221 N 
ATOM      2  H1  UNL     1      -1.242  25.005  47.328  1.00  0.00     0.178 HD
ENDROOT
BRANCH   1   3
HETATM    3  C5  UNL     1       0.143  23.666  48.285  1.00  0.00     0.176 C 
BRANCH   3   4
HETATM    4  C4  UNL     1       0.049  24.266  49.657  1.00  0.00    -0.040 A 
HETATM    5  C3  UNL     1      -0.250  25.601  49.811  1.00  0.00     0.009 A 
HETATM    6  C2  UNL     1      -0.338  26.161  51.060  1.00  0.00     0.001 A 
HETATM    7  C1  UNL     1      -0.133  25.410  52.185  1.00  0.00     0.000 A 
HETATM    8  C9  UNL     1       0.168  24.070  52.065  1.00  0.00     0.001 A 
HETATM    9  C8  UNL     1       0.253  23.526  50.801  1.00  0.00     0.009 A 
ENDBRANCH   3   4
ENDBRANCH   1   3
BRANCH   1  10
HETATM   10  C6  UNL     1       0.505  24.981  46.344  1.00  0.00     0.693 A 
HETATM   11  N2  UNL     1       1.330  24.149  45.665  1.00  0.00    -0.185 N 
HETATM   12  C7  UNL     1       2.035  24.821  44.755  1.00  0.00     0.215 A 
ATOM     13  H2  UNL     1       1.403  23.144  45.829  1.00  0.00     0.185 HD
HETATM   14  N3  UNL     1       1.651  26.107  44.854  1.00  0.00    -0.281 N 
HETATM   15  N4  UNL     1       0.731  26.193  45.813  1.00  0.00    -0.131 N 
ATOM     16  H3  UNL     1       2.004  26.881  44.292  1.00  0.00     0.188 HD
ATOM     17  H4  UNL     1       0.266  27.054  46.102  1.00  0.00     0.205 HD
ENDBRANCH   1  10
TORSDOF 3
ENDMDL
MODEL 3
REMARK VINA RESULT: -5.644094020      0.662      1.127
REMARK  3 active torsions:
REMARK  status: ('A' for Active; 'I' for Inactive)
REMARK    1  A    between atoms: C4_4  and  C5_5 
REMARK    2  A    between atoms: C5_5  and  N1_6 
REMARK    3  A    between atoms: N1_6  and  C6_8 
ROOT
HETATM    1  N1  UNL     1      -0.670  25.108  47.041  1.00  0.00    -0.221 N 
ATOM      2  H1  UNL     1      -1.282  25.924  47.023  1.00  0.00     0.178 HD
ENDROOT
BRANCH   1   3
HETATM    3  C5  UNL     1      -0.938  24.021  47.963  1.00  0.00     0.176 C 
BRANCH   3   4
HETATM    4  C4  UNL     1      -0.602  24.431  49.366  1.00  0.00    -0.040 A 
HETATM    5  C3  UNL     1      -0.407  23.476  50.339  1.00  0.00     0.009 A 
HETATM    6  C2  UNL     1      -0.101  23.839  51.626  1.00  0.00     0.001 A 
HETATM    7  C1  UNL     1       0.020  25.156  51.978  1.00  0.00     0.000 A 
HETATM    8  C9  UNL     1      -0.170  26.136  51.027  1.00  0.00     0.001 A 
HETATM    9  C8  UNL     1      -0.477  25.751  49.740  1.00  0.00     0.009 A 
ENDBRANCH   3   4
ENDBRANCH   1   3
BRANCH   1  10
HETATM   10  C6  UNL     1       0.343  25.040  46.246  1.00  0.00     0.693 A 
HETATM   11  N2  UNL     1       0.950  26.105  45.669  1.00  0.00    -0.185 N 
HETATM   12  C7  UNL     1       1.966  25.710  44.901  1.00  0.00     0.215 A 
ATOM     13  H2  UNL     1       0.669  27.076  45.804  1.00  0.00     0.185 HD
HETATM   14  N3  UNL     1       2.007  24.368  44.989  1.00  0.00    -0.281 N 
HETATM   15  N4  UNL     1       1.026  23.974  45.800  1.00  0.00    -0.131 N 
ATOM     16  H3  UNL     1       2.673  23.758  44.517  1.00  0.00     0.188 HD
ATOM     17  H4  UNL     1       0.825  23.005  46.047  1.00  0.00     0.205 HD
ENDBRANCH   1  10
TORSDOF 3
ENDMDL
MODEL 4
REMARK VINA RESULT: -5.552418049      2.637      5.657
REMARK  3 active torsions:
REMARK  status: ('A' for Active; 'I' for Inactive)
REMARK    1  A    between atoms: C4_4  and  C5_5 
REMARK    2  A    between atoms: C5_5  and  N1_6 
REMARK    3  A    between atoms: N1_6  and  C6_8 
ROOT
HETATM    1  N1  UNL     1      -0.285  26.016  49.138  1.00  0.00    -0.221 N 
ATOM      2  H1  UNL     1       0.367  26.691  48.736  1.00  0.00     0.178 HD
ENDROOT
BRANCH   1   3
HETATM    3  C5  UNL     1      -1.256  25.351  48.291  1.00  0.00     0.176 C 
BRANCH   3   4
HETATM    4  C4  UNL     1      -0.685  25.120  46.924  1.00  0.00    -0.040 A 
HETATM    5  C3  UNL     1      -1.480  24.622  45.915  1.00  0.00     0.009 A 
HETATM    6  C2  UNL     1      -0.969  24.405  44.661  1.00  0.00     0.001 A 
HETATM    7  C1  UNL     1       0.341  24.678  44.377  1.00  0.00     0.000 A 
HETATM    8  C9  UNL     1       1.164  25.178  45.364  1.00  0.00     0.001 A 
HETATM    9  C8  UNL     1       0.632  25.387  46.618  1.00  0.00     0.009 A 
ENDBRANCH   3   4
ENDBRANCH   1   3
BRANCH   1  10
HETATM   10  C6  UNL     1      -0.248  25.754  50.400  1.00  0.00     0.693 A 
HETATM   11  N2  UNL     1       0.055  24.546  50.934  1.00  0.00    -0.185 N 
HETATM   12  C7  UNL     1       0.009  24.594  52.266  1.00  0.00     0.215 A 
ATOM     13  H2  UNL     1       0.286  23.714  50.391  1.00  0.00     0.185 HD
HETATM   14  N3  UNL     1      -0.329  25.856  52.587  1.00  0.00    -0.281 N 
HETATM   15  N4  UNL     1      -0.482  26.546  51.459  1.00  0.00    -0.131 N 
ATOM     16  H3  UNL     1      -0.447  26.220  53.532  1.00  0.00     0.188 HD
ATOM     17  H4  UNL     1      -0.738  27.532  51.406  1.00  0.00     0.205 HD
ENDBRANCH   1  10
TORSDOF 3
ENDMDL
MODEL 5
REMARK VINA RESULT: -5.551979975      2.634      5.647
REMARK  3 active torsions:
REMARK  status: ('A' for Active; 'I' for Inactive)
REMARK    1  A    between atoms: C4_4  and  C5_5 
REMARK    2  A    between atoms: C5_5  and  N1_6 
REMARK    3  A    between atoms: N1_6  and  C6_8 
ROOT
HETATM    1  N1  UNL     1      -0.287  26.007  49.132  1.00  0.00    -0.221 N 
ATOM      2  H1  UNL     1       0.367  26.676  48.727  1.00  0.00     0.178 HD
ENDROOT
BRANCH   1   3
HETATM    3  C5  UNL     1      -1.264  25.343  48.290  1.00  0.00     0.176 C 
BRANCH   3   4
HETATM    4  C4  UNL     1      -0.698  25.105  46.922  1.00  0.00    -0.040 A 
HETATM    5  C3  UNL     1       0.630  25.369  46.666  1.00  0.00     0.009 A 
HETATM    6  C2  UNL     1       1.159  25.155  45.418  1.00  0.00     0.001 A 
HETATM    7  C1  UNL     1       0.386  24.674  44.397  1.00  0.00     0.000 A 
HETATM    8  C9  UNL     1      -0.947  24.400  44.621  1.00  0.00     0.001 A 
HETATM    9  C8  UNL     1      -1.460  24.622  45.881  1.00  0.00     0.009 A 
ENDBRANCH   3   4
ENDBRANCH   1   3
BRANCH   1  10
HETATM   10  C6  UNL     1      -0.249  25.748  50.395  1.00  0.00     0.693 A 
HETATM   11  N2  UNL     1       0.057  24.544  50.933  1.00  0.00    -0.185 N 
HETATM   12  C7  UNL     1       0.013  24.596  52.265  1.00  0.00     0.215 A 
ATOM     13  H2  UNL     1       0.291  23.710  50.393  1.00  0.00     0.185 HD
HETATM   14  N3  UNL     1      -0.328  25.858  52.582  1.00  0.00    -0.281 N 
HETATM   15  N4  UNL     1      -0.484  26.544  51.451  1.00  0.00    -0.131 N 
ATOM     16  H3  UNL     1      -0.447  26.225  53.526  1.00  0.00     0.188 HD
ATOM     17  H4  UNL     1      -0.743  27.529  51.395  1.00  0.00     0.205 HD
ENDBRANCH   1  10
TORSDOF 3
ENDMDL
