MODEL 1
REMARK VINA RESULT: -5.572297232      0.000      0.000
REMARK  2 active torsions:
REMARK  status: ('A' for Active; 'I' for Inactive)
REMARK    1  A    between atoms: C4_6  and  C5_7 
REMARK    2  A    between atoms: C5_7  and  N2_8 
ROOT
HETATM    1  N2  UNL     1      -0.304  25.772  47.024  1.00  0.00    -0.222 N 
ATOM      2  H2  UNL     1      -0.381  26.771  47.219  1.00  0.00     0.178 HD
HETATM    3  C6  UNL     1       0.554  25.397  46.130  1.00  0.00     0.678 A 
HETATM    4  N3  UNL     1       1.342  26.249  45.451  1.00  0.00    -0.201 N 
ATOM      5  H3  UNL     1       1.343  27.262  45.568  1.00  0.00     0.183 HD
HETATM    6  C7  UNL     1       2.126  25.579  44.596  1.00  0.00     0.123 A 
HETATM    7  C8  UNL     1       1.817  24.254  44.745  1.00  0.00     0.123 A 
HETATM    8  N4  UNL     1       0.856  24.174  45.687  1.00  0.00    -0.201 N 
ATOM      9  H4  UNL     1       0.424  23.309  46.012  1.00  0.00     0.183 HD
ENDROOT
BRANCH   1  10
HETATM   10  C5  UNL     1      -1.145  24.886  47.752  1.00  0.00     0.178 C 
BRANCH  10  11
HETATM   11  C4  UNL     1      -0.768  24.861  49.200  1.00  0.00    -0.025 A 
HETATM   12  C3  UNL     1      -1.012  23.753  49.982  1.00  0.00     0.096 A 
HETATM   13  N1  UNL     1      -0.683  23.702  51.286  1.00  0.00    -0.375 N 
HETATM   14  C2  UNL     1      -0.092  24.730  51.921  1.00  0.00     0.087 A 
ATOM     15  H1  UNL     1      -0.890  22.853  51.812  1.00  0.00     0.164 HD
HETATM   16  C1  UNL     1       0.167  25.855  51.165  1.00  0.00     0.018 A 
HETATM   17  C9  UNL     1      -0.161  25.931  49.826  1.00  0.00     0.011 A 
ENDBRANCH  10  11
ENDBRANCH   1  10
TORSDOF 2
ENDMDL
MODEL 2
REMARK VINA RESULT: -5.565192250      0.828      1.307
REMARK  2 active torsions:
REMARK  status: ('A' for Active; 'I' for Inactive)
REMARK    1  A    between atoms: C4_6  and  C5_7 
REMARK    2  A    between atoms: C5_7  and  N2_8 
ROOT
HETATM    1  N2  UNL     1      -0.201  25.682  47.224  1.00  0.00    -0.222 N 
ATOM      2  H2  UNL     1      -0.308  26.671  47.450  1.00  0.00     0.178 HD
HETATM    3  C6  UNL     1       0.606  25.366  46.263  1.00  0.00     0.678 A 
HETATM    4  N3  UNL     1       1.304  26.268  45.550  1.00  0.00    -0.201 N 
ATOM      5  H3  UNL     1       1.268  27.277  45.693  1.00  0.00     0.183 HD
HETATM    6  C7  UNL     1       2.053  25.653  44.625  1.00  0.00     0.123 A 
HETATM    7  C8  UNL     1       1.815  24.313  44.762  1.00  0.00     0.123 A 
HETATM    8  N4  UNL     1       0.929  24.168  45.768  1.00  0.00    -0.201 N 
ATOM      9  H4  UNL     1       0.560  23.278  46.102  1.00  0.00     0.183 HD
ENDROOT
BRANCH   1  10
HETATM   10  C5  UNL     1      -0.947  24.742  47.988  1.00  0.00     0.178 C 
BRANCH  10  11
HETATM   11  C4  UNL     1      -0.582  24.823  49.437  1.00  0.00    -0.025 A 
HETATM   12  C3  UNL     1      -0.315  26.035  50.039  1.00  0.00     0.096 A 
HETATM   13  N1  UNL     1       0.015  26.139  51.339  1.00  0.00    -0.375 N 
HETATM   14  C2  UNL     1       0.108  25.068  52.148  1.00  0.00     0.087 A 
ATOM     15  H1  UNL     1       0.201  27.064  51.726  1.00  0.00     0.164 HD
HETATM   16  C1  UNL     1      -0.155  23.840  51.575  1.00  0.00     0.018 A 
HETATM   17  C9  UNL     1      -0.495  23.707  50.244  1.00  0.00     0.011 A 
ENDBRANCH  10  11
ENDBRANCH   1  10
TORSDOF 2
ENDMDL
MODEL 3
REMARK VINA RESULT: -5.467671352      3.714      5.476
REMARK  2 active torsions:
REMARK  status: ('A' for Active; 'I' for Inactive)
REMARK    1  A    between atoms: C4_6  and  C5_7 
REMARK    2  A    between atoms: C5_7  and  N2_8 
ROOT
HETATM    1  N2  UNL     1      -1.238  23.286  51.024  1.00  0.00    -0.222 N 
ATOM      2  H2  UNL     1      -1.440  23.664  51.950  1.00  0.00     0.178 HD
HETATM    3  C6  UNL     1      -1.487  22.034  50.815  1.00  0.00     0.678 A 
HETATM    4  N3  UNL     1      -1.993  21.209  51.750  1.00  0.00    -0.201 N 
ATOM      5  H3  UNL     1      -2.228  21.484  52.703  1.00  0.00     0.183 HD
HETATM    6  C7  UNL     1      -2.145  19.976  51.251  1.00  0.00     0.123 A 
HETATM    7  C8  UNL     1      -1.716  20.028  49.952  1.00  0.00     0.123 A 
HETATM    8  N4  UNL     1      -1.321  21.295  49.715  1.00  0.00    -0.201 N 
ATOM      9  H4  UNL     1      -0.951  21.638  48.829  1.00  0.00     0.183 HD
ENDROOT
BRANCH   1  10
HETATM   10  C5  UNL     1      -0.703  24.172  50.048  1.00  0.00     0.178 C 
BRANCH  10  11
HETATM   11  C4  UNL     1       0.770  24.351  50.241  1.00  0.00    -0.025 A 
HETATM   12  C3  UNL     1       1.282  25.502  50.803  1.00  0.00     0.096 A 
HETATM   13  N1  UNL     1       2.601  25.690  50.990  1.00  0.00    -0.375 N 
HETATM   14  C2  UNL     1       3.518  24.769  50.640  1.00  0.00     0.087 A 
ATOM     15  H1  UNL     1       2.918  26.563  51.411  1.00  0.00     0.164 HD
HETATM   16  C1  UNL     1       3.037  23.605  50.076  1.00  0.00     0.018 A 
HETATM   17  C9  UNL     1       1.688  23.389  49.875  1.00  0.00     0.011 A 
ENDBRANCH  10  11
ENDBRANCH   1  10
TORSDOF 2
ENDMDL
MODEL 4
REMARK VINA RESULT: -5.443630698      4.301      6.351
REMARK  2 active torsions:
REMARK  status: ('A' for Active; 'I' for Inactive)
REMARK    1  A    between atoms: C4_6  and  C5_7 
REMARK    2  A    between atoms: C5_7  and  N2_8 
ROOT
HETATM    1  N2  UNL     1       0.420  20.177  50.998  1.00  0.00    -0.222 N 
ATOM      2  H2  UNL     1      -0.354  20.252  51.658  1.00  0.00     0.178 HD
HETATM    3  C6  UNL     1       1.290  19.239  51.192  1.00  0.00     0.678 A 
HETATM    4  N3  UNL     1       1.227  18.364  52.212  1.00  0.00    -0.201 N 
ATOM      5  H3  UNL     1       0.498  18.353  52.926  1.00  0.00     0.183 HD
HETATM    6  C7  UNL     1       2.257  17.510  52.159  1.00  0.00     0.123 A 
HETATM    7  C8  UNL     1       2.996  17.863  51.062  1.00  0.00     0.123 A 
HETATM    8  N4  UNL     1       2.382  18.920  50.493  1.00  0.00    -0.201 N 
ATOM      9  H4  UNL     1       2.704  19.403  49.655  1.00  0.00     0.183 HD
ENDROOT
BRANCH   1  10
HETATM   10  C5  UNL     1       0.471  21.111  49.926  1.00  0.00     0.178 C 
BRANCH  10  11
HETATM   11  C4  UNL     1       0.518  22.514  50.443  1.00  0.00    -0.025 A 
HETATM   12  C3  UNL     1      -0.519  23.035  51.189  1.00  0.00     0.096 A 
HETATM   13  N1  UNL     1      -0.505  24.292  51.667  1.00  0.00    -0.375 N 
HETATM   14  C2  UNL     1       0.523  25.134  51.451  1.00  0.00     0.087 A 
ATOM     15  H1  UNL     1      -1.302  24.619  52.212  1.00  0.00     0.164 HD
HETATM   16  C1  UNL     1       1.576  24.643  50.708  1.00  0.00     0.018 A 
HETATM   17  C9  UNL     1       1.585  23.356  50.208  1.00  0.00     0.011 A 
ENDBRANCH  10  11
ENDBRANCH   1  10
TORSDOF 2
ENDMDL
MODEL 5
REMARK VINA RESULT: -5.383458601      1.623      1.945
REMARK  2 active torsions:
REMARK  status: ('A' for Active; 'I' for Inactive)
REMARK    1  A    between atoms: C4_6  and  C5_7 
REMARK    2  A    between atoms: C5_7  and  N2_8 
ROOT
HETATM    1  N2  UNL     1       0.108  24.899  47.441  1.00  0.00    -0.222 N 
ATOM      2  H2  UNL     1      -0.646  25.519  47.739  1.00  0.00     0.178 HD
HETATM    3  C6  UNL     1       0.167  24.579  46.189  1.00  0.00     0.678 A 
HETATM    4  N3  UNL     1      -0.708  25.017  45.265  1.00  0.00    -0.201 N 
ATOM      5  H3  UNL     1      -1.496  25.636  45.457  1.00  0.00     0.183 HD
HETATM    6  C7  UNL     1      -0.399  24.524  44.059  1.00  0.00     0.123 A 
HETATM    7  C8  UNL     1       0.714  23.746  44.232  1.00  0.00     0.123 A 
HETATM    8  N4  UNL     1       1.036  23.799  45.540  1.00  0.00    -0.201 N 
ATOM      9  H4  UNL     1       1.824  23.316  45.969  1.00  0.00     0.183 HD
ENDROOT
BRANCH   1  10
HETATM   10  C5  UNL     1       1.024  24.446  48.430  1.00  0.00     0.178 C 
BRANCH  10  11
HETATM   11  C4  UNL     1       0.561  24.829  49.801  1.00  0.00    -0.025 A 
HETATM   12  C3  UNL     1       0.098  26.100  50.068  1.00  0.00     0.096 A 
HETATM   13  N1  UNL     1      -0.325  26.473  51.290  1.00  0.00    -0.375 N 
HETATM   14  C2  UNL     1      -0.326  25.632  52.340  1.00  0.00     0.087 A 
ATOM     15  H1  UNL     1      -0.657  27.427  51.424  1.00  0.00     0.164 HD
HETATM   16  C1  UNL     1       0.132  24.352  52.105  1.00  0.00     0.018 A 
HETATM   17  C9  UNL     1       0.570  23.946  50.860  1.00  0.00     0.011 A 
ENDBRANCH  10  11
ENDBRANCH   1  10
TORSDOF 2
ENDMDL
