MODEL 1
REMARK VINA RESULT: -7.068352796      0.000      0.000
REMARK  12 active torsions:
REMARK  status: ('A' for Active; 'I' for Inactive)
REMARK    1  A    between atoms: C2_2  and  N1_3 
REMARK       I    between atoms: N1_3  and  C3_5 
REMARK    2  A    between atoms: C3_5  and  C4_7 
REMARK    3  A    between atoms: C11_16  and  O4_17 
REMARK    4  A    between atoms: C19_25  and  C21_27 
REMARK    5  A    between atoms: C21_27  and  C22_29 
REMARK    6  A    between atoms: C22_29  and  C23_30 
REMARK    7  A    between atoms: C23_30  and  C24_31 
REMARK       I    between atoms: C24_31  and  N2_33 
REMARK    8  A    between atoms: N2_33  and  C25_35 
REMARK    9  A    between atoms: C25_35  and  C26_36 
REMARK   10  A    between atoms: C26_36  and  C27_37 
REMARK   11  A    between atoms: C27_37  and  C28_38 
REMARK   12  A    between atoms: C28_38  and  O7_39 
ROOT
HETATM    1  C4  UNL     1       7.735  17.620  15.305  1.00  0.00     0.225 C 
HETATM    2  O2  UNL     1       8.649  17.438  14.283  1.00  0.00    -0.362 OA
HETATM    3  C5  UNL     1       9.365  16.610  15.104  1.00  0.00     0.203 C 
HETATM    4  C6  UNL     1      10.818  16.577  14.949  1.00  0.00     0.156 C 
HETATM    5  O3  UNL     1      11.293  16.010  13.986  1.00  0.00    -0.295 OA
HETATM    6  C7  UNL     1      11.625  17.260  16.010  1.00  0.00     0.086 C 
HETATM    7  C8  UNL     1      11.000  18.653  16.190  1.00  0.00     0.002 C 
HETATM    8  C9  UNL     1       9.631  18.499  16.779  1.00  0.00     0.007 C 
HETATM    9  C10 UNL     1       9.555  18.594  18.249  1.00  0.00     0.038 C 
HETATM   10  C11 UNL     1      10.755  19.255  18.932  1.00  0.00     0.131 C 
HETATM   11  C13 UNL     1      11.356  20.312  18.086  1.00  0.00     0.000 C 
HETATM   12  C14 UNL     1      10.234  21.307  17.775  1.00  0.00     0.019 C 
HETATM   13  C15 UNL     1      11.872  19.645  16.822  1.00  0.00     0.002 C 
HETATM   14  C16 UNL     1      13.257  19.083  16.966  1.00  0.00     0.006 C 
HETATM   15  C17 UNL     1      14.228  19.977  17.696  1.00  0.00     0.002 C 
HETATM   16  C18 UNL     1      13.706  20.432  19.031  1.00  0.00     0.018 C 
HETATM   17  C19 UNL     1      12.404  21.118  18.772  1.00  0.00     0.027 C 
HETATM   18  C20 UNL     1      11.852  21.588  20.099  1.00  0.00     0.024 C 
HETATM   19  C29 UNL     1       8.862  17.313  16.295  1.00  0.00     0.028 C 
HETATM   20  C30 UNL     1       8.335  16.362  17.336  1.00  0.00     0.022 C 
ENDROOT
BRANCH  17  21
HETATM   21  C21 UNL     1      12.759  22.372  18.022  1.00  0.00     0.136 C 
HETATM   22  O5  UNL     1      12.456  22.598  16.866  1.00  0.00    -0.297 OA
BRANCH  21  23
HETATM   23  C22 UNL     1      13.534  23.445  18.691  1.00  0.00     0.088 C 
BRANCH  23  24
HETATM   24  C23 UNL     1      14.445  24.125  17.654  1.00  0.00     0.110 C 
BRANCH  24  25
HETATM   25  C24 UNL     1      15.513  23.196  17.220  1.00  0.00     0.217 C 
HETATM   26  O6  UNL     1      16.309  22.803  18.112  1.00  0.00    -0.274 OA
HETATM   27  N2  UNL     1      15.578  22.811  15.870  1.00  0.00    -0.361 N 
ATOM     28  H2  UNL     1      14.880  23.184  15.227  1.00  0.00     0.162 HD
BRANCH  27  29
HETATM   29  C25 UNL     1      16.578  21.917  15.347  1.00  0.00     0.122 C 
BRANCH  29  30
HETATM   30  C26 UNL     1      15.973  20.918  14.428  1.00  0.00     0.022 C 
BRANCH  30  31
HETATM   31  C27 UNL     1      15.394  21.543  13.176  1.00  0.00     0.028 C 
BRANCH  31  32
HETATM   32  C28 UNL     1      13.912  21.307  13.044  1.00  0.00     0.164 C 
BRANCH  32  33
HETATM   33  O7  UNL     1      13.346  21.504  14.310  1.00  0.00    -0.401 OA
ATOM     34  H7  UNL     1      13.059  20.655  14.625  1.00  0.00     0.209 HD
ENDBRANCH  32  33
ENDBRANCH  31  32
ENDBRANCH  30  31
ENDBRANCH  29  30
ENDBRANCH  27  29
ENDBRANCH  24  25
ENDBRANCH  23  24
ENDBRANCH  21  23
ENDBRANCH  17  21
BRANCH  10  35
HETATM   35  O4  UNL     1      11.583  18.201  19.295  1.00  0.00    -0.390 OA
HETATM   36  C12 UNL     1      11.554  17.997  20.650  1.00  0.00     0.202 C 
ENDBRANCH  10  35
BRANCH   1  37
HETATM   37  C3  UNL     1       6.577  16.733  15.344  1.00  0.00     0.247 C 
HETATM   38  N1  UNL     1       5.447  16.926  16.185  1.00  0.00    -0.359 N 
ATOM     39  H1  UNL     1       5.443  17.736  16.804  1.00  0.00     0.162 HD
HETATM   40  O1  UNL     1       6.564  15.731  14.587  1.00  0.00    -0.271 OA
BRANCH  38  41
HETATM   41  C2  UNL     1       4.319  16.055  16.216  1.00  0.00     0.118 C 
HETATM   42  C1  UNL     1       2.998  16.784  16.204  1.00  0.00     0.026 C 
ENDBRANCH  38  41
ENDBRANCH   1  37
TORSDOF 12
ENDMDL
MODEL 2
REMARK VINA RESULT: -6.988200244      1.598      2.379
REMARK  12 active torsions:
REMARK  status: ('A' for Active; 'I' for Inactive)
REMARK    1  A    between atoms: C2_2  and  N1_3 
REMARK       I    between atoms: N1_3  and  C3_5 
REMARK    2  A    between atoms: C3_5  and  C4_7 
REMARK    3  A    between atoms: C11_16  and  O4_17 
REMARK    4  A    between atoms: C19_25  and  C21_27 
REMARK    5  A    between atoms: C21_27  and  C22_29 
REMARK    6  A    between atoms: C22_29  and  C23_30 
REMARK    7  A    between atoms: C23_30  and  C24_31 
REMARK       I    between atoms: C24_31  and  N2_33 
REMARK    8  A    between atoms: N2_33  and  C25_35 
REMARK    9  A    between atoms: C25_35  and  C26_36 
REMARK   10  A    between atoms: C26_36  and  C27_37 
REMARK   11  A    between atoms: C27_37  and  C28_38 
REMARK   12  A    between atoms: C28_38  and  O7_39 
ROOT
HETATM    1  C4  UNL     1       7.638  17.496  15.358  1.00  0.00     0.225 C 
HETATM    2  O2  UNL     1       8.490  17.332  14.281  1.00  0.00    -0.362 OA
HETATM    3  C5  UNL     1       9.290  16.545  15.064  1.00  0.00     0.203 C 
HETATM    4  C6  UNL     1      10.730  16.565  14.813  1.00  0.00     0.156 C 
HETATM    5  O3  UNL     1      11.162  16.001  13.829  1.00  0.00    -0.295 OA
HETATM    6  C7  UNL     1      11.577  17.295  15.809  1.00  0.00     0.086 C 
HETATM    7  C8  UNL     1      10.912  18.666  16.012  1.00  0.00     0.002 C 
HETATM    8  C9  UNL     1       9.591  18.470  16.691  1.00  0.00     0.007 C 
HETATM    9  C10 UNL     1       9.608  18.586  18.162  1.00  0.00     0.038 C 
HETATM   10  C11 UNL     1      10.823  19.302  18.755  1.00  0.00     0.131 C 
HETATM   11  C13 UNL     1      11.326  20.368  17.857  1.00  0.00     0.000 C 
HETATM   12  C14 UNL     1      10.149  21.315  17.607  1.00  0.00     0.019 C 
HETATM   13  C15 UNL     1      11.784  19.701  16.570  1.00  0.00     0.002 C 
HETATM   14  C16 UNL     1      13.196  19.194  16.630  1.00  0.00     0.006 C 
HETATM   15  C17 UNL     1      14.178  20.136  17.283  1.00  0.00     0.002 C 
HETATM   16  C18 UNL     1      13.727  20.592  18.642  1.00  0.00     0.018 C 
HETATM   17  C19 UNL     1      12.386  21.224  18.461  1.00  0.00     0.027 C 
HETATM   18  C20 UNL     1      11.903  21.694  19.815  1.00  0.00     0.024 C 
HETATM   19  C29 UNL     1       8.839  17.249  16.275  1.00  0.00     0.028 C 
HETATM   20  C30 UNL     1       8.418  16.295  17.362  1.00  0.00     0.022 C 
ENDROOT
BRANCH  17  21
HETATM   21  C21 UNL     1      12.641  22.478  17.672  1.00  0.00     0.136 C 
HETATM   22  O5  UNL     1      11.825  23.028  16.958  1.00  0.00    -0.297 OA
BRANCH  21  23
HETATM   23  C22 UNL     1      13.970  23.135  17.730  1.00  0.00     0.088 C 
BRANCH  23  24
HETATM   24  C23 UNL     1      13.810  24.531  18.359  1.00  0.00     0.110 C 
BRANCH  24  25
HETATM   25  C24 UNL     1      15.083  24.964  18.978  1.00  0.00     0.217 C 
HETATM   26  O6  UNL     1      15.305  24.555  20.147  1.00  0.00    -0.274 OA
HETATM   27  N2  UNL     1      15.956  25.786  18.245  1.00  0.00    -0.361 N 
ATOM     28  H2  UNL     1      15.683  26.058  17.300  1.00  0.00     0.162 HD
BRANCH  27  29
HETATM   29  C25 UNL     1      17.213  26.264  18.756  1.00  0.00     0.122 C 
BRANCH  29  30
HETATM   30  C26 UNL     1      18.292  25.264  18.542  1.00  0.00     0.022 C 
BRANCH  30  31
HETATM   31  C27 UNL     1      18.300  24.697  17.137  1.00  0.00     0.028 C 
BRANCH  31  32
HETATM   32  C28 UNL     1      17.937  23.236  17.102  1.00  0.00     0.164 C 
BRANCH  32  33
HETATM   33  O7  UNL     1      19.120  22.509  17.285  1.00  0.00    -0.401 OA
ATOM     34  H7  UNL     1      19.007  21.980  18.066  1.00  0.00     0.209 HD
ENDBRANCH  32  33
ENDBRANCH  31  32
ENDBRANCH  30  31
ENDBRANCH  29  30
ENDBRANCH  27  29
ENDBRANCH  24  25
ENDBRANCH  23  24
ENDBRANCH  21  23
ENDBRANCH  17  21
BRANCH  10  35
HETATM   35  O4  UNL     1      11.714  18.287  19.077  1.00  0.00    -0.390 OA
HETATM   36  C12 UNL     1      11.735  18.061  20.429  1.00  0.00     0.202 C 
ENDBRANCH  10  35
BRANCH   1  37
HETATM   37  C3  UNL     1       6.520  16.567  15.485  1.00  0.00     0.247 C 
HETATM   38  N1  UNL     1       5.441  16.732  16.396  1.00  0.00    -0.359 N 
ATOM     39  H1  UNL     1       5.445  17.552  17.002  1.00  0.00     0.162 HD
HETATM   40  O1  UNL     1       6.497  15.552  14.746  1.00  0.00    -0.271 OA
BRANCH  38  41
HETATM   41  C2  UNL     1       4.351  15.819  16.513  1.00  0.00     0.118 C 
HETATM   42  C1  UNL     1       3.228  16.100  15.546  1.00  0.00     0.026 C 
ENDBRANCH  38  41
ENDBRANCH   1  37
TORSDOF 12
ENDMDL
MODEL 3
REMARK VINA RESULT: -6.809283114      3.368      4.486
REMARK  12 active torsions:
REMARK  status: ('A' for Active; 'I' for Inactive)
REMARK    1  A    between atoms: C2_2  and  N1_3 
REMARK       I    between atoms: N1_3  and  C3_5 
REMARK    2  A    between atoms: C3_5  and  C4_7 
REMARK    3  A    between atoms: C11_16  and  O4_17 
REMARK    4  A    between atoms: C19_25  and  C21_27 
REMARK    5  A    between atoms: C21_27  and  C22_29 
REMARK    6  A    between atoms: C22_29  and  C23_30 
REMARK    7  A    between atoms: C23_30  and  C24_31 
REMARK       I    between atoms: C24_31  and  N2_33 
REMARK    8  A    between atoms: N2_33  and  C25_35 
REMARK    9  A    between atoms: C25_35  and  C26_36 
REMARK   10  A    between atoms: C26_36  and  C27_37 
REMARK   11  A    between atoms: C27_37  and  C28_38 
REMARK   12  A    between atoms: C28_38  and  O7_39 
ROOT
HETATM    1  C4  UNL     1       5.799  18.529  20.436  1.00  0.00     0.225 C 
HETATM    2  O2  UNL     1       5.668  17.903  19.209  1.00  0.00    -0.362 OA
HETATM    3  C5  UNL     1       6.622  17.001  19.595  1.00  0.00     0.203 C 
HETATM    4  C6  UNL     1       7.500  16.448  18.565  1.00  0.00     0.156 C 
HETATM    5  O3  UNL     1       7.054  15.625  17.793  1.00  0.00    -0.295 OA
HETATM    6  C7  UNL     1       8.910  16.950  18.541  1.00  0.00     0.086 C 
HETATM    7  C8  UNL     1       8.817  18.485  18.592  1.00  0.00     0.002 C 
HETATM    8  C9  UNL     1       8.278  18.896  19.928  1.00  0.00     0.007 C 
HETATM    9  C10 UNL     1       9.291  19.214  20.953  1.00  0.00     0.038 C 
HETATM   10  C11 UNL     1      10.697  19.508  20.425  1.00  0.00     0.131 C 
HETATM   11  C13 UNL     1      10.660  20.164  19.098  1.00  0.00     0.000 C 
HETATM   12  C14 UNL     1       9.817  21.432  19.265  1.00  0.00     0.019 C 
HETATM   13  C15 UNL     1      10.011  19.193  18.126  1.00  0.00     0.002 C 
HETATM   14  C16 UNL     1      10.979  18.213  17.526  1.00  0.00     0.006 C 
HETATM   15  C17 UNL     1      12.297  18.809  17.098  1.00  0.00     0.002 C 
HETATM   16  C18 UNL     1      12.959  19.597  18.194  1.00  0.00     0.018 C 
HETATM   17  C19 UNL     1      11.986  20.647  18.619  1.00  0.00     0.027 C 
HETATM   18  C20 UNL     1      12.625  21.457  19.724  1.00  0.00     0.024 C 
HETATM   19  C29 UNL     1       7.232  17.993  20.495  1.00  0.00     0.028 C 
HETATM   20  C30 UNL     1       7.475  17.436  21.872  1.00  0.00     0.022 C 
ENDROOT
BRANCH  17  21
HETATM   21  C21 UNL     1      11.877  21.584  17.449  1.00  0.00     0.136 C 
HETATM   22  O5  UNL     1      10.913  21.668  16.714  1.00  0.00    -0.297 OA
BRANCH  21  23
HETATM   23  C22 UNL     1      13.000  22.496  17.120  1.00  0.00     0.088 C 
BRANCH  23  24
HETATM   24  C23 UNL     1      13.665  22.022  15.816  1.00  0.00     0.110 C 
BRANCH  24  25
HETATM   25  C24 UNL     1      15.138  22.081  15.939  1.00  0.00     0.217 C 
HETATM   26  O6  UNL     1      15.777  21.094  15.493  1.00  0.00    -0.274 OA
HETATM   27  N2  UNL     1      15.731  23.210  16.532  1.00  0.00    -0.361 N 
ATOM     28  H2  UNL     1      15.121  23.960  16.858  1.00  0.00     0.162 HD
BRANCH  27  29
HETATM   29  C25 UNL     1      17.152  23.363  16.703  1.00  0.00     0.122 C 
BRANCH  29  30
HETATM   30  C26 UNL     1      17.506  23.489  18.141  1.00  0.00     0.022 C 
BRANCH  30  31
HETATM   31  C27 UNL     1      16.309  23.795  19.019  1.00  0.00     0.028 C 
BRANCH  31  32
HETATM   32  C28 UNL     1      16.704  24.350  20.362  1.00  0.00     0.164 C 
BRANCH  32  33
HETATM   33  O7  UNL     1      18.054  24.716  20.280  1.00  0.00    -0.401 OA
ATOM     34  H7  UNL     1      18.083  25.657  20.157  1.00  0.00     0.209 HD
ENDBRANCH  32  33
ENDBRANCH  31  32
ENDBRANCH  30  31
ENDBRANCH  29  30
ENDBRANCH  27  29
ENDBRANCH  24  25
ENDBRANCH  23  24
ENDBRANCH  21  23
ENDBRANCH  17  21
BRANCH  10  35
HETATM   35  O4  UNL     1      11.367  18.294  20.501  1.00  0.00    -0.390 OA
HETATM   36  C12 UNL     1      11.359  17.807  21.782  1.00  0.00     0.202 C 
ENDBRANCH  10  35
BRANCH   1  37
HETATM   37  C3  UNL     1       4.903  18.111  21.509  1.00  0.00     0.247 C 
HETATM   38  N1  UNL     1       5.021  18.533  22.862  1.00  0.00    -0.359 N 
ATOM     39  H1  UNL     1       5.781  19.169  23.101  1.00  0.00     0.162 HD
HETATM   40  O1  UNL     1       3.961  17.328  21.233  1.00  0.00    -0.271 OA
BRANCH  38  41
HETATM   41  C2  UNL     1       4.141  18.119  23.905  1.00  0.00     0.118 C 
HETATM   42  C1  UNL     1       4.692  16.991  24.741  1.00  0.00     0.026 C 
ENDBRANCH  38  41
ENDBRANCH   1  37
TORSDOF 12
ENDMDL
MODEL 4
REMARK VINA RESULT: -6.794761916      2.107      8.948
REMARK  12 active torsions:
REMARK  status: ('A' for Active; 'I' for Inactive)
REMARK    1  A    between atoms: C2_2  and  N1_3 
REMARK       I    between atoms: N1_3  and  C3_5 
REMARK    2  A    between atoms: C3_5  and  C4_7 
REMARK    3  A    between atoms: C11_16  and  O4_17 
REMARK    4  A    between atoms: C19_25  and  C21_27 
REMARK    5  A    between atoms: C21_27  and  C22_29 
REMARK    6  A    between atoms: C22_29  and  C23_30 
REMARK    7  A    between atoms: C23_30  and  C24_31 
REMARK       I    between atoms: C24_31  and  N2_33 
REMARK    8  A    between atoms: N2_33  and  C25_35 
REMARK    9  A    between atoms: C25_35  and  C26_36 
REMARK   10  A    between atoms: C26_36  and  C27_37 
REMARK   11  A    between atoms: C27_37  and  C28_38 
REMARK   12  A    between atoms: C28_38  and  O7_39 
ROOT
HETATM    1  C4  UNL     1      13.925  21.194  14.591  1.00  0.00     0.225 C 
HETATM    2  O2  UNL     1      13.118  22.225  15.037  1.00  0.00    -0.362 OA
HETATM    3  C5  UNL     1      13.278  21.765  16.316  1.00  0.00     0.203 C 
HETATM    4  C6  UNL     1      12.169  21.941  17.252  1.00  0.00     0.156 C 
HETATM    5  O3  UNL     1      11.945  23.049  17.694  1.00  0.00    -0.295 OA
HETATM    6  C7  UNL     1      11.380  20.717  17.601  1.00  0.00     0.086 C 
HETATM    7  C8  UNL     1      11.030  20.041  16.265  1.00  0.00     0.002 C 
HETATM    8  C9  UNL     1      12.288  19.528  15.635  1.00  0.00     0.007 C 
HETATM    9  C10 UNL     1      12.619  18.120  15.927  1.00  0.00     0.038 C 
HETATM   10  C11 UNL     1      11.463  17.263  16.445  1.00  0.00     0.131 C 
HETATM   11  C13 UNL     1      10.165  17.682  15.867  1.00  0.00     0.000 C 
HETATM   12  C14 UNL     1      10.322  17.601  14.345  1.00  0.00     0.019 C 
HETATM   13  C15 UNL     1       9.902  19.108  16.321  1.00  0.00     0.002 C 
HETATM   14  C16 UNL     1       9.241  19.194  17.666  1.00  0.00     0.006 C 
HETATM   15  C17 UNL     1       8.122  18.205  17.884  1.00  0.00     0.002 C 
HETATM   16  C18 UNL     1       8.536  16.789  17.593  1.00  0.00     0.018 C 
HETATM   17  C19 UNL     1       9.032  16.767  16.184  1.00  0.00     0.027 C 
HETATM   18  C20 UNL     1       9.458  15.352  15.860  1.00  0.00     0.024 C 
HETATM   19  C29 UNL     1      13.490  20.394  15.823  1.00  0.00     0.028 C 
HETATM   20  C30 UNL     1      14.711  19.756  16.430  1.00  0.00     0.022 C 
ENDROOT
BRANCH  17  21
HETATM   21  C21 UNL     1       7.820  17.023  15.332  1.00  0.00     0.136 C 
HETATM   22  O5  UNL     1       7.583  18.069  14.759  1.00  0.00    -0.297 OA
BRANCH  21  23
HETATM   23  C22 UNL     1       6.806  15.957  15.142  1.00  0.00     0.088 C 
BRANCH  23  24
HETATM   24  C23 UNL     1       5.420  16.513  15.516  1.00  0.00     0.110 C 
BRANCH  24  25
HETATM   25  C24 UNL     1       5.143  16.279  16.951  1.00  0.00     0.217 C 
HETATM   26  O6  UNL     1       5.548  15.188  17.428  1.00  0.00    -0.274 OA
HETATM   27  N2  UNL     1       4.459  17.263  17.685  1.00  0.00    -0.361 N 
ATOM     28  H2  UNL     1       4.177  18.117  17.203  1.00  0.00     0.162 HD
BRANCH  27  29
HETATM   29  C25 UNL     1       4.137  17.131  19.082  1.00  0.00     0.122 C 
BRANCH  29  30
HETATM   30  C26 UNL     1       5.191  17.741  19.933  1.00  0.00     0.022 C 
BRANCH  30  31
HETATM   31  C27 UNL     1       5.587  16.862  21.102  1.00  0.00     0.028 C 
BRANCH  31  32
HETATM   32  C28 UNL     1       6.967  16.279  20.945  1.00  0.00     0.164 C 
BRANCH  32  33
HETATM   33  O7  UNL     1       6.819  15.014  20.362  1.00  0.00    -0.401 OA
ATOM     34  H7  UNL     1       6.137  14.560  20.843  1.00  0.00     0.209 HD
ENDBRANCH  32  33
ENDBRANCH  31  32
ENDBRANCH  30  31
ENDBRANCH  29  30
ENDBRANCH  27  29
ENDBRANCH  24  25
ENDBRANCH  23  24
ENDBRANCH  21  23
ENDBRANCH  17  21
BRANCH  10  35
HETATM   35  O4  UNL     1      11.573  17.313  17.828  1.00  0.00    -0.390 OA
HETATM   36  C12 UNL     1      12.850  17.638  18.208  1.00  0.00     0.202 C 
ENDBRANCH  10  35
BRANCH   1  37
HETATM   37  C3  UNL     1      15.353  21.459  14.459  1.00  0.00     0.247 C 
HETATM   38  N1  UNL     1      15.975  22.690  14.804  1.00  0.00    -0.359 N 
ATOM     39  H1  UNL     1      15.387  23.439  15.167  1.00  0.00     0.162 HD
HETATM   40  O1  UNL     1      16.094  20.547  14.014  1.00  0.00    -0.271 OA
BRANCH  38  41
HETATM   41  C2  UNL     1      17.373  22.940  14.672  1.00  0.00     0.118 C 
HETATM   42  C1  UNL     1      17.699  23.989  13.638  1.00  0.00     0.026 C 
ENDBRANCH  38  41
ENDBRANCH   1  37
TORSDOF 12
ENDMDL
MODEL 5
REMARK VINA RESULT: -6.747119301      1.909      3.224
REMARK  12 active torsions:
REMARK  status: ('A' for Active; 'I' for Inactive)
REMARK    1  A    between atoms: C2_2  and  N1_3 
REMARK       I    between atoms: N1_3  and  C3_5 
REMARK    2  A    between atoms: C3_5  and  C4_7 
REMARK    3  A    between atoms: C11_16  and  O4_17 
REMARK    4  A    between atoms: C19_25  and  C21_27 
REMARK    5  A    between atoms: C21_27  and  C22_29 
REMARK    6  A    between atoms: C22_29  and  C23_30 
REMARK    7  A    between atoms: C23_30  and  C24_31 
REMARK       I    between atoms: C24_31  and  N2_33 
REMARK    8  A    between atoms: N2_33  and  C25_35 
REMARK    9  A    between atoms: C25_35  and  C26_36 
REMARK   10  A    between atoms: C26_36  and  C27_37 
REMARK   11  A    between atoms: C27_37  and  C28_38 
REMARK   12  A    between atoms: C28_38  and  O7_39 
ROOT
HETATM    1  C4  UNL     1       6.062  16.813  15.564  1.00  0.00     0.225 C 
HETATM    2  O2  UNL     1       6.919  16.121  14.727  1.00  0.00    -0.362 OA
HETATM    3  C5  UNL     1       7.435  15.483  15.822  1.00  0.00     0.203 C 
HETATM    4  C6  UNL     1       8.846  15.106  15.795  1.00  0.00     0.156 C 
HETATM    5  O3  UNL     1       9.191  14.169  15.105  1.00  0.00    -0.295 OA
HETATM    6  C7  UNL     1       9.778  15.921  16.638  1.00  0.00     0.086 C 
HETATM    7  C8  UNL     1       9.470  17.392  16.314  1.00  0.00     0.002 C 
HETATM    8  C9  UNL     1       8.098  17.723  16.815  1.00  0.00     0.007 C 
HETATM    9  C10 UNL     1       8.039  18.312  18.167  1.00  0.00     0.038 C 
HETATM   10  C11 UNL     1       9.350  18.902  18.690  1.00  0.00     0.131 C 
HETATM   11  C13 UNL     1      10.170  19.474  17.597  1.00  0.00     0.000 C 
HETATM   12  C14 UNL     1       9.293  20.517  16.898  1.00  0.00     0.019 C 
HETATM   13  C15 UNL     1      10.534  18.337  16.656  1.00  0.00     0.002 C 
HETATM   14  C16 UNL     1      11.763  17.585  17.077  1.00  0.00     0.006 C 
HETATM   15  C17 UNL     1      12.903  18.452  17.553  1.00  0.00     0.002 C 
HETATM   16  C18 UNL     1      12.486  19.418  18.626  1.00  0.00     0.018 C 
HETATM   17  C19 UNL     1      11.366  20.230  18.064  1.00  0.00     0.027 C 
HETATM   18  C20 UNL     1      10.924  21.213  19.124  1.00  0.00     0.024 C 
HETATM   19  C29 UNL     1       7.092  16.627  16.682  1.00  0.00     0.028 C 
HETATM   20  C30 UNL     1       6.366  16.202  17.931  1.00  0.00     0.022 C 
ENDROOT
BRANCH  17  21
HETATM   21  C21 UNL     1      11.987  21.066  16.979  1.00  0.00     0.136 C 
HETATM   22  O5  UNL     1      11.929  20.816  15.791  1.00  0.00    -0.297 OA
BRANCH  21  23
HETATM   23  C22 UNL     1      12.739  22.296  17.327  1.00  0.00     0.088 C 
BRANCH  23  24
HETATM   24  C23 UNL     1      14.174  22.176  16.784  1.00  0.00     0.110 C 
BRANCH  24  25
HETATM   25  C24 UNL     1      15.024  23.255  17.336  1.00  0.00     0.217 C 
HETATM   26  O6  UNL     1      16.245  23.215  17.036  1.00  0.00    -0.274 OA
HETATM   27  N2  UNL     1      14.436  24.244  18.144  1.00  0.00    -0.361 N 
ATOM     28  H2  UNL     1      13.434  24.188  18.323  1.00  0.00     0.162 HD
BRANCH  27  29
HETATM   29  C25 UNL     1      15.174  25.331  18.731  1.00  0.00     0.122 C 
BRANCH  29  30
HETATM   30  C26 UNL     1      15.466  25.066  20.164  1.00  0.00     0.022 C 
BRANCH  30  31
HETATM   31  C27 UNL     1      16.878  24.567  20.395  1.00  0.00     0.028 C 
BRANCH  31  32
HETATM   32  C28 UNL     1      17.851  25.094  19.373  1.00  0.00     0.164 C 
BRANCH  32  33
HETATM   33  O7  UNL     1      18.326  23.995  18.647  1.00  0.00    -0.401 OA
ATOM     34  H7  UNL     1      18.972  24.322  18.031  1.00  0.00     0.209 HD
ENDBRANCH  32  33
ENDBRANCH  31  32
ENDBRANCH  30  31
ENDBRANCH  29  30
ENDBRANCH  27  29
ENDBRANCH  24  25
ENDBRANCH  23  24
ENDBRANCH  21  23
ENDBRANCH  17  21
BRANCH  10  35
HETATM   35  O4  UNL     1       9.929  17.881  19.433  1.00  0.00    -0.390 OA
HETATM   36  C12 UNL     1       9.621  18.007  20.763  1.00  0.00     0.202 C 
ENDBRANCH  10  35
BRANCH   1  37
HETATM   37  C3  UNL     1       4.738  16.245  15.798  1.00  0.00     0.247 C 
HETATM   38  N1  UNL     1       4.376  14.904  15.494  1.00  0.00    -0.359 N 
ATOM     39  H1  UNL     1       5.085  14.297  15.084  1.00  0.00     0.162 HD
HETATM   40  O1  UNL     1       3.852  16.978  16.303  1.00  0.00    -0.271 OA
BRANCH  38  41
HETATM   41  C2  UNL     1       3.080  14.357  15.728  1.00  0.00     0.118 C 
HETATM   42  C1  UNL     1       2.164  14.458  14.533  1.00  0.00     0.026 C 
ENDBRANCH  38  41
ENDBRANCH   1  37
TORSDOF 12
ENDMDL
