MODEL 1
REMARK VINA RESULT: -8.814870639      0.000      0.000
REMARK  15 active torsions:
REMARK  status: ('A' for Active; 'I' for Inactive)
REMARK    1  A    between atoms: C2_2  and  C3_3 
REMARK    2  A    between atoms: C3_3  and  C4_4 
REMARK    3  A    between atoms: C4_4  and  C5_5 
REMARK    4  A    between atoms: C5_5  and  O1_6 
REMARK    5  A    between atoms: O1_6  and  C6_7 
REMARK       I    between atoms: C6_7  and  N1_9 
REMARK    6  A    between atoms: C10_13  and  C11_14 
REMARK       I    between atoms: C11_14  and  N2_16 
REMARK    7  A    between atoms: N2_16  and  C12_18 
REMARK    8  A    between atoms: C13_22  and  C14_23 
REMARK    9  A    between atoms: C14_23  and  C17_26 
REMARK   10  A    between atoms: C19_28  and  N4_29 
REMARK       I    between atoms: N4_29  and  C20_31 
REMARK   11  A    between atoms: C20_31  and  C21_33 
REMARK       I    between atoms: C21_33  and  N5_35 
REMARK   12  A    between atoms: N5_35  and  C22_37 
REMARK   13  A    between atoms: C22_37  and  C23_38 
REMARK   14  A    between atoms: C23_38  and  C24_39 
REMARK   15  A    between atoms: C24_39  and  O8_41 
ROOT
HETATM    1  C12 UNL     1      12.082  17.909  17.303  1.00  0.00     0.158 A 
HETATM    2  N3  UNL     1      12.445  17.607  16.050  1.00  0.00    -0.242 N 
ATOM      3  H3  UNL     1      13.382  17.717  15.663  1.00  0.00     0.196 HD
HETATM    4  O4  UNL     1      11.437  17.163  15.423  1.00  0.00    -0.237 OA
HETATM    5  C13 UNL     1      10.338  17.122  16.151  1.00  0.00     0.115 A 
HETATM    6  C19 UNL     1      10.720  17.597  17.375  1.00  0.00     0.114 A 
ENDROOT
BRANCH   1   7
HETATM    7  N2  UNL     1      12.741  18.412  18.283  1.00  0.00    -0.308 N 
HETATM    8  C11 UNL     1      13.773  19.366  18.191  1.00  0.00     0.246 C 
HETATM    9  O3  UNL     1      14.973  19.018  18.095  1.00  0.00    -0.271 OA
ATOM     10  H2  UNL     1      12.494  18.089  19.218  1.00  0.00     0.170 HD
BRANCH   8  11
HETATM   11  C10 UNL     1      13.485  20.834  18.205  1.00  0.00     0.182 C 
HETATM   12  N1  UNL     1      13.776  21.453  16.961  1.00  0.00    -0.315 N 
HETATM   13  C6  UNL     1      13.134  21.220  15.717  1.00  0.00     0.363 C 
HETATM   14  C7  UNL     1      14.877  22.367  17.145  1.00  0.00     0.129 C 
HETATM   15  O2  UNL     1      12.164  20.432  15.604  1.00  0.00    -0.238 OA
HETATM   16  C8  UNL     1      15.177  22.489  18.598  1.00  0.00     0.022 C 
HETATM   17  C9  UNL     1      14.270  21.518  19.289  1.00  0.00     0.037 C 
BRANCH  13  18
HETATM   18  O1  UNL     1      13.544  21.858  14.543  1.00  0.00    -0.304 OA
BRANCH  18  19
HETATM   19  C5  UNL     1      13.792  21.179  13.331  1.00  0.00     0.180 C 
BRANCH  19  20
HETATM   20  C4  UNL     1      15.267  21.431  13.007  1.00  0.00     0.027 C 
BRANCH  20  21
HETATM   21  C3  UNL     1      16.147  20.549  13.859  1.00  0.00     0.002 C 
BRANCH  21  22
HETATM   22  C2  UNL     1      17.266  21.346  14.492  1.00  0.00    -0.004 C 
HETATM   23  C1  UNL     1      17.153  22.809  14.142  1.00  0.00     0.005 C 
ENDBRANCH  21  22
ENDBRANCH  20  21
ENDBRANCH  19  20
ENDBRANCH  18  19
ENDBRANCH  13  18
ENDBRANCH   8  11
ENDBRANCH   1   7
BRANCH   6  24
HETATM   24  N4  UNL     1       9.947  17.779  18.517  1.00  0.00    -0.314 N 
HETATM   25  C20 UNL     1       9.556  18.994  19.105  1.00  0.00     0.314 C 
HETATM   26  O5  UNL     1       9.939  20.097  18.573  1.00  0.00    -0.262 OA
ATOM     27  H4  UNL     1       9.627  16.930  18.983  1.00  0.00     0.169 HD
BRANCH  25  28
HETATM   28  C21 UNL     1       8.733  19.089  20.298  1.00  0.00     0.309 C 
HETATM   29  O6  UNL     1       9.165  19.797  21.229  1.00  0.00    -0.262 OA
HETATM   30  N5  UNL     1       7.511  18.421  20.410  1.00  0.00    -0.352 N 
ATOM     31  H5  UNL     1       7.197  17.857  19.620  1.00  0.00     0.162 HD
BRANCH  30  32
HETATM   32  C22 UNL     1       6.671  18.482  21.577  1.00  0.00     0.133 C 
BRANCH  32  33
HETATM   33  C23 UNL     1       6.532  17.139  22.201  1.00  0.00     0.130 C 
BRANCH  33  34
HETATM   34  C24 UNL     1       6.453  16.098  21.113  1.00  0.00     0.259 C 
HETATM   35  O7  UNL     1       7.398  15.317  20.901  1.00  0.00    -0.265 OA
BRANCH  34  36
HETATM   36  O8  UNL     1       5.298  16.037  20.361  1.00  0.00    -0.326 OA
HETATM   37  C25 UNL     1       5.398  16.005  18.951  1.00  0.00     0.213 C 
ENDBRANCH  34  36
ENDBRANCH  33  34
ENDBRANCH  32  33
ENDBRANCH  30  32
ENDBRANCH  25  28
ENDBRANCH   6  24
BRANCH   5  38
HETATM   38  C14 UNL     1       9.040  16.653  15.666  1.00  0.00     0.006 C 
HETATM   39  C15 UNL     1       8.187  17.817  15.134  1.00  0.00     0.022 C 
HETATM   40  C16 UNL     1       9.299  15.793  14.407  1.00  0.00     0.022 C 
BRANCH  38  41
HETATM   41  C17 UNL     1       8.270  15.764  16.578  1.00  0.00     0.011 C 
HETATM   42  C18 UNL     1       7.530  14.749  15.692  1.00  0.00     0.006 C 
ENDBRANCH  38  41
ENDBRANCH   5  38
TORSDOF 15
ENDMDL
MODEL 2
REMARK VINA RESULT: -8.544505000      3.539     10.825
REMARK  15 active torsions:
REMARK  status: ('A' for Active; 'I' for Inactive)
REMARK    1  A    between atoms: C2_2  and  C3_3 
REMARK    2  A    between atoms: C3_3  and  C4_4 
REMARK    3  A    between atoms: C4_4  and  C5_5 
REMARK    4  A    between atoms: C5_5  and  O1_6 
REMARK    5  A    between atoms: O1_6  and  C6_7 
REMARK       I    between atoms: C6_7  and  N1_9 
REMARK    6  A    between atoms: C10_13  and  C11_14 
REMARK       I    between atoms: C11_14  and  N2_16 
REMARK    7  A    between atoms: N2_16  and  C12_18 
REMARK    8  A    between atoms: C13_22  and  C14_23 
REMARK    9  A    between atoms: C14_23  and  C17_26 
REMARK   10  A    between atoms: C19_28  and  N4_29 
REMARK       I    between atoms: N4_29  and  C20_31 
REMARK   11  A    between atoms: C20_31  and  C21_33 
REMARK       I    between atoms: C21_33  and  N5_35 
REMARK   12  A    between atoms: N5_35  and  C22_37 
REMARK   13  A    between atoms: C22_37  and  C23_38 
REMARK   14  A    between atoms: C23_38  and  C24_39 
REMARK   15  A    between atoms: C24_39  and  O8_41 
ROOT
HETATM    1  C12 UNL     1      15.079  21.666  18.078  1.00  0.00     0.158 A 
HETATM    2  N3  UNL     1      14.852  21.657  19.398  1.00  0.00    -0.242 N 
ATOM      3  H3  UNL     1      14.421  20.894  19.920  1.00  0.00     0.196 HD
HETATM    4  O4  UNL     1      15.257  22.750  19.895  1.00  0.00    -0.237 OA
HETATM    5  C13 UNL     1      15.776  23.575  19.005  1.00  0.00     0.115 A 
HETATM    6  C19 UNL     1      15.676  22.903  17.818  1.00  0.00     0.114 A 
ENDROOT
BRANCH   1   7
HETATM    7  N2  UNL     1      14.813  20.806  17.164  1.00  0.00    -0.308 N 
HETATM    8  C11 UNL     1      13.667  19.989  17.095  1.00  0.00     0.246 C 
HETATM    9  O3  UNL     1      13.655  18.844  17.604  1.00  0.00    -0.271 OA
ATOM     10  H2  UNL     1      15.498  20.703  16.415  1.00  0.00     0.170 HD
BRANCH   8  11
HETATM   11  C10 UNL     1      12.419  20.449  16.411  1.00  0.00     0.182 C 
HETATM   12  N1  UNL     1      11.341  20.625  17.318  1.00  0.00    -0.315 N 
HETATM   13  C6  UNL     1      11.253  21.571  18.371  1.00  0.00     0.363 C 
HETATM   14  C7  UNL     1      10.321  19.648  17.020  1.00  0.00     0.129 C 
HETATM   15  O2  UNL     1      12.153  22.420  18.583  1.00  0.00    -0.238 OA
HETATM   16  C8  UNL     1      10.667  18.948  15.753  1.00  0.00     0.022 C 
HETATM   17  C9  UNL     1      12.009  19.472  15.344  1.00  0.00     0.037 C 
BRANCH  13  18
HETATM   18  O1  UNL     1      10.155  21.616  19.235  1.00  0.00    -0.304 OA
BRANCH  18  19
HETATM   19  C5  UNL     1      10.207  21.213  20.587  1.00  0.00     0.180 C 
BRANCH  19  20
HETATM   20  C4  UNL     1      11.194  20.042  20.634  1.00  0.00     0.027 C 
BRANCH  20  21
HETATM   21  C3  UNL     1      10.504  18.798  21.138  1.00  0.00     0.002 C 
BRANCH  21  22
HETATM   22  C2  UNL     1       9.022  18.839  20.836  1.00  0.00    -0.004 C 
HETATM   23  C1  UNL     1       8.351  17.550  21.243  1.00  0.00     0.005 C 
ENDBRANCH  21  22
ENDBRANCH  20  21
ENDBRANCH  19  20
ENDBRANCH  18  19
ENDBRANCH  13  18
ENDBRANCH   8  11
ENDBRANCH   1   7
BRANCH   6  24
HETATM   24  N4  UNL     1      16.062  23.320  16.548  1.00  0.00    -0.314 N 
HETATM   25  C20 UNL     1      17.353  23.298  15.992  1.00  0.00     0.314 C 
HETATM   26  O5  UNL     1      18.330  22.862  16.700  1.00  0.00    -0.262 OA
ATOM     27  H4  UNL     1      15.321  23.685  15.950  1.00  0.00     0.169 HD
BRANCH  25  28
HETATM   28  C21 UNL     1      17.663  23.745  14.645  1.00  0.00     0.309 C 
HETATM   29  O6  UNL     1      17.964  22.868  13.812  1.00  0.00    -0.262 OA
HETATM   30  N5  UNL     1      17.628  25.096  14.286  1.00  0.00    -0.352 N 
ATOM     31  H5  UNL     1      17.370  25.776  15.001  1.00  0.00     0.162 HD
BRANCH  30  32
HETATM   32  C22 UNL     1      17.936  25.580  12.967  1.00  0.00     0.133 C 
BRANCH  32  33
HETATM   33  C23 UNL     1      18.665  26.874  13.034  1.00  0.00     0.130 C 
BRANCH  33  34
HETATM   34  C24 UNL     1      18.824  27.274  14.480  1.00  0.00     0.259 C 
HETATM   35  O7  UNL     1      18.008  28.036  15.029  1.00  0.00    -0.265 OA
BRANCH  34  36
HETATM   36  O8  UNL     1      19.901  26.766  15.175  1.00  0.00    -0.326 OA
HETATM   37  C25 UNL     1      20.764  27.659  15.853  1.00  0.00     0.213 C 
ENDBRANCH  34  36
ENDBRANCH  33  34
ENDBRANCH  32  33
ENDBRANCH  30  32
ENDBRANCH  25  28
ENDBRANCH   6  24
BRANCH   5  38
HETATM   38  C14 UNL     1      16.314  24.899  19.316  1.00  0.00     0.006 C 
HETATM   39  C15 UNL     1      15.478  26.011  18.660  1.00  0.00     0.022 C 
HETATM   40  C16 UNL     1      16.107  25.138  20.830  1.00  0.00     0.022 C 
BRANCH  38  41
HETATM   41  C17 UNL     1      17.773  25.092  19.099  1.00  0.00     0.011 C 
HETATM   42  C18 UNL     1      17.929  26.293  18.152  1.00  0.00     0.006 C 
ENDBRANCH  38  41
ENDBRANCH   5  38
TORSDOF 15
ENDMDL
MODEL 3
REMARK VINA RESULT: -8.521842206      2.380      5.183
REMARK  15 active torsions:
REMARK  status: ('A' for Active; 'I' for Inactive)
REMARK    1  A    between atoms: C2_2  and  C3_3 
REMARK    2  A    between atoms: C3_3  and  C4_4 
REMARK    3  A    between atoms: C4_4  and  C5_5 
REMARK    4  A    between atoms: C5_5  and  O1_6 
REMARK    5  A    between atoms: O1_6  and  C6_7 
REMARK       I    between atoms: C6_7  and  N1_9 
REMARK    6  A    between atoms: C10_13  and  C11_14 
REMARK       I    between atoms: C11_14  and  N2_16 
REMARK    7  A    between atoms: N2_16  and  C12_18 
REMARK    8  A    between atoms: C13_22  and  C14_23 
REMARK    9  A    between atoms: C14_23  and  C17_26 
REMARK   10  A    between atoms: C19_28  and  N4_29 
REMARK       I    between atoms: N4_29  and  C20_31 
REMARK   11  A    between atoms: C20_31  and  C21_33 
REMARK       I    between atoms: C21_33  and  N5_35 
REMARK   12  A    between atoms: N5_35  and  C22_37 
REMARK   13  A    between atoms: C22_37  and  C23_38 
REMARK   14  A    between atoms: C23_38  and  C24_39 
REMARK   15  A    between atoms: C24_39  and  O8_41 
ROOT
HETATM    1  C12 UNL     1      12.676  20.328  17.500  1.00  0.00     0.158 A 
HETATM    2  N3  UNL     1      13.246  20.864  18.587  1.00  0.00    -0.242 N 
ATOM      3  H3  UNL     1      14.177  21.277  18.625  1.00  0.00     0.196 HD
HETATM    4  O4  UNL     1      12.441  20.773  19.562  1.00  0.00    -0.237 OA
HETATM    5  C13 UNL     1      11.297  20.194  19.252  1.00  0.00     0.115 A 
HETATM    6  C19 UNL     1      11.416  19.894  17.923  1.00  0.00     0.114 A 
ENDROOT
BRANCH   1   7
HETATM    7  N2  UNL     1      13.112  20.165  16.304  1.00  0.00    -0.308 N 
HETATM    8  C11 UNL     1      14.031  20.994  15.631  1.00  0.00     0.246 C 
HETATM    9  O3  UNL     1      13.643  21.952  14.922  1.00  0.00    -0.271 OA
ATOM     10  H2  UNL     1      12.759  19.357  15.791  1.00  0.00     0.170 HD
BRANCH   8  11
HETATM   11  C10 UNL     1      15.507  20.769  15.731  1.00  0.00     0.182 C 
HETATM   12  N1  UNL     1      16.222  21.975  15.951  1.00  0.00    -0.315 N 
HETATM   13  C6  UNL     1      16.155  22.815  17.093  1.00  0.00     0.363 C 
HETATM   14  C7  UNL     1      17.039  22.247  14.793  1.00  0.00     0.129 C 
HETATM   15  O2  UNL     1      15.449  22.530  18.090  1.00  0.00    -0.238 OA
HETATM   16  C8  UNL     1      16.998  21.075  13.877  1.00  0.00     0.022 C 
HETATM   17  C9  UNL     1      16.027  20.110  14.484  1.00  0.00     0.037 C 
BRANCH  13  18
HETATM   18  O1  UNL     1      16.875  24.010  17.174  1.00  0.00    -0.304 OA
BRANCH  18  19
HETATM   19  C5  UNL     1      18.126  24.127  17.816  1.00  0.00     0.180 C 
BRANCH  19  20
HETATM   20  C4  UNL     1      18.168  25.546  18.390  1.00  0.00     0.027 C 
BRANCH  20  21
HETATM   21  C3  UNL     1      16.974  25.783  19.283  1.00  0.00     0.002 C 
BRANCH  21  22
HETATM   22  C2  UNL     1      17.019  24.885  20.500  1.00  0.00    -0.004 C 
HETATM   23  C1  UNL     1      15.636  24.414  20.876  1.00  0.00     0.005 C 
ENDBRANCH  21  22
ENDBRANCH  20  21
ENDBRANCH  19  20
ENDBRANCH  18  19
ENDBRANCH  13  18
ENDBRANCH   8  11
ENDBRANCH   1   7
BRANCH   6  24
HETATM   24  N4  UNL     1      10.500  19.260  17.089  1.00  0.00    -0.314 N 
HETATM   25  C20 UNL     1      10.636  18.014  16.454  1.00  0.00     0.314 C 
HETATM   26  O5  UNL     1      11.718  17.343  16.619  1.00  0.00    -0.262 OA
ATOM     27  H4  UNL     1       9.627  19.759  16.919  1.00  0.00     0.169 HD
BRANCH  25  28
HETATM   28  C21 UNL     1       9.616  17.421  15.605  1.00  0.00     0.309 C 
HETATM   29  O6  UNL     1      10.010  16.733  14.644  1.00  0.00    -0.262 OA
HETATM   30  N5  UNL     1       8.252  17.607  15.847  1.00  0.00    -0.352 N 
ATOM     31  H5  UNL     1       7.979  18.173  16.650  1.00  0.00     0.162 HD
BRANCH  30  32
HETATM   32  C22 UNL     1       7.212  17.045  15.027  1.00  0.00     0.133 C 
BRANCH  32  33
HETATM   33  C23 UNL     1       6.470  15.988  15.763  1.00  0.00     0.130 C 
BRANCH  33  34
HETATM   34  C24 UNL     1       7.458  15.017  16.356  1.00  0.00     0.259 C 
HETATM   35  O7  UNL     1       8.079  14.211  15.638  1.00  0.00    -0.265 OA
BRANCH  34  36
HETATM   36  O8  UNL     1       7.656  15.049  17.721  1.00  0.00    -0.326 OA
HETATM   37  C25 UNL     1       6.784  15.822  18.523  1.00  0.00     0.213 C 
ENDBRANCH  34  36
ENDBRANCH  33  34
ENDBRANCH  32  33
ENDBRANCH  30  32
ENDBRANCH  25  28
ENDBRANCH   6  24
BRANCH   5  38
HETATM   38  C14 UNL     1      10.201  19.966  20.193  1.00  0.00     0.006 C 
HETATM   39  C15 UNL     1      10.496  18.772  21.117  1.00  0.00     0.022 C 
HETATM   40  C16 UNL     1      10.164  21.171  21.161  1.00  0.00     0.022 C 
BRANCH  38  41
HETATM   41  C17 UNL     1       8.831  19.903  19.616  1.00  0.00     0.011 C 
HETATM   42  C18 UNL     1       8.057  18.842  20.416  1.00  0.00     0.006 C 
ENDBRANCH  38  41
ENDBRANCH   5  38
TORSDOF 15
ENDMDL
MODEL 4
REMARK VINA RESULT: -8.435341622      2.723      8.843
REMARK  15 active torsions:
REMARK  status: ('A' for Active; 'I' for Inactive)
REMARK    1  A    between atoms: C2_2  and  C3_3 
REMARK    2  A    between atoms: C3_3  and  C4_4 
REMARK    3  A    between atoms: C4_4  and  C5_5 
REMARK    4  A    between atoms: C5_5  and  O1_6 
REMARK    5  A    between atoms: O1_6  and  C6_7 
REMARK       I    between atoms: C6_7  and  N1_9 
REMARK    6  A    between atoms: C10_13  and  C11_14 
REMARK       I    between atoms: C11_14  and  N2_16 
REMARK    7  A    between atoms: N2_16  and  C12_18 
REMARK    8  A    between atoms: C13_22  and  C14_23 
REMARK    9  A    between atoms: C14_23  and  C17_26 
REMARK   10  A    between atoms: C19_28  and  N4_29 
REMARK       I    between atoms: N4_29  and  C20_31 
REMARK   11  A    between atoms: C20_31  and  C21_33 
REMARK       I    between atoms: C21_33  and  N5_35 
REMARK   12  A    between atoms: N5_35  and  C22_37 
REMARK   13  A    between atoms: C22_37  and  C23_38 
REMARK   14  A    between atoms: C23_38  and  C24_39 
REMARK   15  A    between atoms: C24_39  and  O8_41 
ROOT
HETATM    1  C12 UNL     1      13.864  19.930  17.492  1.00  0.00     0.158 A 
HETATM    2  N3  UNL     1      13.643  19.010  16.545  1.00  0.00    -0.242 N 
ATOM      3  H3  UNL     1      13.051  18.185  16.648  1.00  0.00     0.196 HD
HETATM    4  O4  UNL     1      14.287  19.328  15.501  1.00  0.00    -0.237 OA
HETATM    5  C13 UNL     1      14.980  20.443  15.627  1.00  0.00     0.115 A 
HETATM    6  C19 UNL     1      14.728  20.860  16.904  1.00  0.00     0.114 A 
ENDROOT
BRANCH   1   7
HETATM    7  N2  UNL     1      13.458  20.016  18.707  1.00  0.00    -0.308 N 
HETATM    8  C11 UNL     1      12.119  19.982  19.143  1.00  0.00     0.246 C 
HETATM    9  O3  UNL     1      11.453  21.034  19.275  1.00  0.00    -0.271 OA
ATOM     10  H2  UNL     1      14.174  20.120  19.425  1.00  0.00     0.170 HD
BRANCH   8  11
HETATM   11  C10 UNL     1      11.435  18.692  19.468  1.00  0.00     0.182 C 
HETATM   12  N1  UNL     1      10.224  18.526  18.746  1.00  0.00    -0.315 N 
HETATM   13  C6  UNL     1      10.075  18.387  17.342  1.00  0.00     0.363 C 
HETATM   14  C7  UNL     1       9.123  18.548  19.678  1.00  0.00     0.129 C 
HETATM   15  O2  UNL     1      11.062  18.350  16.567  1.00  0.00    -0.238 OA
HETATM   16  C8  UNL     1       9.655  18.529  21.068  1.00  0.00     0.022 C 
HETATM   17  C9  UNL     1      11.146  18.601  20.940  1.00  0.00     0.037 C 
BRANCH  13  18
HETATM   18  O1  UNL     1       8.820  18.280  16.739  1.00  0.00    -0.304 OA
BRANCH  18  19
HETATM   19  C5  UNL     1       8.583  18.547  15.373  1.00  0.00     0.180 C 
BRANCH  19  20
HETATM   20  C4  UNL     1       7.943  17.276  14.806  1.00  0.00     0.027 C 
BRANCH  20  21
HETATM   21  C3  UNL     1       9.010  16.336  14.301  1.00  0.00     0.002 C 
BRANCH  21  22
HETATM   22  C2  UNL     1       8.853  14.959  14.908  1.00  0.00    -0.004 C 
HETATM   23  C1  UNL     1       7.606  14.879  15.752  1.00  0.00     0.005 C 
ENDBRANCH  21  22
ENDBRANCH  20  21
ENDBRANCH  19  20
ENDBRANCH  18  19
ENDBRANCH  13  18
ENDBRANCH   8  11
ENDBRANCH   1   7
BRANCH   6  24
HETATM   24  N4  UNL     1      15.218  21.981  17.566  1.00  0.00    -0.314 N 
HETATM   25  C20 UNL     1      14.498  23.109  17.995  1.00  0.00     0.314 C 
HETATM   26  O5  UNL     1      13.237  23.169  17.766  1.00  0.00    -0.262 OA
ATOM     27  H4  UNL     1      16.219  21.986  17.762  1.00  0.00     0.169 HD
BRANCH  25  28
HETATM   28  C21 UNL     1      15.095  24.235  18.693  1.00  0.00     0.309 C 
HETATM   29  O6  UNL     1      14.856  24.336  19.912  1.00  0.00    -0.262 OA
HETATM   30  N5  UNL     1      15.903  25.169  18.038  1.00  0.00    -0.352 N 
ATOM     31  H5  UNL     1      16.075  25.040  17.041  1.00  0.00     0.162 HD
BRANCH  30  32
HETATM   32  C22 UNL     1      16.506  26.300  18.691  1.00  0.00     0.133 C 
BRANCH  32  33
HETATM   33  C23 UNL     1      17.972  26.332  18.449  1.00  0.00     0.130 C 
BRANCH  33  34
HETATM   34  C24 UNL     1      18.357  25.143  17.606  1.00  0.00     0.259 C 
HETATM   35  O7  UNL     1      18.511  24.017  18.114  1.00  0.00    -0.265 OA
BRANCH  34  36
HETATM   36  O8  UNL     1      18.531  25.341  16.252  1.00  0.00    -0.326 OA
HETATM   37  C25 UNL     1      18.550  26.662  15.748  1.00  0.00     0.213 C 
ENDBRANCH  34  36
ENDBRANCH  33  34
ENDBRANCH  32  33
ENDBRANCH  30  32
ENDBRANCH  25  28
ENDBRANCH   6  24
BRANCH   5  38
HETATM   38  C14 UNL     1      15.809  21.027  14.573  1.00  0.00     0.006 C 
HETATM   39  C15 UNL     1      17.184  21.454  15.113  1.00  0.00     0.022 C 
HETATM   40  C16 UNL     1      16.149  19.898  13.573  1.00  0.00     0.022 C 
BRANCH  38  41
HETATM   41  C17 UNL     1      15.178  22.089  13.742  1.00  0.00     0.011 C 
HETATM   42  C18 UNL     1      14.065  21.413  12.923  1.00  0.00     0.006 C 
ENDBRANCH  38  41
ENDBRANCH   5  38
TORSDOF 15
ENDMDL
MODEL 5
REMARK VINA RESULT: -8.368799067      2.836      9.387
REMARK  15 active torsions:
REMARK  status: ('A' for Active; 'I' for Inactive)
REMARK    1  A    between atoms: C2_2  and  C3_3 
REMARK    2  A    between atoms: C3_3  and  C4_4 
REMARK    3  A    between atoms: C4_4  and  C5_5 
REMARK    4  A    between atoms: C5_5  and  O1_6 
REMARK    5  A    between atoms: O1_6  and  C6_7 
REMARK       I    between atoms: C6_7  and  N1_9 
REMARK    6  A    between atoms: C10_13  and  C11_14 
REMARK       I    between atoms: C11_14  and  N2_16 
REMARK    7  A    between atoms: N2_16  and  C12_18 
REMARK    8  A    between atoms: C13_22  and  C14_23 
REMARK    9  A    between atoms: C14_23  and  C17_26 
REMARK   10  A    between atoms: C19_28  and  N4_29 
REMARK       I    between atoms: N4_29  and  C20_31 
REMARK   11  A    between atoms: C20_31  and  C21_33 
REMARK       I    between atoms: C21_33  and  N5_35 
REMARK   12  A    between atoms: N5_35  and  C22_37 
REMARK   13  A    between atoms: C22_37  and  C23_38 
REMARK   14  A    between atoms: C23_38  and  C24_39 
REMARK   15  A    between atoms: C24_39  and  O8_41 
ROOT
HETATM    1  C12 UNL     1      12.943  21.522  16.470  1.00  0.00     0.158 A 
HETATM    2  N3  UNL     1      12.525  20.667  15.528  1.00  0.00    -0.242 N 
ATOM      3  H3  UNL     1      11.699  20.073  15.593  1.00  0.00     0.196 HD
HETATM    4  O4  UNL     1      13.321  20.716  14.543  1.00  0.00    -0.237 OA
HETATM    5  C13 UNL     1      14.315  21.568  14.709  1.00  0.00     0.115 A 
HETATM    6  C19 UNL     1      14.100  22.108  15.946  1.00  0.00     0.114 A 
ENDROOT
BRANCH   1   7
HETATM    7  N2  UNL     1      12.484  21.792  17.638  1.00  0.00    -0.308 N 
HETATM    8  C11 UNL     1      11.442  21.114  18.302  1.00  0.00     0.246 C 
HETATM    9  O3  UNL     1      10.252  21.490  18.194  1.00  0.00    -0.271 OA
ATOM     10  H2  UNL     1      12.915  22.572  18.133  1.00  0.00     0.170 HD
BRANCH   8  11
HETATM   11  C10 UNL     1      11.709  19.921  19.163  1.00  0.00     0.182 C 
HETATM   12  N1  UNL     1      10.864  18.826  18.844  1.00  0.00    -0.315 N 
HETATM   13  C6  UNL     1      10.834  18.090  17.631  1.00  0.00     0.363 C 
HETATM   14  C7  UNL     1       9.988  18.577  19.963  1.00  0.00     0.129 C 
HETATM   15  O2  UNL     1      11.630  18.325  16.689  1.00  0.00    -0.238 OA
HETATM   16  C8  UNL     1      10.417  19.411  21.119  1.00  0.00     0.022 C 
HETATM   17  C9  UNL     1      11.539  20.267  20.616  1.00  0.00     0.037 C 
BRANCH  13  18
HETATM   18  O1  UNL     1       9.918  17.059  17.415  1.00  0.00    -0.304 OA
BRANCH  18  19
HETATM   19  C5  UNL     1       8.597  17.268  16.963  1.00  0.00     0.180 C 
BRANCH  19  20
HETATM   20  C4  UNL     1       8.723  17.713  15.502  1.00  0.00     0.027 C 
BRANCH  20  21
HETATM   21  C3  UNL     1       7.494  17.310  14.726  1.00  0.00     0.002 C 
BRANCH  21  22
HETATM   22  C2  UNL     1       7.215  15.831  14.880  1.00  0.00    -0.004 C 
HETATM   23  C1  UNL     1       8.292  15.006  14.221  1.00  0.00     0.005 C 
ENDBRANCH  21  22
ENDBRANCH  20  21
ENDBRANCH  19  20
ENDBRANCH  18  19
ENDBRANCH  13  18
ENDBRANCH   8  11
ENDBRANCH   1   7
BRANCH   6  24
HETATM   24  N4  UNL     1      14.859  23.055  16.626  1.00  0.00    -0.314 N 
HETATM   25  C20 UNL     1      15.558  22.889  17.834  1.00  0.00     0.314 C 
HETATM   26  O5  UNL     1      15.515  21.754  18.430  1.00  0.00    -0.262 OA
ATOM     27  H4  UNL     1      14.915  23.979  16.197  1.00  0.00     0.169 HD
BRANCH  25  28
HETATM   28  C21 UNL     1      16.339  23.937  18.468  1.00  0.00     0.309 C 
HETATM   29  O6  UNL     1      16.959  23.632  19.506  1.00  0.00    -0.262 OA
HETATM   30  N5  UNL     1      16.402  25.233  17.948  1.00  0.00    -0.352 N 
ATOM     31  H5  UNL     1      15.882  25.433  17.093  1.00  0.00     0.162 HD
BRANCH  30  32
HETATM   32  C22 UNL     1      17.156  26.300  18.549  1.00  0.00     0.133 C 
BRANCH  32  33
HETATM   33  C23 UNL     1      18.506  26.407  17.933  1.00  0.00     0.130 C 
BRANCH  33  34
HETATM   34  C24 UNL     1      18.369  26.326  16.434  1.00  0.00     0.259 C 
HETATM   35  O7  UNL     1      18.504  25.244  15.833  1.00  0.00    -0.265 OA
BRANCH  34  36
HETATM   36  O8  UNL     1      18.087  27.489  15.748  1.00  0.00    -0.326 OA
HETATM   37  C25 UNL     1      18.117  27.477  14.333  1.00  0.00     0.213 C 
ENDBRANCH  34  36
ENDBRANCH  33  34
ENDBRANCH  32  33
ENDBRANCH  30  32
ENDBRANCH  25  28
ENDBRANCH   6  24
BRANCH   5  38
HETATM   38  C14 UNL     1      15.370  21.812  13.725  1.00  0.00     0.006 C 
HETATM   39  C15 UNL     1      16.678  21.106  14.120  1.00  0.00     0.022 C 
HETATM   40  C16 UNL     1      14.956  21.099  12.417  1.00  0.00     0.022 C 
BRANCH  38  41
HETATM   41  C17 UNL     1      15.594  23.228  13.328  1.00  0.00     0.011 C 
HETATM   42  C18 UNL     1      17.105  23.492  13.450  1.00  0.00     0.006 C 
ENDBRANCH  38  41
ENDBRANCH   5  38
TORSDOF 15
ENDMDL
