MODEL 1
REMARK VINA RESULT: -8.628599896      0.000      0.000
REMARK  14 active torsions:
REMARK  status: ('A' for Active; 'I' for Inactive)
REMARK    1  A    between atoms: C2_2  and  C3_3 
REMARK    2  A    between atoms: C3_3  and  C5_5 
REMARK    3  A    between atoms: C7_10  and  C8_11 
REMARK    4  A    between atoms: C8_11  and  C9_12 
REMARK    5  A    between atoms: C9_12  and  C10_13 
REMARK    6  A    between atoms: C10_13  and  C11_14 
REMARK    7  A    between atoms: C11_14  and  C12_15 
REMARK    8  A    between atoms: C12_15  and  C13_16 
REMARK    9  A    between atoms: C13_16  and  C14_18 
REMARK   10  A    between atoms: C14_18  and  C15_19 
REMARK   11  A    between atoms: C15_19  and  C19_25 
REMARK   12  A    between atoms: C16_20  and  C17_21 
REMARK   13  A    between atoms: C17_21  and  O4_23 
REMARK   14  A    between atoms: C24_30  and  O5_31 
ROOT
HETATM    1  C5  UNL     1      15.036  21.671  15.779  1.00  0.00     0.181 C 
HETATM    2  N1  UNL     1      15.545  21.312  17.056  1.00  0.00    -0.347 N 
ATOM      3  H1  UNL     1      16.459  20.861  17.024  1.00  0.00     0.163 HD
HETATM    4  C6  UNL     1      15.029  21.462  18.346  1.00  0.00     0.223 C 
HETATM    5  O1  UNL     1      15.230  20.426  19.104  1.00  0.00    -0.273 OA
HETATM    6  C7  UNL     1      14.311  22.563  18.993  1.00  0.00     0.085 C 
HETATM    7  C23 UNL     1      15.246  23.411  19.854  1.00  0.00     0.098 C 
HETATM    8  C24 UNL     1      15.881  24.529  19.173  1.00  0.00     0.126 C 
HETATM    9  N2  UNL     1      16.293  24.704  17.865  1.00  0.00    -0.251 N 
ATOM     10  H2  UNL     1      15.783  25.427  17.357  1.00  0.00     0.182 HD
HETATM   11  S1  UNL     1      17.508  23.926  16.947  1.00  0.00     0.327 S 
HETATM   12  O6  UNL     1      18.302  22.912  17.699  1.00  0.00    -0.182 OA
HETATM   13  O7  UNL     1      18.543  25.047  16.711  1.00  0.00    -0.182 OA
HETATM   14  N3  UNL     1      16.973  23.352  15.414  1.00  0.00    -0.235 N 
ATOM     15  H3  UNL     1      17.639  23.430  14.645  1.00  0.00     0.183 HD
HETATM   16  C25 UNL     1      15.724  22.787  15.101  1.00  0.00     0.255 C 
HETATM   17  O8  UNL     1      15.100  23.294  14.109  1.00  0.00    -0.270 OA
ENDROOT
BRANCH   6  18
HETATM   18  C8  UNL     1      13.378  23.363  18.161  1.00  0.00     0.014 C 
BRANCH  18  19
HETATM   19  C9  UNL     1      12.027  22.676  17.934  1.00  0.00     0.001 C 
BRANCH  19  20
HETATM   20  C10 UNL     1      11.784  21.721  19.070  1.00  0.00     0.000 C 
BRANCH  20  21
HETATM   21  C11 UNL     1      10.319  21.446  19.199  1.00  0.00     0.007 C 
BRANCH  21  22
HETATM   22  C12 UNL     1       9.974  20.284  20.086  1.00  0.00     0.078 C 
BRANCH  22  23
HETATM   23  C13 UNL     1       9.356  19.181  19.301  1.00  0.00     0.130 C 
HETATM   24  O2  UNL     1       8.184  19.265  19.014  1.00  0.00    -0.298 OA
BRANCH  23  25
HETATM   25  C14 UNL     1      10.143  18.014  18.882  1.00  0.00     0.113 C 
BRANCH  25  26
HETATM   26  C15 UNL     1      10.180  17.705  17.456  1.00  0.00    -0.060 C 
HETATM   27  C16 UNL     1       9.360  16.863  16.892  1.00  0.00     0.086 C 
BRANCH  27  28
HETATM   28  C17 UNL     1       8.309  16.108  17.525  1.00  0.00     0.282 C 
HETATM   29  O3  UNL     1       8.373  15.173  18.327  1.00  0.00    -0.260 OA
BRANCH  28  30
HETATM   30  O4  UNL     1       6.988  16.495  17.177  1.00  0.00    -0.323 OA
HETATM   31  C18 UNL     1       6.575  16.432  15.827  1.00  0.00     0.213 C 
ENDBRANCH  28  30
ENDBRANCH  27  28
BRANCH  26  32
HETATM   32  C19 UNL     1      11.196  18.396  16.601  1.00  0.00    -0.027 C 
HETATM   33  C20 UNL     1      11.522  17.570  15.376  1.00  0.00     0.019 C 
HETATM   34  C21 UNL     1      12.488  18.684  17.289  1.00  0.00     0.019 C 
HETATM   35  C22 UNL     1      10.622  19.716  16.069  1.00  0.00     0.019 C 
ENDBRANCH  26  32
ENDBRANCH  25  26
ENDBRANCH  23  25
ENDBRANCH  22  23
ENDBRANCH  21  22
ENDBRANCH  20  21
ENDBRANCH  19  20
ENDBRANCH  18  19
ENDBRANCH   6  18
BRANCH   8  36
HETATM   36  O5  UNL     1      16.102  25.557  19.947  1.00  0.00    -0.349 OA
ATOM     37  H5  UNL     1      16.921  26.003  19.764  1.00  0.00     0.219 HD
ENDBRANCH   8  36
BRANCH   1  38
HETATM   38  C3  UNL     1      14.808  20.514  14.843  1.00  0.00     0.013 C 
HETATM   39  C4  UNL     1      15.995  20.364  13.874  1.00  0.00     0.012 C 
BRANCH  38  40
HETATM   40  C2  UNL     1      13.582  20.490  14.029  1.00  0.00     0.002 C 
HETATM   41  C1  UNL     1      13.704  20.918  12.599  1.00  0.00     0.005 C 
ENDBRANCH  38  40
ENDBRANCH   1  38
TORSDOF 14
ENDMDL
MODEL 2
REMARK VINA RESULT: -8.568531202      3.616      9.221
REMARK  14 active torsions:
REMARK  status: ('A' for Active; 'I' for Inactive)
REMARK    1  A    between atoms: C2_2  and  C3_3 
REMARK    2  A    between atoms: C3_3  and  C5_5 
REMARK    3  A    between atoms: C7_10  and  C8_11 
REMARK    4  A    between atoms: C8_11  and  C9_12 
REMARK    5  A    between atoms: C9_12  and  C10_13 
REMARK    6  A    between atoms: C10_13  and  C11_14 
REMARK    7  A    between atoms: C11_14  and  C12_15 
REMARK    8  A    between atoms: C12_15  and  C13_16 
REMARK    9  A    between atoms: C13_16  and  C14_18 
REMARK   10  A    between atoms: C14_18  and  C15_19 
REMARK   11  A    between atoms: C15_19  and  C19_25 
REMARK   12  A    between atoms: C16_20  and  C17_21 
REMARK   13  A    between atoms: C17_21  and  O4_23 
REMARK   14  A    between atoms: C24_30  and  O5_31 
ROOT
HETATM    1  C5  UNL     1      10.107  18.863  19.142  1.00  0.00     0.181 C 
HETATM    2  N1  UNL     1      10.765  17.763  18.529  1.00  0.00    -0.347 N 
ATOM      3  H1  UNL     1      10.727  16.903  19.076  1.00  0.00     0.163 HD
HETATM    4  C6  UNL     1      11.453  17.639  17.320  1.00  0.00     0.223 C 
HETATM    5  O1  UNL     1      12.532  16.921  17.413  1.00  0.00    -0.273 OA
HETATM    6  C7  UNL     1      11.183  18.164  15.979  1.00  0.00     0.085 C 
HETATM    7  C23 UNL     1      10.524  17.111  15.088  1.00  0.00     0.098 C 
HETATM    8  C24 UNL     1       9.071  17.083  15.122  1.00  0.00     0.126 C 
HETATM    9  N2  UNL     1       8.161  17.366  16.125  1.00  0.00    -0.251 N 
ATOM     10  H2  UNL     1       7.571  18.178  15.940  1.00  0.00     0.182 HD
HETATM   11  S1  UNL     1       7.849  16.596  17.619  1.00  0.00     0.327 S 
HETATM   12  O6  UNL     1       8.662  15.371  17.870  1.00  0.00    -0.182 OA
HETATM   13  O7  UNL     1       6.431  16.017  17.426  1.00  0.00    -0.182 OA
HETATM   14  N3  UNL     1       7.817  17.664  18.969  1.00  0.00    -0.235 N 
ATOM     15  H3  UNL     1       7.126  17.459  19.691  1.00  0.00     0.183 HD
HETATM   16  C25 UNL     1       8.634  18.787  19.189  1.00  0.00     0.255 C 
HETATM   17  O8  UNL     1       8.038  19.883  19.467  1.00  0.00    -0.270 OA
ENDROOT
BRANCH   6  18
HETATM   18  C8  UNL     1      10.558  19.506  15.876  1.00  0.00     0.014 C 
BRANCH  18  19
HETATM   19  C9  UNL     1      11.562  20.655  16.026  1.00  0.00     0.001 C 
BRANCH  19  20
HETATM   20  C10 UNL     1      11.025  21.621  17.046  1.00  0.00     0.000 C 
BRANCH  20  21
HETATM   21  C11 UNL     1      12.138  22.468  17.577  1.00  0.00     0.007 C 
BRANCH  21  22
HETATM   22  C12 UNL     1      13.348  21.702  18.032  1.00  0.00     0.078 C 
BRANCH  22  23
HETATM   23  C13 UNL     1      14.593  22.284  17.457  1.00  0.00     0.130 C 
HETATM   24  O2  UNL     1      14.601  22.582  16.286  1.00  0.00    -0.298 OA
BRANCH  23  25
HETATM   25  C14 UNL     1      15.786  22.493  18.287  1.00  0.00     0.113 C 
BRANCH  25  26
HETATM   26  C15 UNL     1      16.293  23.856  18.405  1.00  0.00    -0.060 C 
HETATM   27  C16 UNL     1      17.281  24.308  17.685  1.00  0.00     0.086 C 
BRANCH  27  28
HETATM   28  C17 UNL     1      18.032  23.596  16.682  1.00  0.00     0.282 C 
HETATM   29  O3  UNL     1      18.877  22.706  16.804  1.00  0.00    -0.260 OA
BRANCH  28  30
HETATM   30  O4  UNL     1      17.762  23.970  15.340  1.00  0.00    -0.323 OA
HETATM   31  C18 UNL     1      17.394  22.981  14.400  1.00  0.00     0.213 C 
ENDBRANCH  28  30
ENDBRANCH  27  28
BRANCH  26  32
HETATM   32  C19 UNL     1      15.641  24.779  19.386  1.00  0.00    -0.027 C 
HETATM   33  C20 UNL     1      16.610  25.844  19.851  1.00  0.00     0.019 C 
HETATM   34  C21 UNL     1      15.113  24.108  20.609  1.00  0.00     0.019 C 
HETATM   35  C22 UNL     1      14.490  25.535  18.709  1.00  0.00     0.019 C 
ENDBRANCH  26  32
ENDBRANCH  25  26
ENDBRANCH  23  25
ENDBRANCH  22  23
ENDBRANCH  21  22
ENDBRANCH  20  21
ENDBRANCH  19  20
ENDBRANCH  18  19
ENDBRANCH   6  18
BRANCH   8  36
HETATM   36  O5  UNL     1       8.527  16.723  13.991  1.00  0.00    -0.349 OA
ATOM     37  H5  UNL     1       7.591  16.883  13.950  1.00  0.00     0.219 HD
ENDBRANCH   8  36
BRANCH   1  38
HETATM   38  C3  UNL     1      10.680  19.281  20.470  1.00  0.00     0.013 C 
HETATM   39  C4  UNL     1       9.725  18.896  21.614  1.00  0.00     0.012 C 
BRANCH  38  40
HETATM   40  C2  UNL     1      11.048  20.691  20.673  1.00  0.00     0.002 C 
HETATM   41  C1  UNL     1      10.104  21.535  21.473  1.00  0.00     0.005 C 
ENDBRANCH  38  40
ENDBRANCH   1  38
TORSDOF 14
ENDMDL
MODEL 3
REMARK VINA RESULT: -8.549231241      0.712      1.064
REMARK  14 active torsions:
REMARK  status: ('A' for Active; 'I' for Inactive)
REMARK    1  A    between atoms: C2_2  and  C3_3 
REMARK    2  A    between atoms: C3_3  and  C5_5 
REMARK    3  A    between atoms: C7_10  and  C8_11 
REMARK    4  A    between atoms: C8_11  and  C9_12 
REMARK    5  A    between atoms: C9_12  and  C10_13 
REMARK    6  A    between atoms: C10_13  and  C11_14 
REMARK    7  A    between atoms: C11_14  and  C12_15 
REMARK    8  A    between atoms: C12_15  and  C13_16 
REMARK    9  A    between atoms: C13_16  and  C14_18 
REMARK   10  A    between atoms: C14_18  and  C15_19 
REMARK   11  A    between atoms: C15_19  and  C19_25 
REMARK   12  A    between atoms: C16_20  and  C17_21 
REMARK   13  A    between atoms: C17_21  and  O4_23 
REMARK   14  A    between atoms: C24_30  and  O5_31 
ROOT
HETATM    1  C5  UNL     1      15.040  21.674  15.786  1.00  0.00     0.181 C 
HETATM    2  N1  UNL     1      15.536  21.314  17.066  1.00  0.00    -0.347 N 
ATOM      3  H1  UNL     1      16.446  20.853  17.043  1.00  0.00     0.163 HD
HETATM    4  C6  UNL     1      15.014  21.473  18.353  1.00  0.00     0.223 C 
HETATM    5  O1  UNL     1      15.199  20.437  19.115  1.00  0.00    -0.273 OA
HETATM    6  C7  UNL     1      14.302  22.582  18.992  1.00  0.00     0.085 C 
HETATM    7  C23 UNL     1      15.240  23.424  19.856  1.00  0.00     0.098 C 
HETATM    8  C24 UNL     1      15.891  24.533  19.177  1.00  0.00     0.126 C 
HETATM    9  N2  UNL     1      16.313  24.701  17.871  1.00  0.00    -0.251 N 
ATOM     10  H2  UNL     1      15.813  25.427  17.358  1.00  0.00     0.182 HD
HETATM   11  S1  UNL     1      17.526  23.908  16.964  1.00  0.00     0.327 S 
HETATM   12  O6  UNL     1      18.306  22.888  17.724  1.00  0.00    -0.182 OA
HETATM   13  O7  UNL     1      18.573  25.018  16.731  1.00  0.00    -0.182 OA
HETATM   14  N3  UNL     1      16.996  23.334  15.429  1.00  0.00    -0.235 N 
ATOM     15  H3  UNL     1      17.668  23.404  14.664  1.00  0.00     0.183 HD
HETATM   16  C25 UNL     1      15.744  22.781  15.109  1.00  0.00     0.255 C 
HETATM   17  O8  UNL     1      15.131  23.291  14.111  1.00  0.00    -0.270 OA
ENDROOT
BRANCH   6  18
HETATM   18  C8  UNL     1      13.383  23.389  18.152  1.00  0.00     0.014 C 
BRANCH  18  19
HETATM   19  C9  UNL     1      12.050  22.688  17.867  1.00  0.00     0.001 C 
BRANCH  19  20
HETATM   20  C10 UNL     1      11.826  21.648  18.929  1.00  0.00     0.000 C 
BRANCH  20  21
HETATM   21  C11 UNL     1      10.358  21.446  19.141  1.00  0.00     0.007 C 
BRANCH  21  22
HETATM   22  C12 UNL     1      10.009  20.471  20.229  1.00  0.00     0.078 C 
BRANCH  22  23
HETATM   23  C13 UNL     1       9.673  19.136  19.660  1.00  0.00     0.130 C 
HETATM   24  O2  UNL     1       9.881  18.155  20.335  1.00  0.00    -0.298 OA
BRANCH  23  25
HETATM   25  C14 UNL     1       9.103  19.008  18.313  1.00  0.00     0.113 C 
BRANCH  25  26
HETATM   26  C15 UNL     1       9.652  17.969  17.447  1.00  0.00    -0.060 C 
HETATM   27  C16 UNL     1       9.100  16.796  17.311  1.00  0.00     0.086 C 
BRANCH  27  28
HETATM   28  C17 UNL     1       7.903  16.312  17.953  1.00  0.00     0.282 C 
HETATM   29  O3  UNL     1       6.717  16.496  17.667  1.00  0.00    -0.260 OA
BRANCH  28  30
HETATM   30  O4  UNL     1       8.113  15.494  19.094  1.00  0.00    -0.323 OA
HETATM   31  C18 UNL     1       7.311  15.679  20.242  1.00  0.00     0.213 C 
ENDBRANCH  28  30
ENDBRANCH  27  28
BRANCH  26  32
HETATM   32  C19 UNL     1      10.895  18.269  16.669  1.00  0.00    -0.027 C 
HETATM   33  C20 UNL     1      11.050  17.311  15.508  1.00  0.00     0.019 C 
HETATM   34  C21 UNL     1      12.154  18.196  17.465  1.00  0.00     0.019 C 
HETATM   35  C22 UNL     1      10.796  19.666  16.042  1.00  0.00     0.019 C 
ENDBRANCH  26  32
ENDBRANCH  25  26
ENDBRANCH  23  25
ENDBRANCH  22  23
ENDBRANCH  21  22
ENDBRANCH  20  21
ENDBRANCH  19  20
ENDBRANCH  18  19
ENDBRANCH   6  18
BRANCH   8  36
HETATM   36  O5  UNL     1      16.116  25.562  19.950  1.00  0.00    -0.349 OA
ATOM     37  H5  UNL     1      16.275  26.368  19.473  1.00  0.00     0.219 HD
ENDBRANCH   8  36
BRANCH   1  38
HETATM   38  C3  UNL     1      14.807  20.517  14.851  1.00  0.00     0.013 C 
HETATM   39  C4  UNL     1      16.025  20.313  13.932  1.00  0.00     0.012 C 
BRANCH  38  40
HETATM   40  C2  UNL     1      13.615  20.529  13.989  1.00  0.00     0.002 C 
HETATM   41  C1  UNL     1      13.810  20.930  12.559  1.00  0.00     0.005 C 
ENDBRANCH  38  40
ENDBRANCH   1  38
TORSDOF 14
ENDMDL
MODEL 4
REMARK VINA RESULT: -8.514065715      1.175      2.306
REMARK  14 active torsions:
REMARK  status: ('A' for Active; 'I' for Inactive)
REMARK    1  A    between atoms: C2_2  and  C3_3 
REMARK    2  A    between atoms: C3_3  and  C5_5 
REMARK    3  A    between atoms: C7_10  and  C8_11 
REMARK    4  A    between atoms: C8_11  and  C9_12 
REMARK    5  A    between atoms: C9_12  and  C10_13 
REMARK    6  A    between atoms: C10_13  and  C11_14 
REMARK    7  A    between atoms: C11_14  and  C12_15 
REMARK    8  A    between atoms: C12_15  and  C13_16 
REMARK    9  A    between atoms: C13_16  and  C14_18 
REMARK   10  A    between atoms: C14_18  and  C15_19 
REMARK   11  A    between atoms: C15_19  and  C19_25 
REMARK   12  A    between atoms: C16_20  and  C17_21 
REMARK   13  A    between atoms: C17_21  and  O4_23 
REMARK   14  A    between atoms: C24_30  and  O5_31 
ROOT
HETATM    1  C5  UNL     1      15.085  21.781  15.829  1.00  0.00     0.181 C 
HETATM    2  N1  UNL     1      15.563  21.440  17.122  1.00  0.00    -0.347 N 
ATOM      3  H1  UNL     1      16.453  20.942  17.115  1.00  0.00     0.163 HD
HETATM    4  C6  UNL     1      15.043  21.658  18.400  1.00  0.00     0.223 C 
HETATM    5  O1  UNL     1      15.184  20.639  19.194  1.00  0.00    -0.273 OA
HETATM    6  C7  UNL     1      14.375  22.814  19.004  1.00  0.00     0.085 C 
HETATM    7  C23 UNL     1      15.343  23.642  19.847  1.00  0.00     0.098 C 
HETATM    8  C24 UNL     1      16.040  24.703  19.138  1.00  0.00     0.126 C 
HETATM    9  N2  UNL     1      16.473  24.815  17.829  1.00  0.00    -0.251 N 
ATOM     10  H2  UNL     1      16.005  25.545  17.293  1.00  0.00     0.182 HD
HETATM   11  S1  UNL     1      17.656  23.947  16.950  1.00  0.00     0.327 S 
HETATM   12  O6  UNL     1      18.391  22.920  17.744  1.00  0.00    -0.182 OA
HETATM   13  O7  UNL     1      18.748  25.006  16.690  1.00  0.00    -0.182 OA
HETATM   14  N3  UNL     1      17.108  23.350  15.431  1.00  0.00    -0.235 N 
ATOM     15  H3  UNL     1      17.784  23.370  14.668  1.00  0.00     0.183 HD
HETATM   16  C25 UNL     1      15.835  22.839  15.123  1.00  0.00     0.255 C 
HETATM   17  O8  UNL     1      15.246  23.343  14.107  1.00  0.00    -0.270 OA
ENDROOT
BRANCH   6  18
HETATM   18  C8  UNL     1      13.491  23.631  18.136  1.00  0.00     0.014 C 
BRANCH  18  19
HETATM   19  C9  UNL     1      12.305  22.846  17.567  1.00  0.00     0.001 C 
BRANCH  19  20
HETATM   20  C10 UNL     1      11.721  22.006  18.669  1.00  0.00     0.000 C 
BRANCH  20  21
HETATM   21  C11 UNL     1      11.090  20.778  18.091  1.00  0.00     0.007 C 
BRANCH  21  22
HETATM   22  C12 UNL     1      12.040  19.641  17.843  1.00  0.00     0.078 C 
BRANCH  22  23
HETATM   23  C13 UNL     1      11.335  18.483  17.227  1.00  0.00     0.130 C 
HETATM   24  O2  UNL     1      11.831  17.385  17.333  1.00  0.00    -0.298 OA
BRANCH  23  25
HETATM   25  C14 UNL     1      10.068  18.662  16.507  1.00  0.00     0.113 C 
BRANCH  25  26
HETATM   26  C15 UNL     1       9.038  17.645  16.695  1.00  0.00    -0.060 C 
HETATM   27  C16 UNL     1       8.365  17.516  17.804  1.00  0.00     0.086 C 
BRANCH  27  28
HETATM   28  C17 UNL     1       8.492  18.306  19.002  1.00  0.00     0.282 C 
HETATM   29  O3  UNL     1       7.984  19.391  19.298  1.00  0.00    -0.260 OA
BRANCH  28  30
HETATM   30  O4  UNL     1       9.332  17.757  20.006  1.00  0.00    -0.323 OA
HETATM   31  C18 UNL     1       9.955  18.615  20.940  1.00  0.00     0.213 C 
ENDBRANCH  28  30
ENDBRANCH  27  28
BRANCH  26  32
HETATM   32  C19 UNL     1       8.733  16.719  15.560  1.00  0.00    -0.027 C 
HETATM   33  C20 UNL     1       8.259  15.376  16.072  1.00  0.00     0.019 C 
HETATM   34  C21 UNL     1       9.885  16.456  14.650  1.00  0.00     0.019 C 
HETATM   35  C22 UNL     1       7.571  17.277  14.727  1.00  0.00     0.019 C 
ENDBRANCH  26  32
ENDBRANCH  25  26
ENDBRANCH  23  25
ENDBRANCH  22  23
ENDBRANCH  21  22
ENDBRANCH  20  21
ENDBRANCH  19  20
ENDBRANCH  18  19
ENDBRANCH   6  18
BRANCH   8  36
HETATM   36  O5  UNL     1      16.305  25.744  19.880  1.00  0.00    -0.349 OA
ATOM     37  H5  UNL     1      16.207  26.572  19.424  1.00  0.00     0.219 HD
ENDBRANCH   8  36
BRANCH   1  38
HETATM   38  C3  UNL     1      14.808  20.608  14.928  1.00  0.00     0.013 C 
HETATM   39  C4  UNL     1      15.969  20.402  13.938  1.00  0.00     0.012 C 
BRANCH  38  40
HETATM   40  C2  UNL     1      13.565  20.594  14.140  1.00  0.00     0.002 C 
HETATM   41  C1  UNL     1      13.670  20.958  12.692  1.00  0.00     0.005 C 
ENDBRANCH  38  40
ENDBRANCH   1  38
TORSDOF 14
ENDMDL
MODEL 5
REMARK VINA RESULT: -8.392243839      3.447      9.228
REMARK  14 active torsions:
REMARK  status: ('A' for Active; 'I' for Inactive)
REMARK    1  A    between atoms: C2_2  and  C3_3 
REMARK    2  A    between atoms: C3_3  and  C5_5 
REMARK    3  A    between atoms: C7_10  and  C8_11 
REMARK    4  A    between atoms: C8_11  and  C9_12 
REMARK    5  A    between atoms: C9_12  and  C10_13 
REMARK    6  A    between atoms: C10_13  and  C11_14 
REMARK    7  A    between atoms: C11_14  and  C12_15 
REMARK    8  A    between atoms: C12_15  and  C13_16 
REMARK    9  A    between atoms: C13_16  and  C14_18 
REMARK   10  A    between atoms: C14_18  and  C15_19 
REMARK   11  A    between atoms: C15_19  and  C19_25 
REMARK   12  A    between atoms: C16_20  and  C17_21 
REMARK   13  A    between atoms: C17_21  and  O4_23 
REMARK   14  A    between atoms: C24_30  and  O5_31 
ROOT
HETATM    1  C5  UNL     1      10.005  18.835  19.178  1.00  0.00     0.181 C 
HETATM    2  N1  UNL     1      10.686  17.749  18.566  1.00  0.00    -0.347 N 
ATOM      3  H1  UNL     1      10.660  16.886  19.110  1.00  0.00     0.163 HD
HETATM    4  C6  UNL     1      11.384  17.640  17.360  1.00  0.00     0.223 C 
HETATM    5  O1  UNL     1      12.475  16.942  17.459  1.00  0.00    -0.273 OA
HETATM    6  C7  UNL     1      11.113  18.164  16.020  1.00  0.00     0.085 C 
HETATM    7  C23 UNL     1      10.479  17.103  15.122  1.00  0.00     0.098 C 
HETATM    8  C24 UNL     1       9.026  17.049  15.146  1.00  0.00     0.126 C 
HETATM    9  N2  UNL     1       8.105  17.312  16.143  1.00  0.00    -0.251 N 
ATOM     10  H2  UNL     1       7.502  18.114  15.957  1.00  0.00     0.182 HD
HETATM   11  S1  UNL     1       7.797  16.533  17.634  1.00  0.00     0.327 S 
HETATM   12  O6  UNL     1       8.630  15.321  17.886  1.00  0.00    -0.182 OA
HETATM   13  O7  UNL     1       6.391  15.928  17.430  1.00  0.00    -0.182 OA
HETATM   14  N3  UNL     1       7.737  17.596  18.986  1.00  0.00    -0.235 N 
ATOM     15  H3  UNL     1       7.046  17.376  19.704  1.00  0.00     0.183 HD
HETATM   16  C25 UNL     1       8.532  18.732  19.215  1.00  0.00     0.255 C 
HETATM   17  O8  UNL     1       7.915  19.816  19.493  1.00  0.00    -0.270 OA
ENDROOT
BRANCH   6  18
HETATM   18  C8  UNL     1      10.465  19.496  15.916  1.00  0.00     0.014 C 
BRANCH  18  19
HETATM   19  C9  UNL     1      11.448  20.661  16.068  1.00  0.00     0.001 C 
BRANCH  19  20
HETATM   20  C10 UNL     1      12.792  20.217  15.562  1.00  0.00     0.000 C 
BRANCH  20  21
HETATM   21  C11 UNL     1      13.227  21.097  14.434  1.00  0.00     0.007 C 
BRANCH  21  22
HETATM   22  C12 UNL     1      14.698  21.052  14.133  1.00  0.00     0.078 C 
BRANCH  22  23
HETATM   23  C13 UNL     1      15.499  21.381  15.345  1.00  0.00     0.130 C 
HETATM   24  O2  UNL     1      16.227  20.530  15.801  1.00  0.00    -0.298 OA
BRANCH  23  25
HETATM   25  C14 UNL     1      15.410  22.703  15.977  1.00  0.00     0.113 C 
BRANCH  25  26
HETATM   26  C15 UNL     1      15.790  22.803  17.383  1.00  0.00    -0.060 C 
HETATM   27  C16 UNL     1      17.004  23.081  17.770  1.00  0.00     0.086 C 
BRANCH  27  28
HETATM   28  C17 UNL     1      18.153  23.331  16.937  1.00  0.00     0.282 C 
HETATM   29  O3  UNL     1      18.869  22.544  16.312  1.00  0.00    -0.260 OA
BRANCH  28  30
HETATM   30  O4  UNL     1      18.527  24.694  16.811  1.00  0.00    -0.323 OA
HETATM   31  C18 UNL     1      18.365  25.568  17.910  1.00  0.00     0.213 C 
ENDBRANCH  28  30
ENDBRANCH  27  28
BRANCH  26  32
HETATM   32  C19 UNL     1      14.737  22.592  18.425  1.00  0.00    -0.027 C 
HETATM   33  C20 UNL     1      15.084  23.329  19.700  1.00  0.00     0.019 C 
HETATM   34  C21 UNL     1      14.512  21.165  18.795  1.00  0.00     0.019 C 
HETATM   35  C22 UNL     1      13.405  23.188  17.952  1.00  0.00     0.019 C 
ENDBRANCH  26  32
ENDBRANCH  25  26
ENDBRANCH  23  25
ENDBRANCH  22  23
ENDBRANCH  21  22
ENDBRANCH  20  21
ENDBRANCH  19  20
ENDBRANCH  18  19
ENDBRANCH   6  18
BRANCH   8  36
HETATM   36  O5  UNL     1       8.495  16.682  14.010  1.00  0.00    -0.349 OA
ATOM     37  H5  UNL     1       7.982  15.885  14.069  1.00  0.00     0.219 HD
ENDBRANCH   8  36
BRANCH   1  38
HETATM   38  C3  UNL     1      10.562  19.259  20.510  1.00  0.00     0.013 C 
HETATM   39  C4  UNL     1       9.745  18.638  21.658  1.00  0.00     0.012 C 
BRANCH  38  40
HETATM   40  C2  UNL     1      10.690  20.696  20.802  1.00  0.00     0.002 C 
HETATM   41  C1  UNL     1      10.873  21.616  19.635  1.00  0.00     0.005 C 
ENDBRANCH  38  40
ENDBRANCH   1  38
TORSDOF 14
ENDMDL
