MODEL 1
REMARK VINA RESULT: -8.771173694      0.000      0.000
REMARK  12 active torsions:
REMARK  status: ('A' for Active; 'I' for Inactive)
REMARK    1  A    between atoms: C2_2  and  C4_4 
REMARK    2  A    between atoms: C4_4  and  C5_5 
REMARK    3  A    between atoms: C8_11  and  C9_12 
REMARK    4  A    between atoms: C13_19  and  C14_20 
REMARK    5  A    between atoms: N3_25  and  C18_26 
REMARK    6  A    between atoms: C18_26  and  C19_27 
REMARK    7  A    between atoms: C23_34  and  C24_35 
REMARK    8  A    between atoms: C24_35  and  C25_36 
REMARK    9  A    between atoms: C25_36  and  C26_37 
REMARK   10  A    between atoms: C26_37  and  N5_38 
REMARK   11  A    between atoms: C29_47  and  C30_48 
REMARK   12  A    between atoms: C30_48  and  C31_49 
ROOT
HETATM    1  C5  UNL     1      -1.941   5.255   8.219  1.00  0.00     0.093 C 
HETATM    2  C6  UNL     1      -2.680   4.003   8.668  1.00  0.00     0.128 C 
HETATM    3  C7  UNL     1      -3.567   4.207   9.823  1.00  0.00     0.220 C 
HETATM    4  O1  UNL     1      -3.273   5.192  10.599  1.00  0.00    -0.274 OA
HETATM    5  N1  UNL     1      -4.691   3.478  10.200  1.00  0.00    -0.347 N 
ATOM      6  H1  UNL     1      -5.567   4.000  10.227  1.00  0.00     0.163 HD
HETATM    7  C8  UNL     1      -4.786   2.067  10.561  1.00  0.00     0.180 C 
HETATM    8  C12 UNL     1      -5.887   1.368   9.857  1.00  0.00     0.241 C 
HETATM    9  O2  UNL     1      -7.064   1.579  10.348  1.00  0.00    -0.271 OA
HETATM   10  N2  UNL     1      -5.776   0.518   8.739  1.00  0.00    -0.346 N 
ATOM     11  H2  UNL     1      -6.130  -0.431   8.860  1.00  0.00     0.163 HD
HETATM   12  C13 UNL     1      -5.222   0.829   7.445  1.00  0.00     0.180 C 
HETATM   13  C17 UNL     1      -6.382   0.738   6.488  1.00  0.00     0.244 C 
HETATM   14  O3  UNL     1      -6.513  -0.338   5.814  1.00  0.00    -0.271 OA
HETATM   15  N3  UNL     1      -7.345   1.730   6.262  1.00  0.00    -0.326 N 
HETATM   16  C22 UNL     1      -7.019   3.170   6.237  1.00  0.00     0.360 C 
HETATM   17  N4  UNL     1      -6.029   3.378   5.249  1.00  0.00    -0.046 N 
ATOM     18  H41 UNL     1      -6.268   2.870   4.397  1.00  0.00     0.280 HD
ATOM     19  H42 UNL     1      -5.167   2.897   5.506  1.00  0.00     0.280 HD
HETATM   20  C23 UNL     1      -5.754   4.791   4.940  1.00  0.00     0.279 C 
HETATM   21  C28 UNL     1      -4.282   4.978   5.033  1.00  0.00     0.249 C 
HETATM   22  O4  UNL     1      -3.579   3.904   4.941  1.00  0.00    -0.271 OA
HETATM   23  N8  UNL     1      -3.545   6.143   5.201  1.00  0.00    -0.346 N 
ATOM     24  H8  UNL     1      -2.747   6.234   4.572  1.00  0.00     0.163 HD
HETATM   25  C29 UNL     1      -3.716   7.238   6.110  1.00  0.00     0.177 C 
HETATM   26  C34 UNL     1      -3.774   6.898   7.533  1.00  0.00     0.240 C 
HETATM   27  O5  UNL     1      -4.924   7.036   8.096  1.00  0.00    -0.271 OA
HETATM   28  N9  UNL     1      -2.748   6.441   8.382  1.00  0.00    -0.354 N 
ATOM     29  H9  UNL     1      -2.554   7.011   9.204  1.00  0.00     0.162 HD
ENDROOT
BRANCH  20  30
HETATM   30  C24 UNL     1      -6.215   4.921   3.488  1.00  0.00     0.044 C 
BRANCH  30  31
HETATM   31  C25 UNL     1      -6.656   3.645   2.866  1.00  0.00     0.022 C 
BRANCH  31  32
HETATM   32  C26 UNL     1      -7.943   3.771   2.067  1.00  0.00     0.122 C 
BRANCH  32  33
HETATM   33  N5  UNL     1      -8.139   2.580   1.234  1.00  0.00    -0.367 N 
HETATM   34  C27 UNL     1      -9.262   2.322   0.673  1.00  0.00     0.196 C 
HETATM   35  N6  UNL     1     -10.338   3.254   0.892  1.00  0.00    -0.067 NA
HETATM   36  N7  UNL     1      -9.517   1.205  -0.132  1.00  0.00    -0.067 NA
ATOM     37  H5  UNL     1      -7.358   1.938   1.097  1.00  0.00     0.161 HD
ENDBRANCH  32  33
ENDBRANCH  31  32
ENDBRANCH  30  31
ENDBRANCH  20  30
BRANCH  15  38
HETATM   38  C18 UNL     1      -8.721   1.311   6.068  1.00  0.00     0.131 C 
BRANCH  38  39
HETATM   39  C19 UNL     1      -9.260   1.513   4.695  1.00  0.00    -0.005 C 
HETATM   40  C20 UNL     1      -9.653   0.127   4.142  1.00  0.00     0.011 C 
HETATM   41  C21 UNL     1     -10.495   2.359   4.614  1.00  0.00     0.011 C 
ENDBRANCH  38  39
ENDBRANCH  15  38
BRANCH  25  42
HETATM   42  C30 UNL     1      -2.649   8.303   5.821  1.00  0.00     0.038 C 
BRANCH  42  43
HETATM   43  C31 UNL     1      -3.220   9.663   5.695  1.00  0.00    -0.020 C 
HETATM   44  C32 UNL     1      -3.069  10.507   6.938  1.00  0.00     0.009 C 
HETATM   45  C33 UNL     1      -4.697   9.539   5.393  1.00  0.00     0.009 C 
ENDBRANCH  42  43
ENDBRANCH  25  42
BRANCH  12  46
HETATM   46  C14 UNL     1      -4.173  -0.194   7.093  1.00  0.00     0.009 C 
HETATM   47  C15 UNL     1      -2.763   0.272   7.177  1.00  0.00     0.012 C 
HETATM   48  C16 UNL     1      -4.312  -1.409   8.034  1.00  0.00     0.012 C 
ENDBRANCH  12  46
BRANCH   1  49
HETATM   49  C4  UNL     1      -0.657   5.285   8.948  1.00  0.00     0.029 C 
BRANCH  49  50
HETATM   50  C2  UNL     1      -0.270   6.498   9.700  1.00  0.00    -0.021 C 
HETATM   51  C1  UNL     1       0.518   6.232  10.962  1.00  0.00     0.009 C 
HETATM   52  C3  UNL     1       0.244   7.658   8.896  1.00  0.00     0.009 C 
ENDBRANCH  49  50
ENDBRANCH   1  49
BRANCH   7  53
HETATM   53  C9  UNL     1      -3.486   1.343  10.563  1.00  0.00     0.009 C 
HETATM   54  C10 UNL     1      -3.796  -0.088  11.015  1.00  0.00     0.012 C 
HETATM   55  C11 UNL     1      -2.605   1.938  11.654  1.00  0.00     0.012 C 
ENDBRANCH   7  53
TORSDOF 12
ENDMDL
MODEL 2
REMARK VINA RESULT: -8.689629447      1.575      1.864
REMARK  12 active torsions:
REMARK  status: ('A' for Active; 'I' for Inactive)
REMARK    1  A    between atoms: C2_2  and  C4_4 
REMARK    2  A    between atoms: C4_4  and  C5_5 
REMARK    3  A    between atoms: C8_11  and  C9_12 
REMARK    4  A    between atoms: C13_19  and  C14_20 
REMARK    5  A    between atoms: N3_25  and  C18_26 
REMARK    6  A    between atoms: C18_26  and  C19_27 
REMARK    7  A    between atoms: C23_34  and  C24_35 
REMARK    8  A    between atoms: C24_35  and  C25_36 
REMARK    9  A    between atoms: C25_36  and  C26_37 
REMARK   10  A    between atoms: C26_37  and  N5_38 
REMARK   11  A    between atoms: C29_47  and  C30_48 
REMARK   12  A    between atoms: C30_48  and  C31_49 
ROOT
HETATM    1  C5  UNL     1      -1.930   5.119   8.306  1.00  0.00     0.093 C 
HETATM    2  C6  UNL     1      -2.669   3.877   8.781  1.00  0.00     0.128 C 
HETATM    3  C7  UNL     1      -3.538   4.100   9.946  1.00  0.00     0.220 C 
HETATM    4  O1  UNL     1      -3.228   5.093  10.706  1.00  0.00    -0.274 OA
HETATM    5  N1  UNL     1      -4.661   3.382  10.348  1.00  0.00    -0.347 N 
ATOM      6  H1  UNL     1      -5.533   3.909  10.382  1.00  0.00     0.163 HD
HETATM    7  C8  UNL     1      -4.758   1.977  10.728  1.00  0.00     0.180 C 
HETATM    8  C12 UNL     1      -5.872   1.275  10.050  1.00  0.00     0.241 C 
HETATM    9  O2  UNL     1      -7.041   1.498  10.554  1.00  0.00    -0.271 OA
HETATM   10  N2  UNL     1      -5.782   0.411   8.941  1.00  0.00    -0.346 N 
ATOM     11  H2  UNL     1      -6.140  -0.535   9.078  1.00  0.00     0.163 HD
HETATM   12  C13 UNL     1      -5.245   0.702   7.634  1.00  0.00     0.180 C 
HETATM   13  C17 UNL     1      -6.420   0.606   6.696  1.00  0.00     0.244 C 
HETATM   14  O3  UNL     1      -6.566  -0.478   6.037  1.00  0.00    -0.271 OA
HETATM   15  N3  UNL     1      -7.380   1.601   6.471  1.00  0.00    -0.326 N 
HETATM   16  C22 UNL     1      -7.048   3.038   6.424  1.00  0.00     0.360 C 
HETATM   17  N4  UNL     1      -6.071   3.229   5.419  1.00  0.00    -0.046 N 
ATOM     18  H41 UNL     1      -6.324   2.711   4.577  1.00  0.00     0.280 HD
ATOM     19  H42 UNL     1      -5.208   2.746   5.669  1.00  0.00     0.280 HD
HETATM   20  C23 UNL     1      -5.793   4.636   5.089  1.00  0.00     0.279 C 
HETATM   21  C28 UNL     1      -4.318   4.816   5.158  1.00  0.00     0.249 C 
HETATM   22  O4  UNL     1      -3.623   3.737   5.069  1.00  0.00    -0.271 OA
HETATM   23  N8  UNL     1      -3.573   5.978   5.301  1.00  0.00    -0.346 N 
ATOM     24  H8  UNL     1      -2.783   6.058   4.660  1.00  0.00     0.163 HD
HETATM   25  C29 UNL     1      -3.724   7.086   6.198  1.00  0.00     0.177 C 
HETATM   26  C34 UNL     1      -3.764   6.764   7.626  1.00  0.00     0.240 C 
HETATM   27  O5  UNL     1      -4.905   6.915   8.204  1.00  0.00    -0.271 OA
HETATM   28  N9  UNL     1      -2.729   6.311   8.466  1.00  0.00    -0.354 N 
ATOM     29  H9  UNL     1      -2.519   6.891   9.278  1.00  0.00     0.162 HD
ENDROOT
BRANCH  20  30
HETATM   30  C24 UNL     1      -6.274   4.750   3.642  1.00  0.00     0.044 C 
BRANCH  30  31
HETATM   31  C25 UNL     1      -7.751   4.742   3.482  1.00  0.00     0.022 C 
BRANCH  31  32
HETATM   32  C26 UNL     1      -8.373   6.129   3.510  1.00  0.00     0.122 C 
BRANCH  32  33
HETATM   33  N5  UNL     1      -7.732   6.990   2.510  1.00  0.00    -0.367 N 
HETATM   34  C27 UNL     1      -8.286   8.065   2.085  1.00  0.00     0.196 C 
HETATM   35  N6  UNL     1      -9.576   8.402   2.631  1.00  0.00    -0.067 NA
HETATM   36  N7  UNL     1      -7.730   8.929   1.134  1.00  0.00    -0.067 NA
ATOM     37  H5  UNL     1      -6.818   6.725   2.142  1.00  0.00     0.161 HD
ENDBRANCH  32  33
ENDBRANCH  31  32
ENDBRANCH  30  31
ENDBRANCH  20  30
BRANCH  15  38
HETATM   38  C18 UNL     1      -8.762   1.186   6.303  1.00  0.00     0.131 C 
BRANCH  38  39
HETATM   39  C19 UNL     1      -9.459   1.765   5.120  1.00  0.00    -0.005 C 
HETATM   40  C20 UNL     1      -8.915   1.048   3.866  1.00  0.00     0.011 C 
HETATM   41  C21 UNL     1     -10.945   1.569   5.099  1.00  0.00     0.011 C 
ENDBRANCH  38  39
ENDBRANCH  15  38
BRANCH  25  42
HETATM   42  C30 UNL     1      -2.657   8.141   5.881  1.00  0.00     0.038 C 
BRANCH  42  43
HETATM   43  C31 UNL     1      -3.226   9.497   5.711  1.00  0.00    -0.020 C 
HETATM   44  C32 UNL     1      -2.957  10.424   6.872  1.00  0.00     0.009 C 
HETATM   45  C33 UNL     1      -4.726   9.372   5.553  1.00  0.00     0.009 C 
ENDBRANCH  42  43
ENDBRANCH  25  42
BRANCH  12  46
HETATM   46  C14 UNL     1      -4.207  -0.330   7.281  1.00  0.00     0.009 C 
HETATM   47  C15 UNL     1      -2.795   0.133   7.322  1.00  0.00     0.012 C 
HETATM   48  C16 UNL     1      -4.327  -1.525   8.249  1.00  0.00     0.012 C 
ENDBRANCH  12  46
BRANCH   1  49
HETATM   49  C4  UNL     1      -0.636   5.151   9.016  1.00  0.00     0.029 C 
BRANCH  49  50
HETATM   50  C2  UNL     1      -0.246   6.359   9.775  1.00  0.00    -0.021 C 
HETATM   51  C1  UNL     1       0.654   6.095  10.961  1.00  0.00     0.009 C 
HETATM   52  C3  UNL     1       0.147   7.566   8.971  1.00  0.00     0.009 C 
ENDBRANCH  49  50
ENDBRANCH   1  49
BRANCH   7  53
HETATM   53  C9  UNL     1      -3.462   1.246  10.721  1.00  0.00     0.009 C 
HETATM   54  C10 UNL     1      -3.773  -0.178  11.197  1.00  0.00     0.012 C 
HETATM   55  C11 UNL     1      -2.561   1.850  11.791  1.00  0.00     0.012 C 
ENDBRANCH   7  53
TORSDOF 12
ENDMDL
MODEL 3
REMARK VINA RESULT: -8.471596332      2.400      6.902
REMARK  12 active torsions:
REMARK  status: ('A' for Active; 'I' for Inactive)
REMARK    1  A    between atoms: C2_2  and  C4_4 
REMARK    2  A    between atoms: C4_4  and  C5_5 
REMARK    3  A    between atoms: C8_11  and  C9_12 
REMARK    4  A    between atoms: C13_19  and  C14_20 
REMARK    5  A    between atoms: N3_25  and  C18_26 
REMARK    6  A    between atoms: C18_26  and  C19_27 
REMARK    7  A    between atoms: C23_34  and  C24_35 
REMARK    8  A    between atoms: C24_35  and  C25_36 
REMARK    9  A    between atoms: C25_36  and  C26_37 
REMARK   10  A    between atoms: C26_37  and  N5_38 
REMARK   11  A    between atoms: C29_47  and  C30_48 
REMARK   12  A    between atoms: C30_48  and  C31_49 
ROOT
HETATM    1  C5  UNL     1      -4.209   3.030   8.652  1.00  0.00     0.093 C 
HETATM    2  C6  UNL     1      -4.977   3.859   7.633  1.00  0.00     0.128 C 
HETATM    3  C7  UNL     1      -4.175   4.289   6.478  1.00  0.00     0.220 C 
HETATM    4  O1  UNL     1      -2.904   4.369   6.666  1.00  0.00    -0.274 OA
HETATM    5  N1  UNL     1      -4.602   4.626   5.196  1.00  0.00    -0.347 N 
ATOM      6  H1  UNL     1      -4.235   4.045   4.442  1.00  0.00     0.163 HD
HETATM    7  C8  UNL     1      -5.502   5.698   4.786  1.00  0.00     0.180 C 
HETATM    8  C12 UNL     1      -6.562   5.234   3.860  1.00  0.00     0.241 C 
HETATM    9  O2  UNL     1      -6.180   5.077   2.635  1.00  0.00    -0.271 OA
HETATM   10  N2  UNL     1      -7.906   4.957   4.177  1.00  0.00    -0.346 N 
ATOM     11  H2  UNL     1      -8.607   5.493   3.665  1.00  0.00     0.163 HD
HETATM   12  C13 UNL     1      -8.410   4.008   5.138  1.00  0.00     0.180 C 
HETATM   13  C17 UNL     1      -9.147   2.978   4.325  1.00  0.00     0.244 C 
HETATM   14  O3  UNL     1     -10.417   3.080   4.245  1.00  0.00    -0.271 OA
HETATM   15  N3  UNL     1      -8.570   1.902   3.637  1.00  0.00    -0.326 N 
HETATM   16  C22 UNL     1      -7.425   1.135   4.166  1.00  0.00     0.360 C 
HETATM   17  N4  UNL     1      -7.792   0.616   5.429  1.00  0.00    -0.046 N 
ATOM     18  H41 UNL     1      -8.730   0.216   5.388  1.00  0.00     0.280 HD
ATOM     19  H42 UNL     1      -7.954   1.376   6.090  1.00  0.00     0.280 HD
HETATM   20  C23 UNL     1      -6.844  -0.359   5.994  1.00  0.00     0.279 C 
HETATM   21  C28 UNL     1      -6.536   0.086   7.379  1.00  0.00     0.249 C 
HETATM   22  O4  UNL     1      -7.390   0.891   7.907  1.00  0.00    -0.271 OA
HETATM   23  N8  UNL     1      -5.461  -0.239   8.195  1.00  0.00    -0.346 N 
ATOM     24  H8  UNL     1      -5.715  -0.489   9.151  1.00  0.00     0.163 HD
HETATM   25  C29 UNL     1      -4.054  -0.282   7.922  1.00  0.00     0.177 C 
HETATM   26  C34 UNL     1      -3.459   0.943   7.383  1.00  0.00     0.240 C 
HETATM   27  O5  UNL     1      -3.090   0.891   6.151  1.00  0.00    -0.271 OA
HETATM   28  N9  UNL     1      -3.231   2.177   8.021  1.00  0.00    -0.354 N 
ATOM     29  H9  UNL     1      -2.265   2.504   8.039  1.00  0.00     0.162 HD
ENDROOT
BRANCH  20  30
HETATM   30  C24 UNL     1      -7.660  -1.652   6.022  1.00  0.00     0.044 C 
BRANCH  30  31
HETATM   31  C25 UNL     1      -9.103  -1.464   6.325  1.00  0.00     0.022 C 
BRANCH  31  32
HETATM   32  C26 UNL     1      -9.556  -2.176   7.589  1.00  0.00     0.122 C 
BRANCH  32  33
HETATM   33  N5  UNL     1      -8.528  -2.061   8.630  1.00  0.00    -0.367 N 
HETATM   34  C27 UNL     1      -8.688  -1.317   9.661  1.00  0.00     0.196 C 
HETATM   35  N6  UNL     1      -9.927  -0.590   9.764  1.00  0.00    -0.067 NA
HETATM   36  N7  UNL     1      -7.750  -1.161  10.688  1.00  0.00    -0.067 NA
ATOM     37  H5  UNL     1      -7.660  -2.587   8.529  1.00  0.00     0.161 HD
ENDBRANCH  32  33
ENDBRANCH  31  32
ENDBRANCH  30  31
ENDBRANCH  20  30
BRANCH  15  38
HETATM   38  C18 UNL     1      -9.117   1.553   2.338  1.00  0.00     0.131 C 
BRANCH  38  39
HETATM   39  C19 UNL     1      -8.802   2.508   1.239  1.00  0.00    -0.005 C 
HETATM   40  C20 UNL     1      -7.355   2.225   0.781  1.00  0.00     0.011 C 
HETATM   41  C21 UNL     1      -9.658   2.375   0.016  1.00  0.00     0.011 C 
ENDBRANCH  38  39
ENDBRANCH  15  38
BRANCH  25  42
HETATM   42  C30 UNL     1      -3.314  -0.773   9.173  1.00  0.00     0.038 C 
BRANCH  42  43
HETATM   43  C31 UNL     1      -3.986  -0.370  10.429  1.00  0.00    -0.020 C 
HETATM   44  C32 UNL     1      -3.186   0.598  11.268  1.00  0.00     0.009 C 
HETATM   45  C33 UNL     1      -4.236  -1.609  11.260  1.00  0.00     0.009 C 
ENDBRANCH  42  43
ENDBRANCH  25  42
BRANCH  12  46
HETATM   46  C14 UNL     1      -9.357   4.707   6.079  1.00  0.00     0.009 C 
HETATM   47  C15 UNL     1      -8.831   4.977   7.443  1.00  0.00     0.012 C 
HETATM   48  C16 UNL     1      -9.770   6.063   5.470  1.00  0.00     0.012 C 
ENDBRANCH  12  46
BRANCH   1  49
HETATM   49  C4  UNL     1      -3.650   3.972   9.643  1.00  0.00     0.029 C 
BRANCH  49  50
HETATM   50  C2  UNL     1      -2.184   4.137   9.751  1.00  0.00    -0.021 C 
HETATM   51  C1  UNL     1      -1.700   5.565   9.638  1.00  0.00     0.009 C 
HETATM   52  C3  UNL     1      -1.490   3.344  10.822  1.00  0.00     0.009 C 
ENDBRANCH  49  50
ENDBRANCH   1  49
BRANCH   7  53
HETATM   53  C9  UNL     1      -5.980   6.561   5.900  1.00  0.00     0.009 C 
HETATM   54  C10 UNL     1      -6.842   7.652   5.253  1.00  0.00     0.012 C 
HETATM   55  C11 UNL     1      -4.780   7.286   6.497  1.00  0.00     0.012 C 
ENDBRANCH   7  53
TORSDOF 12
ENDMDL
MODEL 4
REMARK VINA RESULT: -8.333152312      1.627      2.310
REMARK  12 active torsions:
REMARK  status: ('A' for Active; 'I' for Inactive)
REMARK    1  A    between atoms: C2_2  and  C4_4 
REMARK    2  A    between atoms: C4_4  and  C5_5 
REMARK    3  A    between atoms: C8_11  and  C9_12 
REMARK    4  A    between atoms: C13_19  and  C14_20 
REMARK    5  A    between atoms: N3_25  and  C18_26 
REMARK    6  A    between atoms: C18_26  and  C19_27 
REMARK    7  A    between atoms: C23_34  and  C24_35 
REMARK    8  A    between atoms: C24_35  and  C25_36 
REMARK    9  A    between atoms: C25_36  and  C26_37 
REMARK   10  A    between atoms: C26_37  and  N5_38 
REMARK   11  A    between atoms: C29_47  and  C30_48 
REMARK   12  A    between atoms: C30_48  and  C31_49 
ROOT
HETATM    1  C5  UNL     1      -1.951   5.208   8.339  1.00  0.00     0.093 C 
HETATM    2  C6  UNL     1      -2.645   3.942   8.821  1.00  0.00     0.128 C 
HETATM    3  C7  UNL     1      -3.536   4.144   9.973  1.00  0.00     0.220 C 
HETATM    4  O1  UNL     1      -3.275   5.158  10.723  1.00  0.00    -0.274 OA
HETATM    5  N1  UNL     1      -4.634   3.387  10.370  1.00  0.00    -0.347 N 
ATOM      6  H1  UNL     1      -5.528   3.879  10.387  1.00  0.00     0.163 HD
HETATM    7  C8  UNL     1      -4.680   1.983  10.767  1.00  0.00     0.180 C 
HETATM    8  C12 UNL     1      -5.757   1.229  10.084  1.00  0.00     0.241 C 
HETATM    9  O2  UNL     1      -6.940   1.412  10.572  1.00  0.00    -0.271 OA
HETATM   10  N2  UNL     1      -5.619   0.357   8.987  1.00  0.00    -0.346 N 
ATOM     11  H2  UNL     1      -5.941  -0.601   9.132  1.00  0.00     0.163 HD
HETATM   12  C13 UNL     1      -5.079   0.654   7.683  1.00  0.00     0.180 C 
HETATM   13  C17 UNL     1      -6.237   0.499   6.733  1.00  0.00     0.244 C 
HETATM   14  O3  UNL     1      -6.332  -0.597   6.085  1.00  0.00    -0.271 OA
HETATM   15  N3  UNL     1      -7.233   1.452   6.484  1.00  0.00    -0.326 N 
HETATM   16  C22 UNL     1      -6.958   2.901   6.423  1.00  0.00     0.360 C 
HETATM   17  N4  UNL     1      -5.977   3.118   5.427  1.00  0.00    -0.046 N 
ATOM     18  H41 UNL     1      -6.200   2.581   4.589  1.00  0.00     0.280 HD
ATOM     19  H42 UNL     1      -5.098   2.674   5.694  1.00  0.00     0.280 HD
HETATM   20  C23 UNL     1      -5.751   4.532   5.083  1.00  0.00     0.279 C 
HETATM   21  C28 UNL     1      -4.286   4.772   5.167  1.00  0.00     0.249 C 
HETATM   22  O4  UNL     1      -3.547   3.720   5.100  1.00  0.00    -0.271 OA
HETATM   23  N8  UNL     1      -3.589   5.964   5.305  1.00  0.00    -0.346 N 
ATOM     24  H8  UNL     1      -2.796   6.068   4.671  1.00  0.00     0.163 HD
HETATM   25  C29 UNL     1      -3.796   7.076   6.186  1.00  0.00     0.177 C 
HETATM   26  C34 UNL     1      -3.840   6.770   7.618  1.00  0.00     0.240 C 
HETATM   27  O5  UNL     1      -4.993   6.882   8.180  1.00  0.00    -0.271 OA
HETATM   28  N9  UNL     1      -2.797   6.368   8.475  1.00  0.00    -0.354 N 
ATOM     29  H9  UNL     1      -2.621   6.965   9.282  1.00  0.00     0.162 HD
ENDROOT
BRANCH  20  30
HETATM   30  C24 UNL     1      -6.219   4.609   3.629  1.00  0.00     0.044 C 
BRANCH  30  31
HETATM   31  C25 UNL     1      -7.685   4.791   3.463  1.00  0.00     0.022 C 
BRANCH  31  32
HETATM   32  C26 UNL     1      -8.113   6.248   3.403  1.00  0.00     0.122 C 
BRANCH  32  33
HETATM   33  N5  UNL     1      -8.537   6.704   4.731  1.00  0.00    -0.367 N 
HETATM   34  C27 UNL     1      -7.911   7.628   5.363  1.00  0.00     0.196 C 
HETATM   35  N6  UNL     1      -6.763   8.208   4.715  1.00  0.00    -0.067 NA
HETATM   36  N7  UNL     1      -8.261   8.108   6.631  1.00  0.00    -0.067 NA
ATOM     37  H5  UNL     1      -9.354   6.274   5.165  1.00  0.00     0.161 HD
ENDBRANCH  32  33
ENDBRANCH  31  32
ENDBRANCH  30  31
ENDBRANCH  20  30
BRANCH  15  38
HETATM   38  C18 UNL     1      -8.595   0.981   6.305  1.00  0.00     0.131 C 
BRANCH  38  39
HETATM   39  C19 UNL     1      -9.134   1.108   4.922  1.00  0.00    -0.005 C 
HETATM   40  C20 UNL     1      -9.637  -0.286   4.491  1.00  0.00     0.011 C 
HETATM   41  C21 UNL     1     -10.304   2.035   4.779  1.00  0.00     0.011 C 
ENDBRANCH  38  39
ENDBRANCH  15  38
BRANCH  25  42
HETATM   42  C30 UNL     1      -2.767   8.168   5.868  1.00  0.00     0.038 C 
BRANCH  42  43
HETATM   43  C31 UNL     1      -3.202   9.511   6.317  1.00  0.00    -0.020 C 
HETATM   44  C32 UNL     1      -3.823  10.350   5.227  1.00  0.00     0.009 C 
HETATM   45  C33 UNL     1      -1.996  10.254   6.847  1.00  0.00     0.009 C 
ENDBRANCH  42  43
ENDBRANCH  25  42
BRANCH  12  46
HETATM   46  C14 UNL     1      -3.996  -0.341   7.354  1.00  0.00     0.009 C 
HETATM   47  C15 UNL     1      -2.603   0.175   7.423  1.00  0.00     0.012 C 
HETATM   48  C16 UNL     1      -4.091  -1.536   8.325  1.00  0.00     0.012 C 
ENDBRANCH  12  46
BRANCH   1  49
HETATM   49  C4  UNL     1      -0.667   5.299   9.063  1.00  0.00     0.029 C 
BRANCH  49  50
HETATM   50  C2  UNL     1      -0.289   6.566   9.726  1.00  0.00    -0.021 C 
HETATM   51  C1  UNL     1       0.533   6.399  10.984  1.00  0.00     0.009 C 
HETATM   52  C3  UNL     1       0.183   7.681   8.837  1.00  0.00     0.009 C 
ENDBRANCH  49  50
ENDBRANCH   1  49
BRANCH   7  53
HETATM   53  C9  UNL     1      -3.356   1.304  10.783  1.00  0.00     0.009 C 
HETATM   54  C10 UNL     1      -3.620  -0.133  11.245  1.00  0.00     0.012 C 
HETATM   55  C11 UNL     1      -2.503   1.937  11.876  1.00  0.00     0.012 C 
ENDBRANCH   7  53
TORSDOF 12
ENDMDL
MODEL 5
REMARK VINA RESULT: -8.234334386      2.879      6.924
REMARK  12 active torsions:
REMARK  status: ('A' for Active; 'I' for Inactive)
REMARK    1  A    between atoms: C2_2  and  C4_4 
REMARK    2  A    between atoms: C4_4  and  C5_5 
REMARK    3  A    between atoms: C8_11  and  C9_12 
REMARK    4  A    between atoms: C13_19  and  C14_20 
REMARK    5  A    between atoms: N3_25  and  C18_26 
REMARK    6  A    between atoms: C18_26  and  C19_27 
REMARK    7  A    between atoms: C23_34  and  C24_35 
REMARK    8  A    between atoms: C24_35  and  C25_36 
REMARK    9  A    between atoms: C25_36  and  C26_37 
REMARK   10  A    between atoms: C26_37  and  N5_38 
REMARK   11  A    between atoms: C29_47  and  C30_48 
REMARK   12  A    between atoms: C30_48  and  C31_49 
ROOT
HETATM    1  C5  UNL     1      -4.208   2.946   8.658  1.00  0.00     0.093 C 
HETATM    2  C6  UNL     1      -4.972   3.776   7.637  1.00  0.00     0.128 C 
HETATM    3  C7  UNL     1      -4.169   4.198   6.480  1.00  0.00     0.220 C 
HETATM    4  O1  UNL     1      -2.896   4.272   6.667  1.00  0.00    -0.274 OA
HETATM    5  N1  UNL     1      -4.594   4.534   5.198  1.00  0.00    -0.347 N 
ATOM      6  H1  UNL     1      -4.231   3.949   4.445  1.00  0.00     0.163 HD
HETATM    7  C8  UNL     1      -5.488   5.610   4.785  1.00  0.00     0.180 C 
HETATM    8  C12 UNL     1      -6.551   5.149   3.860  1.00  0.00     0.241 C 
HETATM    9  O2  UNL     1      -6.171   4.987   2.636  1.00  0.00    -0.271 OA
HETATM   10  N2  UNL     1      -7.897   4.881   4.179  1.00  0.00    -0.346 N 
ATOM     11  H2  UNL     1      -8.595   5.418   3.666  1.00  0.00     0.163 HD
HETATM   12  C13 UNL     1      -8.405   3.937   5.143  1.00  0.00     0.180 C 
HETATM   13  C17 UNL     1      -9.149   2.908   4.333  1.00  0.00     0.244 C 
HETATM   14  O3  UNL     1     -10.419   3.018   4.254  1.00  0.00    -0.271 OA
HETATM   15  N3  UNL     1      -8.578   1.828   3.648  1.00  0.00    -0.326 N 
HETATM   16  C22 UNL     1      -7.437   1.056   4.179  1.00  0.00     0.360 C 
HETATM   17  N4  UNL     1      -7.806   0.542   5.443  1.00  0.00    -0.046 N 
ATOM     18  H41 UNL     1      -8.746   0.147   5.404  1.00  0.00     0.280 HD
ATOM     19  H42 UNL     1      -7.964   1.305   6.102  1.00  0.00     0.280 HD
HETATM   20  C23 UNL     1      -6.864  -0.437   6.010  1.00  0.00     0.279 C 
HETATM   21  C28 UNL     1      -6.552   0.010   7.394  1.00  0.00     0.249 C 
HETATM   22  O4  UNL     1      -7.401   0.822   7.920  1.00  0.00    -0.271 OA
HETATM   23  N8  UNL     1      -5.478  -0.318   8.211  1.00  0.00    -0.346 N 
ATOM     24  H8  UNL     1      -5.733  -0.564   9.168  1.00  0.00     0.163 HD
HETATM   25  C29 UNL     1      -4.072  -0.370   7.937  1.00  0.00     0.177 C 
HETATM   26  C34 UNL     1      -3.471   0.850   7.394  1.00  0.00     0.240 C 
HETATM   27  O5  UNL     1      -3.102   0.794   6.161  1.00  0.00    -0.271 OA
HETATM   28  N9  UNL     1      -3.235   2.085   8.029  1.00  0.00    -0.354 N 
ATOM     29  H9  UNL     1      -2.268   2.407   8.045  1.00  0.00     0.162 HD
ENDROOT
BRANCH  20  30
HETATM   30  C24 UNL     1      -7.687  -1.725   6.042  1.00  0.00     0.044 C 
BRANCH  30  31
HETATM   31  C25 UNL     1      -9.139  -1.522   6.282  1.00  0.00     0.022 C 
BRANCH  31  32
HETATM   32  C26 UNL     1      -9.607  -2.023   7.639  1.00  0.00     0.122 C 
BRANCH  32  33
HETATM   33  N5  UNL     1     -10.048  -3.418   7.538  1.00  0.00    -0.367 N 
HETATM   34  C27 UNL     1     -11.014  -3.877   8.244  1.00  0.00     0.196 C 
HETATM   35  N6  UNL     1     -11.658  -2.963   9.152  1.00  0.00    -0.067 NA
HETATM   36  N7  UNL     1     -11.483  -5.195   8.198  1.00  0.00    -0.067 NA
ATOM     37  H5  UNL     1      -9.571  -4.042   6.886  1.00  0.00     0.161 HD
ENDBRANCH  32  33
ENDBRANCH  31  32
ENDBRANCH  30  31
ENDBRANCH  20  30
BRANCH  15  38
HETATM   38  C18 UNL     1      -9.128   1.478   2.350  1.00  0.00     0.131 C 
BRANCH  38  39
HETATM   39  C19 UNL     1      -8.827   2.440   1.253  1.00  0.00    -0.005 C 
HETATM   40  C20 UNL     1      -7.358   2.218   0.833  1.00  0.00     0.011 C 
HETATM   41  C21 UNL     1      -9.646   2.264   0.010  1.00  0.00     0.011 C 
ENDBRANCH  38  39
ENDBRANCH  15  38
BRANCH  25  42
HETATM   42  C30 UNL     1      -3.334  -0.862   9.189  1.00  0.00     0.038 C 
BRANCH  42  43
HETATM   43  C31 UNL     1      -3.935  -0.353  10.443  1.00  0.00    -0.020 C 
HETATM   44  C32 UNL     1      -2.974   0.422  11.312  1.00  0.00     0.009 C 
HETATM   45  C33 UNL     1      -4.441  -1.531  11.245  1.00  0.00     0.009 C 
ENDBRANCH  42  43
ENDBRANCH  25  42
BRANCH  12  46
HETATM   46  C14 UNL     1      -9.348   4.644   6.083  1.00  0.00     0.009 C 
HETATM   47  C15 UNL     1      -8.812   4.933   7.439  1.00  0.00     0.012 C 
HETATM   48  C16 UNL     1      -9.773   5.990   5.460  1.00  0.00     0.012 C 
ENDBRANCH  12  46
BRANCH   1  49
HETATM   49  C4  UNL     1      -3.643   3.887   9.645  1.00  0.00     0.029 C 
BRANCH  49  50
HETATM   50  C2  UNL     1      -2.177   4.052   9.745  1.00  0.00    -0.021 C 
HETATM   51  C1  UNL     1      -1.689   5.472   9.568  1.00  0.00     0.009 C 
HETATM   52  C3  UNL     1      -1.484   3.305  10.849  1.00  0.00     0.009 C 
ENDBRANCH  49  50
ENDBRANCH   1  49
BRANCH   7  53
HETATM   53  C9  UNL     1      -5.961   6.479   5.896  1.00  0.00     0.009 C 
HETATM   54  C10 UNL     1      -6.828   7.565   5.249  1.00  0.00     0.012 C 
HETATM   55  C11 UNL     1      -4.758   7.208   6.483  1.00  0.00     0.012 C 
ENDBRANCH   7  53
TORSDOF 12
ENDMDL
