MODEL 1
REMARK VINA RESULT: -9.925005559      0.000      0.000
REMARK  13 active torsions:
REMARK  status: ('A' for Active; 'I' for Inactive)
REMARK    1  A    between atoms: C6_6  and  C7_7 
REMARK    2  A    between atoms: C7_7  and  C8_8 
REMARK    3  A    between atoms: N2_19  and  C16_20 
REMARK    4  A    between atoms: C16_20  and  C17_21 
REMARK    5  A    between atoms: C17_21  and  C18_22 
REMARK    6  A    between atoms: C18_22  and  C19_23 
REMARK    7  A    between atoms: C19_23  and  C20_24 
REMARK    8  A    between atoms: C20_24  and  C21_25 
REMARK    9  A    between atoms: C21_25  and  N3_26 
REMARK   10  A    between atoms: C28_38  and  C29_39 
REMARK   11  A    between atoms: C29_39  and  C30_40 
REMARK   12  A    between atoms: C30_40  and  N7_41 
REMARK   13  A    between atoms: C32_46  and  O3_47 
ROOT
HETATM    1  C8  UNL     1      -8.063   3.368   4.333  1.00  0.00     0.032 C 
HETATM    2  C9  UNL     1      -9.385   2.823   4.756  1.00  0.00     0.039 C 
HETATM    3  C10 UNL     1      -7.692   4.350   5.471  1.00  0.00     0.040 C 
HETATM    4  C11 UNL     1      -6.857   5.500   5.094  1.00  0.00     0.105 C 
HETATM    5  C12 UNL     1      -5.395   5.303   5.102  1.00  0.00     0.217 C 
HETATM    6  O1  UNL     1      -4.745   5.592   4.065  1.00  0.00    -0.274 OA
HETATM    7  N1  UNL     1      -4.641   4.807   6.192  1.00  0.00    -0.361 N 
ATOM      8  H1  UNL     1      -3.880   4.166   5.965  1.00  0.00     0.162 HD
HETATM    9  C13 UNL     1      -4.830   5.108   7.573  1.00  0.00     0.124 C 
HETATM   10  C14 UNL     1      -3.589   4.765   8.352  1.00  0.00     0.039 C 
HETATM   11  C15 UNL     1      -3.392   3.281   8.526  1.00  0.00     0.127 C 
HETATM   12  N2  UNL     1      -4.194   2.685   9.560  1.00  0.00    -0.351 N 
HETATM   13  C23 UNL     1      -5.172   1.668   9.286  1.00  0.00     0.228 C 
HETATM   14  O2  UNL     1      -6.213   1.706  10.002  1.00  0.00    -0.273 OA
HETATM   15  C24 UNL     1      -5.072   0.609   8.270  1.00  0.00     0.112 C 
HETATM   16  C25 UNL     1      -3.652   0.160   7.992  1.00  0.00     0.025 C 
HETATM   17  C26 UNL     1      -5.728   0.953   6.972  1.00  0.00     0.072 C 
HETATM   18  N6  UNL     1      -7.034   0.531   6.725  1.00  0.00    -0.385 N 
HETATM   19  C27 UNL     1      -7.929   0.246   7.737  1.00  0.00     0.149 C 
HETATM   20  C28 UNL     1      -7.257  -0.003   5.399  1.00  0.00     0.158 C 
HETATM   21  C32 UNL     1      -6.975   0.985   4.338  1.00  0.00     0.135 C 
HETATM   22  N10 UNL     1      -7.028   2.355   4.268  1.00  0.00    -0.364 N 
ATOM     23  H10 UNL     1      -6.103   2.764   4.137  1.00  0.00     0.162 HD
ENDROOT
BRANCH   1  24
HETATM   24  C7  UNL     1      -8.190   4.226   3.119  1.00  0.00     0.070 C 
BRANCH  24  25
HETATM   25  C6  UNL     1      -9.438   4.317   2.372  1.00  0.00    -0.044 A 
HETATM   26  C4  UNL     1     -10.400   5.270   2.643  1.00  0.00    -0.055 A 
HETATM   27  C3  UNL     1     -11.590   5.236   1.915  1.00  0.00     0.014 A 
HETATM   28  C5  UNL     1     -10.220   6.417   3.595  1.00  0.00     0.049 C 
HETATM   29  C2  UNL     1     -11.844   4.305   0.946  1.00  0.00    -0.061 A 
HETATM   30  C1  UNL     1     -13.133   4.343   0.223  1.00  0.00     0.048 C 
HETATM   31  C35 UNL     1     -10.872   3.389   0.707  1.00  0.00     0.014 A 
HETATM   32  C33 UNL     1      -9.648   3.343   1.385  1.00  0.00    -0.055 A 
HETATM   33  C34 UNL     1      -8.694   2.313   0.958  1.00  0.00     0.049 C 
ENDBRANCH  24  25
ENDBRANCH   1  24
BRANCH  21  34
HETATM   34  O3  UNL     1      -6.590   0.384   3.249  1.00  0.00    -0.348 OA
ATOM     35  H3  UNL     1      -7.333   0.213   2.683  1.00  0.00     0.219 HD
ENDBRANCH  21  34
BRANCH  20  36
HETATM   36  C29 UNL     1      -8.527  -0.746   5.253  1.00  0.00     0.053 C 
BRANCH  36  37
HETATM   37  C30 UNL     1      -8.376  -2.212   5.537  1.00  0.00     0.124 C 
BRANCH  37  38
HETATM   38  N7  UNL     1      -9.463  -2.997   4.945  1.00  0.00    -0.367 N 
HETATM   39  C31 UNL     1     -10.087  -3.897   5.605  1.00  0.00     0.196 C 
HETATM   40  N8  UNL     1      -9.727  -4.151   6.945  1.00  0.00    -0.067 NA
HETATM   41  N9  UNL     1     -11.126  -4.625   4.994  1.00  0.00    -0.067 NA
ATOM     42  H7  UNL     1      -9.729  -2.819   3.977  1.00  0.00     0.161 HD
ENDBRANCH  37  38
ENDBRANCH  36  37
ENDBRANCH  20  36
BRANCH  12  43
HETATM   43  C16 UNL     1      -4.074   3.117  10.930  1.00  0.00     0.125 C 
BRANCH  43  44
HETATM   44  C17 UNL     1      -3.671   2.094  11.918  1.00  0.00     0.020 C 
BRANCH  44  45
HETATM   45  C18 UNL     1      -2.227   1.824  12.110  1.00  0.00     0.002 C 
BRANCH  45  46
HETATM   46  C19 UNL     1      -1.592   1.120  10.929  1.00  0.00     0.002 C 
BRANCH  46  47
HETATM   47  C20 UNL     1      -0.272   1.756  10.549  1.00  0.00     0.020 C 
BRANCH  47  48
HETATM   48  C21 UNL     1      -0.478   3.254  10.512  1.00  0.00     0.122 C 
BRANCH  48  49
HETATM   49  N3  UNL     1       0.797   3.934  10.714  1.00  0.00    -0.367 N 
HETATM   50  C22 UNL     1       1.068   4.934   9.959  1.00  0.00     0.196 C 
HETATM   51  N4  UNL     1       0.175   5.383   8.955  1.00  0.00    -0.067 NA
HETATM   52  N5  UNL     1       2.295   5.611  10.135  1.00  0.00    -0.067 NA
ATOM     53  H3  UNL     1       1.451   3.625  11.432  1.00  0.00     0.161 HD
ENDBRANCH  48  49
ENDBRANCH  47  48
ENDBRANCH  46  47
ENDBRANCH  45  46
ENDBRANCH  44  45
ENDBRANCH  43  44
ENDBRANCH  12  43
TORSDOF 13
ENDMDL
MODEL 2
REMARK VINA RESULT: -9.676869577      0.597      1.496
REMARK  13 active torsions:
REMARK  status: ('A' for Active; 'I' for Inactive)
REMARK    1  A    between atoms: C6_6  and  C7_7 
REMARK    2  A    between atoms: C7_7  and  C8_8 
REMARK    3  A    between atoms: N2_19  and  C16_20 
REMARK    4  A    between atoms: C16_20  and  C17_21 
REMARK    5  A    between atoms: C17_21  and  C18_22 
REMARK    6  A    between atoms: C18_22  and  C19_23 
REMARK    7  A    between atoms: C19_23  and  C20_24 
REMARK    8  A    between atoms: C20_24  and  C21_25 
REMARK    9  A    between atoms: C21_25  and  N3_26 
REMARK   10  A    between atoms: C28_38  and  C29_39 
REMARK   11  A    between atoms: C29_39  and  C30_40 
REMARK   12  A    between atoms: C30_40  and  N7_41 
REMARK   13  A    between atoms: C32_46  and  O3_47 
ROOT
HETATM    1  C8  UNL     1      -8.165   3.388   4.477  1.00  0.00     0.032 C 
HETATM    2  C9  UNL     1      -9.463   2.806   4.925  1.00  0.00     0.039 C 
HETATM    3  C10 UNL     1      -7.792   4.368   5.617  1.00  0.00     0.040 C 
HETATM    4  C11 UNL     1      -6.995   5.542   5.234  1.00  0.00     0.105 C 
HETATM    5  C12 UNL     1      -5.530   5.381   5.206  1.00  0.00     0.217 C 
HETATM    6  O1  UNL     1      -4.911   5.698   4.158  1.00  0.00    -0.274 OA
HETATM    7  N1  UNL     1      -4.738   4.893   6.272  1.00  0.00    -0.361 N 
ATOM      8  H1  UNL     1      -3.967   4.274   6.022  1.00  0.00     0.162 HD
HETATM    9  C13 UNL     1      -4.903   5.175   7.661  1.00  0.00     0.124 C 
HETATM   10  C14 UNL     1      -3.635   4.855   8.408  1.00  0.00     0.039 C 
HETATM   11  C15 UNL     1      -3.397   3.375   8.560  1.00  0.00     0.127 C 
HETATM   12  N2  UNL     1      -4.160   2.748   9.605  1.00  0.00    -0.351 N 
HETATM   13  C23 UNL     1      -5.119   1.709   9.343  1.00  0.00     0.228 C 
HETATM   14  O2  UNL     1      -6.144   1.713  10.083  1.00  0.00    -0.273 OA
HETATM   15  C24 UNL     1      -5.016   0.664   8.313  1.00  0.00     0.112 C 
HETATM   16  C25 UNL     1      -3.592   0.254   7.998  1.00  0.00     0.025 C 
HETATM   17  C26 UNL     1      -5.711   1.005   7.035  1.00  0.00     0.072 C 
HETATM   18  N6  UNL     1      -7.011   0.554   6.814  1.00  0.00    -0.385 N 
HETATM   19  C27 UNL     1      -7.875   0.235   7.842  1.00  0.00     0.149 C 
HETATM   20  C28 UNL     1      -7.251   0.028   5.486  1.00  0.00     0.158 C 
HETATM   21  C32 UNL     1      -7.019   1.034   4.431  1.00  0.00     0.135 C 
HETATM   22  N10 UNL     1      -7.107   2.402   4.377  1.00  0.00    -0.364 N 
ATOM     23  H10 UNL     1      -6.196   2.836   4.229  1.00  0.00     0.162 HD
ENDROOT
BRANCH   1  24
HETATM   24  C7  UNL     1      -8.341   4.256   3.276  1.00  0.00     0.070 C 
BRANCH  24  25
HETATM   25  C6  UNL     1      -9.573   4.243   2.496  1.00  0.00    -0.044 A 
HETATM   26  C4  UNL     1      -9.816   3.311   1.506  1.00  0.00    -0.055 A 
HETATM   27  C3  UNL     1     -10.997   3.419   0.770  1.00  0.00     0.014 A 
HETATM   28  C5  UNL     1      -8.951   2.116   1.227  1.00  0.00     0.049 C 
HETATM   29  C2  UNL     1     -11.923   4.401   0.988  1.00  0.00    -0.061 A 
HETATM   30  C1  UNL     1     -13.148   4.441   0.161  1.00  0.00     0.048 C 
HETATM   31  C35 UNL     1     -11.649   5.293   1.973  1.00  0.00     0.014 A 
HETATM   32  C33 UNL     1     -10.493   5.267   2.761  1.00  0.00    -0.055 A 
HETATM   33  C34 UNL     1     -10.388   6.282   3.816  1.00  0.00     0.049 C 
ENDBRANCH  24  25
ENDBRANCH   1  24
BRANCH  21  34
HETATM   34  O3  UNL     1      -6.644   0.454   3.326  1.00  0.00    -0.348 OA
ATOM     35  H3  UNL     1      -6.895   0.978   2.575  1.00  0.00     0.219 HD
ENDBRANCH  21  34
BRANCH  20  36
HETATM   36  C29 UNL     1      -8.505  -0.746   5.362  1.00  0.00     0.053 C 
BRANCH  36  37
HETATM   37  C30 UNL     1      -8.294  -2.222   5.525  1.00  0.00     0.124 C 
BRANCH  37  38
HETATM   38  N7  UNL     1      -9.407  -2.997   4.970  1.00  0.00    -0.367 N 
HETATM   39  C31 UNL     1     -10.029  -3.878   5.656  1.00  0.00     0.196 C 
HETATM   40  N8  UNL     1      -9.642  -4.120   6.991  1.00  0.00    -0.067 NA
HETATM   41  N9  UNL     1     -11.094  -4.597   5.079  1.00  0.00    -0.067 NA
ATOM     42  H7  UNL     1      -9.693  -2.828   4.006  1.00  0.00     0.161 HD
ENDBRANCH  37  38
ENDBRANCH  36  37
ENDBRANCH  20  36
BRANCH  12  43
HETATM   43  C16 UNL     1      -4.019   3.168  10.977  1.00  0.00     0.125 C 
BRANCH  43  44
HETATM   44  C17 UNL     1      -3.384   2.210  11.906  1.00  0.00     0.020 C 
BRANCH  44  45
HETATM   45  C18 UNL     1      -2.115   1.562  11.498  1.00  0.00     0.002 C 
BRANCH  45  46
HETATM   46  C19 UNL     1      -0.930   2.505  11.531  1.00  0.00     0.002 C 
BRANCH  46  47
HETATM   47  C20 UNL     1      -0.354   2.720  10.148  1.00  0.00     0.020 C 
BRANCH  47  48
HETATM   48  C21 UNL     1       0.469   3.988  10.185  1.00  0.00     0.122 C 
BRANCH  48  49
HETATM   49  N3  UNL     1       0.042   4.887   9.119  1.00  0.00    -0.367 N 
HETATM   50  C22 UNL     1      -0.262   6.091   9.437  1.00  0.00     0.196 C 
HETATM   51  N4  UNL     1      -0.194   6.556  10.773  1.00  0.00    -0.067 NA
HETATM   52  N5  UNL     1      -0.677   6.982   8.423  1.00  0.00    -0.067 NA
ATOM     53  H3  UNL     1      -0.013   4.569   8.152  1.00  0.00     0.161 HD
ENDBRANCH  48  49
ENDBRANCH  47  48
ENDBRANCH  46  47
ENDBRANCH  45  46
ENDBRANCH  44  45
ENDBRANCH  43  44
ENDBRANCH  12  43
TORSDOF 13
ENDMDL
MODEL 3
REMARK VINA RESULT: -9.628373614      1.590      2.967
REMARK  13 active torsions:
REMARK  status: ('A' for Active; 'I' for Inactive)
REMARK    1  A    between atoms: C6_6  and  C7_7 
REMARK    2  A    between atoms: C7_7  and  C8_8 
REMARK    3  A    between atoms: N2_19  and  C16_20 
REMARK    4  A    between atoms: C16_20  and  C17_21 
REMARK    5  A    between atoms: C17_21  and  C18_22 
REMARK    6  A    between atoms: C18_22  and  C19_23 
REMARK    7  A    between atoms: C19_23  and  C20_24 
REMARK    8  A    between atoms: C20_24  and  C21_25 
REMARK    9  A    between atoms: C21_25  and  N3_26 
REMARK   10  A    between atoms: C28_38  and  C29_39 
REMARK   11  A    between atoms: C29_39  and  C30_40 
REMARK   12  A    between atoms: C30_40  and  N7_41 
REMARK   13  A    between atoms: C32_46  and  O3_47 
ROOT
HETATM    1  C8  UNL     1      -7.771   3.398   3.970  1.00  0.00     0.032 C 
HETATM    2  C9  UNL     1      -9.084   3.033   4.575  1.00  0.00     0.039 C 
HETATM    3  C10 UNL     1      -7.220   4.486   4.924  1.00  0.00     0.040 C 
HETATM    4  C11 UNL     1      -6.340   5.498   4.320  1.00  0.00     0.105 C 
HETATM    5  C12 UNL     1      -4.904   5.175   4.233  1.00  0.00     0.217 C 
HETATM    6  O1  UNL     1      -4.335   5.265   3.115  1.00  0.00    -0.274 OA
HETATM    7  N1  UNL     1      -4.088   4.764   5.314  1.00  0.00    -0.361 N 
ATOM      8  H1  UNL     1      -3.404   4.034   5.117  1.00  0.00     0.162 HD
HETATM    9  C13 UNL     1      -4.122   5.262   6.651  1.00  0.00     0.124 C 
HETATM   10  C14 UNL     1      -2.842   4.917   7.363  1.00  0.00     0.039 C 
HETATM   11  C15 UNL     1      -2.742   3.458   7.726  1.00  0.00     0.127 C 
HETATM   12  N2  UNL     1      -3.485   3.077   8.897  1.00  0.00    -0.351 N 
HETATM   13  C23 UNL     1      -4.559   2.123   8.852  1.00  0.00     0.228 C 
HETATM   14  O2  UNL     1      -5.521   2.347   9.640  1.00  0.00    -0.273 OA
HETATM   15  C24 UNL     1      -4.637   0.934   7.990  1.00  0.00     0.112 C 
HETATM   16  C25 UNL     1      -3.288   0.328   7.659  1.00  0.00     0.025 C 
HETATM   17  C26 UNL     1      -5.386   1.159   6.716  1.00  0.00     0.072 C 
HETATM   18  N6  UNL     1      -6.738   0.825   6.642  1.00  0.00    -0.385 N 
HETATM   19  C27 UNL     1      -7.552   0.756   7.756  1.00  0.00     0.149 C 
HETATM   20  C28 UNL     1      -7.126   0.141   5.427  1.00  0.00     0.158 C 
HETATM   21  C32 UNL     1      -6.872   0.951   4.218  1.00  0.00     0.135 C 
HETATM   22  N10 UNL     1      -6.827   2.298   3.961  1.00  0.00    -0.364 N 
ATOM     23  H10 UNL     1      -5.891   2.603   3.697  1.00  0.00     0.162 HD
ENDROOT
BRANCH   1  24
HETATM   24  C7  UNL     1      -7.948   4.095   2.663  1.00  0.00     0.070 C 
BRANCH  24  25
HETATM   25  C6  UNL     1      -9.250   4.188   2.014  1.00  0.00    -0.044 A 
HETATM   26  C4  UNL     1     -10.140   5.210   2.276  1.00  0.00    -0.055 A 
HETATM   27  C3  UNL     1     -11.389   5.178   1.652  1.00  0.00     0.014 A 
HETATM   28  C5  UNL     1      -9.828   6.423   3.105  1.00  0.00     0.049 C 
HETATM   29  C2  UNL     1     -11.766   4.184   0.793  1.00  0.00    -0.061 A 
HETATM   30  C1  UNL     1     -13.109   4.228   0.177  1.00  0.00     0.048 C 
HETATM   31  C35 UNL     1     -10.861   3.201   0.559  1.00  0.00     0.014 A 
HETATM   32  C33 UNL     1      -9.587   3.147   1.137  1.00  0.00    -0.055 A 
HETATM   33  C34 UNL     1      -8.721   2.036   0.727  1.00  0.00     0.049 C 
ENDBRANCH  24  25
ENDBRANCH   1  24
BRANCH  21  34
HETATM   34  O3  UNL     1      -6.639   0.178   3.195  1.00  0.00    -0.348 OA
ATOM     35  H3  UNL     1      -7.433   0.046   2.692  1.00  0.00     0.219 HD
ENDBRANCH  21  34
BRANCH  20  36
HETATM   36  C29 UNL     1      -8.456  -0.501   5.494  1.00  0.00     0.053 C 
BRANCH  36  37
HETATM   37  C30 UNL     1      -8.375  -1.992   5.636  1.00  0.00     0.124 C 
BRANCH  37  38
HETATM   38  N7  UNL     1      -9.512  -2.664   5.001  1.00  0.00    -0.367 N 
HETATM   39  C31 UNL     1     -10.092  -3.668   5.538  1.00  0.00     0.196 C 
HETATM   40  N8  UNL     1      -9.633  -4.154   6.781  1.00  0.00    -0.067 NA
HETATM   41  N9  UNL     1     -11.182  -4.280   4.890  1.00  0.00    -0.067 NA
ATOM     42  H7  UNL     1      -9.850  -2.319   4.104  1.00  0.00     0.161 HD
ENDBRANCH  37  38
ENDBRANCH  36  37
ENDBRANCH  20  36
BRANCH  12  43
HETATM   43  C16 UNL     1      -3.203   3.675  10.178  1.00  0.00     0.125 C 
BRANCH  43  44
HETATM   44  C17 UNL     1      -1.979   3.220  10.870  1.00  0.00     0.020 C 
BRANCH  44  45
HETATM   45  C18 UNL     1      -1.668   1.772  10.885  1.00  0.00     0.002 C 
BRANCH  45  46
HETATM   46  C19 UNL     1      -2.703   0.950  11.623  1.00  0.00     0.002 C 
BRANCH  46  47
HETATM   47  C20 UNL     1      -2.607  -0.517  11.263  1.00  0.00     0.020 C 
BRANCH  47  48
HETATM   48  C21 UNL     1      -4.011  -1.021  11.011  1.00  0.00     0.122 C 
BRANCH  48  49
HETATM   49  N3  UNL     1      -4.981  -0.012  11.422  1.00  0.00    -0.367 N 
HETATM   50  C22 UNL     1      -6.188  -0.389  11.624  1.00  0.00     0.196 C 
HETATM   51  N4  UNL     1      -6.593  -1.737  11.460  1.00  0.00    -0.067 NA
HETATM   52  N5  UNL     1      -7.146   0.568  12.025  1.00  0.00    -0.067 NA
ATOM     53  H3  UNL     1      -4.706   0.963  11.545  1.00  0.00     0.161 HD
ENDBRANCH  48  49
ENDBRANCH  47  48
ENDBRANCH  46  47
ENDBRANCH  45  46
ENDBRANCH  44  45
ENDBRANCH  43  44
ENDBRANCH  12  43
TORSDOF 13
ENDMDL
MODEL 4
REMARK VINA RESULT: -9.589579291      0.710      1.008
REMARK  13 active torsions:
REMARK  status: ('A' for Active; 'I' for Inactive)
REMARK    1  A    between atoms: C6_6  and  C7_7 
REMARK    2  A    between atoms: C7_7  and  C8_8 
REMARK    3  A    between atoms: N2_19  and  C16_20 
REMARK    4  A    between atoms: C16_20  and  C17_21 
REMARK    5  A    between atoms: C17_21  and  C18_22 
REMARK    6  A    between atoms: C18_22  and  C19_23 
REMARK    7  A    between atoms: C19_23  and  C20_24 
REMARK    8  A    between atoms: C20_24  and  C21_25 
REMARK    9  A    between atoms: C21_25  and  N3_26 
REMARK   10  A    between atoms: C28_38  and  C29_39 
REMARK   11  A    between atoms: C29_39  and  C30_40 
REMARK   12  A    between atoms: C30_40  and  N7_41 
REMARK   13  A    between atoms: C32_46  and  O3_47 
ROOT
HETATM    1  C8  UNL     1      -8.009   3.389   4.388  1.00  0.00     0.032 C 
HETATM    2  C9  UNL     1      -9.338   2.878   4.833  1.00  0.00     0.039 C 
HETATM    3  C10 UNL     1      -7.614   4.393   5.500  1.00  0.00     0.040 C 
HETATM    4  C11 UNL     1      -6.763   5.519   5.090  1.00  0.00     0.105 C 
HETATM    5  C12 UNL     1      -5.305   5.297   5.094  1.00  0.00     0.217 C 
HETATM    6  O1  UNL     1      -4.656   5.550   4.047  1.00  0.00    -0.274 OA
HETATM    7  N1  UNL     1      -4.552   4.815   6.191  1.00  0.00    -0.361 N 
ATOM      8  H1  UNL     1      -3.804   4.155   5.975  1.00  0.00     0.162 HD
HETATM    9  C13 UNL     1      -4.727   5.153   7.566  1.00  0.00     0.124 C 
HETATM   10  C14 UNL     1      -3.487   4.808   8.345  1.00  0.00     0.039 C 
HETATM   11  C15 UNL     1      -3.313   3.325   8.554  1.00  0.00     0.127 C 
HETATM   12  N2  UNL     1      -4.119   2.768   9.606  1.00  0.00    -0.351 N 
HETATM   13  C23 UNL     1      -5.115   1.761   9.364  1.00  0.00     0.228 C 
HETATM   14  O2  UNL     1      -6.151   1.834  10.085  1.00  0.00    -0.273 OA
HETATM   15  C24 UNL     1      -5.040   0.676   8.373  1.00  0.00     0.112 C 
HETATM   16  C25 UNL     1      -3.629   0.196   8.097  1.00  0.00     0.025 C 
HETATM   17  C26 UNL     1      -5.699   1.000   7.071  1.00  0.00     0.072 C 
HETATM   18  N6  UNL     1      -7.013   0.595   6.843  1.00  0.00    -0.385 N 
HETATM   19  C27 UNL     1      -7.907   0.349   7.867  1.00  0.00     0.149 C 
HETATM   20  C28 UNL     1      -7.254   0.033   5.531  1.00  0.00     0.158 C 
HETATM   21  C32 UNL     1      -6.963   0.990   4.445  1.00  0.00     0.135 C 
HETATM   22  N10 UNL     1      -6.992   2.357   4.342  1.00  0.00    -0.364 N 
ATOM     23  H10 UNL     1      -6.062   2.748   4.195  1.00  0.00     0.162 HD
ENDROOT
BRANCH   1  24
HETATM   24  C7  UNL     1      -8.130   4.220   3.155  1.00  0.00     0.070 C 
BRANCH  24  25
HETATM   25  C6  UNL     1      -9.362   4.262   2.377  1.00  0.00    -0.044 A 
HETATM   26  C4  UNL     1     -10.362   5.184   2.617  1.00  0.00    -0.055 A 
HETATM   27  C3  UNL     1     -11.532   5.104   1.860  1.00  0.00     0.014 A 
HETATM   28  C5  UNL     1     -10.245   6.344   3.564  1.00  0.00     0.049 C 
HETATM   29  C2  UNL     1     -11.730   4.158   0.893  1.00  0.00    -0.061 A 
HETATM   30  C1  UNL     1     -13.002   4.146   0.139  1.00  0.00     0.048 C 
HETATM   31  C35 UNL     1     -10.721   3.275   0.685  1.00  0.00     0.014 A 
HETATM   32  C33 UNL     1      -9.514   3.275   1.393  1.00  0.00    -0.055 A 
HETATM   33  C34 UNL     1      -8.515   2.276   0.997  1.00  0.00     0.049 C 
ENDBRANCH  24  25
ENDBRANCH   1  24
BRANCH  21  34
HETATM   34  O3  UNL     1      -6.594   0.356   3.368  1.00  0.00    -0.348 OA
ATOM     35  H3  UNL     1      -5.976   0.878   2.871  1.00  0.00     0.219 HD
ENDBRANCH  21  34
BRANCH  20  36
HETATM   36  C29 UNL     1      -8.537  -0.693   5.411  1.00  0.00     0.053 C 
BRANCH  36  37
HETATM   37  C30 UNL     1      -8.391  -2.169   5.634  1.00  0.00     0.124 C 
BRANCH  37  38
HETATM   38  N7  UNL     1      -9.161  -2.624   6.795  1.00  0.00    -0.367 N 
HETATM   39  C31 UNL     1      -9.886  -3.676   6.758  1.00  0.00     0.196 C 
HETATM   40  N8  UNL     1      -9.955  -4.432   5.568  1.00  0.00    -0.067 NA
HETATM   41  N9  UNL     1     -10.607  -4.075   7.900  1.00  0.00    -0.067 NA
ATOM     42  H7  UNL     1      -9.117  -2.085   7.659  1.00  0.00     0.161 HD
ENDBRANCH  37  38
ENDBRANCH  36  37
ENDBRANCH  20  36
BRANCH  12  43
HETATM   43  C16 UNL     1      -3.982   3.230  10.965  1.00  0.00     0.125 C 
BRANCH  43  44
HETATM   44  C17 UNL     1      -3.325   2.313  11.919  1.00  0.00     0.020 C 
BRANCH  44  45
HETATM   45  C18 UNL     1      -2.074   1.636  11.505  1.00  0.00     0.002 C 
BRANCH  45  46
HETATM   46  C19 UNL     1      -0.863   2.545  11.552  1.00  0.00     0.002 C 
BRANCH  46  47
HETATM   47  C20 UNL     1      -0.268   2.748  10.176  1.00  0.00     0.020 C 
BRANCH  47  48
HETATM   48  C21 UNL     1       0.534   4.030  10.206  1.00  0.00     0.122 C 
BRANCH  48  49
HETATM   49  N3  UNL     1       0.067   4.931   9.157  1.00  0.00    -0.367 N 
HETATM   50  C22 UNL     1      -0.195   6.142   9.482  1.00  0.00     0.196 C 
HETATM   51  N4  UNL     1      -0.045   6.615  10.809  1.00  0.00    -0.067 NA
HETATM   52  N5  UNL     1      -0.647   7.035   8.486  1.00  0.00    -0.067 NA
ATOM     53  H3  UNL     1      -0.046   4.607   8.197  1.00  0.00     0.161 HD
ENDBRANCH  48  49
ENDBRANCH  47  48
ENDBRANCH  46  47
ENDBRANCH  45  46
ENDBRANCH  44  45
ENDBRANCH  43  44
ENDBRANCH  12  43
TORSDOF 13
ENDMDL
MODEL 5
REMARK VINA RESULT: -9.558973464      1.494      1.937
REMARK  13 active torsions:
REMARK  status: ('A' for Active; 'I' for Inactive)
REMARK    1  A    between atoms: C6_6  and  C7_7 
REMARK    2  A    between atoms: C7_7  and  C8_8 
REMARK    3  A    between atoms: N2_19  and  C16_20 
REMARK    4  A    between atoms: C16_20  and  C17_21 
REMARK    5  A    between atoms: C17_21  and  C18_22 
REMARK    6  A    between atoms: C18_22  and  C19_23 
REMARK    7  A    between atoms: C19_23  and  C20_24 
REMARK    8  A    between atoms: C20_24  and  C21_25 
REMARK    9  A    between atoms: C21_25  and  N3_26 
REMARK   10  A    between atoms: C28_38  and  C29_39 
REMARK   11  A    between atoms: C29_39  and  C30_40 
REMARK   12  A    between atoms: C30_40  and  N7_41 
REMARK   13  A    between atoms: C32_46  and  O3_47 
ROOT
HETATM    1  C8  UNL     1      -8.317   3.656   4.391  1.00  0.00     0.032 C 
HETATM    2  C9  UNL     1      -9.637   3.088   4.788  1.00  0.00     0.039 C 
HETATM    3  C10 UNL     1      -7.913   4.522   5.610  1.00  0.00     0.040 C 
HETATM    4  C11 UNL     1      -7.071   5.694   5.327  1.00  0.00     0.105 C 
HETATM    5  C12 UNL     1      -5.612   5.481   5.288  1.00  0.00     0.217 C 
HETATM    6  O1  UNL     1      -4.977   5.860   4.270  1.00  0.00    -0.274 OA
HETATM    7  N1  UNL     1      -4.843   4.876   6.311  1.00  0.00    -0.361 N 
ATOM      8  H1  UNL     1      -4.095   4.251   6.010  1.00  0.00     0.162 HD
HETATM    9  C13 UNL     1      -5.003   5.047   7.718  1.00  0.00     0.124 C 
HETATM   10  C14 UNL     1      -3.752   4.619   8.436  1.00  0.00     0.039 C 
HETATM   11  C15 UNL     1      -3.570   3.123   8.465  1.00  0.00     0.127 C 
HETATM   12  N2  UNL     1      -4.361   2.440   9.453  1.00  0.00    -0.351 N 
HETATM   13  C23 UNL     1      -5.356   1.463   9.104  1.00  0.00     0.228 C 
HETATM   14  O2  UNL     1      -6.383   1.444   9.840  1.00  0.00    -0.273 OA
HETATM   15  C24 UNL     1      -5.288   0.505   7.990  1.00  0.00     0.112 C 
HETATM   16  C25 UNL     1      -3.879   0.069   7.644  1.00  0.00     0.025 C 
HETATM   17  C26 UNL     1      -5.964   0.977   6.744  1.00  0.00     0.072 C 
HETATM   18  N6  UNL     1      -7.279   0.595   6.485  1.00  0.00    -0.385 N 
HETATM   19  C27 UNL     1      -8.159   0.224   7.482  1.00  0.00     0.149 C 
HETATM   20  C28 UNL     1      -7.534   0.191   5.118  1.00  0.00     0.158 C 
HETATM   21  C32 UNL     1      -7.259   1.272   4.150  1.00  0.00     0.135 C 
HETATM   22  N10 UNL     1      -7.296   2.643   4.211  1.00  0.00    -0.364 N 
ATOM     23  H10 UNL     1      -6.369   3.053   4.101  1.00  0.00     0.162 HD
ENDROOT
BRANCH   1  24
HETATM   24  C7  UNL     1      -8.456   4.627   3.267  1.00  0.00     0.070 C 
BRANCH  24  25
HETATM   25  C6  UNL     1      -9.702   4.765   2.524  1.00  0.00    -0.044 A 
HETATM   26  C4  UNL     1     -10.669   5.692   2.858  1.00  0.00    -0.055 A 
HETATM   27  C3  UNL     1     -11.856   5.705   2.124  1.00  0.00     0.014 A 
HETATM   28  C5  UNL     1     -10.498   6.769   3.890  1.00  0.00     0.049 C 
HETATM   29  C2  UNL     1     -12.102   4.844   1.091  1.00  0.00    -0.061 A 
HETATM   30  C1  UNL     1     -13.389   4.927   0.367  1.00  0.00     0.048 C 
HETATM   31  C35 UNL     1     -11.125   3.952   0.791  1.00  0.00     0.014 A 
HETATM   32  C33 UNL     1      -9.903   3.863   1.469  1.00  0.00    -0.055 A 
HETATM   33  C34 UNL     1      -8.942   2.871   0.973  1.00  0.00     0.049 C 
ENDBRANCH  24  25
ENDBRANCH   1  24
BRANCH  21  34
HETATM   34  O3  UNL     1      -6.901   0.773   3.001  1.00  0.00    -0.348 OA
ATOM     35  H3  UNL     1      -6.335   1.379   2.539  1.00  0.00     0.219 HD
ENDBRANCH  21  34
BRANCH  20  36
HETATM   36  C29 UNL     1      -8.815  -0.522   4.927  1.00  0.00     0.053 C 
BRANCH  36  37
HETATM   37  C30 UNL     1      -9.845   0.313   4.226  1.00  0.00     0.124 C 
BRANCH  37  38
HETATM   38  N7  UNL     1     -10.051  -0.122   2.843  1.00  0.00    -0.367 N 
HETATM   39  C31 UNL     1     -11.090   0.208   2.175  1.00  0.00     0.196 C 
HETATM   40  N8  UNL     1     -12.076   1.017   2.779  1.00  0.00    -0.067 NA
HETATM   41  N9  UNL     1     -11.243  -0.233   0.847  1.00  0.00    -0.067 NA
ATOM     42  H7  UNL     1      -9.343  -0.706   2.398  1.00  0.00     0.161 HD
ENDBRANCH  37  38
ENDBRANCH  36  37
ENDBRANCH  20  36
BRANCH  12  43
HETATM   43  C16 UNL     1      -4.210   2.738  10.855  1.00  0.00     0.125 C 
BRANCH  43  44
HETATM   44  C17 UNL     1      -3.537   1.717  11.686  1.00  0.00     0.020 C 
BRANCH  44  45
HETATM   45  C18 UNL     1      -2.059   1.625  11.637  1.00  0.00     0.002 C 
BRANCH  45  46
HETATM   46  C19 UNL     1      -1.395   2.929  11.248  1.00  0.00     0.002 C 
BRANCH  46  47
HETATM   47  C20 UNL     1      -0.240   2.701  10.297  1.00  0.00     0.020 C 
BRANCH  47  48
HETATM   48  C21 UNL     1       0.503   4.010  10.155  1.00  0.00     0.122 C 
BRANCH  48  49
HETATM   49  N3  UNL     1      -0.136   4.833   9.133  1.00  0.00    -0.367 N 
HETATM   50  C22 UNL     1      -0.406   6.051   9.428  1.00  0.00     0.196 C 
HETATM   51  N4  UNL     1      -0.104   6.602  10.697  1.00  0.00    -0.067 NA
HETATM   52  N5  UNL     1      -1.023   6.869   8.457  1.00  0.00    -0.067 NA
ATOM     53  H3  UNL     1      -0.360   4.453   8.214  1.00  0.00     0.161 HD
ENDBRANCH  48  49
ENDBRANCH  47  48
ENDBRANCH  46  47
ENDBRANCH  45  46
ENDBRANCH  44  45
ENDBRANCH  43  44
ENDBRANCH  12  43
TORSDOF 13
ENDMDL
