MODEL 1
REMARK VINA RESULT: -9.056715847      0.000      0.000
REMARK  13 active torsions:
REMARK  status: ('A' for Active; 'I' for Inactive)
REMARK    1  A    between atoms: C2_2  and  C3_3 
REMARK    2  A    between atoms: C3_3  and  C4_4 
REMARK    3  A    between atoms: C4_4  and  C5_5 
REMARK    4  A    between atoms: C5_5  and  C6_6 
REMARK    5  A    between atoms: C6_6  and  C7_7 
REMARK    6  A    between atoms: C13_18  and  C14_19 
REMARK    7  A    between atoms: C14_19  and  C15_20 
REMARK    8  A    between atoms: C19_27  and  C20_28 
REMARK    9  A    between atoms: C20_28  and  C21_29 
REMARK   10  A    between atoms: C26_39  and  O5_40 
REMARK   11  A    between atoms: C30_48  and  C31_49 
REMARK   12  A    between atoms: C31_49  and  C32_50 
REMARK   13  A    between atoms: C32_50  and  C33_51 
ROOT
HETATM    1  C7  UNL     1      -4.538   5.456   7.300  1.00  0.00     0.176 C 
HETATM    2  N1  UNL     1      -5.918   5.213   7.659  1.00  0.00    -0.346 N 
ATOM      3  H1  UNL     1      -6.079   5.038   8.651  1.00  0.00     0.163 HD
HETATM    4  C8  UNL     1      -7.058   5.180   6.869  1.00  0.00     0.240 C 
HETATM    5  O1  UNL     1      -8.018   5.974   7.193  1.00  0.00    -0.271 OA
HETATM    6  C9  UNL     1      -7.338   4.340   5.670  1.00  0.00     0.174 C 
HETATM    7  C10 UNL     1      -7.736   5.235   4.491  1.00  0.00     0.042 C 
HETATM    8  N2  UNL     1      -8.446   3.435   5.883  1.00  0.00    -0.342 N 
HETATM    9  C11 UNL     1      -9.386   3.770   6.967  1.00  0.00     0.153 C 
HETATM   10  C12 UNL     1      -8.654   2.261   5.103  1.00  0.00     0.243 C 
HETATM   11  O2  UNL     1      -9.552   1.484   5.517  1.00  0.00    -0.271 OA
HETATM   12  C13 UNL     1      -7.930   1.887   3.893  1.00  0.00     0.177 C 
HETATM   13  N3  UNL     1      -6.990   0.789   4.024  1.00  0.00    -0.346 N 
ATOM     14  H3  UNL     1      -6.439   0.624   3.183  1.00  0.00     0.163 HD
HETATM   15  C18 UNL     1      -6.690  -0.081   5.062  1.00  0.00     0.241 C 
HETATM   16  O3  UNL     1      -7.042  -1.307   4.867  1.00  0.00    -0.271 OA
HETATM   17  C19 UNL     1      -6.024   0.175   6.358  1.00  0.00     0.179 C 
HETATM   18  N5  UNL     1      -4.572   0.070   6.211  1.00  0.00    -0.359 N 
ATOM     19  H5  UNL     1      -4.268  -0.732   5.659  1.00  0.00     0.162 HD
HETATM   20  C26 UNL     1      -3.540   0.849   6.678  1.00  0.00     0.135 C 
HETATM   21  C27 UNL     1      -3.127   1.186   8.062  1.00  0.00     0.155 C 
HETATM   22  C28 UNL     1      -2.788  -0.045   8.884  1.00  0.00     0.041 C 
HETATM   23  N6  UNL     1      -4.036   2.081   8.743  1.00  0.00    -0.348 N 
ATOM     24  H6  UNL     1      -5.035   1.898   8.653  1.00  0.00     0.163 HD
HETATM   25  C29 UNL     1      -3.641   3.194   9.525  1.00  0.00     0.241 C 
HETATM   26  O6  UNL     1      -4.296   3.443  10.569  1.00  0.00    -0.271 OA
HETATM   27  C30 UNL     1      -2.507   4.087   9.196  1.00  0.00     0.176 C 
HETATM   28  N7  UNL     1      -2.904   5.492   9.294  1.00  0.00    -0.346 N 
ATOM     29  H7  UNL     1      -2.501   6.051  10.046  1.00  0.00     0.163 HD
HETATM   30  C35 UNL     1      -3.811   6.123   8.413  1.00  0.00     0.241 C 
HETATM   31  O7  UNL     1      -4.021   7.368   8.592  1.00  0.00    -0.271 OA
ENDROOT
BRANCH  17  32
HETATM   32  C20 UNL     1      -6.462  -0.637   7.516  1.00  0.00     0.074 C 
BRANCH  32  33
HETATM   33  C21 UNL     1      -6.515  -0.005   8.832  1.00  0.00    -0.040 A 
HETATM   34  C22 UNL     1      -6.042  -0.611   9.969  1.00  0.00     0.014 A 
HETATM   35  C23 UNL     1      -6.098  -0.030  11.241  1.00  0.00     0.075 A 
HETATM   36  C24 UNL     1      -6.668   1.220  11.312  1.00  0.00     0.245 A 
HETATM   37  O4  UNL     1      -6.729   1.763  12.459  1.00  0.00    -0.268 OA
HETATM   38  N4  UNL     1      -7.136   1.822  10.197  1.00  0.00    -0.333 N 
HETATM   39  C25 UNL     1      -7.081   1.269   8.991  1.00  0.00     0.098 A 
ATOM     40  H4  UNL     1      -7.553   2.749  10.286  1.00  0.00     0.168 HD
ENDBRANCH  32  33
ENDBRANCH  17  32
BRANCH  20  41
HETATM   41  O5  UNL     1      -2.781   1.394   5.772  1.00  0.00    -0.348 OA
ATOM     42  H5  UNL     1      -2.489   2.280   5.951  1.00  0.00     0.219 HD
ENDBRANCH  20  41
BRANCH  12  43
HETATM   43  C14 UNL     1      -8.843   1.483   2.773  1.00  0.00     0.038 C 
BRANCH  43  44
HETATM   44  C15 UNL     1      -8.803   2.138   1.473  1.00  0.00    -0.020 C 
HETATM   45  C16 UNL     1      -7.480   2.330   0.806  1.00  0.00     0.009 C 
HETATM   46  C17 UNL     1      -9.401   3.567   1.612  1.00  0.00     0.009 C 
ENDBRANCH  43  44
ENDBRANCH  12  43
BRANCH  27  47
HETATM   47  C31 UNL     1      -1.290   3.804  10.030  1.00  0.00     0.035 C 
BRANCH  47  48
HETATM   48  C32 UNL     1      -0.419   5.010  10.258  1.00  0.00     0.002 C 
BRANCH  48  49
HETATM   49  C33 UNL     1       0.959   4.683   9.676  1.00  0.00    -0.004 C 
HETATM   50  C34 UNL     1       1.976   5.590  10.346  1.00  0.00     0.005 C 
ENDBRANCH  48  49
ENDBRANCH  47  48
ENDBRANCH  27  47
BRANCH   1  51
HETATM   51  C6  UNL     1      -4.379   6.381   6.097  1.00  0.00     0.035 C 
BRANCH  51  52
HETATM   52  C5  UNL     1      -2.959   6.839   6.112  1.00  0.00     0.002 C 
BRANCH  52  53
HETATM   53  C4  UNL     1      -2.617   8.174   5.603  1.00  0.00     0.000 C 
BRANCH  53  54
HETATM   54  C3  UNL     1      -3.584   9.257   5.479  1.00  0.00    -0.000 C 
BRANCH  54  55
HETATM   55  C2  UNL     1      -3.696  10.190   6.627  1.00  0.00    -0.005 C 
HETATM   56  C1  UNL     1      -2.254  10.409   7.170  1.00  0.00     0.005 C 
ENDBRANCH  54  55
ENDBRANCH  53  54
ENDBRANCH  52  53
ENDBRANCH  51  52
ENDBRANCH   1  51
TORSDOF 13
ENDMDL
MODEL 2
REMARK VINA RESULT: -8.735004013      2.095      3.199
REMARK  13 active torsions:
REMARK  status: ('A' for Active; 'I' for Inactive)
REMARK    1  A    between atoms: C2_2  and  C3_3 
REMARK    2  A    between atoms: C3_3  and  C4_4 
REMARK    3  A    between atoms: C4_4  and  C5_5 
REMARK    4  A    between atoms: C5_5  and  C6_6 
REMARK    5  A    between atoms: C6_6  and  C7_7 
REMARK    6  A    between atoms: C13_18  and  C14_19 
REMARK    7  A    between atoms: C14_19  and  C15_20 
REMARK    8  A    between atoms: C19_27  and  C20_28 
REMARK    9  A    between atoms: C20_28  and  C21_29 
REMARK   10  A    between atoms: C26_39  and  O5_40 
REMARK   11  A    between atoms: C30_48  and  C31_49 
REMARK   12  A    between atoms: C31_49  and  C32_50 
REMARK   13  A    between atoms: C32_50  and  C33_51 
ROOT
HETATM    1  C7  UNL     1      -5.620   4.590   6.926  1.00  0.00     0.176 C 
HETATM    2  N1  UNL     1      -6.917   4.401   7.538  1.00  0.00    -0.346 N 
ATOM      3  H1  UNL     1      -6.907   4.348   8.556  1.00  0.00     0.163 HD
HETATM    4  C8  UNL     1      -8.173   4.278   6.960  1.00  0.00     0.240 C 
HETATM    5  O1  UNL     1      -9.076   5.111   7.344  1.00  0.00    -0.271 OA
HETATM    6  C9  UNL     1      -8.637   3.300   5.936  1.00  0.00     0.174 C 
HETATM    7  C10 UNL     1      -9.240   4.049   4.741  1.00  0.00     0.042 C 
HETATM    8  N2  UNL     1      -9.680   2.434   6.440  1.00  0.00    -0.342 N 
HETATM    9  C11 UNL     1     -10.430   2.903   7.617  1.00  0.00     0.153 C 
HETATM   10  C12 UNL     1      -9.998   1.175   5.852  1.00  0.00     0.243 C 
HETATM   11  O2  UNL     1     -10.803   0.459   6.502  1.00  0.00    -0.271 OA
HETATM   12  C13 UNL     1      -9.482   0.654   4.592  1.00  0.00     0.177 C 
HETATM   13  N3  UNL     1      -8.517  -0.426   4.695  1.00  0.00    -0.346 N 
ATOM     14  H3  UNL     1      -8.112  -0.695   3.799  1.00  0.00     0.163 HD
HETATM   15  C18 UNL     1      -8.034  -1.166   5.765  1.00  0.00     0.241 C 
HETATM   16  O3  UNL     1      -8.395  -2.404   5.780  1.00  0.00    -0.271 OA
HETATM   17  C19 UNL     1      -7.164  -0.758   6.889  1.00  0.00     0.179 C 
HETATM   18  N5  UNL     1      -5.756  -0.888   6.514  1.00  0.00    -0.359 N 
ATOM     19  H5  UNL     1      -5.537  -1.752   6.020  1.00  0.00     0.162 HD
HETATM   20  C26 UNL     1      -4.672  -0.063   6.704  1.00  0.00     0.135 C 
HETATM   21  C27 UNL     1      -4.038   0.436   7.948  1.00  0.00     0.155 C 
HETATM   22  C28 UNL     1      -3.548  -0.688   8.843  1.00  0.00     0.041 C 
HETATM   23  N6  UNL     1      -4.833   1.412   8.659  1.00  0.00    -0.348 N 
ATOM     24  H6  UNL     1      -5.831   1.225   8.761  1.00  0.00     0.163 HD
HETATM   25  C29 UNL     1      -4.330   2.609   9.224  1.00  0.00     0.241 C 
HETATM   26  O6  UNL     1      -4.804   2.987  10.326  1.00  0.00    -0.271 OA
HETATM   27  C30 UNL     1      -3.280   3.450   8.603  1.00  0.00     0.176 C 
HETATM   28  N7  UNL     1      -3.676   4.858   8.598  1.00  0.00    -0.346 N 
ATOM     29  H7  UNL     1      -3.161   5.502   9.198  1.00  0.00     0.163 HD
HETATM   30  C35 UNL     1      -4.728   5.383   7.812  1.00  0.00     0.241 C 
HETATM   31  O7  UNL     1      -4.923   6.642   7.872  1.00  0.00    -0.271 OA
ENDROOT
BRANCH  17  32
HETATM   32  C20 UNL     1      -7.389  -1.421   8.194  1.00  0.00     0.074 C 
BRANCH  32  33
HETATM   33  C21 UNL     1      -7.166  -0.652   9.417  1.00  0.00    -0.040 A 
HETATM   34  C22 UNL     1      -6.458  -1.143  10.485  1.00  0.00     0.014 A 
HETATM   35  C23 UNL     1      -6.246  -0.430  11.671  1.00  0.00     0.075 A 
HETATM   36  C24 UNL     1      -6.795   0.830  11.727  1.00  0.00     0.245 A 
HETATM   37  O4  UNL     1      -6.614   1.492  12.796  1.00  0.00    -0.268 OA
HETATM   38  N4  UNL     1      -7.493   1.319  10.679  1.00  0.00    -0.333 N 
HETATM   39  C25 UNL     1      -7.692   0.641   9.554  1.00  0.00     0.098 A 
ATOM     40  H4  UNL     1      -7.887   2.257  10.755  1.00  0.00     0.168 HD
ENDBRANCH  32  33
ENDBRANCH  17  32
BRANCH  20  41
HETATM   41  O5  UNL     1      -4.084   0.363   5.624  1.00  0.00    -0.348 OA
ATOM     42  H5  UNL     1      -3.152   0.190   5.562  1.00  0.00     0.219 HD
ENDBRANCH  20  41
BRANCH  12  43
HETATM   43  C14 UNL     1     -10.563   0.121   3.698  1.00  0.00     0.038 C 
BRANCH  43  44
HETATM   44  C15 UNL     1     -10.636   0.471   2.286  1.00  0.00    -0.020 C 
HETATM   45  C16 UNL     1     -11.191   1.803   1.904  1.00  0.00     0.009 C 
HETATM   46  C17 UNL     1     -11.531  -0.569   1.556  1.00  0.00     0.009 C 
ENDBRANCH  43  44
ENDBRANCH  12  43
BRANCH  27  47
HETATM   47  C31 UNL     1      -1.937   3.263   9.249  1.00  0.00     0.035 C 
BRANCH  47  48
HETATM   48  C32 UNL     1      -1.946   3.481  10.738  1.00  0.00     0.002 C 
BRANCH  48  49
HETATM   49  C33 UNL     1      -1.247   2.275  11.371  1.00  0.00    -0.004 C 
HETATM   50  C34 UNL     1      -2.305   1.425  12.053  1.00  0.00     0.005 C 
ENDBRANCH  48  49
ENDBRANCH  47  48
ENDBRANCH  27  47
BRANCH   1  51
HETATM   51  C6  UNL     1      -5.679   5.362   5.611  1.00  0.00     0.035 C 
BRANCH  51  52
HETATM   52  C5  UNL     1      -5.299   4.391   4.544  1.00  0.00     0.002 C 
BRANCH  52  53
HETATM   53  C4  UNL     1      -5.982   4.432   3.243  1.00  0.00     0.000 C 
BRANCH  53  54
HETATM   54  C3  UNL     1      -6.585   3.262   2.617  1.00  0.00    -0.000 C 
BRANCH  54  55
HETATM   55  C2  UNL     1      -7.621   3.514   1.586  1.00  0.00    -0.005 C 
HETATM   56  C1  UNL     1      -7.605   2.290   0.625  1.00  0.00     0.005 C 
ENDBRANCH  54  55
ENDBRANCH  53  54
ENDBRANCH  52  53
ENDBRANCH  51  52
ENDBRANCH   1  51
TORSDOF 13
ENDMDL
MODEL 3
REMARK VINA RESULT: -8.643733814      2.341      7.587
REMARK  13 active torsions:
REMARK  status: ('A' for Active; 'I' for Inactive)
REMARK    1  A    between atoms: C2_2  and  C3_3 
REMARK    2  A    between atoms: C3_3  and  C4_4 
REMARK    3  A    between atoms: C4_4  and  C5_5 
REMARK    4  A    between atoms: C5_5  and  C6_6 
REMARK    5  A    between atoms: C6_6  and  C7_7 
REMARK    6  A    between atoms: C13_18  and  C14_19 
REMARK    7  A    between atoms: C14_19  and  C15_20 
REMARK    8  A    between atoms: C19_27  and  C20_28 
REMARK    9  A    between atoms: C20_28  and  C21_29 
REMARK   10  A    between atoms: C26_39  and  O5_40 
REMARK   11  A    between atoms: C30_48  and  C31_49 
REMARK   12  A    between atoms: C31_49  and  C32_50 
REMARK   13  A    between atoms: C32_50  and  C33_51 
ROOT
HETATM    1  C7  UNL     1      -6.522   3.370   5.323  1.00  0.00     0.176 C 
HETATM    2  N1  UNL     1      -5.742   2.169   5.528  1.00  0.00    -0.346 N 
ATOM      3  H1  UNL     1      -6.114   1.334   5.076  1.00  0.00     0.163 HD
HETATM    4  C8  UNL     1      -4.569   1.972   6.242  1.00  0.00     0.240 C 
HETATM    5  O1  UNL     1      -3.571   1.470   5.602  1.00  0.00    -0.271 OA
HETATM    6  C9  UNL     1      -4.289   2.265   7.677  1.00  0.00     0.174 C 
HETATM    7  C10 UNL     1      -3.052   3.163   7.791  1.00  0.00     0.042 C 
HETATM    8  N2  UNL     1      -3.991   1.067   8.431  1.00  0.00    -0.342 N 
HETATM    9  C11 UNL     1      -3.551  -0.113   7.668  1.00  0.00     0.153 C 
HETATM   10  C12 UNL     1      -4.107   0.992   9.850  1.00  0.00     0.243 C 
HETATM   11  O2  UNL     1      -3.985  -0.159  10.345  1.00  0.00    -0.271 OA
HETATM   12  C13 UNL     1      -4.350   2.106  10.758  1.00  0.00     0.177 C 
HETATM   13  N3  UNL     1      -5.672   2.168  11.354  1.00  0.00    -0.346 N 
ATOM     14  H3  UNL     1      -5.830   3.011  11.905  1.00  0.00     0.163 HD
HETATM   15  C18 UNL     1      -6.764   1.313  11.325  1.00  0.00     0.241 C 
HETATM   16  O3  UNL     1      -7.036   0.735  12.445  1.00  0.00    -0.271 OA
HETATM   17  C19 UNL     1      -7.672   0.964  10.210  1.00  0.00     0.179 C 
HETATM   18  N5  UNL     1      -8.768   1.929  10.127  1.00  0.00    -0.359 N 
ATOM     19  H5  UNL     1      -9.178   2.170  11.030  1.00  0.00     0.162 HD
HETATM   20  C26 UNL     1      -9.350   2.573   9.061  1.00  0.00     0.135 C 
HETATM   21  C27 UNL     1     -10.061   2.039   7.874  1.00  0.00     0.155 C 
HETATM   22  C28 UNL     1     -11.276   1.209   8.248  1.00  0.00     0.041 C 
HETATM   23  N6  UNL     1      -9.197   1.371   6.926  1.00  0.00    -0.348 N 
ATOM     24  H6  UNL     1      -8.493   0.732   7.297  1.00  0.00     0.163 HD
HETATM   25  C29 UNL     1      -9.256   1.538   5.521  1.00  0.00     0.241 C 
HETATM   26  O6  UNL     1      -9.060   0.527   4.798  1.00  0.00    -0.271 OA
HETATM   27  C30 UNL     1      -9.532   2.825   4.842  1.00  0.00     0.176 C 
HETATM   28  N7  UNL     1      -8.562   3.071   3.776  1.00  0.00    -0.346 N 
ATOM     29  H7  UNL     1      -8.894   3.042   2.812  1.00  0.00     0.163 HD
HETATM   30  C35 UNL     1      -7.193   3.345   3.997  1.00  0.00     0.241 C 
HETATM   31  O7  UNL     1      -6.479   3.591   2.970  1.00  0.00    -0.271 OA
ENDROOT
BRANCH  17  32
HETATM   32  C20 UNL     1      -8.223  -0.410  10.191  1.00  0.00     0.074 C 
BRANCH  32  33
HETATM   33  C21 UNL     1      -8.331  -1.102   8.908  1.00  0.00    -0.040 A 
HETATM   34  C22 UNL     1      -9.411  -1.878   8.570  1.00  0.00     0.014 A 
HETATM   35  C23 UNL     1      -9.528  -2.562   7.354  1.00  0.00     0.075 A 
HETATM   36  C24 UNL     1      -8.477  -2.421   6.477  1.00  0.00     0.245 A 
HETATM   37  O4  UNL     1      -8.564  -3.035   5.368  1.00  0.00    -0.268 OA
HETATM   38  N4  UNL     1      -7.411  -1.659   6.803  1.00  0.00    -0.333 N 
HETATM   39  C25 UNL     1      -7.303  -1.010   7.958  1.00  0.00     0.098 A 
ATOM     40  H4  UNL     1      -6.650  -1.576   6.129  1.00  0.00     0.168 HD
ENDBRANCH  32  33
ENDBRANCH  17  32
BRANCH  20  41
HETATM   41  O5  UNL     1      -9.281   3.873   9.072  1.00  0.00    -0.348 OA
ATOM     42  H5  UNL     1      -9.067   4.286   8.244  1.00  0.00     0.219 HD
ENDBRANCH  20  41
BRANCH  12  43
HETATM   43  C14 UNL     1      -3.401   2.124  11.921  1.00  0.00     0.038 C 
BRANCH  43  44
HETATM   44  C15 UNL     1      -1.985   2.420  11.754  1.00  0.00    -0.020 C 
HETATM   45  C16 UNL     1      -1.583   3.473  10.775  1.00  0.00     0.009 C 
HETATM   46  C17 UNL     1      -1.253   1.129  11.290  1.00  0.00     0.009 C 
ENDBRANCH  43  44
ENDBRANCH  12  43
BRANCH  27  47
HETATM   47  C31 UNL     1     -10.941   2.915   4.330  1.00  0.00     0.035 C 
BRANCH  47  48
HETATM   48  C32 UNL     1     -11.032   3.162   2.849  1.00  0.00     0.002 C 
BRANCH  48  49
HETATM   49  C33 UNL     1     -11.684   4.534   2.662  1.00  0.00    -0.004 C 
HETATM   50  C34 UNL     1     -11.955   4.725   1.181  1.00  0.00     0.005 C 
ENDBRANCH  48  49
ENDBRANCH  47  48
ENDBRANCH  27  47
BRANCH   1  51
HETATM   51  C6  UNL     1      -5.683   4.645   5.332  1.00  0.00     0.035 C 
BRANCH  51  52
HETATM   52  C5  UNL     1      -6.098   5.405   6.546  1.00  0.00     0.002 C 
BRANCH  52  53
HETATM   53  C4  UNL     1      -5.446   6.682   6.867  1.00  0.00     0.000 C 
BRANCH  53  54
HETATM   54  C3  UNL     1      -4.228   6.784   7.660  1.00  0.00    -0.000 C 
BRANCH  54  55
HETATM   55  C2  UNL     1      -2.960   6.989   6.916  1.00  0.00    -0.005 C 
HETATM   56  C1  UNL     1      -3.312   7.821   5.649  1.00  0.00     0.005 C 
ENDBRANCH  54  55
ENDBRANCH  53  54
ENDBRANCH  52  53
ENDBRANCH  51  52
ENDBRANCH   1  51
TORSDOF 13
ENDMDL
MODEL 4
REMARK VINA RESULT: -8.636717518      1.891      2.529
REMARK  13 active torsions:
REMARK  status: ('A' for Active; 'I' for Inactive)
REMARK    1  A    between atoms: C2_2  and  C3_3 
REMARK    2  A    between atoms: C3_3  and  C4_4 
REMARK    3  A    between atoms: C4_4  and  C5_5 
REMARK    4  A    between atoms: C5_5  and  C6_6 
REMARK    5  A    between atoms: C6_6  and  C7_7 
REMARK    6  A    between atoms: C13_18  and  C14_19 
REMARK    7  A    between atoms: C14_19  and  C15_20 
REMARK    8  A    between atoms: C19_27  and  C20_28 
REMARK    9  A    between atoms: C20_28  and  C21_29 
REMARK   10  A    between atoms: C26_39  and  O5_40 
REMARK   11  A    between atoms: C30_48  and  C31_49 
REMARK   12  A    between atoms: C31_49  and  C32_50 
REMARK   13  A    between atoms: C32_50  and  C33_51 
ROOT
HETATM    1  C7  UNL     1      -3.799   4.230   8.247  1.00  0.00     0.176 C 
HETATM    2  N1  UNL     1      -5.175   4.664   8.137  1.00  0.00    -0.346 N 
ATOM      3  H1  UNL     1      -5.685   4.702   9.020  1.00  0.00     0.163 HD
HETATM    4  C8  UNL     1      -5.912   5.036   7.022  1.00  0.00     0.240 C 
HETATM    5  O1  UNL     1      -6.453   6.204   7.042  1.00  0.00    -0.271 OA
HETATM    6  C9  UNL     1      -6.172   4.262   5.775  1.00  0.00     0.174 C 
HETATM    7  C10 UNL     1      -5.749   5.088   4.555  1.00  0.00     0.042 C 
HETATM    8  N2  UNL     1      -7.578   3.969   5.598  1.00  0.00    -0.342 N 
HETATM    9  C11 UNL     1      -8.536   4.813   6.330  1.00  0.00     0.153 C 
HETATM   10  C12 UNL     1      -8.054   2.918   4.761  1.00  0.00     0.243 C 
HETATM   11  O2  UNL     1      -9.285   2.672   4.844  1.00  0.00    -0.271 OA
HETATM   12  C13 UNL     1      -7.257   2.119   3.838  1.00  0.00     0.177 C 
HETATM   13  N3  UNL     1      -7.006   0.745   4.235  1.00  0.00    -0.346 N 
ATOM     14  H3  UNL     1      -6.368   0.252   3.611  1.00  0.00     0.163 HD
HETATM   15  C18 UNL     1      -7.459  -0.033   5.291  1.00  0.00     0.241 C 
HETATM   16  O3  UNL     1      -8.253  -0.994   4.961  1.00  0.00    -0.271 OA
HETATM   17  C19 UNL     1      -7.168   0.064   6.738  1.00  0.00     0.179 C 
HETATM   18  N5  UNL     1      -5.954  -0.685   7.063  1.00  0.00    -0.359 N 
ATOM     19  H5  UNL     1      -5.899  -1.600   6.616  1.00  0.00     0.162 HD
HETATM   20  C26 UNL     1      -4.872  -0.385   7.857  1.00  0.00     0.135 C 
HETATM   21  C27 UNL     1      -4.783  -0.095   9.309  1.00  0.00     0.155 C 
HETATM   22  C28 UNL     1      -5.303  -1.237  10.163  1.00  0.00     0.041 C 
HETATM   23  N6  UNL     1      -5.342   1.184   9.685  1.00  0.00    -0.348 N 
ATOM     24  H6  UNL     1      -6.237   1.448   9.274  1.00  0.00     0.163 HD
HETATM   25  C29 UNL     1      -4.737   2.099  10.581  1.00  0.00     0.241 C 
HETATM   26  O6  UNL     1      -5.484   2.738  11.367  1.00  0.00    -0.271 OA
HETATM   27  C30 UNL     1      -3.280   2.356  10.658  1.00  0.00     0.176 C 
HETATM   28  N7  UNL     1      -3.004   3.793  10.661  1.00  0.00    -0.346 N 
ATOM     29  H7  UNL     1      -2.635   4.207  11.517  1.00  0.00     0.163 HD
HETATM   30  C35 UNL     1      -3.217   4.643   9.551  1.00  0.00     0.241 C 
HETATM   31  O7  UNL     1      -2.879   5.866   9.686  1.00  0.00    -0.271 OA
ENDROOT
BRANCH  17  32
HETATM   32  C20 UNL     1      -8.250  -0.324   7.673  1.00  0.00     0.074 C 
BRANCH  32  33
HETATM   33  C21 UNL     1      -9.003   0.732   8.346  1.00  0.00    -0.040 A 
HETATM   34  C22 UNL     1     -10.315   0.586   8.721  1.00  0.00     0.014 A 
HETATM   35  C23 UNL     1     -11.060   1.589   9.352  1.00  0.00     0.075 A 
HETATM   36  C24 UNL     1     -10.402   2.774   9.591  1.00  0.00     0.245 A 
HETATM   37  O4  UNL     1     -11.062   3.697  10.161  1.00  0.00    -0.268 OA
HETATM   38  N4  UNL     1      -9.110   2.924   9.224  1.00  0.00    -0.333 N 
HETATM   39  C25 UNL     1      -8.405   1.970   8.625  1.00  0.00     0.098 A 
ATOM     40  H4  UNL     1      -8.653   3.816   9.415  1.00  0.00     0.168 HD
ENDBRANCH  32  33
ENDBRANCH  17  32
BRANCH  20  41
HETATM   41  O5  UNL     1      -3.717  -0.345   7.257  1.00  0.00    -0.348 OA
ATOM     42  H5  UNL     1      -3.616   0.326   6.593  1.00  0.00     0.219 HD
ENDBRANCH  20  41
BRANCH  12  43
HETATM   43  C14 UNL     1      -7.874   2.020   2.474  1.00  0.00     0.038 C 
BRANCH  43  44
HETATM   44  C15 UNL     1      -7.743   3.087   1.492  1.00  0.00    -0.020 C 
HETATM   45  C16 UNL     1      -8.635   4.279   1.604  1.00  0.00     0.009 C 
HETATM   46  C17 UNL     1      -8.016   2.504   0.077  1.00  0.00     0.009 C 
ENDBRANCH  43  44
ENDBRANCH  12  43
BRANCH  27  47
HETATM   47  C31 UNL     1      -2.636   1.674  11.830  1.00  0.00     0.035 C 
BRANCH  47  48
HETATM   48  C32 UNL     1      -1.998   0.355  11.487  1.00  0.00     0.002 C 
BRANCH  48  49
HETATM   49  C33 UNL     1      -1.363   0.511  10.103  1.00  0.00    -0.004 C 
HETATM   50  C34 UNL     1       0.143   0.571  10.282  1.00  0.00     0.005 C 
ENDBRANCH  48  49
ENDBRANCH  47  48
ENDBRANCH  27  47
BRANCH   1  51
HETATM   51  C6  UNL     1      -2.887   4.835   7.184  1.00  0.00     0.035 C 
BRANCH  51  52
HETATM   52  C5  UNL     1      -3.070   6.312   7.273  1.00  0.00     0.002 C 
BRANCH  52  53
HETATM   53  C4  UNL     1      -2.939   7.139   6.064  1.00  0.00     0.000 C 
BRANCH  53  54
HETATM   54  C3  UNL     1      -3.813   8.265   5.765  1.00  0.00    -0.000 C 
BRANCH  54  55
HETATM   55  C2  UNL     1      -3.155   9.546   5.406  1.00  0.00    -0.005 C 
HETATM   56  C1  UNL     1      -2.767  10.242   6.743  1.00  0.00     0.005 C 
ENDBRANCH  54  55
ENDBRANCH  53  54
ENDBRANCH  52  53
ENDBRANCH  51  52
ENDBRANCH   1  51
TORSDOF 13
ENDMDL
MODEL 5
REMARK VINA RESULT: -8.605209816      2.797      7.774
REMARK  13 active torsions:
REMARK  status: ('A' for Active; 'I' for Inactive)
REMARK    1  A    between atoms: C2_2  and  C3_3 
REMARK    2  A    between atoms: C3_3  and  C4_4 
REMARK    3  A    between atoms: C4_4  and  C5_5 
REMARK    4  A    between atoms: C5_5  and  C6_6 
REMARK    5  A    between atoms: C6_6  and  C7_7 
REMARK    6  A    between atoms: C13_18  and  C14_19 
REMARK    7  A    between atoms: C14_19  and  C15_20 
REMARK    8  A    between atoms: C19_27  and  C20_28 
REMARK    9  A    between atoms: C20_28  and  C21_29 
REMARK   10  A    between atoms: C26_39  and  O5_40 
REMARK   11  A    between atoms: C30_48  and  C31_49 
REMARK   12  A    between atoms: C31_49  and  C32_50 
REMARK   13  A    between atoms: C32_50  and  C33_51 
ROOT
HETATM    1  C7  UNL     1      -6.522   3.258   5.254  1.00  0.00     0.176 C 
HETATM    2  N1  UNL     1      -5.736   2.066   5.486  1.00  0.00    -0.346 N 
ATOM      3  H1  UNL     1      -6.107   1.218   5.059  1.00  0.00     0.163 HD
HETATM    4  C8  UNL     1      -4.558   1.894   6.198  1.00  0.00     0.240 C 
HETATM    5  O1  UNL     1      -3.562   1.379   5.565  1.00  0.00    -0.271 OA
HETATM    6  C9  UNL     1      -4.271   2.226   7.622  1.00  0.00     0.174 C 
HETATM    7  C10 UNL     1      -3.037   3.132   7.704  1.00  0.00     0.042 C 
HETATM    8  N2  UNL     1      -3.963   1.051   8.407  1.00  0.00    -0.342 N 
HETATM    9  C11 UNL     1      -3.523  -0.148   7.674  1.00  0.00     0.153 C 
HETATM   10  C12 UNL     1      -4.069   1.013   9.828  1.00  0.00     0.243 C 
HETATM   11  O2  UNL     1      -3.940  -0.123  10.353  1.00  0.00    -0.271 OA
HETATM   12  C13 UNL     1      -4.311   2.151  10.707  1.00  0.00     0.177 C 
HETATM   13  N3  UNL     1      -5.631   2.223  11.309  1.00  0.00    -0.346 N 
ATOM     14  H3  UNL     1      -5.789   3.081  11.838  1.00  0.00     0.163 HD
HETATM   15  C18 UNL     1      -6.719   1.364  11.310  1.00  0.00     0.241 C 
HETATM   16  O3  UNL     1      -6.981   0.815  12.447  1.00  0.00    -0.271 OA
HETATM   17  C19 UNL     1      -7.632   0.981  10.211  1.00  0.00     0.179 C 
HETATM   18  N5  UNL     1      -8.733   1.939  10.109  1.00  0.00    -0.359 N 
ATOM     19  H5  UNL     1      -9.138   2.202  11.007  1.00  0.00     0.162 HD
HETATM   20  C26 UNL     1      -9.324   2.552   9.029  1.00  0.00     0.135 C 
HETATM   21  C27 UNL     1     -10.041   1.982   7.861  1.00  0.00     0.155 C 
HETATM   22  C28 UNL     1     -11.250   1.158   8.265  1.00  0.00     0.041 C 
HETATM   23  N6  UNL     1      -9.179   1.292   6.927  1.00  0.00    -0.348 N 
ATOM     24  H6  UNL     1      -8.470   0.667   7.311  1.00  0.00     0.163 HD
HETATM   25  C29 UNL     1      -9.247   1.421   5.518  1.00  0.00     0.241 C 
HETATM   26  O6  UNL     1      -9.051   0.392   4.821  1.00  0.00    -0.271 OA
HETATM   27  C30 UNL     1      -9.533   2.688   4.807  1.00  0.00     0.176 C 
HETATM   28  N7  UNL     1      -8.571   2.909   3.727  1.00  0.00    -0.346 N 
ATOM     29  H7  UNL     1      -8.908   2.853   2.767  1.00  0.00     0.163 HD
HETATM   30  C35 UNL     1      -7.201   3.195   3.933  1.00  0.00     0.241 C 
HETATM   31  O7  UNL     1      -6.494   3.416   2.895  1.00  0.00    -0.271 OA
ENDROOT
BRANCH  17  32
HETATM   32  C20 UNL     1      -8.178  -0.395  10.232  1.00  0.00     0.074 C 
BRANCH  32  33
HETATM   33  C21 UNL     1      -8.241  -1.142   8.978  1.00  0.00    -0.040 A 
HETATM   34  C22 UNL     1      -7.208  -1.169   8.075  1.00  0.00     0.014 A 
HETATM   35  C23 UNL     1      -7.254  -1.864   6.860  1.00  0.00     0.075 A 
HETATM   36  C24 UNL     1      -8.420  -2.546   6.596  1.00  0.00     0.245 A 
HETATM   37  O4  UNL     1      -8.481  -3.182   5.499  1.00  0.00    -0.268 OA
HETATM   38  N4  UNL     1      -9.441  -2.523   7.480  1.00  0.00    -0.333 N 
HETATM   39  C25 UNL     1      -9.394  -1.863   8.633  1.00  0.00     0.098 A 
ATOM     40  H4  UNL     1     -10.291  -3.039   7.252  1.00  0.00     0.168 HD
ENDBRANCH  32  33
ENDBRANCH  17  32
BRANCH  20  41
HETATM   41  O5  UNL     1      -9.261   3.851   9.005  1.00  0.00    -0.348 OA
ATOM     42  H5  UNL     1     -10.089   4.310   9.086  1.00  0.00     0.219 HD
ENDBRANCH  20  41
BRANCH  12  43
HETATM   43  C14 UNL     1      -3.356   2.204  11.863  1.00  0.00     0.038 C 
BRANCH  43  44
HETATM   44  C15 UNL     1      -1.965   2.602  11.694  1.00  0.00    -0.020 C 
HETATM   45  C16 UNL     1      -1.639   3.663  10.696  1.00  0.00     0.009 C 
HETATM   46  C17 UNL     1      -1.138   1.360  11.255  1.00  0.00     0.009 C 
ENDBRANCH  43  44
ENDBRANCH  12  43
BRANCH  27  47
HETATM   47  C31 UNL     1     -10.946   2.758   4.301  1.00  0.00     0.035 C 
BRANCH  47  48
HETATM   48  C32 UNL     1     -11.046   2.995   2.818  1.00  0.00     0.002 C 
BRANCH  48  49
HETATM   49  C33 UNL     1     -11.765   4.333   2.627  1.00  0.00    -0.004 C 
HETATM   50  C34 UNL     1     -11.853   4.607   1.136  1.00  0.00     0.005 C 
ENDBRANCH  48  49
ENDBRANCH  47  48
ENDBRANCH  27  47
BRANCH   1  51
HETATM   51  C6  UNL     1      -5.689   4.536   5.223  1.00  0.00     0.035 C 
BRANCH  51  52
HETATM   52  C5  UNL     1      -6.296   5.450   6.233  1.00  0.00     0.002 C 
BRANCH  52  53
HETATM   53  C4  UNL     1      -7.516   6.200   5.900  1.00  0.00     0.000 C 
BRANCH  53  54
HETATM   54  C3  UNL     1      -7.722   6.868   4.622  1.00  0.00    -0.000 C 
BRANCH  54  55
HETATM   55  C2  UNL     1      -8.932   6.484   3.853  1.00  0.00    -0.005 C 
HETATM   56  C1  UNL     1      -8.491   6.330   2.368  1.00  0.00     0.005 C 
ENDBRANCH  54  55
ENDBRANCH  53  54
ENDBRANCH  52  53
ENDBRANCH  51  52
ENDBRANCH   1  51
TORSDOF 13
ENDMDL
