MODEL 1
REMARK VINA RESULT: -8.025677002      0.000      0.000
REMARK  15 active torsions:
REMARK  status: ('A' for Active; 'I' for Inactive)
REMARK    1  A    between atoms: C2_2  and  C3_3 
REMARK    2  A    between atoms: C3_3  and  C4_4 
REMARK    3  A    between atoms: C4_4  and  C5_5 
REMARK    4  A    between atoms: C7_10  and  C8_11 
REMARK    5  A    between atoms: C8_11  and  C9_12 
REMARK    6  A    between atoms: C13_19  and  C14_20 
REMARK    7  A    between atoms: C14_20  and  C15_21 
REMARK    8  A    between atoms: C18_26  and  O3_27 
REMARK    9  A    between atoms: N5_36  and  C24_37 
REMARK   10  A    between atoms: C24_37  and  C25_38 
REMARK   11  A    between atoms: C30_47  and  C31_48 
REMARK   12  A    between atoms: C32_49  and  C33_50 
REMARK   13  A    between atoms: C33_50  and  C34_51 
REMARK   14  A    between atoms: C34_51  and  C35_52 
REMARK   15  A    between atoms: C35_52  and  N7_53 
ROOT
HETATM    1  C5  UNL     1      -5.205   1.431   9.084  1.00  0.00     0.178 C 
HETATM    2  N1  UNL     1      -5.056   1.583   7.681  1.00  0.00    -0.346 N 
ATOM      3  H1  UNL     1      -5.395   0.770   7.167  1.00  0.00     0.163 HD
HETATM    4  C6  UNL     1      -4.567   2.557   6.845  1.00  0.00     0.241 C 
HETATM    5  O1  UNL     1      -3.641   2.224   6.007  1.00  0.00    -0.271 OA
HETATM    6  C7  UNL     1      -4.915   4.014   6.699  1.00  0.00     0.177 C 
HETATM    7  N2  UNL     1      -6.328   4.076   6.709  1.00  0.00    -0.346 N 
ATOM      8  H2  UNL     1      -6.736   4.184   7.638  1.00  0.00     0.163 HD
HETATM    9  C12 UNL     1      -7.274   4.016   5.658  1.00  0.00     0.241 C 
HETATM   10  O2  UNL     1      -8.390   4.591   5.981  1.00  0.00    -0.271 OA
HETATM   11  C13 UNL     1      -7.189   3.435   4.342  1.00  0.00     0.175 C 
HETATM   12  N3  UNL     1      -6.685   2.071   4.279  1.00  0.00    -0.361 N 
ATOM     13  H3  UNL     1      -5.730   2.042   3.920  1.00  0.00     0.162 HD
HETATM   14  C18 UNL     1      -7.144   0.829   4.569  1.00  0.00     0.117 C 
HETATM   15  C19 UNL     1      -8.406   0.205   5.007  1.00  0.00     0.071 C 
HETATM   16  C20 UNL     1      -9.600   1.050   5.165  1.00  0.00     0.013 C 
HETATM   17  C21 UNL     1     -10.642   0.158   5.856  1.00  0.00     0.004 C 
HETATM   18  C22 UNL     1     -10.207   0.099   7.297  1.00  0.00     0.043 C 
HETATM   19  C23 UNL     1      -8.749  -0.236   7.485  1.00  0.00     0.134 C 
HETATM   20  N4  UNL     1      -7.902   0.761   7.949  1.00  0.00    -0.311 N 
ATOM     21  H4  UNL     1      -7.242   1.133   7.266  1.00  0.00     0.182 HD
HETATM   22  N5  UNL     1      -7.834   1.305   9.177  1.00  0.00    -0.262 N 
HETATM   23  C28 UNL     1      -6.518   1.481   9.712  1.00  0.00     0.260 C 
HETATM   24  O4  UNL     1      -6.484   1.728  10.980  1.00  0.00    -0.269 OA
HETATM   25  C29 UNL     1      -8.654  -1.382   8.426  1.00  0.00     0.253 C 
HETATM   26  O5  UNL     1      -8.169  -1.234   9.615  1.00  0.00    -0.270 OA
HETATM   27  N6  UNL     1      -9.095  -2.667   8.037  1.00  0.00    -0.318 N 
ATOM     28  H6  UNL     1      -9.432  -3.334   8.731  1.00  0.00     0.169 HD
HETATM   29  C30 UNL     1      -9.058  -3.009   6.665  1.00  0.00     0.086 C 
HETATM   30  C36 UNL     1      -8.619  -2.105   5.836  1.00  0.00     0.021 C 
HETATM   31  C37 UNL     1      -8.149  -0.739   6.166  1.00  0.00     0.062 C 
ENDROOT
BRANCH  29  32
HETATM   32  C31 UNL     1      -9.496  -4.319   6.260  1.00  0.00    -0.049 C 
HETATM   33  C32 UNL     1      -9.851  -5.438   5.900  1.00  0.00    -0.100 C 
BRANCH  33  34
HETATM   34  C33 UNL     1     -10.273  -6.775   5.513  1.00  0.00     0.096 C 
BRANCH  34  35
HETATM   35  C34 UNL     1     -10.723  -7.548   6.686  1.00  0.00     0.039 C 
BRANCH  35  36
HETATM   36  C35 UNL     1     -11.859  -7.006   7.470  1.00  0.00     0.230 C 
BRANCH  36  37
HETATM   37  N7  UNL     1     -11.486  -6.834   8.848  1.00  0.00    -0.079 N 
ATOM     38  H73 UNL     1     -10.511  -7.088   9.012  1.00  0.00     0.274 HD
ATOM     39  H72 UNL     1     -11.432  -5.848   9.105  1.00  0.00     0.274 HD
ATOM     40  H71 UNL     1     -12.119  -7.350   9.459  1.00  0.00     0.274 HD
ENDBRANCH  36  37
ENDBRANCH  35  36
ENDBRANCH  34  35
ENDBRANCH  33  34
ENDBRANCH  29  32
BRANCH  14  41
HETATM   41  O3  UNL     1      -6.287  -0.163   4.453  1.00  0.00    -0.349 OA
ATOM     42  H3  UNL     1      -6.604  -1.032   4.672  1.00  0.00     0.219 HD
ENDBRANCH  14  41
BRANCH  22  43
HETATM   43  C24 UNL     1      -8.961   1.710  10.021  1.00  0.00     0.156 C 
BRANCH  43  44
HETATM   44  C25 UNL     1      -9.804   2.821   9.510  1.00  0.00     0.006 A 
HETATM   45  C26 UNL     1     -10.563   3.779  10.315  1.00  0.00     0.007 A 
HETATM   46  C27 UNL     1     -11.298   2.638   9.717  1.00  0.00     0.007 A 
ENDBRANCH  43  44
ENDBRANCH  22  43
BRANCH  11  47
HETATM   47  C14 UNL     1      -6.547   4.272   3.251  1.00  0.00     0.038 C 
BRANCH  47  48
HETATM   48  C15 UNL     1      -7.421   4.930   2.274  1.00  0.00    -0.020 C 
HETATM   49  C16 UNL     1      -8.163   6.147   2.675  1.00  0.00     0.009 C 
HETATM   50  C17 UNL     1      -8.364   3.883   1.677  1.00  0.00     0.009 C 
ENDBRANCH  47  48
ENDBRANCH  11  47
BRANCH   1  51
HETATM   51  C4  UNL     1      -4.470   0.118   9.450  1.00  0.00     0.035 C 
BRANCH  51  52
HETATM   52  C3  UNL     1      -3.024   0.363   9.756  1.00  0.00     0.002 C 
BRANCH  52  53
HETATM   53  C2  UNL     1      -2.625   0.120  11.181  1.00  0.00    -0.004 C 
HETATM   54  C1  UNL     1      -2.473   1.463  11.922  1.00  0.00     0.005 C 
ENDBRANCH  52  53
ENDBRANCH  51  52
ENDBRANCH   1  51
BRANCH   6  55
HETATM   55  C8  UNL     1      -4.316   4.824   7.800  1.00  0.00     0.038 C 
BRANCH  55  56
HETATM   56  C9  UNL     1      -3.131   4.300   8.506  1.00  0.00    -0.020 C 
HETATM   57  C10 UNL     1      -3.452   4.435  10.014  1.00  0.00     0.009 C 
HETATM   58  C11 UNL     1      -1.885   5.146   8.336  1.00  0.00     0.009 C 
ENDBRANCH  55  56
ENDBRANCH   6  55
TORSDOF 15
ENDMDL
MODEL 2
REMARK VINA RESULT: -7.912412968      0.987      1.102
REMARK  15 active torsions:
REMARK  status: ('A' for Active; 'I' for Inactive)
REMARK    1  A    between atoms: C2_2  and  C3_3 
REMARK    2  A    between atoms: C3_3  and  C4_4 
REMARK    3  A    between atoms: C4_4  and  C5_5 
REMARK    4  A    between atoms: C7_10  and  C8_11 
REMARK    5  A    between atoms: C8_11  and  C9_12 
REMARK    6  A    between atoms: C13_19  and  C14_20 
REMARK    7  A    between atoms: C14_20  and  C15_21 
REMARK    8  A    between atoms: C18_26  and  O3_27 
REMARK    9  A    between atoms: N5_36  and  C24_37 
REMARK   10  A    between atoms: C24_37  and  C25_38 
REMARK   11  A    between atoms: C30_47  and  C31_48 
REMARK   12  A    between atoms: C32_49  and  C33_50 
REMARK   13  A    between atoms: C33_50  and  C34_51 
REMARK   14  A    between atoms: C34_51  and  C35_52 
REMARK   15  A    between atoms: C35_52  and  N7_53 
ROOT
HETATM    1  C5  UNL     1      -5.226   1.413   9.102  1.00  0.00     0.178 C 
HETATM    2  N1  UNL     1      -5.073   1.568   7.700  1.00  0.00    -0.346 N 
ATOM      3  H1  UNL     1      -5.412   0.757   7.183  1.00  0.00     0.163 HD
HETATM    4  C6  UNL     1      -4.579   2.543   6.867  1.00  0.00     0.241 C 
HETATM    5  O1  UNL     1      -3.652   2.210   6.031  1.00  0.00    -0.271 OA
HETATM    6  C7  UNL     1      -4.923   4.001   6.723  1.00  0.00     0.177 C 
HETATM    7  N2  UNL     1      -6.336   4.067   6.730  1.00  0.00    -0.346 N 
ATOM      8  H2  UNL     1      -6.747   4.173   7.657  1.00  0.00     0.163 HD
HETATM    9  C12 UNL     1      -7.279   4.011   5.676  1.00  0.00     0.241 C 
HETATM   10  O2  UNL     1      -8.394   4.588   5.997  1.00  0.00    -0.271 OA
HETATM   11  C13 UNL     1      -7.191   3.433   4.359  1.00  0.00     0.175 C 
HETATM   12  N3  UNL     1      -6.690   2.067   4.294  1.00  0.00    -0.361 N 
ATOM     13  H3  UNL     1      -5.734   2.037   3.938  1.00  0.00     0.162 HD
HETATM   14  C18 UNL     1      -7.153   0.826   4.580  1.00  0.00     0.117 C 
HETATM   15  C19 UNL     1      -8.418   0.204   5.013  1.00  0.00     0.071 C 
HETATM   16  C20 UNL     1      -9.610   1.052   5.169  1.00  0.00     0.013 C 
HETATM   17  C21 UNL     1     -10.656   0.160   5.855  1.00  0.00     0.004 C 
HETATM   18  C22 UNL     1     -10.226   0.098   7.298  1.00  0.00     0.043 C 
HETATM   19  C23 UNL     1      -8.770  -0.242   7.489  1.00  0.00     0.134 C 
HETATM   20  N4  UNL     1      -7.922   0.753   7.958  1.00  0.00    -0.311 N 
ATOM     21  H4  UNL     1      -7.258   1.124   7.277  1.00  0.00     0.182 HD
HETATM   22  N5  UNL     1      -7.856   1.293   9.187  1.00  0.00    -0.262 N 
HETATM   23  C28 UNL     1      -6.541   1.465   9.726  1.00  0.00     0.260 C 
HETATM   24  O4  UNL     1      -6.510   1.709  10.995  1.00  0.00    -0.269 OA
HETATM   25  C29 UNL     1      -8.680  -1.390   8.428  1.00  0.00     0.253 C 
HETATM   26  O5  UNL     1      -8.197  -1.245   9.618  1.00  0.00    -0.270 OA
HETATM   27  N6  UNL     1      -9.122  -2.673   8.035  1.00  0.00    -0.318 N 
ATOM     28  H6  UNL     1      -9.463  -3.341   8.726  1.00  0.00     0.169 HD
HETATM   29  C30 UNL     1      -9.082  -3.012   6.663  1.00  0.00     0.086 C 
HETATM   30  C36 UNL     1      -8.639  -2.108   5.836  1.00  0.00     0.021 C 
HETATM   31  C37 UNL     1      -8.166  -0.743   6.171  1.00  0.00     0.062 C 
ENDROOT
BRANCH  29  32
HETATM   32  C31 UNL     1      -9.523  -4.320   6.253  1.00  0.00    -0.049 C 
HETATM   33  C32 UNL     1      -9.913  -5.436   5.922  1.00  0.00    -0.100 C 
BRANCH  33  34
HETATM   34  C33 UNL     1     -10.385  -6.743   5.492  1.00  0.00     0.096 C 
BRANCH  34  35
HETATM   35  C34 UNL     1     -11.744  -6.656   4.926  1.00  0.00     0.039 C 
BRANCH  35  36
HETATM   36  C35 UNL     1     -11.888  -6.816   3.459  1.00  0.00     0.230 C 
BRANCH  36  37
HETATM   37  N7  UNL     1     -11.824  -5.539   2.801  1.00  0.00    -0.079 N 
ATOM     38  H73 UNL     1     -11.550  -5.630   1.822  1.00  0.00     0.274 HD
ATOM     39  H72 UNL     1     -12.752  -5.137   2.663  1.00  0.00     0.274 HD
ATOM     40  H71 UNL     1     -11.209  -4.904   3.309  1.00  0.00     0.274 HD
ENDBRANCH  36  37
ENDBRANCH  35  36
ENDBRANCH  34  35
ENDBRANCH  33  34
ENDBRANCH  29  32
BRANCH  14  41
HETATM   41  O3  UNL     1      -6.298  -0.168   4.465  1.00  0.00    -0.349 OA
ATOM     42  H3  UNL     1      -6.496  -0.962   4.947  1.00  0.00     0.219 HD
ENDBRANCH  14  41
BRANCH  22  43
HETATM   43  C24 UNL     1      -8.984   1.700  10.029  1.00  0.00     0.156 C 
BRANCH  43  44
HETATM   44  C25 UNL     1      -9.819   2.818   9.520  1.00  0.00     0.006 A 
HETATM   45  C26 UNL     1     -10.553   3.792  10.328  1.00  0.00     0.007 A 
HETATM   46  C27 UNL     1     -11.312   2.657   9.750  1.00  0.00     0.007 A 
ENDBRANCH  43  44
ENDBRANCH  22  43
BRANCH  11  47
HETATM   47  C14 UNL     1      -6.544   4.271   3.272  1.00  0.00     0.038 C 
BRANCH  47  48
HETATM   48  C15 UNL     1      -7.414   4.934   2.294  1.00  0.00    -0.020 C 
HETATM   49  C16 UNL     1      -8.165   6.143   2.700  1.00  0.00     0.009 C 
HETATM   50  C17 UNL     1      -8.347   3.888   1.679  1.00  0.00     0.009 C 
ENDBRANCH  47  48
ENDBRANCH  11  47
BRANCH   1  51
HETATM   51  C4  UNL     1      -4.495   0.098   9.467  1.00  0.00     0.035 C 
BRANCH  51  52
HETATM   52  C3  UNL     1      -3.056   0.342   9.805  1.00  0.00     0.002 C 
BRANCH  52  53
HETATM   53  C2  UNL     1      -2.690   0.110  11.240  1.00  0.00    -0.004 C 
HETATM   54  C1  UNL     1      -2.442   1.458  11.946  1.00  0.00     0.005 C 
ENDBRANCH  52  53
ENDBRANCH  51  52
ENDBRANCH   1  51
BRANCH   6  55
HETATM   55  C8  UNL     1      -4.326   4.807   7.828  1.00  0.00     0.038 C 
BRANCH  55  56
HETATM   56  C9  UNL     1      -3.129   4.291   8.520  1.00  0.00    -0.020 C 
HETATM   57  C10 UNL     1      -3.428   4.433  10.031  1.00  0.00     0.009 C 
HETATM   58  C11 UNL     1      -1.888   5.141   8.327  1.00  0.00     0.009 C 
ENDBRANCH  55  56
ENDBRANCH   6  55
TORSDOF 15
ENDMDL
MODEL 3
REMARK VINA RESULT: -7.529246502      3.879      8.378
REMARK  15 active torsions:
REMARK  status: ('A' for Active; 'I' for Inactive)
REMARK    1  A    between atoms: C2_2  and  C3_3 
REMARK    2  A    between atoms: C3_3  and  C4_4 
REMARK    3  A    between atoms: C4_4  and  C5_5 
REMARK    4  A    between atoms: C7_10  and  C8_11 
REMARK    5  A    between atoms: C8_11  and  C9_12 
REMARK    6  A    between atoms: C13_19  and  C14_20 
REMARK    7  A    between atoms: C14_20  and  C15_21 
REMARK    8  A    between atoms: C18_26  and  O3_27 
REMARK    9  A    between atoms: N5_36  and  C24_37 
REMARK   10  A    between atoms: C24_37  and  C25_38 
REMARK   11  A    between atoms: C30_47  and  C31_48 
REMARK   12  A    between atoms: C32_49  and  C33_50 
REMARK   13  A    between atoms: C33_50  and  C34_51 
REMARK   14  A    between atoms: C34_51  and  C35_52 
REMARK   15  A    between atoms: C35_52  and  N7_53 
ROOT
HETATM    1  C5  UNL     1     -10.184   2.719   5.014  1.00  0.00     0.178 C 
HETATM    2  N1  UNL     1     -10.121   4.068   5.449  1.00  0.00    -0.346 N 
ATOM      3  H1  UNL     1      -9.416   4.207   6.174  1.00  0.00     0.163 HD
HETATM    4  C6  UNL     1     -10.775   5.234   5.134  1.00  0.00     0.241 C 
HETATM    5  O1  UNL     1     -11.343   5.886   6.094  1.00  0.00    -0.271 OA
HETATM    6  C7  UNL     1     -10.973   5.943   3.821  1.00  0.00     0.177 C 
HETATM    7  N2  UNL     1      -9.712   5.931   3.182  1.00  0.00    -0.346 N 
ATOM      8  H2  UNL     1      -9.549   5.115   2.591  1.00  0.00     0.163 HD
HETATM    9  C12 UNL     1      -8.636   6.851   3.216  1.00  0.00     0.241 C 
HETATM   10  O2  UNL     1      -7.893   6.763   2.159  1.00  0.00    -0.271 OA
HETATM   11  C13 UNL     1      -8.259   7.826   4.208  1.00  0.00     0.175 C 
HETATM   12  N3  UNL     1      -8.200   7.348   5.582  1.00  0.00    -0.361 N 
ATOM     13  H3  UNL     1      -8.994   7.684   6.129  1.00  0.00     0.162 HD
HETATM   14  C18 UNL     1      -7.374   6.576   6.330  1.00  0.00     0.117 C 
HETATM   15  C19 UNL     1      -6.073   5.900   6.175  1.00  0.00     0.071 C 
HETATM   16  C20 UNL     1      -5.328   6.070   4.917  1.00  0.00     0.013 C 
HETATM   17  C21 UNL     1      -4.174   5.059   4.989  1.00  0.00     0.004 C 
HETATM   18  C22 UNL     1      -4.810   3.724   4.703  1.00  0.00     0.043 C 
HETATM   19  C23 UNL     1      -6.047   3.447   5.519  1.00  0.00     0.134 C 
HETATM   20  N4  UNL     1      -7.273   3.437   4.867  1.00  0.00    -0.311 N 
ATOM     21  H4  UNL     1      -7.888   4.225   5.072  1.00  0.00     0.182 HD
HETATM   22  N5  UNL     1      -7.760   2.531   4.001  1.00  0.00    -0.262 N 
HETATM   23  C28 UNL     1      -9.121   2.137   4.206  1.00  0.00     0.260 C 
HETATM   24  O4  UNL     1      -9.474   1.075   3.561  1.00  0.00    -0.269 OA
HETATM   25  C29 UNL     1      -5.879   2.128   6.182  1.00  0.00     0.253 C 
HETATM   26  O5  UNL     1      -6.593   1.108   5.834  1.00  0.00    -0.270 OA
HETATM   27  N6  UNL     1      -4.930   1.961   7.216  1.00  0.00    -0.318 N 
ATOM     28  H6  UNL     1      -4.502   1.052   7.388  1.00  0.00     0.169 HD
HETATM   29  C30 UNL     1      -4.587   3.082   8.007  1.00  0.00     0.086 C 
HETATM   30  C36 UNL     1      -5.172   4.212   7.727  1.00  0.00     0.021 C 
HETATM   31  C37 UNL     1      -6.167   4.466   6.659  1.00  0.00     0.062 C 
ENDROOT
BRANCH  29  32
HETATM   32  C31 UNL     1      -3.628   2.921   9.069  1.00  0.00    -0.049 C 
HETATM   33  C32 UNL     1      -2.813   2.807   9.980  1.00  0.00    -0.100 C 
BRANCH  33  34
HETATM   34  C33 UNL     1      -1.870   2.641  11.074  1.00  0.00     0.096 C 
BRANCH  34  35
HETATM   35  C34 UNL     1      -0.480   2.796  10.604  1.00  0.00     0.039 C 
BRANCH  35  36
HETATM   36  C35 UNL     1      -0.040   4.153  10.199  1.00  0.00     0.230 C 
BRANCH  36  37
HETATM   37  N7  UNL     1       1.182   4.085   9.444  1.00  0.00    -0.079 N 
ATOM     38  H73 UNL     1       1.393   4.972   8.984  1.00  0.00     0.274 HD
ATOM     39  H72 UNL     1       2.000   4.030  10.051  1.00  0.00     0.274 HD
ATOM     40  H71 UNL     1       1.151   3.312   8.780  1.00  0.00     0.274 HD
ENDBRANCH  36  37
ENDBRANCH  35  36
ENDBRANCH  34  35
ENDBRANCH  33  34
ENDBRANCH  29  32
BRANCH  14  41
HETATM   41  O3  UNL     1      -7.765   6.302   7.557  1.00  0.00    -0.349 OA
ATOM     42  H3  UNL     1      -8.259   5.500   7.679  1.00  0.00     0.219 HD
ENDBRANCH  14  41
BRANCH  22  43
HETATM   43  C24 UNL     1      -7.038   1.897   2.895  1.00  0.00     0.156 C 
BRANCH  43  44
HETATM   44  C25 UNL     1      -6.994   2.652   1.616  1.00  0.00     0.006 A 
HETATM   45  C26 UNL     1      -8.092   3.409   1.015  1.00  0.00     0.007 A 
HETATM   46  C27 UNL     1      -7.816   2.049   0.489  1.00  0.00     0.007 A 
ENDBRANCH  43  44
ENDBRANCH  22  43
BRANCH  11  47
HETATM   47  C14 UNL     1      -8.956   9.173   4.161  1.00  0.00     0.038 C 
BRANCH  47  48
HETATM   48  C15 UNL     1      -8.232  10.311   3.583  1.00  0.00    -0.020 C 
HETATM   49  C16 UNL     1      -7.997  10.348   2.122  1.00  0.00     0.009 C 
HETATM   50  C17 UNL     1      -6.926  10.504   4.356  1.00  0.00     0.009 C 
ENDBRANCH  47  48
ENDBRANCH  11  47
BRANCH   1  51
HETATM   51  C4  UNL     1     -10.432   1.873   6.288  1.00  0.00     0.035 C 
BRANCH  51  52
HETATM   52  C3  UNL     1      -9.499   2.257   7.395  1.00  0.00     0.002 C 
BRANCH  52  53
HETATM   53  C2  UNL     1      -9.144   1.149   8.341  1.00  0.00    -0.004 C 
HETATM   54  C1  UNL     1      -7.983   1.588   9.256  1.00  0.00     0.005 C 
ENDBRANCH  52  53
ENDBRANCH  51  52
ENDBRANCH   1  51
BRANCH   6  55
HETATM   55  C8  UNL     1     -12.019   5.270   2.996  1.00  0.00     0.038 C 
BRANCH  55  56
HETATM   56  C9  UNL     1     -11.945   5.378   1.527  1.00  0.00    -0.020 C 
HETATM   57  C10 UNL     1     -13.313   5.946   1.082  1.00  0.00     0.009 C 
HETATM   58  C11 UNL     1     -11.871   4.043   0.811  1.00  0.00     0.009 C 
ENDBRANCH  55  56
ENDBRANCH   6  55
TORSDOF 15
ENDMDL
MODEL 4
REMARK VINA RESULT: -7.374691146      3.482      8.045
REMARK  15 active torsions:
REMARK  status: ('A' for Active; 'I' for Inactive)
REMARK    1  A    between atoms: C2_2  and  C3_3 
REMARK    2  A    between atoms: C3_3  and  C4_4 
REMARK    3  A    between atoms: C4_4  and  C5_5 
REMARK    4  A    between atoms: C7_10  and  C8_11 
REMARK    5  A    between atoms: C8_11  and  C9_12 
REMARK    6  A    between atoms: C13_19  and  C14_20 
REMARK    7  A    between atoms: C14_20  and  C15_21 
REMARK    8  A    between atoms: C18_26  and  O3_27 
REMARK    9  A    between atoms: N5_36  and  C24_37 
REMARK   10  A    between atoms: C24_37  and  C25_38 
REMARK   11  A    between atoms: C30_47  and  C31_48 
REMARK   12  A    between atoms: C32_49  and  C33_50 
REMARK   13  A    between atoms: C33_50  and  C34_51 
REMARK   14  A    between atoms: C34_51  and  C35_52 
REMARK   15  A    between atoms: C35_52  and  N7_53 
ROOT
HETATM    1  C5  UNL     1     -10.639   1.996   4.497  1.00  0.00     0.178 C 
HETATM    2  N1  UNL     1     -10.700   3.213   5.224  1.00  0.00    -0.346 N 
ATOM      3  H1  UNL     1     -10.062   3.219   6.020  1.00  0.00     0.163 HD
HETATM    4  C6  UNL     1     -11.408   4.385   5.119  1.00  0.00     0.241 C 
HETATM    5  O1  UNL     1     -12.087   4.774   6.147  1.00  0.00    -0.271 OA
HETATM    6  C7  UNL     1     -11.558   5.363   3.984  1.00  0.00     0.177 C 
HETATM    7  N2  UNL     1     -10.255   5.559   3.470  1.00  0.00    -0.346 N 
ATOM      8  H2  UNL     1      -9.993   4.907   2.730  1.00  0.00     0.163 HD
HETATM    9  C12 UNL     1      -9.250   6.500   3.801  1.00  0.00     0.241 C 
HETATM   10  O2  UNL     1      -8.427   6.691   2.818  1.00  0.00    -0.271 OA
HETATM   11  C13 UNL     1      -9.014   7.243   5.013  1.00  0.00     0.175 C 
HETATM   12  N3  UNL     1      -9.023   6.470   6.247  1.00  0.00    -0.361 N 
ATOM     13  H3  UNL     1      -9.876   6.633   6.784  1.00  0.00     0.162 HD
HETATM   14  C18 UNL     1      -8.203   5.591   6.873  1.00  0.00     0.117 C 
HETATM   15  C19 UNL     1      -6.851   5.034   6.686  1.00  0.00     0.071 C 
HETATM   16  C20 UNL     1      -6.029   5.521   5.566  1.00  0.00     0.013 C 
HETATM   17  C21 UNL     1      -4.817   4.580   5.511  1.00  0.00     0.004 C 
HETATM   18  C22 UNL     1      -5.338   3.313   4.883  1.00  0.00     0.043 C 
HETATM   19  C23 UNL     1      -6.609   2.797   5.507  1.00  0.00     0.134 C 
HETATM   20  N4  UNL     1      -7.781   2.874   4.765  1.00  0.00    -0.311 N 
ATOM     21  H4  UNL     1      -8.462   3.563   5.086  1.00  0.00     0.182 HD
HETATM   22  N5  UNL     1      -8.140   2.164   3.681  1.00  0.00    -0.262 N 
HETATM   23  C28 UNL     1      -9.482   1.666   3.675  1.00  0.00     0.260 C 
HETATM   24  O4  UNL     1      -9.714   0.761   2.783  1.00  0.00    -0.269 OA
HETATM   25  C29 UNL     1      -6.401   1.372   5.873  1.00  0.00     0.253 C 
HETATM   26  O5  UNL     1      -7.016   0.423   5.247  1.00  0.00    -0.270 OA
HETATM   27  N6  UNL     1      -5.521   1.024   6.923  1.00  0.00    -0.318 N 
ATOM     28  H6  UNL     1      -5.045   0.122   6.925  1.00  0.00     0.169 HD
HETATM   29  C30 UNL     1      -5.314   1.952   7.969  1.00  0.00     0.086 C 
HETATM   30  C36 UNL     1      -5.953   3.085   7.897  1.00  0.00     0.021 C 
HETATM   31  C37 UNL     1      -6.882   3.524   6.829  1.00  0.00     0.062 C 
ENDROOT
BRANCH  29  32
HETATM   32  C31 UNL     1      -4.427   1.603   9.047  1.00  0.00    -0.049 C 
HETATM   33  C32 UNL     1      -3.688   1.299   9.980  1.00  0.00    -0.100 C 
BRANCH  33  34
HETATM   34  C33 UNL     1      -2.793   0.914  11.059  1.00  0.00     0.096 C 
BRANCH  34  35
HETATM   35  C34 UNL     1      -2.076   2.086  11.596  1.00  0.00     0.039 C 
BRANCH  35  36
HETATM   36  C35 UNL     1      -1.259   2.884  10.650  1.00  0.00     0.230 C 
BRANCH  36  37
HETATM   37  N7  UNL     1       0.009   2.246  10.413  1.00  0.00    -0.079 N 
ATOM     38  H73 UNL     1       0.567   2.184  11.265  1.00  0.00     0.274 HD
ATOM     39  H72 UNL     1      -0.098   1.248  10.228  1.00  0.00     0.274 HD
ATOM     40  H71 UNL     1       0.514   2.718   9.664  1.00  0.00     0.274 HD
ENDBRANCH  36  37
ENDBRANCH  35  36
ENDBRANCH  34  35
ENDBRANCH  33  34
ENDBRANCH  29  32
BRANCH  14  41
HETATM   41  O3  UNL     1      -8.663   5.027   7.970  1.00  0.00    -0.349 OA
ATOM     42  H3  UNL     1      -8.083   5.016   8.722  1.00  0.00     0.219 HD
ENDBRANCH  14  41
BRANCH  22  43
HETATM   43  C24 UNL     1      -7.298   1.834   2.529  1.00  0.00     0.156 C 
BRANCH  43  44
HETATM   44  C25 UNL     1      -7.255   2.837   1.433  1.00  0.00     0.006 A 
HETATM   45  C26 UNL     1      -8.384   3.610   0.917  1.00  0.00     0.007 A 
HETATM   46  C27 UNL     1      -7.954   2.414   0.152  1.00  0.00     0.007 A 
ENDBRANCH  43  44
ENDBRANCH  22  43
BRANCH  11  47
HETATM   47  C14 UNL     1      -9.796   8.529   5.205  1.00  0.00     0.038 C 
BRANCH  47  48
HETATM   48  C15 UNL     1      -9.137   9.799   4.882  1.00  0.00    -0.020 C 
HETATM   49  C16 UNL     1      -9.168  10.292   3.487  1.00  0.00     0.009 C 
HETATM   50  C17 UNL     1      -7.705   9.758   5.420  1.00  0.00     0.009 C 
ENDBRANCH  47  48
ENDBRANCH  11  47
BRANCH   1  51
HETATM   51  C4  UNL     1     -10.921   0.872   5.524  1.00  0.00     0.035 C 
BRANCH  51  52
HETATM   52  C3  UNL     1     -10.445   1.245   6.895  1.00  0.00     0.002 C 
BRANCH  52  53
HETATM   53  C2  UNL     1      -9.567   0.229   7.562  1.00  0.00    -0.004 C 
HETATM   54  C1  UNL     1      -8.824   0.873   8.750  1.00  0.00     0.005 C 
ENDBRANCH  52  53
ENDBRANCH  51  52
ENDBRANCH   1  51
BRANCH   6  55
HETATM   55  C8  UNL     1     -12.492   4.842   2.943  1.00  0.00     0.038 C 
BRANCH  55  56
HETATM   56  C9  UNL     1     -12.201   5.119   1.524  1.00  0.00    -0.020 C 
HETATM   57  C10 UNL     1     -13.478   5.784   0.959  1.00  0.00     0.009 C 
HETATM   58  C11 UNL     1     -12.047   3.875   0.670  1.00  0.00     0.009 C 
ENDBRANCH  55  56
ENDBRANCH   6  55
TORSDOF 15
ENDMDL
MODEL 5
REMARK VINA RESULT: -7.330878318      3.646      5.617
REMARK  15 active torsions:
REMARK  status: ('A' for Active; 'I' for Inactive)
REMARK    1  A    between atoms: C2_2  and  C3_3 
REMARK    2  A    between atoms: C3_3  and  C4_4 
REMARK    3  A    between atoms: C4_4  and  C5_5 
REMARK    4  A    between atoms: C7_10  and  C8_11 
REMARK    5  A    between atoms: C8_11  and  C9_12 
REMARK    6  A    between atoms: C13_19  and  C14_20 
REMARK    7  A    between atoms: C14_20  and  C15_21 
REMARK    8  A    between atoms: C18_26  and  O3_27 
REMARK    9  A    between atoms: N5_36  and  C24_37 
REMARK   10  A    between atoms: C24_37  and  C25_38 
REMARK   11  A    between atoms: C30_47  and  C31_48 
REMARK   12  A    between atoms: C32_49  and  C33_50 
REMARK   13  A    between atoms: C33_50  and  C34_51 
REMARK   14  A    between atoms: C34_51  and  C35_52 
REMARK   15  A    between atoms: C35_52  and  N7_53 
ROOT
HETATM    1  C5  UNL     1      -6.436   1.599   7.482  1.00  0.00     0.178 C 
HETATM    2  N1  UNL     1      -5.547   2.332   6.654  1.00  0.00    -0.346 N 
ATOM      3  H1  UNL     1      -5.842   2.334   5.678  1.00  0.00     0.163 HD
HETATM    4  C6  UNL     1      -4.385   3.040   6.845  1.00  0.00     0.241 C 
HETATM    5  O1  UNL     1      -3.355   2.712   6.136  1.00  0.00    -0.271 OA
HETATM    6  C7  UNL     1      -4.054   4.185   7.763  1.00  0.00     0.177 C 
HETATM    7  N2  UNL     1      -5.137   5.089   7.659  1.00  0.00    -0.346 N 
ATOM      8  H2  UNL     1      -5.892   4.917   8.323  1.00  0.00     0.163 HD
HETATM    9  C12 UNL     1      -5.358   6.189   6.796  1.00  0.00     0.241 C 
HETATM   10  O2  UNL     1      -6.185   7.046   7.308  1.00  0.00    -0.271 OA
HETATM   11  C13 UNL     1      -4.828   6.486   5.489  1.00  0.00     0.175 C 
HETATM   12  N3  UNL     1      -4.896   5.407   4.513  1.00  0.00    -0.361 N 
ATOM     13  H3  UNL     1      -3.979   4.989   4.353  1.00  0.00     0.162 HD
HETATM   14  C18 UNL     1      -5.852   4.810   3.759  1.00  0.00     0.117 C 
HETATM   15  C19 UNL     1      -7.285   4.993   3.466  1.00  0.00     0.071 C 
HETATM   16  C20 UNL     1      -7.990   6.143   4.054  1.00  0.00     0.013 C 
HETATM   17  C21 UNL     1      -9.479   5.901   3.762  1.00  0.00     0.004 C 
HETATM   18  C22 UNL     1      -9.899   4.842   4.748  1.00  0.00     0.043 C 
HETATM   19  C23 UNL     1      -8.981   3.647   4.794  1.00  0.00     0.134 C 
HETATM   20  N4  UNL     1      -8.198   3.466   5.926  1.00  0.00    -0.311 N 
ATOM     21  H4  UNL     1      -7.200   3.635   5.803  1.00  0.00     0.182 HD
HETATM   22  N5  UNL     1      -8.578   3.099   7.163  1.00  0.00    -0.262 N 
HETATM   23  C28 UNL     1      -7.763   2.110   7.800  1.00  0.00     0.260 C 
HETATM   24  O4  UNL     1      -8.296   1.569   8.845  1.00  0.00    -0.269 OA
HETATM   25  C29 UNL     1      -9.804   2.423   4.615  1.00  0.00     0.253 C 
HETATM   26  O5  UNL     1      -9.981   1.587   5.584  1.00  0.00    -0.270 OA
HETATM   27  N6  UNL     1     -10.413   2.145   3.370  1.00  0.00    -0.318 N 
ATOM     28  H6  UNL     1     -11.272   1.598   3.322  1.00  0.00     0.169 HD
HETATM   29  C30 UNL     1      -9.806   2.641   2.193  1.00  0.00     0.086 C 
HETATM   30  C36 UNL     1      -8.711   3.335   2.332  1.00  0.00     0.021 C 
HETATM   31  C37 UNL     1      -8.020   3.673   3.599  1.00  0.00     0.062 C 
ENDROOT
BRANCH  29  32
HETATM   32  C31 UNL     1     -10.413   2.356   0.919  1.00  0.00    -0.049 C 
HETATM   33  C32 UNL     1     -10.950   2.104  -0.156  1.00  0.00    -0.100 C 
BRANCH  33  34
HETATM   34  C33 UNL     1     -11.581   1.846  -1.440  1.00  0.00     0.096 C 
BRANCH  34  35
HETATM   35  C34 UNL     1     -13.019   2.172  -1.399  1.00  0.00     0.039 C 
BRANCH  35  36
HETATM   36  C35 UNL     1     -13.714   2.048  -0.095  1.00  0.00     0.230 C 
BRANCH  36  37
HETATM   37  N7  UNL     1     -14.461   0.820  -0.034  1.00  0.00    -0.079 N 
ATOM     38  H73 UNL     1     -13.934   0.078   0.428  1.00  0.00     0.274 HD
ATOM     39  H72 UNL     1     -15.242   0.884   0.620  1.00  0.00     0.274 HD
ATOM     40  H71 UNL     1     -14.770   0.541  -0.965  1.00  0.00     0.274 HD
ENDBRANCH  36  37
ENDBRANCH  35  36
ENDBRANCH  34  35
ENDBRANCH  33  34
ENDBRANCH  29  32
BRANCH  14  41
HETATM   41  O3  UNL     1      -5.484   3.759   3.057  1.00  0.00    -0.349 OA
ATOM     42  H3  UNL     1      -5.331   3.897   2.129  1.00  0.00     0.219 HD
ENDBRANCH  14  41
BRANCH  22  43
HETATM   43  C24 UNL     1      -9.741   3.590   7.906  1.00  0.00     0.156 C 
BRANCH  43  44
HETATM   44  C25 UNL     1      -9.741   5.034   8.255  1.00  0.00     0.006 A 
HETATM   45  C26 UNL     1     -10.398   5.649   9.409  1.00  0.00     0.007 A 
HETATM   46  C27 UNL     1     -11.082   5.730   8.095  1.00  0.00     0.007 A 
ENDBRANCH  43  44
ENDBRANCH  22  43
BRANCH  11  47
HETATM   47  C14 UNL     1      -3.466   7.152   5.424  1.00  0.00     0.038 C 
BRANCH  47  48
HETATM   48  C15 UNL     1      -3.279   8.422   6.134  1.00  0.00    -0.020 C 
HETATM   49  C16 UNL     1      -3.313   9.688   5.368  1.00  0.00     0.009 C 
HETATM   50  C17 UNL     1      -2.010   8.326   6.983  1.00  0.00     0.009 C 
ENDBRANCH  47  48
ENDBRANCH  11  47
BRANCH   1  51
HETATM   51  C4  UNL     1      -6.526   0.183   6.861  1.00  0.00     0.035 C 
BRANCH  51  52
HETATM   52  C3  UNL     1      -5.285  -0.614   7.124  1.00  0.00     0.002 C 
BRANCH  52  53
HETATM   53  C2  UNL     1      -4.779  -0.556   8.534  1.00  0.00    -0.004 C 
HETATM   54  C1  UNL     1      -3.297  -0.130   8.545  1.00  0.00     0.005 C 
ENDBRANCH  52  53
ENDBRANCH  51  52
ENDBRANCH   1  51
BRANCH   6  55
HETATM   55  C8  UNL     1      -3.859   3.714   9.166  1.00  0.00     0.038 C 
BRANCH  55  56
HETATM   56  C9  UNL     1      -2.496   3.380   9.621  1.00  0.00    -0.020 C 
HETATM   57  C10 UNL     1      -2.673   2.700  10.999  1.00  0.00     0.009 C 
HETATM   58  C11 UNL     1      -1.634   4.587   9.934  1.00  0.00     0.009 C 
ENDBRANCH  55  56
ENDBRANCH   6  55
TORSDOF 15
ENDMDL
