MODEL 1
REMARK VINA RESULT: -6.762386281      0.000      0.000
REMARK  6 active torsions:
REMARK  status: ('A' for Active; 'I' for Inactive)
REMARK    1  A    between atoms: C3_3  and  C5_5 
REMARK       I    between atoms: C5_5  and  N1_7 
REMARK    2  A    between atoms: N1_7  and  N2_9 
REMARK    3  A    between atoms: N2_9  and  C6_11 
REMARK    4  A    between atoms: C6_11  and  O2_12 
REMARK    5  A    between atoms: C6_11  and  C7_14 
REMARK    6  A    between atoms: C10_19  and  O3_20 
ROOT
HETATM    1  C6  UNL     1      12.895   6.146 -35.592  1.00  0.00     0.175 C 
ENDROOT
BRANCH   1   2
HETATM    2  N2  UNL     1      14.007   5.404 -35.248  1.00  0.00    -0.276 N 
ATOM      3  H2  UNL     1      13.959   4.386 -35.296  1.00  0.00     0.189 HD
BRANCH   2   4
HETATM    4  N1  UNL     1      15.191   6.008 -34.836  1.00  0.00    -0.264 N 
HETATM    5  C5  UNL     1      15.709   5.863 -33.495  1.00  0.00     0.265 C 
HETATM    6  O1  UNL     1      15.099   5.196 -32.651  1.00  0.00    -0.266 OA
ATOM      7  H1  UNL     1      15.712   6.573 -35.506  1.00  0.00     0.190 HD
BRANCH   5   8
HETATM    8  C3  UNL     1      16.953   6.510 -33.158  1.00  0.00     0.003 C 
HETATM    9  C2  UNL     1      17.936   5.901 -32.573  1.00  0.00    -0.019 C 
HETATM   10  C1  UNL     1      18.010   4.512 -32.145  1.00  0.00     0.036 C 
HETATM   11  C4  UNL     1      17.080   7.978 -33.526  1.00  0.00     0.054 C 
ENDBRANCH   5   8
ENDBRANCH   2   4
ENDBRANCH   1   2
BRANCH   1  12
HETATM   12  O2  UNL     1      11.975   5.506 -36.259  1.00  0.00    -0.344 OA
ATOM     13  H2  UNL     1      12.273   4.742 -36.739  1.00  0.00     0.219 HD
ENDBRANCH   1  12
BRANCH   1  14
HETATM   14  C7  UNL     1      12.571   7.535 -35.338  1.00  0.00     0.091 A 
HETATM   15  S1  UNL     1      11.100   8.203 -34.740  1.00  0.00    -0.075 SA
HETATM   16  C8  UNL     1      11.539   9.861 -34.698  1.00  0.00     0.055 A 
HETATM   17 BR1  UNL     1      10.469  11.348 -34.139  1.00  0.00    -0.043 Br
HETATM   18  C9  UNL     1      12.824   9.834 -35.156  1.00  0.00     0.065 A 
HETATM   19  C10 UNL     1      13.358   8.657 -35.484  1.00  0.00     0.091 A 
BRANCH  19  20
HETATM   20  O3  UNL     1      14.685   8.512 -35.969  1.00  0.00    -0.354 OA
HETATM   21  C11 UNL     1      15.361   9.466 -36.717  1.00  0.00     0.210 C 
ENDBRANCH  19  20
ENDBRANCH   1  14
TORSDOF 6
ENDMDL
MODEL 2
REMARK VINA RESULT: -6.486958008      1.815      2.682
REMARK  6 active torsions:
REMARK  status: ('A' for Active; 'I' for Inactive)
REMARK    1  A    between atoms: C3_3  and  C5_5 
REMARK       I    between atoms: C5_5  and  N1_7 
REMARK    2  A    between atoms: N1_7  and  N2_9 
REMARK    3  A    between atoms: N2_9  and  C6_11 
REMARK    4  A    between atoms: C6_11  and  O2_12 
REMARK    5  A    between atoms: C6_11  and  C7_14 
REMARK    6  A    between atoms: C10_19  and  O3_20 
ROOT
HETATM    1  C6  UNL     1      12.286   7.092 -35.281  1.00  0.00     0.175 C 
ENDROOT
BRANCH   1   2
HETATM    2  N2  UNL     1      13.225   6.345 -34.600  1.00  0.00    -0.276 N 
ATOM      3  H2  UNL     1      13.020   5.370 -34.378  1.00  0.00     0.189 HD
BRANCH   2   4
HETATM    4  N1  UNL     1      14.446   6.886 -34.207  1.00  0.00    -0.264 N 
HETATM    5  C5  UNL     1      15.700   6.199 -34.412  1.00  0.00     0.265 C 
HETATM    6  O1  UNL     1      15.729   5.080 -34.941  1.00  0.00    -0.266 OA
ATOM      7  H1  UNL     1      14.455   7.801 -33.759  1.00  0.00     0.190 HD
BRANCH   5   8
HETATM    8  C3  UNL     1      16.921   6.840 -33.989  1.00  0.00     0.003 C 
HETATM    9  C2  UNL     1      17.614   6.446 -32.967  1.00  0.00    -0.019 C 
HETATM   10  C1  UNL     1      17.341   5.338 -32.063  1.00  0.00     0.036 C 
HETATM   11  C4  UNL     1      17.385   8.030 -34.809  1.00  0.00     0.054 C 
ENDBRANCH   5   8
ENDBRANCH   2   4
ENDBRANCH   1   2
BRANCH   1  12
HETATM   12  O2  UNL     1      11.864   6.578 -36.402  1.00  0.00    -0.344 OA
ATOM     13  H2  UNL     1      11.135   5.972 -36.327  1.00  0.00     0.219 HD
ENDBRANCH   1  12
BRANCH   1  14
HETATM   14  C7  UNL     1      11.681   8.369 -34.961  1.00  0.00     0.091 A 
HETATM   15  S1  UNL     1      12.437   9.797 -34.365  1.00  0.00    -0.075 SA
HETATM   16  C8  UNL     1      11.068  10.830 -34.291  1.00  0.00     0.055 A 
HETATM   17 BR1  UNL     1      11.004  12.659 -33.725  1.00  0.00    -0.043 Br
HETATM   18  C9  UNL     1      10.066  10.018 -34.735  1.00  0.00     0.065 A 
HETATM   19  C10 UNL     1      10.366   8.766 -35.078  1.00  0.00     0.091 A 
BRANCH  19  20
HETATM   20  O3  UNL     1       9.404   7.836 -35.555  1.00  0.00    -0.354 OA
HETATM   21  C11 UNL     1       8.353   7.330 -34.801  1.00  0.00     0.210 C 
ENDBRANCH  19  20
ENDBRANCH   1  14
TORSDOF 6
ENDMDL
MODEL 3
REMARK VINA RESULT: -6.453618127      1.119      1.674
REMARK  6 active torsions:
REMARK  status: ('A' for Active; 'I' for Inactive)
REMARK    1  A    between atoms: C3_3  and  C5_5 
REMARK       I    between atoms: C5_5  and  N1_7 
REMARK    2  A    between atoms: N1_7  and  N2_9 
REMARK    3  A    between atoms: N2_9  and  C6_11 
REMARK    4  A    between atoms: C6_11  and  O2_12 
REMARK    5  A    between atoms: C6_11  and  C7_14 
REMARK    6  A    between atoms: C10_19  and  O3_20 
ROOT
HETATM    1  C6  UNL     1      12.391   6.615 -35.546  1.00  0.00     0.175 C 
ENDROOT
BRANCH   1   2
HETATM    2  N2  UNL     1      13.598   5.948 -35.542  1.00  0.00    -0.276 N 
ATOM      3  H2  UNL     1      13.918   5.492 -36.397  1.00  0.00     0.189 HD
BRANCH   2   4
HETATM    4  N1  UNL     1      14.392   5.880 -34.401  1.00  0.00    -0.264 N 
HETATM    5  C5  UNL     1      15.693   5.251 -34.399  1.00  0.00     0.265 C 
HETATM    6  O1  UNL     1      16.147   4.732 -35.426  1.00  0.00    -0.266 OA
ATOM      7  H1  UNL     1      14.043   6.288 -33.535  1.00  0.00     0.190 HD
BRANCH   5   8
HETATM    8  C3  UNL     1      16.457   5.239 -33.175  1.00  0.00     0.003 C 
HETATM    9  C2  UNL     1      17.112   6.267 -32.736  1.00  0.00    -0.019 C 
HETATM   10  C1  UNL     1      17.228   7.589 -33.336  1.00  0.00     0.036 C 
HETATM   11  C4  UNL     1      16.465   3.941 -32.389  1.00  0.00     0.054 C 
ENDBRANCH   5   8
ENDBRANCH   2   4
ENDBRANCH   1   2
BRANCH   1  12
HETATM   12  O2  UNL     1      11.364   5.919 -35.949  1.00  0.00    -0.344 OA
ATOM     13  H2  UNL     1      10.517   6.333 -35.833  1.00  0.00     0.219 HD
ENDBRANCH   1  12
BRANCH   1  14
HETATM   14  C7  UNL     1      12.062   7.977 -35.177  1.00  0.00     0.091 A 
HETATM   15  S1  UNL     1      10.507   8.685 -34.957  1.00  0.00    -0.075 SA
HETATM   16  C8  UNL     1      10.981  10.271 -34.506  1.00  0.00     0.055 A 
HETATM   17 BR1  UNL     1       9.853  11.755 -34.063  1.00  0.00    -0.043 Br
HETATM   18  C9  UNL     1      12.342  10.191 -34.545  1.00  0.00     0.065 A 
HETATM   19  C10 UNL     1      12.902   9.030 -34.884  1.00  0.00     0.091 A 
BRANCH  19  20
HETATM   20  O3  UNL     1      14.306   8.833 -34.955  1.00  0.00    -0.354 OA
HETATM   21  C11 UNL     1      15.084   9.086 -36.077  1.00  0.00     0.210 C 
ENDBRANCH  19  20
ENDBRANCH   1  14
TORSDOF 6
ENDMDL
MODEL 4
REMARK VINA RESULT: -6.373867147      3.389      6.066
REMARK  6 active torsions:
REMARK  status: ('A' for Active; 'I' for Inactive)
REMARK    1  A    between atoms: C3_3  and  C5_5 
REMARK       I    between atoms: C5_5  and  N1_7 
REMARK    2  A    between atoms: N1_7  and  N2_9 
REMARK    3  A    between atoms: N2_9  and  C6_11 
REMARK    4  A    between atoms: C6_11  and  O2_12 
REMARK    5  A    between atoms: C6_11  and  C7_14 
REMARK    6  A    between atoms: C10_19  and  O3_20 
ROOT
HETATM    1  C6  UNL     1      13.884   7.142 -35.095  1.00  0.00     0.175 C 
ENDROOT
BRANCH   1   2
HETATM    2  N2  UNL     1      12.571   6.807 -34.835  1.00  0.00    -0.276 N 
ATOM      3  H2  UNL     1      12.270   5.841 -34.962  1.00  0.00     0.189 HD
BRANCH   2   4
HETATM    4  N1  UNL     1      11.646   7.753 -34.404  1.00  0.00    -0.264 N 
HETATM    5  C5  UNL     1      10.986   8.661 -35.313  1.00  0.00     0.265 C 
HETATM    6  O1  UNL     1      11.234   8.635 -36.525  1.00  0.00    -0.266 OA
ATOM      7  H1  UNL     1      11.427   7.808 -33.410  1.00  0.00     0.190 HD
BRANCH   5   8
HETATM    8  C3  UNL     1      10.028   9.601 -34.783  1.00  0.00     0.003 C 
HETATM    9  C2  UNL     1      10.362  10.741 -34.265  1.00  0.00    -0.019 C 
HETATM   10  C1  UNL     1      11.695  11.304 -34.103  1.00  0.00     0.036 C 
HETATM   11  C4  UNL     1       8.566   9.200 -34.858  1.00  0.00     0.054 C 
ENDBRANCH   5   8
ENDBRANCH   2   4
ENDBRANCH   1   2
BRANCH   1  12
HETATM   12  O2  UNL     1      14.080   7.855 -36.170  1.00  0.00    -0.344 OA
ATOM     13  H2  UNL     1      13.755   7.476 -36.979  1.00  0.00     0.219 HD
ENDBRANCH   1  12
BRANCH   1  14
HETATM   14  C7  UNL     1      15.100   6.833 -34.371  1.00  0.00     0.091 A 
HETATM   15  S1  UNL     1      15.422   5.498 -33.332  1.00  0.00    -0.075 SA
HETATM   16  C8  UNL     1      17.051   5.846 -32.923  1.00  0.00     0.055 A 
HETATM   17 BR1  UNL     1      18.218   4.844 -31.781  1.00  0.00    -0.043 Br
HETATM   18  C9  UNL     1      17.286   6.999 -33.614  1.00  0.00     0.065 A 
HETATM   19  C10 UNL     1      16.301   7.509 -34.353  1.00  0.00     0.091 A 
BRANCH  19  20
HETATM   20  O3  UNL     1      16.435   8.700 -35.114  1.00  0.00    -0.354 OA
HETATM   21  C11 UNL     1      17.646   9.293 -35.447  1.00  0.00     0.210 C 
ENDBRANCH  19  20
ENDBRANCH   1  14
TORSDOF 6
ENDMDL
MODEL 5
REMARK VINA RESULT: -6.365090632      3.562      6.106
REMARK  6 active torsions:
REMARK  status: ('A' for Active; 'I' for Inactive)
REMARK    1  A    between atoms: C3_3  and  C5_5 
REMARK       I    between atoms: C5_5  and  N1_7 
REMARK    2  A    between atoms: N1_7  and  N2_9 
REMARK    3  A    between atoms: N2_9  and  C6_11 
REMARK    4  A    between atoms: C6_11  and  O2_12 
REMARK    5  A    between atoms: C6_11  and  C7_14 
REMARK    6  A    between atoms: C10_19  and  O3_20 
ROOT
HETATM    1  C6  UNL     1      14.001   6.814 -35.335  1.00  0.00     0.175 C 
ENDROOT
BRANCH   1   2
HETATM    2  N2  UNL     1      12.768   6.195 -35.286  1.00  0.00    -0.276 N 
ATOM      3  H2  UNL     1      12.687   5.283 -34.836  1.00  0.00     0.189 HD
BRANCH   2   4
HETATM    4  N1  UNL     1      11.633   6.783 -35.835  1.00  0.00    -0.264 N 
HETATM    5  C5  UNL     1      10.944   7.882 -35.198  1.00  0.00     0.265 C 
HETATM    6  O1  UNL     1      11.342   8.336 -34.118  1.00  0.00    -0.266 OA
ATOM      7  H1  UNL     1      11.273   6.425 -36.719  1.00  0.00     0.190 HD
BRANCH   5   8
HETATM    8  C3  UNL     1       9.783   8.443 -35.844  1.00  0.00     0.003 C 
HETATM    9  C2  UNL     1       8.575   8.033 -35.617  1.00  0.00    -0.019 C 
HETATM   10  C1  UNL     1       8.134   6.976 -34.718  1.00  0.00     0.036 C 
HETATM   11  C4  UNL     1      10.030   9.571 -36.829  1.00  0.00     0.054 C 
ENDBRANCH   5   8
ENDBRANCH   2   4
ENDBRANCH   1   2
BRANCH   1  12
HETATM   12  O2  UNL     1      14.132   7.735 -36.248  1.00  0.00    -0.344 OA
ATOM     13  H2  UNL     1      13.466   8.412 -36.247  1.00  0.00     0.219 HD
ENDBRANCH   1  12
BRANCH   1  14
HETATM   14  C7  UNL     1      15.192   6.613 -34.535  1.00  0.00     0.091 A 
HETATM   15  S1  UNL     1      15.598   5.274 -33.530  1.00  0.00    -0.075 SA
HETATM   16  C8  UNL     1      17.142   5.788 -32.987  1.00  0.00     0.055 A 
HETATM   17 BR1  UNL     1      18.338   4.872 -31.803  1.00  0.00    -0.043 Br
HETATM   18  C9  UNL     1      17.285   6.993 -33.611  1.00  0.00     0.065 A 
HETATM   19  C10 UNL     1      16.301   7.421 -34.400  1.00  0.00     0.091 A 
BRANCH  19  20
HETATM   20  O3  UNL     1      16.344   8.655 -35.100  1.00  0.00    -0.354 OA
HETATM   21  C11 UNL     1      17.510   9.307 -35.481  1.00  0.00     0.210 C 
ENDBRANCH  19  20
ENDBRANCH   1  14
TORSDOF 6
ENDMDL
