MODEL 1
REMARK VINA RESULT: -6.773427463      0.000      0.000
REMARK  5 active torsions:
REMARK  status: ('A' for Active; 'I' for Inactive)
REMARK    1  A    between atoms: C5_7  and  S1_8 
REMARK    2  A    between atoms: S1_8  and  N1_11 
REMARK    3  A    between atoms: N1_11  and  C6_13 
REMARK    4  A    between atoms: C6_13  and  N2_15 
REMARK    5  A    between atoms: N2_15  and  C7_17 
ROOT
HETATM    1  N1  UNL     1      14.629   7.202 -35.799  1.00  0.00    -0.257 N 
ATOM      2  H1  UNL     1      14.910   7.095 -36.773  1.00  0.00     0.181 HD
ENDROOT
BRANCH   1   3
HETATM    3  S1  UNL     1      12.972   7.217 -35.371  1.00  0.00     0.267 S 
HETATM    4  O2  UNL     1      12.794   6.856 -33.924  1.00  0.00    -0.200 OA
HETATM    5  O3  UNL     1      12.216   6.188 -36.168  1.00  0.00    -0.200 OA
BRANCH   3   6
HETATM    6  C5  UNL     1      12.228   8.754 -35.659  1.00  0.00     0.112 A 
HETATM    7  C2  UNL     1      10.854   8.965 -35.523  1.00  0.00     0.074 A 
HETATM    8  C1  UNL     1       9.874   7.899 -35.141  1.00  0.00     0.078 C 
HETATM    9  O1  UNL     1      10.635  10.214 -35.788  1.00  0.00    -0.302 OA
HETATM   10  C3  UNL     1      11.744  10.854 -36.087  1.00  0.00     0.146 A 
HETATM   11 CL1  UNL     1      11.931  12.549 -36.511  1.00  0.00    -0.057 Cl
HETATM   12  C4  UNL     1      12.798   9.958 -36.018  1.00  0.00     0.078 A 
ENDBRANCH   3   6
ENDBRANCH   1   3
BRANCH   1  13
HETATM   13  C6  UNL     1      15.607   7.340 -34.780  1.00  0.00     0.181 C 
HETATM   14  S2  UNL     1      16.766   8.504 -34.903  1.00  0.00    -0.040 SA
BRANCH  13  15
HETATM   15  N2  UNL     1      15.573   6.449 -33.687  1.00  0.00    -0.362 N 
ATOM     16  H2  UNL     1      14.764   6.474 -33.067  1.00  0.00     0.162 HD
BRANCH  15  17
HETATM   17  C7  UNL     1      16.622   5.506 -33.402  1.00  0.00     0.083 C 
HETATM   18  C8  UNL     1      17.393   5.964 -32.210  1.00  0.00     0.025 C 
HETATM   19  C9  UNL     1      18.667   5.129 -32.206  1.00  0.00     0.002 C 
HETATM   20  C10 UNL     1      18.321   3.685 -32.138  1.00  0.00     0.000 C 
HETATM   21  C11 UNL     1      16.889   3.306 -32.217  1.00  0.00     0.002 C 
HETATM   22  C12 UNL     1      16.014   4.173 -33.055  1.00  0.00     0.025 C 
ENDBRANCH  15  17
ENDBRANCH  13  15
ENDBRANCH   1  13
TORSDOF 5
ENDMDL
MODEL 2
REMARK VINA RESULT: -6.772478947      1.376      1.376
REMARK  5 active torsions:
REMARK  status: ('A' for Active; 'I' for Inactive)
REMARK    1  A    between atoms: C5_7  and  S1_8 
REMARK    2  A    between atoms: S1_8  and  N1_11 
REMARK    3  A    between atoms: N1_11  and  C6_13 
REMARK    4  A    between atoms: C6_13  and  N2_15 
REMARK    5  A    between atoms: N2_15  and  C7_17 
ROOT
HETATM    1  N1  UNL     1      14.949   8.518 -34.148  1.00  0.00    -0.257 N 
ATOM      2  H1  UNL     1      15.027   9.290 -33.487  1.00  0.00     0.181 HD
ENDROOT
BRANCH   1   3
HETATM    3  S1  UNL     1      13.416   8.016 -34.718  1.00  0.00     0.267 S 
HETATM    4  O2  UNL     1      12.970   6.767 -34.012  1.00  0.00    -0.200 OA
HETATM    5  O3  UNL     1      13.486   7.680 -36.184  1.00  0.00    -0.200 OA
BRANCH   3   6
HETATM    6  C5  UNL     1      12.202   9.235 -34.516  1.00  0.00     0.112 A 
HETATM    7  C2  UNL     1      10.865   9.035 -34.866  1.00  0.00     0.074 A 
HETATM    8  C1  UNL     1      10.335   7.771 -35.470  1.00  0.00     0.078 C 
HETATM    9  O1  UNL     1      10.230  10.124 -34.570  1.00  0.00    -0.302 OA
HETATM   10  C3  UNL     1      11.027  11.032 -34.052  1.00  0.00     0.146 A 
HETATM   11 CL1  UNL     1      10.609  12.648 -33.504  1.00  0.00    -0.057 Cl
HETATM   12  C4  UNL     1      12.308  10.508 -33.995  1.00  0.00     0.078 A 
ENDBRANCH   3   6
ENDBRANCH   1   3
BRANCH   1  13
HETATM   13  C6  UNL     1      16.112   7.846 -34.609  1.00  0.00     0.181 C 
HETATM   14  S2  UNL     1      17.459   8.708 -35.003  1.00  0.00    -0.040 SA
BRANCH  13  15
HETATM   15  N2  UNL     1      16.072   6.442 -34.740  1.00  0.00    -0.362 N 
ATOM     16  H2  UNL     1      15.422   6.038 -35.413  1.00  0.00     0.162 HD
BRANCH  15  17
HETATM   17  C7  UNL     1      16.901   5.552 -33.971  1.00  0.00     0.083 C 
HETATM   18  C8  UNL     1      17.284   6.211 -32.689  1.00  0.00     0.025 C 
HETATM   19  C9  UNL     1      18.424   5.372 -32.127  1.00  0.00     0.002 C 
HETATM   20  C10 UNL     1      17.968   3.970 -31.932  1.00  0.00     0.000 C 
HETATM   21  C11 UNL     1      16.611   3.606 -32.409  1.00  0.00     0.002 C 
HETATM   22  C12 UNL     1      16.117   4.316 -33.622  1.00  0.00     0.025 C 
ENDBRANCH  15  17
ENDBRANCH  13  15
ENDBRANCH   1  13
TORSDOF 5
ENDMDL
MODEL 3
REMARK VINA RESULT: -6.704305923      1.296      1.629
REMARK  5 active torsions:
REMARK  status: ('A' for Active; 'I' for Inactive)
REMARK    1  A    between atoms: C5_7  and  S1_8 
REMARK    2  A    between atoms: S1_8  and  N1_11 
REMARK    3  A    between atoms: N1_11  and  C6_13 
REMARK    4  A    between atoms: C6_13  and  N2_15 
REMARK    5  A    between atoms: N2_15  and  C7_17 
ROOT
HETATM    1  N1  UNL     1      14.360   7.965 -35.431  1.00  0.00    -0.257 N 
ATOM      2  H1  UNL     1      14.461   8.734 -36.093  1.00  0.00     0.181 HD
ENDROOT
BRANCH   1   3
HETATM    3  S1  UNL     1      12.821   7.286 -35.119  1.00  0.00     0.267 S 
HETATM    4  O2  UNL     1      12.713   6.851 -33.686  1.00  0.00    -0.200 OA
HETATM    5  O3  UNL     1      12.611   6.054 -35.960  1.00  0.00    -0.200 OA
BRANCH   3   6
HETATM    6  C5  UNL     1      11.529   8.385 -35.468  1.00  0.00     0.112 A 
HETATM    7  C2  UNL     1      11.425   9.643 -34.872  1.00  0.00     0.074 A 
HETATM    8  C1  UNL     1      12.392  10.175 -33.858  1.00  0.00     0.078 C 
HETATM    9  O1  UNL     1      10.369  10.209 -35.363  1.00  0.00    -0.302 OA
HETATM   10  C3  UNL     1       9.759   9.438 -36.235  1.00  0.00     0.146 A 
HETATM   11 CL1  UNL     1       8.299   9.785 -37.148  1.00  0.00    -0.057 Cl
HETATM   12  C4  UNL     1      10.467   8.251 -36.340  1.00  0.00     0.078 A 
ENDBRANCH   3   6
ENDBRANCH   1   3
BRANCH   1  13
HETATM   13  C6  UNL     1      15.495   7.443 -34.757  1.00  0.00     0.181 C 
HETATM   14  S2  UNL     1      16.920   8.269 -34.785  1.00  0.00    -0.040 SA
BRANCH  13  15
HETATM   15  N2  UNL     1      15.375   6.205 -34.094  1.00  0.00    -0.362 N 
ATOM     16  H2  UNL     1      14.441   5.832 -33.931  1.00  0.00     0.162 HD
BRANCH  15  17
HETATM   17  C7  UNL     1      16.505   5.440 -33.636  1.00  0.00     0.083 C 
HETATM   18  C8  UNL     1      17.011   6.018 -32.356  1.00  0.00     0.025 C 
HETATM   19  C9  UNL     1      18.385   5.395 -32.146  1.00  0.00     0.002 C 
HETATM   20  C10 UNL     1      18.264   3.914 -32.093  1.00  0.00     0.000 C 
HETATM   21  C11 UNL     1      16.936   3.313 -32.369  1.00  0.00     0.002 C 
HETATM   22  C12 UNL     1      16.069   4.029 -33.348  1.00  0.00     0.025 C 
ENDBRANCH  15  17
ENDBRANCH  13  15
ENDBRANCH   1  13
TORSDOF 5
ENDMDL
MODEL 4
REMARK VINA RESULT: -6.668111946      1.337      1.722
REMARK  5 active torsions:
REMARK  status: ('A' for Active; 'I' for Inactive)
REMARK    1  A    between atoms: C5_7  and  S1_8 
REMARK    2  A    between atoms: S1_8  and  N1_11 
REMARK    3  A    between atoms: N1_11  and  C6_13 
REMARK    4  A    between atoms: C6_13  and  N2_15 
REMARK    5  A    between atoms: N2_15  and  C7_17 
ROOT
HETATM    1  N1  UNL     1      14.379   7.651 -35.765  1.00  0.00    -0.257 N 
ATOM      2  H1  UNL     1      14.555   7.575 -36.767  1.00  0.00     0.181 HD
ENDROOT
BRANCH   1   3
HETATM    3  S1  UNL     1      12.794   7.921 -35.181  1.00  0.00     0.267 S 
HETATM    4  O2  UNL     1      12.574   7.196 -33.885  1.00  0.00    -0.200 OA
HETATM    5  O3  UNL     1      11.778   7.383 -36.154  1.00  0.00    -0.200 OA
BRANCH   3   6
HETATM    6  C5  UNL     1      12.452   9.603 -34.945  1.00  0.00     0.112 A 
HETATM    7  C2  UNL     1      12.718  10.572 -35.914  1.00  0.00     0.074 A 
HETATM    8  C1  UNL     1      13.342  10.280 -37.244  1.00  0.00     0.078 C 
HETATM    9  O1  UNL     1      12.328  11.708 -35.431  1.00  0.00    -0.302 OA
HETATM   10  C3  UNL     1      11.824  11.581 -34.224  1.00  0.00     0.146 A 
HETATM   11 CL1  UNL     1      11.173  12.842 -33.187  1.00  0.00    -0.057 Cl
HETATM   12  C4  UNL     1      11.880  10.244 -33.865  1.00  0.00     0.078 A 
ENDBRANCH   3   6
ENDBRANCH   1   3
BRANCH   1  13
HETATM   13  C6  UNL     1      15.447   7.534 -34.837  1.00  0.00     0.181 C 
HETATM   14  S2  UNL     1      16.741   8.547 -34.940  1.00  0.00    -0.040 SA
BRANCH  13  15
HETATM   15  N2  UNL     1      15.378   6.525 -33.854  1.00  0.00    -0.362 N 
ATOM     16  H2  UNL     1      14.506   6.410 -33.339  1.00  0.00     0.162 HD
BRANCH  15  17
HETATM   17  C7  UNL     1      16.476   5.649 -33.543  1.00  0.00     0.083 C 
HETATM   18  C8  UNL     1      17.138   6.107 -32.287  1.00  0.00     0.025 C 
HETATM   19  C9  UNL     1      18.469   5.368 -32.237  1.00  0.00     0.002 C 
HETATM   20  C10 UNL     1      18.230   3.901 -32.251  1.00  0.00     0.000 C 
HETATM   21  C11 UNL     1      16.838   3.423 -32.434  1.00  0.00     0.002 C 
HETATM   22  C12 UNL     1      15.951   4.261 -33.290  1.00  0.00     0.025 C 
ENDBRANCH  15  17
ENDBRANCH  13  15
ENDBRANCH   1  13
TORSDOF 5
ENDMDL
MODEL 5
REMARK VINA RESULT: -6.490692436      1.437      1.803
REMARK  5 active torsions:
REMARK  status: ('A' for Active; 'I' for Inactive)
REMARK    1  A    between atoms: C5_7  and  S1_8 
REMARK    2  A    between atoms: S1_8  and  N1_11 
REMARK    3  A    between atoms: N1_11  and  C6_13 
REMARK    4  A    between atoms: C6_13  and  N2_15 
REMARK    5  A    between atoms: N2_15  and  C7_17 
ROOT
HETATM    1  N1  UNL     1      15.019   8.526 -34.058  1.00  0.00    -0.257 N 
ATOM      2  H1  UNL     1      15.044   9.222 -33.313  1.00  0.00     0.181 HD
ENDROOT
BRANCH   1   3
HETATM    3  S1  UNL     1      13.525   8.012 -34.714  1.00  0.00     0.267 S 
HETATM    4  O2  UNL     1      13.077   6.729 -34.075  1.00  0.00    -0.200 OA
HETATM    5  O3  UNL     1      13.668   7.733 -36.187  1.00  0.00    -0.200 OA
BRANCH   3   6
HETATM    6  C5  UNL     1      12.275   9.196 -34.525  1.00  0.00     0.112 A 
HETATM    7  C2  UNL     1      10.953   8.968 -34.909  1.00  0.00     0.074 A 
HETATM    8  C1  UNL     1      10.470   7.699 -35.543  1.00  0.00     0.078 C 
HETATM    9  O1  UNL     1      10.282  10.035 -34.613  1.00  0.00    -0.302 OA
HETATM   10  C3  UNL     1      11.043  10.956 -34.063  1.00  0.00     0.146 A 
HETATM   11 CL1  UNL     1      10.571  12.553 -33.503  1.00  0.00    -0.057 Cl
HETATM   12  C4  UNL     1      12.336  10.464 -33.983  1.00  0.00     0.078 A 
ENDBRANCH   3   6
ENDBRANCH   1   3
BRANCH   1  13
HETATM   13  C6  UNL     1      16.223   7.970 -34.563  1.00  0.00     0.181 C 
HETATM   14  S2  UNL     1      17.422   8.961 -35.106  1.00  0.00    -0.040 SA
BRANCH  13  15
HETATM   15  N2  UNL     1      16.352   6.567 -34.609  1.00  0.00    -0.362 N 
ATOM     16  H2  UNL     1      16.273   6.103 -35.514  1.00  0.00     0.162 HD
BRANCH  15  17
HETATM   17  C7  UNL     1      16.588   5.755 -33.445  1.00  0.00     0.083 C 
HETATM   18  C8  UNL     1      16.304   4.327 -33.767  1.00  0.00     0.025 C 
HETATM   19  C9  UNL     1      16.227   3.616 -32.423  1.00  0.00     0.002 C 
HETATM   20  C10 UNL     1      17.507   3.789 -31.687  1.00  0.00     0.000 C 
HETATM   21  C11 UNL     1      18.536   4.678 -32.279  1.00  0.00     0.002 C 
HETATM   22  C12 UNL     1      18.041   5.847 -33.060  1.00  0.00     0.025 C 
ENDBRANCH  15  17
ENDBRANCH  13  15
ENDBRANCH   1  13
TORSDOF 5
ENDMDL
