MODEL 1
REMARK VINA RESULT: -6.779219413      0.000      0.000
REMARK  7 active torsions:
REMARK  status: ('A' for Active; 'I' for Inactive)
REMARK    1  A    between atoms: C2_2  and  O1_3 
REMARK    2  A    between atoms: O1_3  and  C3_4 
REMARK    3  A    between atoms: C3_4  and  C4_6 
REMARK    4  A    between atoms: C5_8  and  N1_9 
REMARK    5  A    between atoms: N1_9  and  C6_11 
REMARK    6  A    between atoms: C6_11  and  N2_13 
REMARK    7  A    between atoms: N2_13  and  C7_15 
ROOT
HETATM    1  C4  UNL     1      11.099   9.234 -35.007  1.00  0.00     0.122 A 
HETATM    2  S1  UNL     1      12.795   9.212 -35.185  1.00  0.00    -0.045 SA
HETATM    3  C5  UNL     1      13.001   7.531 -35.386  1.00  0.00     0.152 A 
HETATM    4  N3  UNL     1      11.756   7.066 -35.307  1.00  0.00    -0.326 N 
ATOM      5  H3  UNL     1      11.569   6.067 -35.393  1.00  0.00     0.169 HD
HETATM    6  C12 UNL     1      10.782   7.907 -35.116  1.00  0.00     0.129 A 
HETATM    7 CL1  UNL     1       9.068   7.411 -34.990  1.00  0.00    -0.063 Cl
ENDROOT
BRANCH   3   8
HETATM    8  N1  UNL     1      14.106   6.836 -35.575  1.00  0.00    -0.313 N 
ATOM      9  H1  UNL     1      14.191   6.199 -36.367  1.00  0.00     0.170 HD
BRANCH   8  10
HETATM   10  C6  UNL     1      15.175   6.992 -34.654  1.00  0.00     0.173 C 
HETATM   11  S2  UNL     1      16.213   8.227 -34.890  1.00  0.00    -0.041 SA
BRANCH  10  12
HETATM   12  N2  UNL     1      15.337   6.102 -33.558  1.00  0.00    -0.362 N 
ATOM     13  H2  UNL     1      14.598   6.063 -32.856  1.00  0.00     0.162 HD
BRANCH  12  14
HETATM   14  C7  UNL     1      16.478   5.259 -33.383  1.00  0.00     0.083 C 
HETATM   15  C8  UNL     1      17.462   5.926 -32.450  1.00  0.00     0.025 C 
HETATM   16  C9  UNL     1      18.418   4.761 -32.162  1.00  0.00     0.002 C 
HETATM   17  C10 UNL     1      17.536   3.543 -32.153  1.00  0.00     0.002 C 
HETATM   18  C11 UNL     1      16.176   3.975 -32.657  1.00  0.00     0.025 C 
ENDBRANCH  12  14
ENDBRANCH  10  12
ENDBRANCH   8  10
ENDBRANCH   3   8
BRANCH   1  19
HETATM   19  C3  UNL     1      10.209  10.396 -34.790  1.00  0.00     0.303 C 
HETATM   20  O2  UNL     1       9.376  10.703 -35.680  1.00  0.00    -0.259 OA
BRANCH  19  21
HETATM   21  O1  UNL     1      10.263  11.146 -33.650  1.00  0.00    -0.317 OA
BRANCH  21  22
HETATM   22  C2  UNL     1      10.277  12.570 -33.672  1.00  0.00     0.174 C 
HETATM   23  C1  UNL     1      11.640  13.061 -34.085  1.00  0.00     0.034 C 
ENDBRANCH  21  22
ENDBRANCH  19  21
ENDBRANCH   1  19
TORSDOF 7
ENDMDL
MODEL 2
REMARK VINA RESULT: -6.710966242      0.793      1.125
REMARK  7 active torsions:
REMARK  status: ('A' for Active; 'I' for Inactive)
REMARK    1  A    between atoms: C2_2  and  O1_3 
REMARK    2  A    between atoms: O1_3  and  C3_4 
REMARK    3  A    between atoms: C3_4  and  C4_6 
REMARK    4  A    between atoms: C5_8  and  N1_9 
REMARK    5  A    between atoms: N1_9  and  C6_11 
REMARK    6  A    between atoms: C6_11  and  N2_13 
REMARK    7  A    between atoms: N2_13  and  C7_15 
ROOT
HETATM    1  C4  UNL     1      11.370   9.432 -35.028  1.00  0.00     0.122 A 
HETATM    2  S1  UNL     1      13.060   9.319 -35.227  1.00  0.00    -0.045 SA
HETATM    3  C5  UNL     1      13.185   7.621 -35.323  1.00  0.00     0.152 A 
HETATM    4  N3  UNL     1      11.922   7.221 -35.197  1.00  0.00    -0.326 N 
ATOM      5  H3  UNL     1      11.687   6.228 -35.217  1.00  0.00     0.169 HD
HETATM    6  C12 UNL     1      10.991   8.117 -35.047  1.00  0.00     0.129 A 
HETATM    7 CL1  UNL     1       9.258   7.711 -34.867  1.00  0.00    -0.063 Cl
ENDROOT
BRANCH   3   8
HETATM    8  N1  UNL     1      14.253   6.865 -35.482  1.00  0.00    -0.313 N 
ATOM      9  H1  UNL     1      14.298   6.178 -36.235  1.00  0.00     0.170 HD
BRANCH   8  10
HETATM   10  C6  UNL     1      15.341   7.024 -34.584  1.00  0.00     0.173 C 
HETATM   11  S2  UNL     1      16.413   8.216 -34.885  1.00  0.00    -0.041 SA
BRANCH  10  12
HETATM   12  N2  UNL     1      15.494   6.174 -33.455  1.00  0.00    -0.362 N 
ATOM     13  H2  UNL     1      14.793   6.226 -32.716  1.00  0.00     0.162 HD
BRANCH  12  14
HETATM   14  C7  UNL     1      16.573   5.251 -33.297  1.00  0.00     0.083 C 
HETATM   15  C8  UNL     1      17.558   5.792 -32.286  1.00  0.00     0.025 C 
HETATM   16  C9  UNL     1      18.429   4.553 -32.044  1.00  0.00     0.002 C 
HETATM   17  C10 UNL     1      17.476   3.395 -32.150  1.00  0.00     0.002 C 
HETATM   18  C11 UNL     1      16.165   3.944 -32.671  1.00  0.00     0.025 C 
ENDBRANCH  12  14
ENDBRANCH  10  12
ENDBRANCH   8  10
ENDBRANCH   3   8
BRANCH   1  19
HETATM   19  C3  UNL     1      10.537  10.646 -34.874  1.00  0.00     0.303 C 
HETATM   20  O2  UNL     1      10.223  11.306 -35.897  1.00  0.00    -0.259 OA
BRANCH  19  21
HETATM   21  O1  UNL     1      10.099  11.071 -33.653  1.00  0.00    -0.317 OA
BRANCH  21  22
HETATM   22  C2  UNL     1       8.880  11.789 -33.487  1.00  0.00     0.174 C 
HETATM   23  C1  UNL     1       7.710  10.848 -33.620  1.00  0.00     0.034 C 
ENDBRANCH  21  22
ENDBRANCH  19  21
ENDBRANCH   1  19
TORSDOF 7
ENDMDL
MODEL 3
REMARK VINA RESULT: -6.569241627      1.884      2.138
REMARK  7 active torsions:
REMARK  status: ('A' for Active; 'I' for Inactive)
REMARK    1  A    between atoms: C2_2  and  O1_3 
REMARK    2  A    between atoms: O1_3  and  C3_4 
REMARK    3  A    between atoms: C3_4  and  C4_6 
REMARK    4  A    between atoms: C5_8  and  N1_9 
REMARK    5  A    between atoms: N1_9  and  C6_11 
REMARK    6  A    between atoms: C6_11  and  N2_13 
REMARK    7  A    between atoms: N2_13  and  C7_15 
ROOT
HETATM    1  C4  UNL     1      11.322   8.401 -35.034  1.00  0.00     0.122 A 
HETATM    2  S1  UNL     1      12.242   7.079 -35.596  1.00  0.00    -0.045 SA
HETATM    3  C5  UNL     1      13.796   7.705 -35.277  1.00  0.00     0.152 A 
HETATM    4  N3  UNL     1      13.535   8.901 -34.754  1.00  0.00    -0.326 N 
ATOM      5  H3  UNL     1      14.294   9.517 -34.462  1.00  0.00     0.169 HD
HETATM    6  C12 UNL     1      12.294   9.272 -34.623  1.00  0.00     0.129 A 
HETATM    7 CL1  UNL     1      11.810  10.851 -33.937  1.00  0.00    -0.063 Cl
ENDROOT
BRANCH   3   8
HETATM    8  N1  UNL     1      14.980   7.163 -35.486  1.00  0.00    -0.313 N 
ATOM      9  H1  UNL     1      15.151   6.591 -36.313  1.00  0.00     0.170 HD
BRANCH   8  10
HETATM   10  C6  UNL     1      16.011   7.391 -34.537  1.00  0.00     0.173 C 
HETATM   11  S2  UNL     1      17.085   8.578 -34.846  1.00  0.00    -0.041 SA
BRANCH  10  12
HETATM   12  N2  UNL     1      16.106   6.611 -33.353  1.00  0.00    -0.362 N 
ATOM     13  H2  UNL     1      15.617   6.939 -32.520  1.00  0.00     0.162 HD
BRANCH  12  14
HETATM   14  C7  UNL     1      16.847   5.392 -33.263  1.00  0.00     0.083 C 
HETATM   15  C8  UNL     1      17.942   5.542 -32.231  1.00  0.00     0.025 C 
HETATM   16  C9  UNL     1      18.387   4.082 -32.074  1.00  0.00     0.002 C 
HETATM   17  C10 UNL     1      17.124   3.282 -32.240  1.00  0.00     0.002 C 
HETATM   18  C11 UNL     1      16.051   4.239 -32.713  1.00  0.00     0.025 C 
ENDBRANCH  12  14
ENDBRANCH  10  12
ENDBRANCH   8  10
ENDBRANCH   3   8
BRANCH   1  19
HETATM   19  C3  UNL     1       9.851   8.555 -35.005  1.00  0.00     0.303 C 
HETATM   20  O2  UNL     1       9.136   7.555 -34.744  1.00  0.00    -0.259 OA
BRANCH  19  21
HETATM   21  O1  UNL     1       9.245   9.753 -35.253  1.00  0.00    -0.317 OA
BRANCH  21  22
HETATM   22  C2  UNL     1       7.982  10.101 -34.694  1.00  0.00     0.174 C 
HETATM   23  C1  UNL     1       8.171  11.124 -33.603  1.00  0.00     0.034 C 
ENDBRANCH  21  22
ENDBRANCH  19  21
ENDBRANCH   1  19
TORSDOF 7
ENDMDL
MODEL 4
REMARK VINA RESULT: -6.553580387      1.472      1.555
REMARK  7 active torsions:
REMARK  status: ('A' for Active; 'I' for Inactive)
REMARK    1  A    between atoms: C2_2  and  O1_3 
REMARK    2  A    between atoms: O1_3  and  C3_4 
REMARK    3  A    between atoms: C3_4  and  C4_6 
REMARK    4  A    between atoms: C5_8  and  N1_9 
REMARK    5  A    between atoms: N1_9  and  C6_11 
REMARK    6  A    between atoms: C6_11  and  N2_13 
REMARK    7  A    between atoms: N2_13  and  C7_15 
ROOT
HETATM    1  C4  UNL     1      11.332   9.583 -35.079  1.00  0.00     0.122 A 
HETATM    2  S1  UNL     1      11.996   8.105 -34.545  1.00  0.00    -0.045 SA
HETATM    3  C5  UNL     1      13.357   8.058 -35.572  1.00  0.00     0.152 A 
HETATM    4  N3  UNL     1      13.237   9.180 -36.277  1.00  0.00    -0.326 N 
ATOM      5  H3  UNL     1      13.927   9.423 -36.989  1.00  0.00     0.169 HD
HETATM    6  C12 UNL     1      12.224   9.964 -36.045  1.00  0.00     0.129 A 
HETATM    7 CL1  UNL     1      11.949  11.497 -36.924  1.00  0.00    -0.063 Cl
ENDROOT
BRANCH   3   8
HETATM    8  N1  UNL     1      14.307   7.150 -35.666  1.00  0.00    -0.313 N 
ATOM      9  H1  UNL     1      14.287   6.450 -36.407  1.00  0.00     0.170 HD
BRANCH   8  10
HETATM   10  C6  UNL     1      15.361   7.165 -34.714  1.00  0.00     0.173 C 
HETATM   11  S2  UNL     1      16.505   8.317 -34.858  1.00  0.00    -0.041 SA
BRANCH  10  12
HETATM   12  N2  UNL     1      15.418   6.206 -33.666  1.00  0.00    -0.362 N 
ATOM     13  H2  UNL     1      14.618   6.132 -33.037  1.00  0.00     0.162 HD
BRANCH  12  14
HETATM   14  C7  UNL     1      16.533   5.340 -33.442  1.00  0.00     0.083 C 
HETATM   15  C8  UNL     1      17.483   5.984 -32.458  1.00  0.00     0.025 C 
HETATM   16  C9  UNL     1      18.402   4.799 -32.132  1.00  0.00     0.002 C 
HETATM   17  C10 UNL     1      17.499   3.597 -32.175  1.00  0.00     0.002 C 
HETATM   18  C11 UNL     1      16.172   4.058 -32.741  1.00  0.00     0.025 C 
ENDBRANCH  12  14
ENDBRANCH  10  12
ENDBRANCH   8  10
ENDBRANCH   3   8
BRANCH   1  19
HETATM   19  C3  UNL     1      10.106  10.267 -34.612  1.00  0.00     0.303 C 
HETATM   20  O2  UNL     1       9.005   9.977 -35.144  1.00  0.00    -0.259 OA
BRANCH  19  21
HETATM   21  O1  UNL     1      10.134  11.204 -33.620  1.00  0.00    -0.317 OA
BRANCH  21  22
HETATM   22  C2  UNL     1       9.994  12.597 -33.880  1.00  0.00     0.174 C 
HETATM   23  C1  UNL     1      11.288  13.307 -33.573  1.00  0.00     0.034 C 
ENDBRANCH  21  22
ENDBRANCH  19  21
ENDBRANCH   1  19
TORSDOF 7
ENDMDL
MODEL 5
REMARK VINA RESULT: -6.524347761      0.862      1.328
REMARK  7 active torsions:
REMARK  status: ('A' for Active; 'I' for Inactive)
REMARK    1  A    between atoms: C2_2  and  O1_3 
REMARK    2  A    between atoms: O1_3  and  C3_4 
REMARK    3  A    between atoms: C3_4  and  C4_6 
REMARK    4  A    between atoms: C5_8  and  N1_9 
REMARK    5  A    between atoms: N1_9  and  C6_11 
REMARK    6  A    between atoms: C6_11  and  N2_13 
REMARK    7  A    between atoms: N2_13  and  C7_15 
ROOT
HETATM    1  C4  UNL     1      11.123   9.271 -34.891  1.00  0.00     0.122 A 
HETATM    2  S1  UNL     1      12.817   9.240 -35.088  1.00  0.00    -0.045 SA
HETATM    3  C5  UNL     1      13.007   7.564 -35.340  1.00  0.00     0.152 A 
HETATM    4  N3  UNL     1      11.759   7.107 -35.261  1.00  0.00    -0.326 N 
ATOM      5  H3  UNL     1      11.562   6.112 -35.375  1.00  0.00     0.169 HD
HETATM    6  C12 UNL     1      10.794   7.951 -35.035  1.00  0.00     0.129 A 
HETATM    7 CL1  UNL     1       9.077   7.465 -34.906  1.00  0.00    -0.063 Cl
ENDROOT
BRANCH   3   8
HETATM    8  N1  UNL     1      14.103   6.866 -35.560  1.00  0.00    -0.313 N 
ATOM      9  H1  UNL     1      14.170   6.242 -36.365  1.00  0.00     0.170 HD
BRANCH   8  10
HETATM   10  C6  UNL     1      15.189   6.999 -34.656  1.00  0.00     0.173 C 
HETATM   11  S2  UNL     1      16.252   8.210 -34.910  1.00  0.00    -0.041 SA
BRANCH  10  12
HETATM   12  N2  UNL     1      15.348   6.106 -33.561  1.00  0.00    -0.362 N 
ATOM     13  H2  UNL     1      14.599   6.052 -32.872  1.00  0.00     0.162 HD
BRANCH  12  14
HETATM   14  C7  UNL     1      16.499   5.281 -33.371  1.00  0.00     0.083 C 
HETATM   15  C8  UNL     1      17.444   5.946 -32.396  1.00  0.00     0.025 C 
HETATM   16  C9  UNL     1      18.413   4.793 -32.105  1.00  0.00     0.002 C 
HETATM   17  C10 UNL     1      17.555   3.559 -32.148  1.00  0.00     0.002 C 
HETATM   18  C11 UNL     1      16.201   3.977 -32.681  1.00  0.00     0.025 C 
ENDBRANCH  12  14
ENDBRANCH  10  12
ENDBRANCH   8  10
ENDBRANCH   3   8
BRANCH   1  19
HETATM   19  C3  UNL     1      10.245  10.434 -34.631  1.00  0.00     0.303 C 
HETATM   20  O2  UNL     1      10.476  11.162 -33.633  1.00  0.00    -0.259 OA
BRANCH  19  21
HETATM   21  O1  UNL     1       9.192  10.741 -35.443  1.00  0.00    -0.317 OA
BRANCH  21  22
HETATM   22  C2  UNL     1       9.347  10.978 -36.839  1.00  0.00     0.174 C 
HETATM   23  C1  UNL     1      10.217  12.189 -37.058  1.00  0.00     0.034 C 
ENDBRANCH  21  22
ENDBRANCH  19  21
ENDBRANCH   1  19
TORSDOF 7
ENDMDL
