MODEL 1
REMARK VINA RESULT: -7.232604883      0.000      0.000
REMARK  4 active torsions:
REMARK  status: ('A' for Active; 'I' for Inactive)
REMARK    1  A    between atoms: C2_2  and  C3_3 
REMARK    2  A    between atoms: C2_2  and  C11_15 
REMARK    3  A    between atoms: C14_18  and  C15_19 
REMARK    4  A    between atoms: C15_19  and  O2_22 
ROOT
HETATM    1  C1  UNL     1      12.739   6.242 -35.717  1.00  0.00     0.020 C 
HETATM    2  C2  UNL     1      13.166   7.247 -35.010  1.00  0.00    -0.048 C 
ENDROOT
BRANCH   2   3
HETATM    3  C3  UNL     1      14.570   7.512 -34.811  1.00  0.00     0.006 A 
HETATM    4  C4  UNL     1      15.131   8.520 -35.608  1.00  0.00     0.038 A 
HETATM    5  C5  UNL     1      16.469   8.851 -35.529  1.00  0.00     0.035 A 
HETATM    6 CL1  UNL     1      17.113  10.129 -36.558  1.00  0.00    -0.084 Cl
HETATM    7  C6  UNL     1      17.304   8.191 -34.653  1.00  0.00     0.035 A 
HETATM    8  C7  UNL     1      16.792   7.200 -33.859  1.00  0.00    -0.004 A 
HETATM    9  C8  UNL     1      15.440   6.893 -33.964  1.00  0.00     0.095 A 
HETATM   10  C10 UNL     1      17.611   6.452 -32.904  1.00  0.00     0.162 C 
HETATM   11  O1  UNL     1      14.989   5.876 -33.135  1.00  0.00    -0.305 OA
HETATM   12  C9  UNL     1      15.805   4.882 -32.609  1.00  0.00     0.229 C 
HETATM   13  N1  UNL     1      17.201   5.085 -32.735  1.00  0.00    -0.376 N 
ATOM     14  H1  UNL     1      17.869   4.314 -32.707  1.00  0.00     0.161 HD
ENDBRANCH   2   3
BRANCH   2  15
HETATM   15  C11 UNL     1      12.116   8.134 -34.417  1.00  0.00     0.043 C 
HETATM   16  C12 UNL     1      12.643   9.425 -33.895  1.00  0.00     0.014 C 
HETATM   17  C13 UNL     1      11.912  10.630 -34.436  1.00  0.00     0.036 C 
HETATM   18  C14 UNL     1      10.431  10.485 -34.404  1.00  0.00     0.155 C 
HETATM   19  O3  UNL     1      10.029   9.236 -34.779  1.00  0.00    -0.382 OA
HETATM   20  C18 UNL     1      11.007   8.454 -35.389  1.00  0.00     0.177 C 
BRANCH  18  21
HETATM   21  C15 UNL     1       9.735  11.586 -35.168  1.00  0.00     0.076 C 
HETATM   22  C16 UNL     1      10.719  12.223 -36.122  1.00  0.00     0.048 C 
HETATM   23  C17 UNL     1       9.203  12.648 -34.261  1.00  0.00     0.048 C 
BRANCH  21  24
HETATM   24  O2  UNL     1       8.677  11.099 -35.933  1.00  0.00    -0.388 OA
ATOM     25  H2  UNL     1       8.689  11.447 -36.816  1.00  0.00     0.210 HD
ENDBRANCH  21  24
ENDBRANCH  18  21
ENDBRANCH   2  15
TORSDOF 4
ENDMDL
MODEL 2
REMARK VINA RESULT: -7.141537713      1.281      1.661
REMARK  4 active torsions:
REMARK  status: ('A' for Active; 'I' for Inactive)
REMARK    1  A    between atoms: C2_2  and  C3_3 
REMARK    2  A    between atoms: C2_2  and  C11_15 
REMARK    3  A    between atoms: C14_18  and  C15_19 
REMARK    4  A    between atoms: C15_19  and  O2_22 
ROOT
HETATM    1  C1  UNL     1      12.626   7.149 -35.146  1.00  0.00     0.020 C 
HETATM    2  C2  UNL     1      13.377   8.211 -35.125  1.00  0.00    -0.048 C 
ENDROOT
BRANCH   2   3
HETATM    3  C3  UNL     1      14.805   8.146 -34.937  1.00  0.00     0.006 A 
HETATM    4  C4  UNL     1      15.571   9.060 -35.674  1.00  0.00     0.038 A 
HETATM    5  C5  UNL     1      16.950   9.082 -35.600  1.00  0.00     0.035 A 
HETATM    6 CL1  UNL     1      17.855  10.258 -36.552  1.00  0.00    -0.084 Cl
HETATM    7  C6  UNL     1      17.623   8.194 -34.790  1.00  0.00     0.035 A 
HETATM    8  C7  UNL     1      16.909   7.285 -34.056  1.00  0.00    -0.004 A 
HETATM    9  C8  UNL     1      15.522   7.290 -34.154  1.00  0.00     0.095 A 
HETATM   10  C10 UNL     1      17.546   6.308 -33.172  1.00  0.00     0.162 C 
HETATM   11  O1  UNL     1      14.861   6.341 -33.388  1.00  0.00    -0.305 OA
HETATM   12  C9  UNL     1      15.440   5.157 -32.949  1.00  0.00     0.229 C 
HETATM   13  N1  UNL     1      16.845   5.056 -33.089  1.00  0.00    -0.376 N 
ATOM     14  H1  UNL     1      17.327   4.157 -33.129  1.00  0.00     0.161 HD
ENDBRANCH   2   3
BRANCH   2  15
HETATM   15  C11 UNL     1      12.678   9.519 -35.322  1.00  0.00     0.043 C 
HETATM   16  C12 UNL     1      11.410   9.413 -36.096  1.00  0.00     0.014 C 
HETATM   17  C13 UNL     1      10.230  10.046 -35.398  1.00  0.00     0.036 C 
HETATM   18  C14 UNL     1      10.528  11.395 -34.841  1.00  0.00     0.155 C 
HETATM   19  O3  UNL     1      11.759  11.447 -34.254  1.00  0.00    -0.382 OA
HETATM   20  C18 UNL     1      12.361  10.213 -34.020  1.00  0.00     0.177 C 
BRANCH  18  21
HETATM   21  C15 UNL     1       9.421  11.897 -33.944  1.00  0.00     0.076 C 
HETATM   22  C16 UNL     1       8.417  10.788 -33.733  1.00  0.00     0.048 C 
HETATM   23  C17 UNL     1       8.711  13.071 -34.534  1.00  0.00     0.048 C 
BRANCH  21  24
HETATM   24  O2  UNL     1       9.899  12.265 -32.688  1.00  0.00    -0.388 OA
ATOM     25  H2  UNL     1      10.605  11.700 -32.398  1.00  0.00     0.210 HD
ENDBRANCH  21  24
ENDBRANCH  18  21
ENDBRANCH   2  15
TORSDOF 4
ENDMDL
MODEL 3
REMARK VINA RESULT: -6.959064518      3.407      7.390
REMARK  4 active torsions:
REMARK  status: ('A' for Active; 'I' for Inactive)
REMARK    1  A    between atoms: C2_2  and  C3_3 
REMARK    2  A    between atoms: C2_2  and  C11_15 
REMARK    3  A    between atoms: C14_18  and  C15_19 
REMARK    4  A    between atoms: C15_19  and  O2_22 
ROOT
HETATM    1  C1  UNL     1      13.297  10.030 -36.542  1.00  0.00     0.020 C 
HETATM    2  C2  UNL     1      12.584   9.587 -35.549  1.00  0.00    -0.048 C 
ENDROOT
BRANCH   2   3
HETATM    3  C3  UNL     1      11.180   9.886 -35.410  1.00  0.00     0.006 A 
HETATM    4  C4  UNL     1      10.311   9.202 -36.272  1.00  0.00     0.038 A 
HETATM    5  C5  UNL     1       8.947   9.418 -36.254  1.00  0.00     0.035 A 
HETATM    6 CL1  UNL     1       7.909   8.525 -37.364  1.00  0.00    -0.084 Cl
HETATM    7  C6  UNL     1       8.392  10.325 -35.378  1.00  0.00     0.035 A 
HETATM    8  C7  UNL     1       9.209  11.013 -34.521  1.00  0.00    -0.004 A 
HETATM    9  C8  UNL     1      10.578  10.770 -34.565  1.00  0.00     0.095 A 
HETATM   10  C10 UNL     1       8.700  11.992 -33.559  1.00  0.00     0.162 C 
HETATM   11  O1  UNL     1      11.347  11.504 -33.674  1.00  0.00    -0.305 OA
HETATM   12  C9  UNL     1      10.957  12.721 -33.130  1.00  0.00     0.229 C 
HETATM   13  N1  UNL     1       9.601  13.084 -33.313  1.00  0.00    -0.376 N 
ATOM     14  H1  UNL     1       9.285  14.054 -33.272  1.00  0.00     0.161 HD
ENDBRANCH   2   3
BRANCH   2  15
HETATM   15  C11 UNL     1      13.298   8.730 -34.551  1.00  0.00     0.043 C 
HETATM   16  C12 UNL     1      12.747   7.351 -34.439  1.00  0.00     0.014 C 
HETATM   17  C13 UNL     1      13.794   6.275 -34.594  1.00  0.00     0.036 C 
HETATM   18  C14 UNL     1      15.030   6.536 -33.805  1.00  0.00     0.155 C 
HETATM   19  O3  UNL     1      15.405   7.847 -33.857  1.00  0.00    -0.382 OA
HETATM   20  C18 UNL     1      14.774   8.609 -34.838  1.00  0.00     0.177 C 
BRANCH  18  21
HETATM   21  C15 UNL     1      16.146   5.584 -34.165  1.00  0.00     0.076 C 
HETATM   22  C16 UNL     1      16.364   4.624 -33.019  1.00  0.00     0.048 C 
HETATM   23  C17 UNL     1      17.430   6.302 -34.429  1.00  0.00     0.048 C 
BRANCH  21  24
HETATM   24  O2  UNL     1      15.836   4.821 -35.289  1.00  0.00    -0.388 OA
ATOM     25  H2  UNL     1      15.921   5.323 -36.091  1.00  0.00     0.210 HD
ENDBRANCH  21  24
ENDBRANCH  18  21
ENDBRANCH   2  15
TORSDOF 4
ENDMDL
MODEL 4
REMARK VINA RESULT: -6.946672271      3.212      7.136
REMARK  4 active torsions:
REMARK  status: ('A' for Active; 'I' for Inactive)
REMARK    1  A    between atoms: C2_2  and  C3_3 
REMARK    2  A    between atoms: C2_2  and  C11_15 
REMARK    3  A    between atoms: C14_18  and  C15_19 
REMARK    4  A    between atoms: C15_19  and  O2_22 
ROOT
HETATM    1  C1  UNL     1      12.388   9.894 -34.138  1.00  0.00     0.020 C 
HETATM    2  C2  UNL     1      12.245   9.167 -35.207  1.00  0.00    -0.048 C 
ENDROOT
BRANCH   2   3
HETATM    3  C3  UNL     1      11.152   9.354 -36.129  1.00  0.00     0.006 A 
HETATM    4  C4  UNL     1      11.323  10.350 -37.101  1.00  0.00     0.038 A 
HETATM    5  C5  UNL     1      10.341  10.642 -38.026  1.00  0.00     0.035 A 
HETATM    6 CL1  UNL     1      10.619  11.906 -39.223  1.00  0.00    -0.084 Cl
HETATM    7  C6  UNL     1       9.147   9.954 -38.022  1.00  0.00     0.035 A 
HETATM    8  C7  UNL     1       8.942   8.975 -37.087  1.00  0.00    -0.004 A 
HETATM    9  C8  UNL     1       9.953   8.707 -36.170  1.00  0.00     0.095 A 
HETATM   10  C10 UNL     1       7.704   8.199 -37.014  1.00  0.00     0.162 C 
HETATM   11  O1  UNL     1       9.679   7.707 -35.249  1.00  0.00    -0.305 OA
HETATM   12  C9  UNL     1       8.396   7.322 -34.877  1.00  0.00     0.229 C 
HETATM   13  N1  UNL     1       7.337   7.816 -35.678  1.00  0.00    -0.376 N 
ATOM     14  H1  UNL     1       6.381   7.893 -35.331  1.00  0.00     0.161 HD
ENDBRANCH   2   3
BRANCH   2  15
HETATM   15  C11 UNL     1      13.290   8.122 -35.441  1.00  0.00     0.043 C 
HETATM   16  C12 UNL     1      14.682   8.603 -35.220  1.00  0.00     0.014 C 
HETATM   17  C13 UNL     1      15.472   7.731 -34.275  1.00  0.00     0.036 C 
HETATM   18  C14 UNL     1      15.337   6.276 -34.562  1.00  0.00     0.155 C 
HETATM   19  O3  UNL     1      14.055   5.931 -34.875  1.00  0.00    -0.382 OA
HETATM   20  C18 UNL     1      13.091   6.895 -34.586  1.00  0.00     0.177 C 
BRANCH  18  21
HETATM   21  C15 UNL     1      15.930   5.422 -33.466  1.00  0.00     0.076 C 
HETATM   22  C16 UNL     1      17.265   6.000 -33.059  1.00  0.00     0.048 C 
HETATM   23  C17 UNL     1      16.141   4.011 -33.907  1.00  0.00     0.048 C 
BRANCH  21  24
HETATM   24  O2  UNL     1      15.125   5.406 -32.329  1.00  0.00    -0.388 OA
ATOM     25  H2  UNL     1      15.090   6.256 -31.907  1.00  0.00     0.210 HD
ENDBRANCH  21  24
ENDBRANCH  18  21
ENDBRANCH   2  15
TORSDOF 4
ENDMDL
MODEL 5
REMARK VINA RESULT: -6.895439872      3.989      7.774
REMARK  4 active torsions:
REMARK  status: ('A' for Active; 'I' for Inactive)
REMARK    1  A    between atoms: C2_2  and  C3_3 
REMARK    2  A    between atoms: C2_2  and  C11_15 
REMARK    3  A    between atoms: C14_18  and  C15_19 
REMARK    4  A    between atoms: C15_19  and  O2_22 
ROOT
HETATM    1  C1  UNL     1      11.479   9.908 -34.180  1.00  0.00     0.020 C 
HETATM    2  C2  UNL     1      11.292   8.976 -35.068  1.00  0.00    -0.048 C 
ENDROOT
BRANCH   2   3
HETATM    3  C3  UNL     1       9.981   8.623 -35.554  1.00  0.00     0.006 A 
HETATM    4  C4  UNL     1       9.318   7.597 -34.866  1.00  0.00     0.038 A 
HETATM    5  C5  UNL     1       8.069   7.151 -35.249  1.00  0.00     0.035 A 
HETATM    6 CL1  UNL     1       7.290   5.857 -34.341  1.00  0.00    -0.084 Cl
HETATM    7  C6  UNL     1       7.427   7.709 -36.333  1.00  0.00     0.035 A 
HETATM    8  C7  UNL     1       8.043   8.713 -37.031  1.00  0.00    -0.004 A 
HETATM    9  C8  UNL     1       9.301   9.138 -36.618  1.00  0.00     0.095 A 
HETATM   10  C10 UNL     1       7.431   9.359 -38.193  1.00  0.00     0.162 C 
HETATM   11  O1  UNL     1       9.870  10.155 -37.371  1.00  0.00    -0.305 OA
HETATM   12  C9  UNL     1       9.535  10.423 -38.693  1.00  0.00     0.229 C 
HETATM   13  N1  UNL     1       8.377   9.777 -39.190  1.00  0.00    -0.376 N 
ATOM     14  H1  UNL     1       8.226   9.619 -40.187  1.00  0.00     0.161 HD
ENDBRANCH   2   3
BRANCH   2  15
HETATM   15  C11 UNL     1      12.520   8.289 -35.575  1.00  0.00     0.043 C 
HETATM   16  C12 UNL     1      13.786   9.004 -35.253  1.00  0.00     0.014 C 
HETATM   17  C13 UNL     1      14.810   8.128 -34.573  1.00  0.00     0.036 C 
HETATM   18  C14 UNL     1      14.975   6.799 -35.225  1.00  0.00     0.155 C 
HETATM   19  O3  UNL     1      13.779   6.260 -35.602  1.00  0.00    -0.382 OA
HETATM   20  C18 UNL     1      12.652   6.876 -35.063  1.00  0.00     0.177 C 
BRANCH  18  21
HETATM   21  C15 UNL     1      15.813   5.857 -34.392  1.00  0.00     0.076 C 
HETATM   22  C16 UNL     1      15.264   5.822 -32.985  1.00  0.00     0.048 C 
HETATM   23  C17 UNL     1      17.243   6.286 -34.330  1.00  0.00     0.048 C 
BRANCH  21  24
HETATM   24  O2  UNL     1      15.771   4.554 -34.883  1.00  0.00    -0.388 OA
ATOM     25  H2  UNL     1      14.925   4.148 -34.738  1.00  0.00     0.210 HD
ENDBRANCH  21  24
ENDBRANCH  18  21
ENDBRANCH   2  15
TORSDOF 4
ENDMDL
