MODEL 1
REMARK VINA RESULT: -9.480273564      0.000      0.000
REMARK  11 active torsions:
REMARK  status: ('A' for Active; 'I' for Inactive)
REMARK    1  A    between atoms: O1_2  and  C2_3 
REMARK    2  A    between atoms: C7_9  and  C8_10 
REMARK    3  A    between atoms: C8_10  and  C9_12 
REMARK    4  A    between atoms: C9_12  and  O3_13 
REMARK    5  A    between atoms: O3_13  and  C10_14 
REMARK    6  A    between atoms: C10_14  and  C11_16 
REMARK    7  A    between atoms: C11_16  and  S1_17 
REMARK    8  A    between atoms: S1_17  and  C12_19 
REMARK    9  A    between atoms: C12_19  and  C13_20 
REMARK       I    between atoms: C13_20  and  N1_22 
REMARK   10  A    between atoms: N1_22  and  C14_24 
REMARK   11  A    between atoms: C17_27  and  N2_28 
ROOT
HETATM    1  C11 UNL     1      11.189 -16.004  15.237  1.00  0.00     0.220 C 
ENDROOT
BRANCH   1   2
HETATM    2  C10 UNL     1      11.308 -14.625  14.717  1.00  0.00     0.270 C 
HETATM    3  O4  UNL     1      11.199 -13.654  15.499  1.00  0.00    -0.264 OA
BRANCH   2   4
HETATM    4  O3  UNL     1      11.539 -14.398  13.374  1.00  0.00    -0.313 OA
BRANCH   4   5
HETATM    5  C9  UNL     1      10.755 -13.442  12.701  1.00  0.00     0.262 C 
BRANCH   5   6
HETATM    6  C8  UNL     1       9.825 -14.062  11.735  1.00  0.00     0.186 C 
HETATM    7  O2  UNL     1       9.855 -15.296  11.557  1.00  0.00    -0.290 OA
BRANCH   6   8
HETATM    8  C7  UNL     1       8.892 -13.232  11.008  1.00  0.00     0.046 A 
HETATM    9  C2  UNL     1       9.247 -12.737   9.752  1.00  0.00     0.082 A 
HETATM   10  C3  UNL     1       8.348 -11.948   9.067  1.00  0.00     0.039 A 
HETATM   11  C4  UNL     1       7.105 -11.613   9.551  1.00  0.00     0.022 A 
HETATM   12  C5  UNL     1       6.754 -12.106  10.800  1.00  0.00     0.012 A 
HETATM   13 BR1  UNL     1       5.039 -11.657  11.497  1.00  0.00    -0.051 Br
HETATM   14  C6  UNL     1       7.646 -12.897  11.495  1.00  0.00     0.037 A 
BRANCH   9  15
HETATM   15  O1  UNL     1      10.464 -13.011   9.176  1.00  0.00    -0.355 OA
HETATM   16  C1  UNL     1      10.665 -13.798   8.047  1.00  0.00     0.210 C 
ENDBRANCH   9  15
ENDBRANCH   6   8
ENDBRANCH   5   6
ENDBRANCH   4   5
ENDBRANCH   2   4
ENDBRANCH   1   2
BRANCH   1  17
HETATM   17  S1  UNL     1       9.575 -16.695  14.959  1.00  0.00     0.033 S 
HETATM   18  O5  UNL     1       8.525 -15.420  14.627  1.00  0.00    -0.257 OA
BRANCH  17  19
HETATM   19  C12 UNL     1       8.992 -17.591  16.358  1.00  0.00     0.212 C 
BRANCH  19  20
HETATM   20  C13 UNL     1       9.568 -17.087  17.645  1.00  0.00     0.233 C 
HETATM   21  O6  UNL     1      10.537 -17.715  18.091  1.00  0.00    -0.272 OA
HETATM   22  N1  UNL     1       9.022 -15.972  18.279  1.00  0.00    -0.326 N 
ATOM     23  H1  UNL     1       8.222 -15.537  17.821  1.00  0.00     0.169 HD
BRANCH  22  24
HETATM   24  C14 UNL     1       9.453 -15.379  19.483  1.00  0.00     0.034 A 
HETATM   25  C15 UNL     1       9.280 -16.126  20.659  1.00  0.00     0.032 A 
HETATM   26  C16 UNL     1       9.642 -15.663  21.900  1.00  0.00     0.038 A 
HETATM   27  C17 UNL     1      10.202 -14.419  22.047  1.00  0.00     0.103 A 
HETATM   28  C18 UNL     1      10.376 -13.681  20.903  1.00  0.00     0.038 A 
HETATM   29  C19 UNL     1      10.009 -14.146  19.635  1.00  0.00     0.032 A 
BRANCH  27  30
HETATM   30  N2  UNL     1      10.593 -13.897  23.316  1.00  0.00    -0.116 N 
HETATM   31  O7  UNL     1      11.022 -12.742  23.424  1.00  0.00    -0.532 OA
HETATM   32  O8  UNL     1      10.493 -14.674  24.432  1.00  0.00    -0.532 OA
ENDBRANCH  27  30
ENDBRANCH  22  24
ENDBRANCH  19  20
ENDBRANCH  17  19
ENDBRANCH   1  17
TORSDOF 11
ENDMDL
MODEL 2
REMARK VINA RESULT: -9.161887793      4.635     10.857
REMARK  11 active torsions:
REMARK  status: ('A' for Active; 'I' for Inactive)
REMARK    1  A    between atoms: O1_2  and  C2_3 
REMARK    2  A    between atoms: C7_9  and  C8_10 
REMARK    3  A    between atoms: C8_10  and  C9_12 
REMARK    4  A    between atoms: C9_12  and  O3_13 
REMARK    5  A    between atoms: O3_13  and  C10_14 
REMARK    6  A    between atoms: C10_14  and  C11_16 
REMARK    7  A    between atoms: C11_16  and  S1_17 
REMARK    8  A    between atoms: S1_17  and  C12_19 
REMARK    9  A    between atoms: C12_19  and  C13_20 
REMARK       I    between atoms: C13_20  and  N1_22 
REMARK   10  A    between atoms: N1_22  and  C14_24 
REMARK   11  A    between atoms: C17_27  and  N2_28 
ROOT
HETATM    1  C11 UNL     1      10.223 -13.366  12.800  1.00  0.00     0.220 C 
ENDROOT
BRANCH   1   2
HETATM    2  C10 UNL     1      10.748 -13.864  14.090  1.00  0.00     0.270 C 
HETATM    3  O4  UNL     1      11.289 -14.991  14.148  1.00  0.00    -0.264 OA
BRANCH   2   4
HETATM    4  O3  UNL     1      10.644 -13.096  15.234  1.00  0.00    -0.313 OA
BRANCH   4   5
HETATM    5  C9  UNL     1      11.093 -13.631  16.455  1.00  0.00     0.262 C 
BRANCH   5   6
HETATM    6  C8  UNL     1      10.341 -13.097  17.609  1.00  0.00     0.186 C 
HETATM    7  O2  UNL     1       9.895 -11.933  17.566  1.00  0.00    -0.290 OA
BRANCH   6   8
HETATM    8  C7  UNL     1      10.132 -13.928  18.773  1.00  0.00     0.046 A 
HETATM    9  C2  UNL     1       9.726 -15.252  18.606  1.00  0.00     0.082 A 
HETATM   10  C3  UNL     1       9.530 -16.036  19.724  1.00  0.00     0.039 A 
HETATM   11  C4  UNL     1       9.714 -15.586  21.012  1.00  0.00     0.022 A 
HETATM   12  C5  UNL     1      10.117 -14.269  21.174  1.00  0.00     0.012 A 
HETATM   13 BR1  UNL     1      10.378 -13.618  22.946  1.00  0.00    -0.051 Br
HETATM   14  C6  UNL     1      10.316 -13.475  20.063  1.00  0.00     0.037 A 
BRANCH   9  15
HETATM   15  O1  UNL     1       9.515 -15.802  17.365  1.00  0.00    -0.355 OA
HETATM   16  C1  UNL     1       9.807 -17.111  17.000  1.00  0.00     0.210 C 
ENDBRANCH   9  15
ENDBRANCH   6   8
ENDBRANCH   5   6
ENDBRANCH   4   5
ENDBRANCH   2   4
ENDBRANCH   1   2
BRANCH   1  17
HETATM   17  S1  UNL     1       9.782 -14.686  11.695  1.00  0.00     0.033 S 
HETATM   18  O5  UNL     1      10.321 -14.265  10.156  1.00  0.00    -0.257 OA
BRANCH  17  19
HETATM   19  C12 UNL     1       8.044 -14.961  11.656  1.00  0.00     0.212 C 
BRANCH  19  20
HETATM   20  C13 UNL     1       7.301 -13.855  10.971  1.00  0.00     0.233 C 
HETATM   21  O6  UNL     1       6.810 -12.990  11.708  1.00  0.00    -0.272 OA
HETATM   22  N1  UNL     1       7.188 -13.829   9.582  1.00  0.00    -0.326 N 
ATOM     23  H1  UNL     1       7.630 -14.598   9.077  1.00  0.00     0.169 HD
BRANCH  22  24
HETATM   24  C14 UNL     1       6.531 -12.860   8.797  1.00  0.00     0.034 A 
HETATM   25  C15 UNL     1       7.307 -12.179   7.846  1.00  0.00     0.032 A 
HETATM   26  C16 UNL     1       6.797 -11.202   7.027  1.00  0.00     0.038 A 
HETATM   27  C17 UNL     1       5.475 -10.842   7.105  1.00  0.00     0.103 A 
HETATM   28  C18 UNL     1       4.709 -11.503   8.031  1.00  0.00     0.038 A 
HETATM   29  C19 UNL     1       5.222 -12.499   8.870  1.00  0.00     0.032 A 
BRANCH  27  30
HETATM   30  N2  UNL     1       4.903  -9.832   6.274  1.00  0.00    -0.116 N 
HETATM   31  O7  UNL     1       3.805 -10.003   5.729  1.00  0.00    -0.532 OA
HETATM   32  O8  UNL     1       5.566  -8.658   6.072  1.00  0.00    -0.532 OA
ENDBRANCH  27  30
ENDBRANCH  22  24
ENDBRANCH  19  20
ENDBRANCH  17  19
ENDBRANCH   1  17
TORSDOF 11
ENDMDL
MODEL 3
REMARK VINA RESULT: -9.154153352      4.499     10.728
REMARK  11 active torsions:
REMARK  status: ('A' for Active; 'I' for Inactive)
REMARK    1  A    between atoms: O1_2  and  C2_3 
REMARK    2  A    between atoms: C7_9  and  C8_10 
REMARK    3  A    between atoms: C8_10  and  C9_12 
REMARK    4  A    between atoms: C9_12  and  O3_13 
REMARK    5  A    between atoms: O3_13  and  C10_14 
REMARK    6  A    between atoms: C10_14  and  C11_16 
REMARK    7  A    between atoms: C11_16  and  S1_17 
REMARK    8  A    between atoms: S1_17  and  C12_19 
REMARK    9  A    between atoms: C12_19  and  C13_20 
REMARK       I    between atoms: C13_20  and  N1_22 
REMARK   10  A    between atoms: N1_22  and  C14_24 
REMARK   11  A    between atoms: C17_27  and  N2_28 
ROOT
HETATM    1  C11 UNL     1       8.458 -16.079  12.874  1.00  0.00     0.220 C 
ENDROOT
BRANCH   1   2
HETATM    2  C10 UNL     1       9.261 -16.646  13.979  1.00  0.00     0.270 C 
HETATM    3  O4  UNL     1      10.493 -16.435  14.024  1.00  0.00    -0.264 OA
BRANCH   2   4
HETATM    4  O3  UNL     1       8.661 -17.409  14.963  1.00  0.00    -0.313 OA
BRANCH   4   5
HETATM    5  C9  UNL     1       8.385 -16.817  16.209  1.00  0.00     0.262 C 
BRANCH   5   6
HETATM    6  C8  UNL     1       9.541 -16.884  17.127  1.00  0.00     0.186 C 
HETATM    7  O2  UNL     1      10.327 -17.850  17.056  1.00  0.00    -0.290 OA
BRANCH   6   8
HETATM    8  C7  UNL     1       9.747 -15.831  18.096  1.00  0.00     0.046 A 
HETATM    9  C2  UNL     1      10.150 -14.568  17.660  1.00  0.00     0.082 A 
HETATM   10  C3  UNL     1      10.342 -13.571  18.593  1.00  0.00     0.039 A 
HETATM   11  C4  UNL     1      10.159 -13.747  19.945  1.00  0.00     0.022 A 
HETATM   12  C5  UNL     1       9.759 -15.003  20.375  1.00  0.00     0.012 A 
HETATM   13 BR1  UNL     1       9.498 -15.278  22.242  1.00  0.00    -0.051 Br
HETATM   14  C6  UNL     1       9.563 -16.010  19.451  1.00  0.00     0.037 A 
BRANCH   9  15
HETATM   15  O1  UNL     1      10.361 -14.285  16.333  1.00  0.00    -0.355 OA
HETATM   16  C1  UNL     1      10.303 -13.021  15.756  1.00  0.00     0.210 C 
ENDBRANCH   9  15
ENDBRANCH   6   8
ENDBRANCH   5   6
ENDBRANCH   4   5
ENDBRANCH   2   4
ENDBRANCH   1   2
BRANCH   1  17
HETATM   17  S1  UNL     1       8.808 -14.359  12.597  1.00  0.00     0.033 S 
HETATM   18  O5  UNL     1       7.373 -13.616  12.123  1.00  0.00    -0.257 OA
BRANCH  17  19
HETATM   19  C12 UNL     1      10.032 -14.127  11.353  1.00  0.00     0.212 C 
BRANCH  19  20
HETATM   20  C13 UNL     1       9.596 -13.168  10.288  1.00  0.00     0.233 C 
HETATM   21  O6  UNL     1      10.306 -12.167  10.133  1.00  0.00    -0.272 OA
HETATM   22  N1  UNL     1       8.451 -13.418   9.533  1.00  0.00    -0.326 N 
ATOM     23  H1  UNL     1       7.942 -14.274   9.753  1.00  0.00     0.169 HD
BRANCH  22  24
HETATM   24  C14 UNL     1       7.919 -12.620   8.500  1.00  0.00     0.034 A 
HETATM   25  C15 UNL     1       6.691 -11.989   8.752  1.00  0.00     0.032 A 
HETATM   26  C16 UNL     1       6.054 -11.196   7.829  1.00  0.00     0.038 A 
HETATM   27  C17 UNL     1       6.607 -10.982   6.590  1.00  0.00     0.103 A 
HETATM   28  C18 UNL     1       7.808 -11.596   6.335  1.00  0.00     0.038 A 
HETATM   29  C19 UNL     1       8.461 -12.405   7.271  1.00  0.00     0.032 A 
BRANCH  27  30
HETATM   30  N2  UNL     1       5.981 -10.167   5.601  1.00  0.00    -0.116 N 
HETATM   31  O7  UNL     1       5.782 -10.595   4.457  1.00  0.00    -0.532 OA
HETATM   32  O8  UNL     1       5.589  -8.898   5.910  1.00  0.00    -0.532 OA
ENDBRANCH  27  30
ENDBRANCH  22  24
ENDBRANCH  19  20
ENDBRANCH  17  19
ENDBRANCH   1  17
TORSDOF 11
ENDMDL
MODEL 4
REMARK VINA RESULT: -9.072918405      1.311      2.309
REMARK  11 active torsions:
REMARK  status: ('A' for Active; 'I' for Inactive)
REMARK    1  A    between atoms: O1_2  and  C2_3 
REMARK    2  A    between atoms: C7_9  and  C8_10 
REMARK    3  A    between atoms: C8_10  and  C9_12 
REMARK    4  A    between atoms: C9_12  and  O3_13 
REMARK    5  A    between atoms: O3_13  and  C10_14 
REMARK    6  A    between atoms: C10_14  and  C11_16 
REMARK    7  A    between atoms: C11_16  and  S1_17 
REMARK    8  A    between atoms: S1_17  and  C12_19 
REMARK    9  A    between atoms: C12_19  and  C13_20 
REMARK       I    between atoms: C13_20  and  N1_22 
REMARK   10  A    between atoms: N1_22  and  C14_24 
REMARK   11  A    between atoms: C17_27  and  N2_28 
ROOT
HETATM    1  C11 UNL     1      10.748 -14.665  13.289  1.00  0.00     0.220 C 
ENDROOT
BRANCH   1   2
HETATM    2  C10 UNL     1       9.669 -14.984  12.329  1.00  0.00     0.270 C 
HETATM    3  O4  UNL     1       8.685 -15.660  12.703  1.00  0.00    -0.264 OA
BRANCH   2   4
HETATM    4  O3  UNL     1       9.740 -14.544  11.022  1.00  0.00    -0.313 OA
BRANCH   4   5
HETATM    5  C9  UNL     1      10.441 -13.356  10.741  1.00  0.00     0.262 C 
BRANCH   5   6
HETATM    6  C8  UNL     1       9.699 -12.475   9.816  1.00  0.00     0.186 C 
HETATM    7  O2  UNL     1      10.329 -11.708   9.060  1.00  0.00    -0.290 OA
BRANCH   6   8
HETATM    8  C7  UNL     1       8.255 -12.513   9.795  1.00  0.00     0.046 A 
HETATM    9  C2  UNL     1       7.601 -13.225   8.789  1.00  0.00     0.082 A 
HETATM   10  C3  UNL     1       6.222 -13.254   8.780  1.00  0.00     0.039 A 
HETATM   11  C4  UNL     1       5.441 -12.617   9.716  1.00  0.00     0.022 A 
HETATM   12  C5  UNL     1       6.094 -11.910  10.715  1.00  0.00     0.012 A 
HETATM   13 BR1  UNL     1       5.037 -11.015  12.025  1.00  0.00    -0.051 Br
HETATM   14  C6  UNL     1       7.473 -11.872  10.734  1.00  0.00     0.037 A 
BRANCH   9  15
HETATM   15  O1  UNL     1       8.285 -13.897   7.806  1.00  0.00    -0.355 OA
HETATM   16  C1  UNL     1       7.761 -14.291   6.580  1.00  0.00     0.210 C 
ENDBRANCH   9  15
ENDBRANCH   6   8
ENDBRANCH   5   6
ENDBRANCH   4   5
ENDBRANCH   2   4
ENDBRANCH   1   2
BRANCH   1  17
HETATM   17  S1  UNL     1      10.160 -14.577  14.964  1.00  0.00     0.033 S 
HETATM   18  O5  UNL     1      11.217 -13.588  15.824  1.00  0.00    -0.257 OA
BRANCH  17  19
HETATM   19  C12 UNL     1      10.088 -16.164  15.721  1.00  0.00     0.212 C 
BRANCH  19  20
HETATM   20  C13 UNL     1      10.337 -16.109  17.197  1.00  0.00     0.233 C 
HETATM   21  O6  UNL     1      11.140 -16.938  17.645  1.00  0.00    -0.272 OA
HETATM   22  N1  UNL     1       9.686 -15.168  17.993  1.00  0.00    -0.326 N 
ATOM     23  H1  UNL     1       9.042 -14.538  17.514  1.00  0.00     0.169 HD
BRANCH  22  24
HETATM   24  C14 UNL     1       9.818 -14.989  19.385  1.00  0.00     0.034 A 
HETATM   25  C15 UNL     1      10.313 -13.750  19.823  1.00  0.00     0.032 A 
HETATM   26  C16 UNL     1      10.505 -13.449  21.149  1.00  0.00     0.038 A 
HETATM   27  C17 UNL     1      10.214 -14.369  22.126  1.00  0.00     0.103 A 
HETATM   28  C18 UNL     1       9.730 -15.582  21.706  1.00  0.00     0.038 A 
HETATM   29  C19 UNL     1       9.533 -15.897  20.357  1.00  0.00     0.032 A 
BRANCH  27  30
HETATM   30  N2  UNL     1      10.398 -14.098  23.514  1.00  0.00    -0.116 N 
HETATM   31  O7  UNL     1       9.885 -14.823  24.377  1.00  0.00    -0.532 OA
HETATM   32  O8  UNL     1      11.150 -13.032  23.908  1.00  0.00    -0.532 OA
ENDBRANCH  27  30
ENDBRANCH  22  24
ENDBRANCH  19  20
ENDBRANCH  17  19
ENDBRANCH   1  17
TORSDOF 11
ENDMDL
MODEL 5
REMARK VINA RESULT: -9.022310257      1.848      2.445
REMARK  11 active torsions:
REMARK  status: ('A' for Active; 'I' for Inactive)
REMARK    1  A    between atoms: O1_2  and  C2_3 
REMARK    2  A    between atoms: C7_9  and  C8_10 
REMARK    3  A    between atoms: C8_10  and  C9_12 
REMARK    4  A    between atoms: C9_12  and  O3_13 
REMARK    5  A    between atoms: O3_13  and  C10_14 
REMARK    6  A    between atoms: C10_14  and  C11_16 
REMARK    7  A    between atoms: C11_16  and  S1_17 
REMARK    8  A    between atoms: S1_17  and  C12_19 
REMARK    9  A    between atoms: C12_19  and  C13_20 
REMARK       I    between atoms: C13_20  and  N1_22 
REMARK   10  A    between atoms: N1_22  and  C14_24 
REMARK   11  A    between atoms: C17_27  and  N2_28 
ROOT
HETATM    1  C11 UNL     1       9.542 -15.102  14.977  1.00  0.00     0.220 C 
ENDROOT
BRANCH   1   2
HETATM    2  C10 UNL     1      10.753 -14.392  14.513  1.00  0.00     0.270 C 
HETATM    3  O4  UNL     1      11.400 -13.679  15.312  1.00  0.00    -0.264 OA
BRANCH   2   4
HETATM    4  O3  UNL     1      11.175 -14.507  13.202  1.00  0.00    -0.313 OA
BRANCH   4   5
HETATM    5  C9  UNL     1      10.721 -13.569  12.257  1.00  0.00     0.262 C 
BRANCH   5   6
HETATM    6  C8  UNL     1       9.869 -14.187  11.221  1.00  0.00     0.186 C 
HETATM    7  O2  UNL     1       9.164 -15.174  11.513  1.00  0.00    -0.290 OA
BRANCH   6   8
HETATM    8  C7  UNL     1       9.862 -13.643   9.882  1.00  0.00     0.046 A 
HETATM    9  C2  UNL     1       9.064 -12.534   9.596  1.00  0.00     0.082 A 
HETATM   10  C3  UNL     1       9.067 -12.023   8.315  1.00  0.00     0.039 A 
HETATM   11  C4  UNL     1       9.818 -12.545   7.288  1.00  0.00     0.022 A 
HETATM   12  C5  UNL     1      10.610 -13.646   7.575  1.00  0.00     0.012 A 
HETATM   13 BR1  UNL     1      11.662 -14.392   6.171  1.00  0.00    -0.051 Br
HETATM   14  C6  UNL     1      10.616 -14.168   8.853  1.00  0.00     0.037 A 
BRANCH   9  15
HETATM   15  O1  UNL     1       8.276 -11.936  10.548  1.00  0.00    -0.355 OA
HETATM   16  C1  UNL     1       6.887 -11.989  10.598  1.00  0.00     0.210 C 
ENDBRANCH   9  15
ENDBRANCH   6   8
ENDBRANCH   5   6
ENDBRANCH   4   5
ENDBRANCH   2   4
ENDBRANCH   1   2
BRANCH   1  17
HETATM   17  S1  UNL     1       9.781 -16.862  15.062  1.00  0.00     0.033 S 
HETATM   18  O5  UNL     1       9.028 -17.544  13.719  1.00  0.00    -0.257 OA
BRANCH  17  19
HETATM   19  C12 UNL     1       9.100 -17.549  16.533  1.00  0.00     0.212 C 
BRANCH  19  20
HETATM   20  C13 UNL     1       9.710 -16.972  17.773  1.00  0.00     0.233 C 
HETATM   21  O6  UNL     1      10.836 -17.389  18.072  1.00  0.00    -0.272 OA
HETATM   22  N1  UNL     1       9.023 -16.021  18.526  1.00  0.00    -0.326 N 
ATOM     23  H1  UNL     1       8.099 -15.756  18.186  1.00  0.00     0.169 HD
BRANCH  22  24
HETATM   24  C14 UNL     1       9.462 -15.386  19.705  1.00  0.00     0.034 A 
HETATM   25  C15 UNL     1       9.294 -16.090  20.908  1.00  0.00     0.032 A 
HETATM   26  C16 UNL     1       9.664 -15.583  22.130  1.00  0.00     0.038 A 
HETATM   27  C17 UNL     1      10.229 -14.336  22.228  1.00  0.00     0.103 A 
HETATM   28  C18 UNL     1      10.398 -13.640  21.057  1.00  0.00     0.038 A 
HETATM   29  C19 UNL     1      10.022 -14.151  19.809  1.00  0.00     0.032 A 
BRANCH  27  30
HETATM   30  N2  UNL     1      10.628 -13.769  23.475  1.00  0.00    -0.116 N 
HETATM   31  O7  UNL     1      10.880 -12.562  23.574  1.00  0.00    -0.532 OA
HETATM   32  O8  UNL     1      10.734 -14.560  24.581  1.00  0.00    -0.532 OA
ENDBRANCH  27  30
ENDBRANCH  22  24
ENDBRANCH  19  20
ENDBRANCH  17  19
ENDBRANCH   1  17
TORSDOF 11
ENDMDL
