MODEL 1
REMARK VINA RESULT: -9.151653885      0.000      0.000
REMARK  17 active torsions:
REMARK  status: ('A' for Active; 'I' for Inactive)
REMARK    1  A    between atoms: C2_2  and  C3_3 
REMARK    2  A    between atoms: C3_3  and  C4_4 
REMARK    3  A    between atoms: C4_4  and  C5_5 
REMARK    4  A    between atoms: C5_5  and  C6_6 
REMARK    5  A    between atoms: C6_6  and  C7_7 
REMARK    6  A    between atoms: C7_7  and  C8_8 
REMARK    7  A    between atoms: C8_8  and  C9_9 
REMARK    8  A    between atoms: C9_9  and  O1_10 
REMARK    9  A    between atoms: O1_10  and  C10_11 
REMARK   10  A    between atoms: C10_11  and  C11_12 
REMARK   11  A    between atoms: C11_12  and  O3_14 
REMARK   12  A    between atoms: C16_20  and  C17_21 
REMARK   13  A    between atoms: C17_21  and  O5_22 
REMARK   14  A    between atoms: O5_22  and  C18_23 
REMARK   15  A    between atoms: C18_23  and  C19_24 
REMARK   16  A    between atoms: C18_23  and  C21_29 
REMARK   17  A    between atoms: C20_25  and  O6_27 
ROOT
HETATM    1  C10 UNL     1       9.628 -14.919  12.741  1.00  0.00     0.277 C 
HETATM    2  C13 UNL     1       8.748 -13.869  13.229  1.00  0.00     0.056 C 
HETATM    3  C14 UNL     1       7.781 -13.324  12.470  1.00  0.00     0.055 C 
HETATM    4  C15 UNL     1       7.742 -13.916  11.127  1.00  0.00     0.180 C 
HETATM    5  O4  UNL     1       6.630 -14.074  10.561  1.00  0.00    -0.290 OA
HETATM    6  C16 UNL     1       9.049 -14.282  10.543  1.00  0.00     0.223 C 
HETATM    7  O7  UNL     1       9.990 -14.768  11.362  1.00  0.00    -0.328 OA
ENDROOT
BRANCH   6   8
HETATM    8  C17 UNL     1       8.761 -15.360   9.467  1.00  0.00     0.215 C 
BRANCH   8   9
HETATM    9  O5  UNL     1       9.760 -15.308   8.544  1.00  0.00    -0.347 OA
BRANCH   9  10
HETATM   10  C18 UNL     1       9.951 -14.353   7.514  1.00  0.00     0.082 C 
BRANCH  10  11
HETATM   11  C19 UNL     1      11.163 -14.227   7.026  1.00  0.00     0.089 C 
HETATM   12  C20 UNL     1      11.970 -14.909   6.104  1.00  0.00     0.152 C 
HETATM   13  N1  UNL     1      11.634 -16.021   5.326  1.00  0.00    -0.075 NA
BRANCH  12  14
HETATM   14  O6  UNL     1      13.191 -14.484   5.920  1.00  0.00    -0.348 OA
ATOM     15  H6  UNL     1      13.777 -15.016   5.393  1.00  0.00     0.219 HD
ENDBRANCH  12  14
ENDBRANCH  10  11
BRANCH  10  16
HETATM   16  C21 UNL     1       8.808 -13.596   7.039  1.00  0.00    -0.003 A 
HETATM   17  C22 UNL     1       7.927 -14.060   6.080  1.00  0.00     0.016 A 
HETATM   18  C23 UNL     1       6.903 -13.329   5.545  1.00  0.00     0.024 A 
HETATM   19  C24 UNL     1       6.709 -12.015   5.985  1.00  0.00     0.034 A 
HETATM   20 CL1  UNL     1       5.415 -11.033   5.338  1.00  0.00    -0.084 Cl
HETATM   21  C25 UNL     1       7.565 -11.521   6.939  1.00  0.00     0.024 A 
HETATM   22  C26 UNL     1       8.587 -12.282   7.457  1.00  0.00     0.016 A 
ENDBRANCH  10  16
ENDBRANCH   9  10
ENDBRANCH   8   9
ENDBRANCH   6   8
BRANCH   1  23
HETATM   23  O1  UNL     1       9.284 -16.187  12.862  1.00  0.00    -0.332 OA
BRANCH  23  24
HETATM   24  C9  UNL     1       8.422 -16.786  13.626  1.00  0.00     0.266 C 
BRANCH  24  25
HETATM   25  C8  UNL     1       8.788 -17.322  14.908  1.00  0.00    -0.080 C 
BRANCH  25  26
HETATM   26  C7  UNL     1       9.115 -17.737  16.015  1.00  0.00    -0.104 C 
BRANCH  26  27
HETATM   27  C6  UNL     1       9.508 -18.254  17.316  1.00  0.00     0.094 C 
BRANCH  27  28
HETATM   28  C5  UNL     1      10.348 -17.198  18.044  1.00  0.00     0.012 C 
BRANCH  28  29
HETATM   29  C4  UNL     1       9.421 -16.178  18.616  1.00  0.00     0.001 C 
BRANCH  29  30
HETATM   30  C3  UNL     1       9.691 -15.870  20.071  1.00  0.00    -0.000 C 
BRANCH  30  31
HETATM   31  C2  UNL     1       9.947 -14.414  20.278  1.00  0.00    -0.005 C 
HETATM   32  C1  UNL     1      10.167 -14.188  21.773  1.00  0.00     0.005 C 
ENDBRANCH  30  31
ENDBRANCH  29  30
ENDBRANCH  28  29
ENDBRANCH  27  28
ENDBRANCH  26  27
ENDBRANCH  25  26
ENDBRANCH  24  25
ENDBRANCH  23  24
ENDBRANCH   1  23
BRANCH   1  33
HETATM   33  C11 UNL     1      10.990 -14.662  13.355  1.00  0.00     0.326 C 
HETATM   34  O2  UNL     1      11.913 -14.041  12.829  1.00  0.00    -0.259 OA
BRANCH  33  35
HETATM   35  O3  UNL     1      11.222 -15.180  14.647  1.00  0.00    -0.322 OA
HETATM   36  C12 UNL     1      11.056 -14.323  15.776  1.00  0.00     0.213 C 
ENDBRANCH  33  35
ENDBRANCH   1  33
TORSDOF 17
ENDMDL
MODEL 2
REMARK VINA RESULT: -8.921044480      5.609     11.365
REMARK  17 active torsions:
REMARK  status: ('A' for Active; 'I' for Inactive)
REMARK    1  A    between atoms: C2_2  and  C3_3 
REMARK    2  A    between atoms: C3_3  and  C4_4 
REMARK    3  A    between atoms: C4_4  and  C5_5 
REMARK    4  A    between atoms: C5_5  and  C6_6 
REMARK    5  A    between atoms: C6_6  and  C7_7 
REMARK    6  A    between atoms: C7_7  and  C8_8 
REMARK    7  A    between atoms: C8_8  and  C9_9 
REMARK    8  A    between atoms: C9_9  and  O1_10 
REMARK    9  A    between atoms: O1_10  and  C10_11 
REMARK   10  A    between atoms: C10_11  and  C11_12 
REMARK   11  A    between atoms: C11_12  and  O3_14 
REMARK   12  A    between atoms: C16_20  and  C17_21 
REMARK   13  A    between atoms: C17_21  and  O5_22 
REMARK   14  A    between atoms: O5_22  and  C18_23 
REMARK   15  A    between atoms: C18_23  and  C19_24 
REMARK   16  A    between atoms: C18_23  and  C21_29 
REMARK   17  A    between atoms: C20_25  and  O6_27 
ROOT
HETATM    1  C10 UNL     1      10.156 -15.016  15.735  1.00  0.00     0.277 C 
HETATM    2  C13 UNL     1      11.169 -15.974  15.321  1.00  0.00     0.056 C 
HETATM    3  C14 UNL     1      11.404 -17.115  15.994  1.00  0.00     0.055 C 
HETATM    4  C15 UNL     1      10.528 -17.250  17.164  1.00  0.00     0.180 C 
HETATM    5  O4  UNL     1      10.109 -18.392  17.485  1.00  0.00    -0.290 OA
HETATM    6  C16 UNL     1      10.207 -15.998  17.881  1.00  0.00     0.223 C 
HETATM    7  O7  UNL     1      10.039 -14.884  17.157  1.00  0.00    -0.328 OA
ENDROOT
BRANCH   6   8
HETATM    8  C17 UNL     1       8.889 -16.260  18.652  1.00  0.00     0.215 C 
BRANCH   8   9
HETATM    9  O5  UNL     1       9.150 -16.139  19.982  1.00  0.00    -0.347 OA
BRANCH   9  10
HETATM   10  C18 UNL     1       8.596 -15.214  20.902  1.00  0.00     0.082 C 
BRANCH  10  11
HETATM   11  C19 UNL     1       7.300 -15.012  20.847  1.00  0.00     0.089 C 
HETATM   12  C20 UNL     1       6.168 -15.438  21.558  1.00  0.00     0.152 C 
HETATM   13  N1  UNL     1       6.122 -16.262  22.687  1.00  0.00    -0.075 NA
BRANCH  12  14
HETATM   14  O6  UNL     1       4.995 -15.039  21.147  1.00  0.00    -0.348 OA
ATOM     15  H6  UNL     1       4.247 -15.184  21.714  1.00  0.00     0.219 HD
ENDBRANCH  12  14
ENDBRANCH  10  11
BRANCH  10  16
HETATM   16  C21 UNL     1       9.473 -14.569  21.861  1.00  0.00    -0.003 A 
HETATM   17  C22 UNL     1       9.472 -14.856  23.214  1.00  0.00     0.016 A 
HETATM   18  C23 UNL     1      10.216 -14.195  24.151  1.00  0.00     0.024 A 
HETATM   19  C24 UNL     1      11.048 -13.149  23.737  1.00  0.00     0.034 A 
HETATM   20 CL1  UNL     1      12.022 -12.267  24.890  1.00  0.00    -0.084 Cl
HETATM   21  C25 UNL     1      11.075 -12.836  22.399  1.00  0.00     0.024 A 
HETATM   22  C26 UNL     1      10.313 -13.521  21.481  1.00  0.00     0.016 A 
ENDBRANCH  10  16
ENDBRANCH   9  10
ENDBRANCH   8   9
ENDBRANCH   6   8
BRANCH   1  23
HETATM   23  O1  UNL     1       8.913 -15.132  15.304  1.00  0.00    -0.332 OA
BRANCH  23  24
HETATM   24  C9  UNL     1       8.363 -15.929  14.440  1.00  0.00     0.266 C 
BRANCH  24  25
HETATM   25  C8  UNL     1       8.432 -15.680  13.026  1.00  0.00    -0.080 C 
BRANCH  25  26
HETATM   26  C7  UNL     1       8.536 -15.486  11.819  1.00  0.00    -0.104 C 
BRANCH  26  27
HETATM   27  C6  UNL     1       8.637 -15.237  10.390  1.00  0.00     0.094 C 
BRANCH  27  28
HETATM   28  C5  UNL     1       9.741 -14.204  10.137  1.00  0.00     0.012 C 
BRANCH  28  29
HETATM   29  C4  UNL     1       9.338 -12.920  10.783  1.00  0.00     0.001 C 
BRANCH  29  30
HETATM   30  C3  UNL     1       8.170 -12.246  10.101  1.00  0.00    -0.000 C 
BRANCH  30  31
HETATM   31  C2  UNL     1       7.032 -12.046  11.047  1.00  0.00    -0.005 C 
HETATM   32  C1  UNL     1       5.815 -12.769  10.470  1.00  0.00     0.005 C 
ENDBRANCH  30  31
ENDBRANCH  29  30
ENDBRANCH  28  29
ENDBRANCH  27  28
ENDBRANCH  26  27
ENDBRANCH  25  26
ENDBRANCH  24  25
ENDBRANCH  23  24
ENDBRANCH   1  23
BRANCH   1  33
HETATM   33  C11 UNL     1      10.712 -13.640  15.431  1.00  0.00     0.326 C 
HETATM   34  O2  UNL     1      10.795 -13.125  14.316  1.00  0.00    -0.259 OA
BRANCH  33  35
HETATM   35  O3  UNL     1      11.176 -12.877  16.523  1.00  0.00    -0.322 OA
HETATM   36  C12 UNL     1      10.426 -11.737  16.939  1.00  0.00     0.213 C 
ENDBRANCH  33  35
ENDBRANCH   1  33
TORSDOF 17
ENDMDL
MODEL 3
REMARK VINA RESULT: -8.552192003      2.781      4.939
REMARK  17 active torsions:
REMARK  status: ('A' for Active; 'I' for Inactive)
REMARK    1  A    between atoms: C2_2  and  C3_3 
REMARK    2  A    between atoms: C3_3  and  C4_4 
REMARK    3  A    between atoms: C4_4  and  C5_5 
REMARK    4  A    between atoms: C5_5  and  C6_6 
REMARK    5  A    between atoms: C6_6  and  C7_7 
REMARK    6  A    between atoms: C7_7  and  C8_8 
REMARK    7  A    between atoms: C8_8  and  C9_9 
REMARK    8  A    between atoms: C9_9  and  O1_10 
REMARK    9  A    between atoms: O1_10  and  C10_11 
REMARK   10  A    between atoms: C10_11  and  C11_12 
REMARK   11  A    between atoms: C11_12  and  O3_14 
REMARK   12  A    between atoms: C16_20  and  C17_21 
REMARK   13  A    between atoms: C17_21  and  O5_22 
REMARK   14  A    between atoms: O5_22  and  C18_23 
REMARK   15  A    between atoms: C18_23  and  C19_24 
REMARK   16  A    between atoms: C18_23  and  C21_29 
REMARK   17  A    between atoms: C20_25  and  O6_27 
ROOT
HETATM    1  C10 UNL     1       9.619 -16.161  16.125  1.00  0.00     0.277 C 
HETATM    2  C13 UNL     1      11.026 -16.372  15.824  1.00  0.00     0.056 C 
HETATM    3  C14 UNL     1      11.660 -15.721  14.832  1.00  0.00     0.055 C 
HETATM    4  C15 UNL     1      10.763 -14.801  14.122  1.00  0.00     0.180 C 
HETATM    5  O4  UNL     1      11.218 -13.708  13.700  1.00  0.00    -0.290 OA
HETATM    6  C16 UNL     1       9.366 -15.256  13.960  1.00  0.00     0.223 C 
HETATM    7  O7  UNL     1       8.809 -15.948  14.962  1.00  0.00    -0.328 OA
ENDROOT
BRANCH   6   8
HETATM    8  C17 UNL     1       8.513 -13.981  13.741  1.00  0.00     0.215 C 
BRANCH   8   9
HETATM    9  O5  UNL     1       7.918 -14.078  12.521  1.00  0.00    -0.347 OA
BRANCH   9  10
HETATM   10  C18 UNL     1       7.867 -13.105  11.492  1.00  0.00     0.082 C 
BRANCH  10  11
HETATM   11  C19 UNL     1       9.010 -12.704  10.984  1.00  0.00     0.089 C 
HETATM   12  C20 UNL     1      10.041 -13.267  10.219  1.00  0.00     0.152 C 
HETATM   13  N1  UNL     1      10.111 -14.559   9.689  1.00  0.00    -0.075 NA
BRANCH  12  14
HETATM   14  O6  UNL     1      11.082 -12.527   9.946  1.00  0.00    -0.348 OA
ATOM     15  H6  UNL     1      11.680 -12.824   9.269  1.00  0.00     0.219 HD
ENDBRANCH  12  14
ENDBRANCH  10  11
BRANCH  10  16
HETATM   16  C21 UNL     1       6.573 -12.628  11.041  1.00  0.00    -0.003 A 
HETATM   17  C22 UNL     1       6.025 -12.949   9.813  1.00  0.00     0.016 A 
HETATM   18  C23 UNL     1       4.856 -12.436   9.324  1.00  0.00     0.024 A 
HETATM   19  C24 UNL     1       4.143 -11.519  10.105  1.00  0.00     0.034 A 
HETATM   20 CL1  UNL     1       2.641 -10.830   9.532  1.00  0.00    -0.084 Cl
HETATM   21  C25 UNL     1       4.657 -11.177  11.332  1.00  0.00     0.024 A 
HETATM   22  C26 UNL     1       5.837 -11.712  11.795  1.00  0.00     0.016 A 
ENDBRANCH  10  16
ENDBRANCH   9  10
ENDBRANCH   8   9
ENDBRANCH   6   8
BRANCH   1  23
HETATM   23  O1  UNL     1       9.253 -15.213  16.969  1.00  0.00    -0.332 OA
BRANCH  23  24
HETATM   24  C9  UNL     1       9.932 -14.455  17.773  1.00  0.00     0.266 C 
BRANCH  24  25
HETATM   25  C8  UNL     1       9.934 -14.665  19.195  1.00  0.00    -0.080 C 
BRANCH  25  26
HETATM   26  C7  UNL     1       9.897 -14.817  20.412  1.00  0.00    -0.104 C 
BRANCH  26  27
HETATM   27  C6  UNL     1       9.876 -14.982  21.856  1.00  0.00     0.094 C 
BRANCH  27  28
HETATM   28  C5  UNL     1      10.325 -13.674  22.518  1.00  0.00     0.012 C 
BRANCH  28  29
HETATM   29  C4  UNL     1      10.522 -13.930  23.975  1.00  0.00     0.001 C 
BRANCH  29  30
HETATM   30  C3  UNL     1      11.142 -12.766  24.711  1.00  0.00    -0.000 C 
BRANCH  30  31
HETATM   31  C2  UNL     1      11.679 -11.748  23.760  1.00  0.00    -0.005 C 
HETATM   32  C1  UNL     1      11.226 -10.372  24.245  1.00  0.00     0.005 C 
ENDBRANCH  30  31
ENDBRANCH  29  30
ENDBRANCH  28  29
ENDBRANCH  27  28
ENDBRANCH  26  27
ENDBRANCH  25  26
ENDBRANCH  24  25
ENDBRANCH  23  24
ENDBRANCH   1  23
BRANCH   1  33
HETATM   33  C11 UNL     1       9.059 -17.507  16.541  1.00  0.00     0.326 C 
HETATM   34  O2  UNL     1       9.717 -18.482  16.900  1.00  0.00    -0.259 OA
BRANCH  33  35
HETATM   35  O3  UNL     1       7.656 -17.655  16.516  1.00  0.00    -0.322 OA
HETATM   36  C12 UNL     1       7.081 -18.877  16.978  1.00  0.00     0.213 C 
ENDBRANCH  33  35
ENDBRANCH   1  33
TORSDOF 17
ENDMDL
MODEL 4
REMARK VINA RESULT: -8.551194715      2.167      3.055
REMARK  17 active torsions:
REMARK  status: ('A' for Active; 'I' for Inactive)
REMARK    1  A    between atoms: C2_2  and  C3_3 
REMARK    2  A    between atoms: C3_3  and  C4_4 
REMARK    3  A    between atoms: C4_4  and  C5_5 
REMARK    4  A    between atoms: C5_5  and  C6_6 
REMARK    5  A    between atoms: C6_6  and  C7_7 
REMARK    6  A    between atoms: C7_7  and  C8_8 
REMARK    7  A    between atoms: C8_8  and  C9_9 
REMARK    8  A    between atoms: C9_9  and  O1_10 
REMARK    9  A    between atoms: O1_10  and  C10_11 
REMARK   10  A    between atoms: C10_11  and  C11_12 
REMARK   11  A    between atoms: C11_12  and  O3_14 
REMARK   12  A    between atoms: C16_20  and  C17_21 
REMARK   13  A    between atoms: C17_21  and  O5_22 
REMARK   14  A    between atoms: O5_22  and  C18_23 
REMARK   15  A    between atoms: C18_23  and  C19_24 
REMARK   16  A    between atoms: C18_23  and  C21_29 
REMARK   17  A    between atoms: C20_25  and  O6_27 
ROOT
HETATM    1  C10 UNL     1       9.662 -14.928  12.714  1.00  0.00     0.277 C 
HETATM    2  C13 UNL     1       8.744 -13.883  13.141  1.00  0.00     0.056 C 
HETATM    3  C14 UNL     1       7.815 -13.357  12.324  1.00  0.00     0.055 C 
HETATM    4  C15 UNL     1       7.858 -13.962  10.987  1.00  0.00     0.180 C 
HETATM    5  O4  UNL     1       6.782 -14.138  10.361  1.00  0.00    -0.290 OA
HETATM    6  C16 UNL     1       9.200 -14.319  10.481  1.00  0.00     0.223 C 
HETATM    7  O7  UNL     1      10.099 -14.786  11.356  1.00  0.00    -0.328 OA
ENDROOT
BRANCH   6   8
HETATM    8  C17 UNL     1       8.985 -15.410   9.402  1.00  0.00     0.215 C 
BRANCH   8   9
HETATM    9  O5  UNL     1       9.837 -15.156   8.372  1.00  0.00    -0.347 OA
BRANCH   9  10
HETATM   10  C18 UNL     1       9.557 -14.499   7.147  1.00  0.00     0.082 C 
BRANCH  10  11
HETATM   11  C19 UNL     1       8.802 -13.425   7.198  1.00  0.00     0.089 C 
HETATM   12  C20 UNL     1       8.893 -12.137   7.744  1.00  0.00     0.152 C 
HETATM   13  N1  UNL     1       9.971 -11.569   8.429  1.00  0.00    -0.075 NA
BRANCH  12  14
HETATM   14  O6  UNL     1       7.867 -11.340   7.619  1.00  0.00    -0.348 OA
ATOM     15  H6  UNL     1       7.643 -11.028   6.749  1.00  0.00     0.219 HD
ENDBRANCH  12  14
ENDBRANCH  10  11
BRANCH  10  16
HETATM   16  C21 UNL     1      10.133 -15.022   5.923  1.00  0.00    -0.003 A 
HETATM   17  C22 UNL     1      11.476 -15.315   5.773  1.00  0.00     0.016 A 
HETATM   18  C23 UNL     1      12.060 -15.715   4.603  1.00  0.00     0.024 A 
HETATM   19  C24 UNL     1      11.262 -15.848   3.462  1.00  0.00     0.034 A 
HETATM   20 CL1  UNL     1      11.953 -16.356   1.938  1.00  0.00    -0.084 Cl
HETATM   21  C25 UNL     1       9.922 -15.566   3.574  1.00  0.00     0.024 A 
HETATM   22  C26 UNL     1       9.365 -15.165   4.766  1.00  0.00     0.016 A 
ENDBRANCH  10  16
ENDBRANCH   9  10
ENDBRANCH   8   9
ENDBRANCH   6   8
BRANCH   1  23
HETATM   23  O1  UNL     1       9.325 -16.199  12.829  1.00  0.00    -0.332 OA
BRANCH  23  24
HETATM   24  C9  UNL     1       8.434 -16.800  13.555  1.00  0.00     0.266 C 
BRANCH  24  25
HETATM   25  C8  UNL     1       8.748 -17.345  14.848  1.00  0.00    -0.080 C 
BRANCH  25  26
HETATM   26  C7  UNL     1       9.027 -17.765  15.965  1.00  0.00    -0.104 C 
BRANCH  26  27
HETATM   27  C6  UNL     1       9.349 -18.240  17.302  1.00  0.00     0.094 C 
BRANCH  27  28
HETATM   28  C5  UNL     1      10.132 -17.152  18.046  1.00  0.00     0.012 C 
BRANCH  28  29
HETATM   29  C4  UNL     1       9.155 -16.268  18.746  1.00  0.00     0.001 C 
BRANCH  29  30
HETATM   30  C3  UNL     1       9.604 -15.852  20.127  1.00  0.00    -0.000 C 
BRANCH  30  31
HETATM   31  C2  UNL     1       9.925 -14.394  20.176  1.00  0.00    -0.005 C 
HETATM   32  C1  UNL     1      10.245 -14.037  21.627  1.00  0.00     0.005 C 
ENDBRANCH  30  31
ENDBRANCH  29  30
ENDBRANCH  28  29
ENDBRANCH  27  28
ENDBRANCH  26  27
ENDBRANCH  25  26
ENDBRANCH  24  25
ENDBRANCH  23  24
ENDBRANCH   1  23
BRANCH   1  33
HETATM   33  C11 UNL     1      10.984 -14.649  13.401  1.00  0.00     0.326 C 
HETATM   34  O2  UNL     1      11.920 -14.003  12.930  1.00  0.00    -0.259 OA
BRANCH  33  35
HETATM   35  O3  UNL     1      11.160 -15.177  14.698  1.00  0.00    -0.322 OA
HETATM   36  C12 UNL     1      10.961 -14.324  15.824  1.00  0.00     0.213 C 
ENDBRANCH  33  35
ENDBRANCH   1  33
TORSDOF 17
ENDMDL
MODEL 5
REMARK VINA RESULT: -8.523803564      3.091      5.268
REMARK  17 active torsions:
REMARK  status: ('A' for Active; 'I' for Inactive)
REMARK    1  A    between atoms: C2_2  and  C3_3 
REMARK    2  A    between atoms: C3_3  and  C4_4 
REMARK    3  A    between atoms: C4_4  and  C5_5 
REMARK    4  A    between atoms: C5_5  and  C6_6 
REMARK    5  A    between atoms: C6_6  and  C7_7 
REMARK    6  A    between atoms: C7_7  and  C8_8 
REMARK    7  A    between atoms: C8_8  and  C9_9 
REMARK    8  A    between atoms: C9_9  and  O1_10 
REMARK    9  A    between atoms: O1_10  and  C10_11 
REMARK   10  A    between atoms: C10_11  and  C11_12 
REMARK   11  A    between atoms: C11_12  and  O3_14 
REMARK   12  A    between atoms: C16_20  and  C17_21 
REMARK   13  A    between atoms: C17_21  and  O5_22 
REMARK   14  A    between atoms: O5_22  and  C18_23 
REMARK   15  A    between atoms: C18_23  and  C19_24 
REMARK   16  A    between atoms: C18_23  and  C21_29 
REMARK   17  A    between atoms: C20_25  and  O6_27 
ROOT
HETATM    1  C10 UNL     1       9.803 -16.146  15.934  1.00  0.00     0.277 C 
HETATM    2  C13 UNL     1      11.214 -16.164  15.583  1.00  0.00     0.056 C 
HETATM    3  C14 UNL     1      11.730 -15.380  14.619  1.00  0.00     0.055 C 
HETATM    4  C15 UNL     1      10.704 -14.536  13.994  1.00  0.00     0.180 C 
HETATM    5  O4  UNL     1      11.008 -13.371  13.632  1.00  0.00    -0.290 OA
HETATM    6  C16 UNL     1       9.368 -15.148  13.840  1.00  0.00     0.223 C 
HETATM    7  O7  UNL     1       8.934 -15.964  14.809  1.00  0.00    -0.328 OA
ENDROOT
BRANCH   6   8
HETATM    8  C17 UNL     1       8.360 -13.977  13.727  1.00  0.00     0.215 C 
BRANCH   8   9
HETATM    9  O5  UNL     1       7.675 -14.124  12.560  1.00  0.00    -0.347 OA
BRANCH   9  10
HETATM   10  C18 UNL     1       7.673 -13.266  11.432  1.00  0.00     0.082 C 
BRANCH  10  11
HETATM   11  C19 UNL     1       6.783 -12.302  11.410  1.00  0.00     0.089 C 
HETATM   12  C20 UNL     1       5.808 -11.831  10.517  1.00  0.00     0.152 C 
HETATM   13  N1  UNL     1       5.453 -12.363   9.274  1.00  0.00    -0.075 NA
BRANCH  12  14
HETATM   14  O6  UNL     1       5.127 -10.768  10.852  1.00  0.00    -0.348 OA
ATOM     15  H6  UNL     1       5.377  -9.935  10.467  1.00  0.00     0.219 HD
ENDBRANCH  12  14
ENDBRANCH  10  11
BRANCH  10  16
HETATM   16  C21 UNL     1       8.659 -13.477  10.389  1.00  0.00    -0.003 A 
HETATM   17  C22 UNL     1       9.572 -12.518   9.993  1.00  0.00     0.016 A 
HETATM   18  C23 UNL     1      10.444 -12.656   8.949  1.00  0.00     0.024 A 
HETATM   19  C24 UNL     1      10.432 -13.846   8.214  1.00  0.00     0.034 A 
HETATM   20 CL1  UNL     1      11.525 -14.080   6.868  1.00  0.00    -0.084 Cl
HETATM   21  C25 UNL     1       9.539 -14.823   8.579  1.00  0.00     0.024 A 
HETATM   22  C26 UNL     1       8.674 -14.652   9.635  1.00  0.00     0.016 A 
ENDBRANCH  10  16
ENDBRANCH   9  10
ENDBRANCH   8   9
ENDBRANCH   6   8
BRANCH   1  23
HETATM   23  O1  UNL     1       9.354 -15.304  16.847  1.00  0.00    -0.332 OA
BRANCH  23  24
HETATM   24  C9  UNL     1       9.945 -14.672  17.814  1.00  0.00     0.266 C 
BRANCH  24  25
HETATM   25  C8  UNL     1       9.820 -15.090  19.183  1.00  0.00    -0.080 C 
BRANCH  25  26
HETATM   26  C7  UNL     1       9.704 -15.401  20.364  1.00  0.00    -0.104 C 
BRANCH  26  27
HETATM   27  C6  UNL     1       9.585 -15.792  21.759  1.00  0.00     0.094 C 
BRANCH  27  28
HETATM   28  C5  UNL     1       9.185 -14.568  22.591  1.00  0.00     0.012 C 
BRANCH  28  29
HETATM   29  C4  UNL     1      10.353 -14.170  23.430  1.00  0.00     0.001 C 
BRANCH  29  30
HETATM   30  C3  UNL     1      10.841 -12.767  23.154  1.00  0.00    -0.000 C 
BRANCH  30  31
HETATM   31  C2  UNL     1      10.994 -11.987  24.418  1.00  0.00    -0.005 C 
HETATM   32  C1  UNL     1      11.107 -10.510  24.043  1.00  0.00     0.005 C 
ENDBRANCH  30  31
ENDBRANCH  29  30
ENDBRANCH  28  29
ENDBRANCH  27  28
ENDBRANCH  26  27
ENDBRANCH  25  26
ENDBRANCH  24  25
ENDBRANCH  23  24
ENDBRANCH   1  23
BRANCH   1  33
HETATM   33  C11 UNL     1       9.425 -17.573  16.277  1.00  0.00     0.326 C 
HETATM   34  O2  UNL     1      10.118 -18.373  16.905  1.00  0.00    -0.259 OA
BRANCH  33  35
HETATM   35  O3  UNL     1       8.163 -18.028  15.837  1.00  0.00    -0.322 OA
HETATM   36  C12 UNL     1       7.225 -18.504  16.801  1.00  0.00     0.213 C 
ENDBRANCH  33  35
ENDBRANCH   1  33
TORSDOF 17
ENDMDL
