MODEL 1
REMARK VINA RESULT: -9.599679914      0.000      0.000
REMARK  12 active torsions:
REMARK  status: ('A' for Active; 'I' for Inactive)
REMARK    1  A    between atoms: O1_2  and  N1_3 
REMARK       I    between atoms: N1_3  and  C3_5 
REMARK    2  A    between atoms: C3_5  and  C4_7 
REMARK    3  A    between atoms: C4_7  and  S1_8 
REMARK    4  A    between atoms: C4_7  and  C17_27 
REMARK    5  A    between atoms: S1_8  and  C5_9 
REMARK    6  A    between atoms: C5_9  and  C6_10 
REMARK       I    between atoms: C6_10  and  N2_12 
REMARK    7  A    between atoms: N2_12  and  C7_14 
REMARK    8  A    between atoms: C7_14  and  C8_15 
REMARK    9  A    between atoms: C7_14  and  C15_24 
REMARK   10  A    between atoms: C8_15  and  O4_16 
REMARK   11  A    between atoms: O4_16  and  C9_17 
REMARK   12  A    between atoms: C20_30  and  N3_31 
ROOT
HETATM    1  C5  UNL     1       9.938 -14.811  13.862  1.00  0.00     0.177 C 
ENDROOT
BRANCH   1   2
HETATM    2  S1  UNL     1       8.432 -14.603  12.945  1.00  0.00    -0.141 SA
BRANCH   2   3
HETATM    3  C4  UNL     1       8.663 -13.602  11.443  1.00  0.00     0.174 C 
BRANCH   3   4
HETATM    4  C3  UNL     1       9.255 -14.441  10.376  1.00  0.00     0.261 C 
HETATM    5  N1  UNL     1      10.074 -13.943   9.340  1.00  0.00    -0.230 N 
HETATM    6  C2  UNL     1      10.450 -12.569   9.137  1.00  0.00     0.189 C 
HETATM    7  O2  UNL     1       9.014 -15.684  10.395  1.00  0.00    -0.270 OA
BRANCH   5   8
HETATM    8  O1  UNL     1      10.575 -14.828   8.429  1.00  0.00    -0.281 OA
HETATM    9  C1  UNL     1      11.204 -14.247   7.361  1.00  0.00     0.238 C 
ENDBRANCH   5   8
ENDBRANCH   3   4
BRANCH   3  10
HETATM   10  C17 UNL     1       7.322 -13.048  11.029  1.00  0.00    -0.035 A 
HETATM   11  C18 UNL     1       6.636 -12.192  11.869  1.00  0.00     0.011 A 
HETATM   12  C19 UNL     1       5.415 -11.670  11.505  1.00  0.00     0.037 A 
HETATM   13  C20 UNL     1       4.810 -11.962  10.302  1.00  0.00     0.102 A 
HETATM   14  C21 UNL     1       5.492 -12.816   9.461  1.00  0.00     0.037 A 
HETATM   15  C22 UNL     1       6.731 -13.352   9.819  1.00  0.00     0.011 A 
BRANCH  13  16
HETATM   16  N3  UNL     1       3.543 -11.415   9.945  1.00  0.00    -0.116 N 
HETATM   17  O6  UNL     1       3.228 -11.228   8.754  1.00  0.00    -0.532 OA
HETATM   18  O7  UNL     1       2.658 -11.092  10.921  1.00  0.00    -0.532 OA
ENDBRANCH  13  16
ENDBRANCH   3  10
ENDBRANCH   2   3
ENDBRANCH   1   2
BRANCH   1  19
HETATM   19  C6  UNL     1      10.028 -15.981  14.748  1.00  0.00     0.227 C 
HETATM   20  O3  UNL     1      11.039 -16.727  14.737  1.00  0.00    -0.273 OA
HETATM   21  N2  UNL     1       8.972 -16.294  15.626  1.00  0.00    -0.347 N 
ATOM     22  H2  UNL     1       8.149 -15.694  15.663  1.00  0.00     0.163 HD
BRANCH  21  23
HETATM   23  C7  UNL     1       9.047 -17.456  16.470  1.00  0.00     0.178 C 
BRANCH  23  24
HETATM   24  C8  UNL     1       9.628 -17.255  17.828  1.00  0.00     0.208 C 
BRANCH  24  25
HETATM   25  O4  UNL     1       8.875 -16.296  18.495  1.00  0.00    -0.349 OA
BRANCH  25  26
HETATM   26  C9  UNL     1       9.362 -15.495  19.489  1.00  0.00     0.069 A 
HETATM   27  C10 UNL     1       9.859 -14.247  19.226  1.00  0.00     0.038 A 
HETATM   28  C11 UNL     1      10.339 -13.466  20.273  1.00  0.00     0.026 A 
HETATM   29  C12 UNL     1      10.298 -13.985  21.546  1.00  0.00     0.034 A 
HETATM   30 CL1  UNL     1      10.899 -13.028  22.893  1.00  0.00    -0.084 Cl
HETATM   31  C13 UNL     1       9.800 -15.242  21.824  1.00  0.00     0.026 A 
HETATM   32  C14 UNL     1       9.329 -15.999  20.787  1.00  0.00     0.038 A 
ENDBRANCH  25  26
ENDBRANCH  24  25
ENDBRANCH  23  24
BRANCH  23  33
HETATM   33  C15 UNL     1       7.648 -18.007  16.496  1.00  0.00     0.147 C 
HETATM   34  C16 UNL     1       7.310 -19.135  17.372  1.00  0.00     0.093 C 
HETATM   35  O5  UNL     1       6.762 -17.527  15.789  1.00  0.00    -0.296 OA
ENDBRANCH  23  33
ENDBRANCH  21  23
ENDBRANCH   1  19
TORSDOF 12
ENDMDL
MODEL 2
REMARK VINA RESULT: -9.571784317      0.236      1.017
REMARK  12 active torsions:
REMARK  status: ('A' for Active; 'I' for Inactive)
REMARK    1  A    between atoms: O1_2  and  N1_3 
REMARK       I    between atoms: N1_3  and  C3_5 
REMARK    2  A    between atoms: C3_5  and  C4_7 
REMARK    3  A    between atoms: C4_7  and  S1_8 
REMARK    4  A    between atoms: C4_7  and  C17_27 
REMARK    5  A    between atoms: S1_8  and  C5_9 
REMARK    6  A    between atoms: C5_9  and  C6_10 
REMARK       I    between atoms: C6_10  and  N2_12 
REMARK    7  A    between atoms: N2_12  and  C7_14 
REMARK    8  A    between atoms: C7_14  and  C8_15 
REMARK    9  A    between atoms: C7_14  and  C15_24 
REMARK   10  A    between atoms: C8_15  and  O4_16 
REMARK   11  A    between atoms: O4_16  and  C9_17 
REMARK   12  A    between atoms: C20_30  and  N3_31 
ROOT
HETATM    1  C5  UNL     1       9.971 -14.546  14.039  1.00  0.00     0.177 C 
ENDROOT
BRANCH   1   2
HETATM    2  S1  UNL     1       8.444 -14.299  13.167  1.00  0.00    -0.141 SA
BRANCH   2   3
HETATM    3  C4  UNL     1       8.670 -13.391  11.607  1.00  0.00     0.174 C 
BRANCH   3   4
HETATM    4  C3  UNL     1       9.312 -14.276  10.609  1.00  0.00     0.261 C 
HETATM    5  N1  UNL     1      10.096 -13.815   9.530  1.00  0.00    -0.230 N 
HETATM    6  C2  UNL     1      10.386 -12.442   9.214  1.00  0.00     0.189 C 
HETATM    7  O2  UNL     1       9.148 -15.526  10.730  1.00  0.00    -0.270 OA
BRANCH   5   8
HETATM    8  O1  UNL     1      10.650 -14.739   8.691  1.00  0.00    -0.281 OA
HETATM    9  C1  UNL     1      11.031 -14.243   7.473  1.00  0.00     0.238 C 
ENDBRANCH   5   8
ENDBRANCH   3   4
BRANCH   3  10
HETATM   10  C17 UNL     1       7.319 -12.912  11.134  1.00  0.00    -0.035 A 
HETATM   11  C18 UNL     1       6.575 -12.053  11.918  1.00  0.00     0.011 A 
HETATM   12  C19 UNL     1       5.344 -11.599  11.500  1.00  0.00     0.037 A 
HETATM   13  C20 UNL     1       4.787 -11.965  10.294  1.00  0.00     0.102 A 
HETATM   14  C21 UNL     1       5.527 -12.824   9.509  1.00  0.00     0.037 A 
HETATM   15  C22 UNL     1       6.777 -13.291   9.923  1.00  0.00     0.011 A 
BRANCH  13  16
HETATM   16  N3  UNL     1       3.509 -11.489   9.880  1.00  0.00    -0.116 N 
HETATM   17  O6  UNL     1       2.600 -11.266  10.702  1.00  0.00    -0.532 OA
HETATM   18  O7  UNL     1       3.275 -11.269   8.562  1.00  0.00    -0.532 OA
ENDBRANCH  13  16
ENDBRANCH   3  10
ENDBRANCH   2   3
ENDBRANCH   1   2
BRANCH   1  19
HETATM   19  C6  UNL     1      10.093 -15.770  14.845  1.00  0.00     0.227 C 
HETATM   20  O3  UNL     1      11.057 -16.560  14.681  1.00  0.00    -0.273 OA
HETATM   21  N2  UNL     1       9.122 -16.087  15.814  1.00  0.00    -0.347 N 
ATOM     22  H2  UNL     1       8.340 -15.452  15.974  1.00  0.00     0.163 HD
BRANCH  21  23
HETATM   23  C7  UNL     1       9.225 -17.300  16.580  1.00  0.00     0.178 C 
BRANCH  23  24
HETATM   24  C8  UNL     1       9.826 -17.179  17.939  1.00  0.00     0.208 C 
BRANCH  24  25
HETATM   25  O4  UNL     1       9.000 -16.378  18.719  1.00  0.00    -0.349 OA
BRANCH  25  26
HETATM   26  C9  UNL     1       9.445 -15.582  19.737  1.00  0.00     0.069 A 
HETATM   27  C10 UNL     1       9.466 -16.021  21.033  1.00  0.00     0.038 A 
HETATM   28  C11 UNL     1       9.933 -15.175  22.035  1.00  0.00     0.026 A 
HETATM   29  C12 UNL     1      10.357 -13.915  21.681  1.00  0.00     0.034 A 
HETATM   30 CL1  UNL     1      10.950 -12.819  22.921  1.00  0.00    -0.084 Cl
HETATM   31  C13 UNL     1      10.340 -13.462  20.378  1.00  0.00     0.026 A 
HETATM   32  C14 UNL     1       9.881 -14.303  19.402  1.00  0.00     0.038 A 
ENDBRANCH  25  26
ENDBRANCH  24  25
ENDBRANCH  23  24
BRANCH  23  33
HETATM   33  C15 UNL     1       7.835 -17.871  16.591  1.00  0.00     0.147 C 
HETATM   34  C16 UNL     1       7.514 -19.029  17.435  1.00  0.00     0.093 C 
HETATM   35  O5  UNL     1       6.941 -17.383  15.901  1.00  0.00    -0.296 OA
ENDBRANCH  23  33
ENDBRANCH  21  23
ENDBRANCH   1  19
TORSDOF 12
ENDMDL
MODEL 3
REMARK VINA RESULT: -9.504479905      0.337      1.196
REMARK  12 active torsions:
REMARK  status: ('A' for Active; 'I' for Inactive)
REMARK    1  A    between atoms: O1_2  and  N1_3 
REMARK       I    between atoms: N1_3  and  C3_5 
REMARK    2  A    between atoms: C3_5  and  C4_7 
REMARK    3  A    between atoms: C4_7  and  S1_8 
REMARK    4  A    between atoms: C4_7  and  C17_27 
REMARK    5  A    between atoms: S1_8  and  C5_9 
REMARK    6  A    between atoms: C5_9  and  C6_10 
REMARK       I    between atoms: C6_10  and  N2_12 
REMARK    7  A    between atoms: N2_12  and  C7_14 
REMARK    8  A    between atoms: C7_14  and  C8_15 
REMARK    9  A    between atoms: C7_14  and  C15_24 
REMARK   10  A    between atoms: C8_15  and  O4_16 
REMARK   11  A    between atoms: O4_16  and  C9_17 
REMARK   12  A    between atoms: C20_30  and  N3_31 
ROOT
HETATM    1  C5  UNL     1       9.974 -14.846  13.790  1.00  0.00     0.177 C 
ENDROOT
BRANCH   1   2
HETATM    2  S1  UNL     1       8.461 -14.650  12.881  1.00  0.00    -0.141 SA
BRANCH   2   3
HETATM    3  C4  UNL     1       8.674 -13.646  11.379  1.00  0.00     0.174 C 
BRANCH   3   4
HETATM    4  C3  UNL     1       9.162 -14.505  10.276  1.00  0.00     0.261 C 
HETATM    5  N1  UNL     1       9.949 -14.042   9.199  1.00  0.00    -0.230 N 
HETATM    6  C2  UNL     1      10.387 -12.688   8.986  1.00  0.00     0.189 C 
HETATM    7  O2  UNL     1       8.855 -15.733  10.299  1.00  0.00    -0.270 OA
BRANCH   5   8
HETATM    8  O1  UNL     1      10.351 -14.943   8.257  1.00  0.00    -0.281 OA
HETATM    9  C1  UNL     1       9.986 -14.625   6.976  1.00  0.00     0.238 C 
ENDBRANCH   5   8
ENDBRANCH   3   4
BRANCH   3  10
HETATM   10  C17 UNL     1       7.349 -13.009  11.039  1.00  0.00    -0.035 A 
HETATM   11  C18 UNL     1       6.762 -13.244   9.811  1.00  0.00     0.011 A 
HETATM   12  C19 UNL     1       5.549 -12.678   9.486  1.00  0.00     0.037 A 
HETATM   13  C20 UNL     1       4.857 -11.857  10.349  1.00  0.00     0.102 A 
HETATM   14  C21 UNL     1       5.441 -11.619  11.576  1.00  0.00     0.037 A 
HETATM   15  C22 UNL     1       6.670 -12.188  11.916  1.00  0.00     0.011 A 
BRANCH  13  16
HETATM   16  N3  UNL     1       3.605 -11.276   9.992  1.00  0.00    -0.116 N 
HETATM   17  O6  UNL     1       3.213 -11.249   8.810  1.00  0.00    -0.532 OA
HETATM   18  O7  UNL     1       2.819 -10.742  10.961  1.00  0.00    -0.532 OA
ENDBRANCH  13  16
ENDBRANCH   3  10
ENDBRANCH   2   3
ENDBRANCH   1   2
BRANCH   1  19
HETATM   19  C6  UNL     1      10.059 -15.989  14.711  1.00  0.00     0.227 C 
HETATM   20  O3  UNL     1      11.073 -16.732  14.729  1.00  0.00    -0.273 OA
HETATM   21  N2  UNL     1       8.998 -16.278  15.590  1.00  0.00    -0.347 N 
ATOM     22  H2  UNL     1       8.173 -15.679  15.603  1.00  0.00     0.163 HD
BRANCH  21  23
HETATM   23  C7  UNL     1       9.069 -17.414  16.470  1.00  0.00     0.178 C 
BRANCH  23  24
HETATM   24  C8  UNL     1       9.636 -17.170  17.826  1.00  0.00     0.208 C 
BRANCH  24  25
HETATM   25  O4  UNL     1       9.328 -15.869  18.208  1.00  0.00    -0.349 OA
BRANCH  25  26
HETATM   26  C9  UNL     1       9.620 -15.341  19.434  1.00  0.00     0.069 A 
HETATM   27  C10 UNL     1       9.470 -16.069  20.583  1.00  0.00     0.038 A 
HETATM   28  C11 UNL     1       9.786 -15.489  21.808  1.00  0.00     0.026 A 
HETATM   29  C12 UNL     1      10.241 -14.192  21.817  1.00  0.00     0.034 A 
HETATM   30 CL1  UNL     1      10.648 -13.426  23.347  1.00  0.00    -0.084 Cl
HETATM   31  C13 UNL     1      10.397 -13.447  20.666  1.00  0.00     0.026 A 
HETATM   32  C14 UNL     1      10.085 -14.029  19.468  1.00  0.00     0.038 A 
ENDBRANCH  25  26
ENDBRANCH  24  25
ENDBRANCH  23  24
BRANCH  23  33
HETATM   33  C15 UNL     1       7.673 -17.970  16.498  1.00  0.00     0.147 C 
HETATM   34  C16 UNL     1       7.326 -19.061  17.417  1.00  0.00     0.093 C 
HETATM   35  O5  UNL     1       6.795 -17.525  15.758  1.00  0.00    -0.296 OA
ENDBRANCH  23  33
ENDBRANCH  21  23
ENDBRANCH   1  19
TORSDOF 12
ENDMDL
MODEL 4
REMARK VINA RESULT: -9.475010954      0.361      1.036
REMARK  12 active torsions:
REMARK  status: ('A' for Active; 'I' for Inactive)
REMARK    1  A    between atoms: O1_2  and  N1_3 
REMARK       I    between atoms: N1_3  and  C3_5 
REMARK    2  A    between atoms: C3_5  and  C4_7 
REMARK    3  A    between atoms: C4_7  and  S1_8 
REMARK    4  A    between atoms: C4_7  and  C17_27 
REMARK    5  A    between atoms: S1_8  and  C5_9 
REMARK    6  A    between atoms: C5_9  and  C6_10 
REMARK       I    between atoms: C6_10  and  N2_12 
REMARK    7  A    between atoms: N2_12  and  C7_14 
REMARK    8  A    between atoms: C7_14  and  C8_15 
REMARK    9  A    between atoms: C7_14  and  C15_24 
REMARK   10  A    between atoms: C8_15  and  O4_16 
REMARK   11  A    between atoms: O4_16  and  C9_17 
REMARK   12  A    between atoms: C20_30  and  N3_31 
ROOT
HETATM    1  C5  UNL     1       9.841 -14.793  13.720  1.00  0.00     0.177 C 
ENDROOT
BRANCH   1   2
HETATM    2  S1  UNL     1       8.450 -14.857  12.618  1.00  0.00    -0.141 SA
BRANCH   2   3
HETATM    3  C4  UNL     1       8.675 -13.808  11.149  1.00  0.00     0.174 C 
BRANCH   3   4
HETATM    4  C3  UNL     1       9.142 -14.639  10.015  1.00  0.00     0.261 C 
HETATM    5  N1  UNL     1       9.935 -14.155   8.953  1.00  0.00    -0.230 N 
HETATM    6  C2  UNL     1      10.401 -12.804   8.784  1.00  0.00     0.189 C 
HETATM    7  O2  UNL     1       8.810 -15.860   9.998  1.00  0.00    -0.270 OA
BRANCH   5   8
HETATM    8  O1  UNL     1      10.316 -15.032   7.979  1.00  0.00    -0.281 OA
HETATM    9  C1  UNL     1       9.966 -14.658   6.710  1.00  0.00     0.238 C 
ENDBRANCH   5   8
ENDBRANCH   3   4
BRANCH   3  10
HETATM   10  C17 UNL     1       7.360 -13.136  10.836  1.00  0.00    -0.035 A 
HETATM   11  C18 UNL     1       6.754 -13.336   9.612  1.00  0.00     0.011 A 
HETATM   12  C19 UNL     1       5.550 -12.738   9.312  1.00  0.00     0.037 A 
HETATM   13  C20 UNL     1       4.886 -11.918  10.198  1.00  0.00     0.102 A 
HETATM   14  C21 UNL     1       5.489 -11.716  11.422  1.00  0.00     0.037 A 
HETATM   15  C22 UNL     1       6.710 -12.317  11.737  1.00  0.00     0.011 A 
BRANCH  13  16
HETATM   16  N3  UNL     1       3.643 -11.303   9.867  1.00  0.00    -0.116 N 
HETATM   17  O6  UNL     1       2.888 -10.849  10.748  1.00  0.00    -0.532 OA
HETATM   18  O7  UNL     1       3.272 -11.208   8.565  1.00  0.00    -0.532 OA
ENDBRANCH  13  16
ENDBRANCH   3  10
ENDBRANCH   2   3
ENDBRANCH   1   2
BRANCH   1  19
HETATM   19  C6  UNL     1      10.000 -15.909  14.664  1.00  0.00     0.227 C 
HETATM   20  O3  UNL     1      11.073 -16.562  14.720  1.00  0.00    -0.273 OA
HETATM   21  N2  UNL     1       8.946 -16.274  15.522  1.00  0.00    -0.347 N 
ATOM     22  H2  UNL     1       8.073 -15.747  15.504  1.00  0.00     0.163 HD
BRANCH  21  23
HETATM   23  C7  UNL     1       9.091 -17.385  16.425  1.00  0.00     0.178 C 
BRANCH  23  24
HETATM   24  C8  UNL     1       9.718 -17.091  17.745  1.00  0.00     0.208 C 
BRANCH  24  25
HETATM   25  O4  UNL     1       8.984 -16.090  18.372  1.00  0.00    -0.349 OA
BRANCH  25  26
HETATM   26  C9  UNL     1       9.424 -15.383  19.454  1.00  0.00     0.069 A 
HETATM   27  C10 UNL     1       9.959 -14.130  19.323  1.00  0.00     0.038 A 
HETATM   28  C11 UNL     1      10.388 -13.445  20.457  1.00  0.00     0.026 A 
HETATM   29  C12 UNL     1      10.259 -14.063  21.679  1.00  0.00     0.034 A 
HETATM   30 CL1  UNL     1      10.793 -13.229  23.132  1.00  0.00    -0.084 Cl
HETATM   31  C13 UNL     1       9.722 -15.326  21.824  1.00  0.00     0.026 A 
HETATM   32  C14 UNL     1       9.302 -15.987  20.703  1.00  0.00     0.038 A 
ENDBRANCH  25  26
ENDBRANCH  24  25
ENDBRANCH  23  24
BRANCH  23  33
HETATM   33  C15 UNL     1       7.714 -17.975  16.536  1.00  0.00     0.147 C 
HETATM   34  C16 UNL     1       7.451 -19.077  17.470  1.00  0.00     0.093 C 
HETATM   35  O5  UNL     1       6.781 -17.551  15.854  1.00  0.00    -0.296 OA
ENDBRANCH  23  33
ENDBRANCH  21  23
ENDBRANCH   1  19
TORSDOF 12
ENDMDL
MODEL 5
REMARK VINA RESULT: -9.341948855      2.156      2.846
REMARK  12 active torsions:
REMARK  status: ('A' for Active; 'I' for Inactive)
REMARK    1  A    between atoms: O1_2  and  N1_3 
REMARK       I    between atoms: N1_3  and  C3_5 
REMARK    2  A    between atoms: C3_5  and  C4_7 
REMARK    3  A    between atoms: C4_7  and  S1_8 
REMARK    4  A    between atoms: C4_7  and  C17_27 
REMARK    5  A    between atoms: S1_8  and  C5_9 
REMARK    6  A    between atoms: C5_9  and  C6_10 
REMARK       I    between atoms: C6_10  and  N2_12 
REMARK    7  A    between atoms: N2_12  and  C7_14 
REMARK    8  A    between atoms: C7_14  and  C8_15 
REMARK    9  A    between atoms: C7_14  and  C15_24 
REMARK   10  A    between atoms: C8_15  and  O4_16 
REMARK   11  A    between atoms: O4_16  and  C9_17 
REMARK   12  A    between atoms: C20_30  and  N3_31 
ROOT
HETATM    1  C5  UNL     1       8.067 -13.554  12.620  1.00  0.00     0.177 C 
ENDROOT
BRANCH   1   2
HETATM    2  S1  UNL     1       7.559 -13.534  10.918  1.00  0.00    -0.141 SA
BRANCH   2   3
HETATM    3  C4  UNL     1       8.441 -12.278   9.941  1.00  0.00     0.174 C 
BRANCH   3   4
HETATM    4  C3  UNL     1       9.713 -12.846   9.439  1.00  0.00     0.261 C 
HETATM    5  N1  UNL     1       9.834 -14.128   8.860  1.00  0.00    -0.230 N 
HETATM    6  C2  UNL     1       8.774 -15.084   8.679  1.00  0.00     0.189 C 
HETATM    7  O2  UNL     1      10.758 -12.139   9.534  1.00  0.00    -0.270 OA
BRANCH   5   8
HETATM    8  O1  UNL     1      11.062 -14.524   8.418  1.00  0.00    -0.281 OA
HETATM    9  C1  UNL     1      11.271 -14.334   7.078  1.00  0.00     0.238 C 
ENDBRANCH   5   8
ENDBRANCH   3   4
BRANCH   3  10
HETATM   10  C17 UNL     1       7.546 -11.840   8.808  1.00  0.00    -0.035 A 
HETATM   11  C18 UNL     1       6.202 -11.617   9.033  1.00  0.00     0.011 A 
HETATM   12  C19 UNL     1       5.371 -11.210   8.013  1.00  0.00     0.037 A 
HETATM   13  C20 UNL     1       5.819 -11.002   6.727  1.00  0.00     0.102 A 
HETATM   14  C21 UNL     1       7.161 -11.224   6.498  1.00  0.00     0.037 A 
HETATM   15  C22 UNL     1       8.013 -11.638   7.525  1.00  0.00     0.011 A 
BRANCH  13  16
HETATM   16  N3  UNL     1       4.942 -10.585   5.683  1.00  0.00    -0.116 N 
HETATM   17  O6  UNL     1       4.098  -9.687   5.863  1.00  0.00    -0.532 OA
HETATM   18  O7  UNL     1       5.030 -11.175   4.464  1.00  0.00    -0.532 OA
ENDBRANCH  13  16
ENDBRANCH   3  10
ENDBRANCH   2   3
ENDBRANCH   1   2
BRANCH   1  19
HETATM   19  C6  UNL     1       8.895 -14.688  13.059  1.00  0.00     0.227 C 
HETATM   20  O3  UNL     1       9.662 -15.279  12.257  1.00  0.00    -0.273 OA
HETATM   21  N2  UNL     1       8.837 -15.141  14.390  1.00  0.00    -0.347 N 
ATOM     22  H2  UNL     1       8.233 -14.666  15.061  1.00  0.00     0.163 HD
BRANCH  21  23
HETATM   23  C7  UNL     1       9.623 -16.269  14.811  1.00  0.00     0.178 C 
BRANCH  23  24
HETATM   24  C8  UNL     1      10.438 -16.087  16.047  1.00  0.00     0.208 C 
BRANCH  24  25
HETATM   25  O4  UNL     1       9.893 -15.045  16.788  1.00  0.00    -0.349 OA
BRANCH  25  26
HETATM   26  C9  UNL     1       9.918 -14.981  18.152  1.00  0.00     0.069 A 
HETATM   27  C10 UNL     1       9.704 -16.089  18.926  1.00  0.00     0.038 A 
HETATM   28  C11 UNL     1       9.744 -15.975  20.313  1.00  0.00     0.026 A 
HETATM   29  C12 UNL     1       9.997 -14.739  20.858  1.00  0.00     0.034 A 
HETATM   30 CL1  UNL     1      10.053 -14.556  22.606  1.00  0.00    -0.084 Cl
HETATM   31  C13 UNL     1      10.215 -13.614  20.088  1.00  0.00     0.026 A 
HETATM   32  C14 UNL     1      10.174 -13.739  18.727  1.00  0.00     0.038 A 
ENDBRANCH  25  26
ENDBRANCH  24  25
ENDBRANCH  23  24
BRANCH  23  33
HETATM   33  C15 UNL     1       8.648 -17.409  14.902  1.00  0.00     0.147 C 
HETATM   34  C16 UNL     1       7.615 -17.421  15.945  1.00  0.00     0.093 C 
HETATM   35  O5  UNL     1       8.692 -18.350  14.109  1.00  0.00    -0.296 OA
ENDBRANCH  23  33
ENDBRANCH  21  23
ENDBRANCH   1  19
TORSDOF 12
ENDMDL
