MODEL 1
REMARK VINA RESULT: -9.583621279      0.000      0.000
REMARK  13 active torsions:
REMARK  status: ('A' for Active; 'I' for Inactive)
REMARK    1  A    between atoms: C2_2  and  O2_4 
REMARK    2  A    between atoms: O2_4  and  C3_5 
REMARK    3  A    between atoms: C3_5  and  C4_6 
REMARK    4  A    between atoms: C5_8  and  O4_9 
REMARK    5  A    between atoms: O4_9  and  C6_10 
REMARK    6  A    between atoms: C6_10  and  C7_11 
REMARK    7  A    between atoms: C7_11  and  C8_12 
REMARK    8  A    between atoms: C8_12  and  O5_13 
REMARK    9  A    between atoms: O5_13  and  C9_14 
REMARK   10  A    between atoms: C15_21  and  N1_22 
REMARK       I    between atoms: N1_22  and  C16_24 
REMARK   11  A    between atoms: C16_24  and  C17_26 
REMARK   12  A    between atoms: C24_33  and  O7_34 
REMARK   13  A    between atoms: O7_34  and  C25_35 
ROOT
HETATM    1  C4  UNL     1       9.719 -14.630   9.886  1.00  0.00     0.182 C 
HETATM    2  O3  UNL     1      10.568 -14.478  10.987  1.00  0.00    -0.345 OA
HETATM    3  C5  UNL     1       9.991 -14.609  12.211  1.00  0.00     0.311 C 
HETATM    4  C15 UNL     1       8.590 -15.104  12.220  1.00  0.00     0.066 C 
HETATM    5  C23 UNL     1       7.762 -14.838  11.232  1.00  0.00     0.038 C 
HETATM    6  C24 UNL     1       8.374 -14.024  10.159  1.00  0.00     0.188 C 
ENDROOT
BRANCH   3   7
HETATM    7  O4  UNL     1      10.004 -13.361  12.844  1.00  0.00    -0.355 OA
BRANCH   7   8
HETATM    8  C6  UNL     1      10.792 -13.278  13.951  1.00  0.00     0.173 C 
BRANCH   8   9
HETATM    9  C7  UNL     1      10.003 -13.146  15.218  1.00  0.00     0.053 C 
BRANCH   9  10
HETATM   10  C8  UNL     1      10.799 -13.709  16.376  1.00  0.00     0.178 C 
BRANCH  10  11
HETATM   11  O5  UNL     1       9.998 -14.624  17.108  1.00  0.00    -0.351 OA
BRANCH  11  12
HETATM   12  C9  UNL     1      10.035 -14.543  18.507  1.00  0.00     0.068 A 
HETATM   13  C10 UNL     1       9.632 -15.660  19.198  1.00  0.00     0.038 A 
HETATM   14  C11 UNL     1       9.634 -15.679  20.580  1.00  0.00     0.026 A 
HETATM   15  C12 UNL     1      10.060 -14.522  21.222  1.00  0.00     0.034 A 
HETATM   16 CL1  UNL     1      10.056 -14.561  22.982  1.00  0.00    -0.084 Cl
HETATM   17  C13 UNL     1      10.465 -13.401  20.531  1.00  0.00     0.026 A 
HETATM   18  C14 UNL     1      10.453 -13.411  19.155  1.00  0.00     0.038 A 
ENDBRANCH  11  12
ENDBRANCH  10  11
ENDBRANCH   9  10
ENDBRANCH   8   9
ENDBRANCH   7   8
ENDBRANCH   3   7
BRANCH   4  19
HETATM   19  N1  UNL     1       8.212 -15.878  13.376  1.00  0.00    -0.322 N 
HETATM   20  C16 UNL     1       9.144 -16.568  14.159  1.00  0.00     0.256 C 
HETATM   21  O6  UNL     1      10.393 -16.549  13.887  1.00  0.00    -0.267 OA
ATOM     22  H1  UNL     1       7.226 -15.925  13.634  1.00  0.00     0.169 HD
BRANCH  20  23
HETATM   23  C17 UNL     1       8.726 -17.337  15.318  1.00  0.00     0.032 A 
HETATM   24  C18 UNL     1       9.693 -17.801  16.182  1.00  0.00     0.017 A 
HETATM   25  C19 UNL     1       9.394 -18.528  17.294  1.00  0.00     0.001 A 
HETATM   26  C20 UNL     1       8.065 -18.810  17.565  1.00  0.00     0.000 A 
HETATM   27  C21 UNL     1       7.091 -18.361  16.724  1.00  0.00     0.001 A 
HETATM   28  C22 UNL     1       7.418 -17.630  15.609  1.00  0.00     0.017 A 
ENDBRANCH  20  23
ENDBRANCH   4  19
BRANCH   1  29
HETATM   29  C3  UNL     1      10.380 -13.915   8.746  1.00  0.00     0.213 C 
BRANCH  29  30
HETATM   30  O2  UNL     1      11.090 -14.793   7.942  1.00  0.00    -0.319 OA
BRANCH  30  31
HETATM   31  C2  UNL     1      11.126 -14.751   6.580  1.00  0.00     0.254 C 
HETATM   32  C1  UNL     1      10.746 -13.506   5.811  1.00  0.00     0.126 C 
HETATM   33  O1  UNL     1      11.476 -15.749   5.919  1.00  0.00    -0.266 OA
ENDBRANCH  30  31
ENDBRANCH  29  30
ENDBRANCH   1  29
BRANCH   6  34
HETATM   34  O7  UNL     1       7.651 -13.817   9.035  1.00  0.00    -0.310 OA
BRANCH  34  35
HETATM   35  C25 UNL     1       6.875 -12.673   8.782  1.00  0.00     0.255 C 
HETATM   36  C26 UNL     1       7.316 -11.602   7.859  1.00  0.00     0.126 C 
HETATM   37  O8  UNL     1       5.797 -12.668   9.410  1.00  0.00    -0.266 OA
ENDBRANCH  34  35
ENDBRANCH   6  34
TORSDOF 13
ENDMDL
MODEL 2
REMARK VINA RESULT: -9.075985935      3.322      5.593
REMARK  13 active torsions:
REMARK  status: ('A' for Active; 'I' for Inactive)
REMARK    1  A    between atoms: C2_2  and  O2_4 
REMARK    2  A    between atoms: O2_4  and  C3_5 
REMARK    3  A    between atoms: C3_5  and  C4_6 
REMARK    4  A    between atoms: C5_8  and  O4_9 
REMARK    5  A    between atoms: O4_9  and  C6_10 
REMARK    6  A    between atoms: C6_10  and  C7_11 
REMARK    7  A    between atoms: C7_11  and  C8_12 
REMARK    8  A    between atoms: C8_12  and  O5_13 
REMARK    9  A    between atoms: O5_13  and  C9_14 
REMARK   10  A    between atoms: C15_21  and  N1_22 
REMARK       I    between atoms: N1_22  and  C16_24 
REMARK   11  A    between atoms: C16_24  and  C17_26 
REMARK   12  A    between atoms: C24_33  and  O7_34 
REMARK   13  A    between atoms: O7_34  and  C25_35 
ROOT
HETATM    1  C4  UNL     1       7.736 -13.970   7.994  1.00  0.00     0.182 C 
HETATM    2  O3  UNL     1       8.420 -13.944   9.213  1.00  0.00    -0.345 OA
HETATM    3  C5  UNL     1       8.240 -12.833   9.977  1.00  0.00     0.311 C 
HETATM    4  C15 UNL     1       7.182 -11.895   9.520  1.00  0.00     0.066 C 
HETATM    5  C23 UNL     1       6.893 -11.754   8.244  1.00  0.00     0.038 C 
HETATM    6  C24 UNL     1       7.716 -12.611   7.361  1.00  0.00     0.188 C 
ENDROOT
BRANCH   3   7
HETATM    7  O4  UNL     1       9.445 -12.125  10.021  1.00  0.00    -0.355 OA
BRANCH   7   8
HETATM    8  C6  UNL     1      10.466 -12.753  10.668  1.00  0.00     0.173 C 
BRANCH   8   9
HETATM    9  C7  UNL     1      10.111 -13.153  12.067  1.00  0.00     0.053 C 
BRANCH   9  10
HETATM   10  C8  UNL     1      10.875 -14.402  12.449  1.00  0.00     0.178 C 
BRANCH  10  11
HETATM   11  O5  UNL     1       9.964 -15.443  12.768  1.00  0.00    -0.351 OA
BRANCH  11  12
HETATM   12  C9  UNL     1      10.020 -15.981  14.061  1.00  0.00     0.068 A 
HETATM   13  C10 UNL     1      11.014 -15.504  14.881  1.00  0.00     0.038 A 
HETATM   14  C11 UNL     1      11.151 -15.971  16.175  1.00  0.00     0.026 A 
HETATM   15  C12 UNL     1      10.241 -16.935  16.593  1.00  0.00     0.034 A 
HETATM   16 CL1  UNL     1      10.429 -17.521  18.243  1.00  0.00    -0.084 Cl
HETATM   17  C13 UNL     1       9.244 -17.414  15.772  1.00  0.00     0.026 A 
HETATM   18  C14 UNL     1       9.131 -16.930  14.488  1.00  0.00     0.038 A 
ENDBRANCH  11  12
ENDBRANCH  10  11
ENDBRANCH   9  10
ENDBRANCH   8   9
ENDBRANCH   7   8
ENDBRANCH   3   7
BRANCH   4  19
HETATM   19  N1  UNL     1       6.512 -11.159  10.564  1.00  0.00    -0.322 N 
HETATM   20  C16 UNL     1       5.366 -11.639  11.207  1.00  0.00     0.256 C 
HETATM   21  O6  UNL     1       4.846 -12.766  10.900  1.00  0.00    -0.267 OA
ATOM     22  H1  UNL     1       6.888 -10.253  10.844  1.00  0.00     0.169 HD
BRANCH  20  23
HETATM   23  C17 UNL     1       4.718 -10.870  12.256  1.00  0.00     0.032 A 
HETATM   24  C18 UNL     1       3.457 -11.245  12.662  1.00  0.00     0.017 A 
HETATM   25  C19 UNL     1       2.775 -10.585  13.638  1.00  0.00     0.001 A 
HETATM   26  C20 UNL     1       3.375  -9.494  14.245  1.00  0.00     0.000 A 
HETATM   27  C21 UNL     1       4.623  -9.104  13.859  1.00  0.00     0.001 A 
HETATM   28  C22 UNL     1       5.290  -9.786  12.872  1.00  0.00     0.017 A 
ENDBRANCH  20  23
ENDBRANCH   4  19
BRANCH   1  29
HETATM   29  C3  UNL     1       8.483 -14.931   7.117  1.00  0.00     0.213 C 
BRANCH  29  30
HETATM   30  O2  UNL     1       9.829 -14.972   7.443  1.00  0.00    -0.319 OA
BRANCH  30  31
HETATM   31  C2  UNL     1      10.849 -14.653   6.596  1.00  0.00     0.254 C 
HETATM   32  C1  UNL     1      10.802 -13.422   5.721  1.00  0.00     0.126 C 
HETATM   33  O1  UNL     1      11.863 -15.376   6.516  1.00  0.00    -0.266 OA
ENDBRANCH  30  31
ENDBRANCH  29  30
ENDBRANCH   1  29
BRANCH   6  34
HETATM   34  O7  UNL     1       7.401 -12.645   6.046  1.00  0.00    -0.310 OA
BRANCH  34  35
HETATM   35  C25 UNL     1       7.232 -11.512   5.233  1.00  0.00     0.255 C 
HETATM   36  C26 UNL     1       5.921 -11.141   4.649  1.00  0.00     0.126 C 
HETATM   37  O8  UNL     1       8.289 -10.872   5.065  1.00  0.00    -0.266 OA
ENDBRANCH  34  35
ENDBRANCH   6  34
TORSDOF 13
ENDMDL
MODEL 3
REMARK VINA RESULT: -9.054067585      3.856      9.904
REMARK  13 active torsions:
REMARK  status: ('A' for Active; 'I' for Inactive)
REMARK    1  A    between atoms: C2_2  and  O2_4 
REMARK    2  A    between atoms: O2_4  and  C3_5 
REMARK    3  A    between atoms: C3_5  and  C4_6 
REMARK    4  A    between atoms: C5_8  and  O4_9 
REMARK    5  A    between atoms: O4_9  and  C6_10 
REMARK    6  A    between atoms: C6_10  and  C7_11 
REMARK    7  A    between atoms: C7_11  and  C8_12 
REMARK    8  A    between atoms: C8_12  and  O5_13 
REMARK    9  A    between atoms: O5_13  and  C9_14 
REMARK   10  A    between atoms: C15_21  and  N1_22 
REMARK       I    between atoms: N1_22  and  C16_24 
REMARK   11  A    between atoms: C16_24  and  C17_26 
REMARK   12  A    between atoms: C24_33  and  O7_34 
REMARK   13  A    between atoms: O7_34  and  C25_35 
ROOT
HETATM    1  C4  UNL     1       8.918 -15.909  13.535  1.00  0.00     0.182 C 
HETATM    2  O3  UNL     1       7.801 -15.497  12.801  1.00  0.00    -0.345 OA
HETATM    3  C5  UNL     1       8.019 -14.527  11.874  1.00  0.00     0.311 C 
HETATM    4  C15 UNL     1       9.441 -14.184  11.614  1.00  0.00     0.066 C 
HETATM    5  C23 UNL     1      10.354 -14.276  12.557  1.00  0.00     0.038 C 
HETATM    6  C24 UNL     1       9.811 -14.746  13.851  1.00  0.00     0.188 C 
ENDROOT
BRANCH   3   7
HETATM    7  O4  UNL     1       7.371 -13.360  12.292  1.00  0.00    -0.355 OA
BRANCH   7   8
HETATM    8  C6  UNL     1       7.056 -12.482  11.301  1.00  0.00     0.173 C 
BRANCH   8   9
HETATM    9  C7  UNL     1       5.597 -12.140  11.267  1.00  0.00     0.053 C 
BRANCH   9  10
HETATM   10  C8  UNL     1       5.054 -12.359   9.871  1.00  0.00     0.178 C 
BRANCH  10  11
HETATM   11  O5  UNL     1       5.951 -13.174   9.131  1.00  0.00    -0.351 OA
BRANCH  11  12
HETATM   12  C9  UNL     1       6.223 -12.802   7.807  1.00  0.00     0.068 A 
HETATM   13  C10 UNL     1       6.440 -11.465   7.579  1.00  0.00     0.038 A 
HETATM   14  C11 UNL     1       6.718 -10.998   6.307  1.00  0.00     0.026 A 
HETATM   15  C12 UNL     1       6.764 -11.943   5.290  1.00  0.00     0.034 A 
HETATM   16 CL1  UNL     1       7.117 -11.334   3.676  1.00  0.00    -0.084 Cl
HETATM   17  C13 UNL     1       6.547 -13.285   5.518  1.00  0.00     0.026 A 
HETATM   18  C14 UNL     1       6.273 -13.721   6.794  1.00  0.00     0.038 A 
ENDBRANCH  11  12
ENDBRANCH  10  11
ENDBRANCH   9  10
ENDBRANCH   8   9
ENDBRANCH   7   8
ENDBRANCH   3   7
BRANCH   4  19
HETATM   19  N1  UNL     1       9.739 -13.744  10.273  1.00  0.00    -0.322 N 
HETATM   20  C16 UNL     1       9.442 -14.515   9.144  1.00  0.00     0.256 C 
HETATM   21  O6  UNL     1       8.888 -15.663   9.242  1.00  0.00    -0.267 OA
ATOM     22  H1  UNL     1      10.182 -12.835  10.142  1.00  0.00     0.169 HD
BRANCH  20  23
HETATM   23  C17 UNL     1       9.755 -14.038   7.807  1.00  0.00     0.032 A 
HETATM   24  C18 UNL     1       9.838 -14.956   6.784  1.00  0.00     0.017 A 
HETATM   25  C19 UNL     1      10.124 -14.600   5.501  1.00  0.00     0.001 A 
HETATM   26  C20 UNL     1      10.339 -13.262   5.217  1.00  0.00     0.000 A 
HETATM   27  C21 UNL     1      10.263 -12.335   6.213  1.00  0.00     0.001 A 
HETATM   28  C22 UNL     1       9.973 -12.719   7.499  1.00  0.00     0.017 A 
ENDBRANCH  20  23
ENDBRANCH   4  19
BRANCH   1  29
HETATM   29  C3  UNL     1       8.387 -16.505  14.805  1.00  0.00     0.213 C 
BRANCH  29  30
HETATM   30  O2  UNL     1       9.107 -17.631  15.174  1.00  0.00    -0.319 OA
BRANCH  30  31
HETATM   31  C2  UNL     1       9.245 -18.086  16.452  1.00  0.00     0.254 C 
HETATM   32  C1  UNL     1       8.048 -18.364  17.332  1.00  0.00     0.126 C 
HETATM   33  O1  UNL     1      10.375 -18.289  16.939  1.00  0.00    -0.266 OA
ENDBRANCH  30  31
ENDBRANCH  29  30
ENDBRANCH   1  29
BRANCH   6  34
HETATM   34  O7  UNL     1      10.690 -15.010  14.844  1.00  0.00    -0.310 OA
BRANCH  34  35
HETATM   35  C25 UNL     1      10.801 -14.270  16.034  1.00  0.00     0.255 C 
HETATM   36  C26 UNL     1      10.373 -14.807  17.347  1.00  0.00     0.126 C 
HETATM   37  O8  UNL     1      11.290 -13.136  15.857  1.00  0.00    -0.266 OA
ENDBRANCH  34  35
ENDBRANCH   6  34
TORSDOF 13
ENDMDL
MODEL 4
REMARK VINA RESULT: -9.035317510      3.315      5.394
REMARK  13 active torsions:
REMARK  status: ('A' for Active; 'I' for Inactive)
REMARK    1  A    between atoms: C2_2  and  O2_4 
REMARK    2  A    between atoms: O2_4  and  C3_5 
REMARK    3  A    between atoms: C3_5  and  C4_6 
REMARK    4  A    between atoms: C5_8  and  O4_9 
REMARK    5  A    between atoms: O4_9  and  C6_10 
REMARK    6  A    between atoms: C6_10  and  C7_11 
REMARK    7  A    between atoms: C7_11  and  C8_12 
REMARK    8  A    between atoms: C8_12  and  O5_13 
REMARK    9  A    between atoms: O5_13  and  C9_14 
REMARK   10  A    between atoms: C15_21  and  N1_22 
REMARK       I    between atoms: N1_22  and  C16_24 
REMARK   11  A    between atoms: C16_24  and  C17_26 
REMARK   12  A    between atoms: C24_33  and  O7_34 
REMARK   13  A    between atoms: O7_34  and  C25_35 
ROOT
HETATM    1  C4  UNL     1       7.686 -13.953   8.044  1.00  0.00     0.182 C 
HETATM    2  O3  UNL     1       8.295 -14.034   9.300  1.00  0.00    -0.345 OA
HETATM    3  C5  UNL     1       8.153 -12.948  10.106  1.00  0.00     0.311 C 
HETATM    4  C15 UNL     1       7.199 -11.911   9.635  1.00  0.00     0.066 C 
HETATM    5  C23 UNL     1       7.000 -11.691   8.354  1.00  0.00     0.038 C 
HETATM    6  C24 UNL     1       7.807 -12.570   7.478  1.00  0.00     0.188 C 
ENDROOT
BRANCH   3   7
HETATM    7  O4  UNL     1       9.404 -12.339  10.253  1.00  0.00    -0.355 OA
BRANCH   7   8
HETATM    8  C6  UNL     1      10.406 -13.160  10.671  1.00  0.00     0.173 C 
BRANCH   8   9
HETATM    9  C7  UNL     1      10.106 -13.827  11.978  1.00  0.00     0.053 C 
BRANCH   9  10
HETATM   10  C8  UNL     1      11.360 -13.876  12.825  1.00  0.00     0.178 C 
BRANCH  10  11
HETATM   11  O5  UNL     1      11.071 -13.412  14.136  1.00  0.00    -0.351 OA
BRANCH  11  12
HETATM   12  C9  UNL     1      10.911 -14.374  15.143  1.00  0.00     0.068 A 
HETATM   13  C10 UNL     1      10.474 -13.917  16.363  1.00  0.00     0.038 A 
HETATM   14  C11 UNL     1      10.284 -14.789  17.420  1.00  0.00     0.026 A 
HETATM   15  C12 UNL     1      10.556 -16.131  17.182  1.00  0.00     0.034 A 
HETATM   16 CL1  UNL     1      10.310 -17.227  18.537  1.00  0.00    -0.084 Cl
HETATM   17  C13 UNL     1      10.993 -16.590  15.959  1.00  0.00     0.026 A 
HETATM   18  C14 UNL     1      11.173 -15.700  14.924  1.00  0.00     0.038 A 
ENDBRANCH  11  12
ENDBRANCH  10  11
ENDBRANCH   9  10
ENDBRANCH   8   9
ENDBRANCH   7   8
ENDBRANCH   3   7
BRANCH   4  19
HETATM   19  N1  UNL     1       6.524 -11.171  10.674  1.00  0.00    -0.322 N 
HETATM   20  C16 UNL     1       5.339 -11.618  11.268  1.00  0.00     0.256 C 
HETATM   21  O6  UNL     1       4.785 -12.715  10.917  1.00  0.00    -0.267 OA
ATOM     22  H1  UNL     1       6.927 -10.288  10.988  1.00  0.00     0.169 HD
BRANCH  20  23
HETATM   23  C17 UNL     1       4.688 -10.846  12.313  1.00  0.00     0.032 A 
HETATM   24  C18 UNL     1       5.365  -9.780  12.861  1.00  0.00     0.017 A 
HETATM   25  C19 UNL     1       4.834  -9.000  13.843  1.00  0.00     0.001 A 
HETATM   26  C20 UNL     1       3.562  -9.294  14.306  1.00  0.00     0.000 A 
HETATM   27  C21 UNL     1       2.872 -10.344  13.779  1.00  0.00     0.001 A 
HETATM   28  C22 UNL     1       3.430 -11.115  12.790  1.00  0.00     0.017 A 
ENDBRANCH  20  23
ENDBRANCH   4  19
BRANCH   1  29
HETATM   29  C3  UNL     1       8.410 -14.930   7.165  1.00  0.00     0.213 C 
BRANCH  29  30
HETATM   30  O2  UNL     1       9.749 -15.026   7.512  1.00  0.00    -0.319 OA
BRANCH  30  31
HETATM   31  C2  UNL     1      10.792 -14.701   6.697  1.00  0.00     0.254 C 
HETATM   32  C1  UNL     1      10.992 -15.367   5.355  1.00  0.00     0.126 C 
HETATM   33  O1  UNL     1      11.623 -13.835   7.037  1.00  0.00    -0.266 OA
ENDBRANCH  30  31
ENDBRANCH  29  30
ENDBRANCH   1  29
BRANCH   6  34
HETATM   34  O7  UNL     1       7.571 -12.521   6.147  1.00  0.00    -0.310 OA
BRANCH  34  35
HETATM   35  C25 UNL     1       8.172 -11.613   5.259  1.00  0.00     0.255 C 
HETATM   36  C26 UNL     1       9.556 -11.787   4.760  1.00  0.00     0.126 C 
HETATM   37  O8  UNL     1       7.420 -10.667   4.949  1.00  0.00    -0.266 OA
ENDBRANCH  34  35
ENDBRANCH   6  34
TORSDOF 13
ENDMDL
MODEL 5
REMARK VINA RESULT: -8.995259741      3.811      9.827
REMARK  13 active torsions:
REMARK  status: ('A' for Active; 'I' for Inactive)
REMARK    1  A    between atoms: C2_2  and  O2_4 
REMARK    2  A    between atoms: O2_4  and  C3_5 
REMARK    3  A    between atoms: C3_5  and  C4_6 
REMARK    4  A    between atoms: C5_8  and  O4_9 
REMARK    5  A    between atoms: O4_9  and  C6_10 
REMARK    6  A    between atoms: C6_10  and  C7_11 
REMARK    7  A    between atoms: C7_11  and  C8_12 
REMARK    8  A    between atoms: C8_12  and  O5_13 
REMARK    9  A    between atoms: O5_13  and  C9_14 
REMARK   10  A    between atoms: C15_21  and  N1_22 
REMARK       I    between atoms: N1_22  and  C16_24 
REMARK   11  A    between atoms: C16_24  and  C17_26 
REMARK   12  A    between atoms: C24_33  and  O7_34 
REMARK   13  A    between atoms: O7_34  and  C25_35 
ROOT
HETATM    1  C4  UNL     1      10.274 -15.554  13.938  1.00  0.00     0.182 C 
HETATM    2  O3  UNL     1       9.186 -15.808  13.096  1.00  0.00    -0.345 OA
HETATM    3  C5  UNL     1       8.950 -14.883  12.128  1.00  0.00     0.311 C 
HETATM    4  C15 UNL     1       9.996 -13.842  11.955  1.00  0.00     0.066 C 
HETATM    5  C23 UNL     1      10.722 -13.422  12.969  1.00  0.00     0.038 C 
HETATM    6  C24 UNL     1      10.384 -14.090  14.245  1.00  0.00     0.188 C 
ENDROOT
BRANCH   3   7
HETATM    7  O4  UNL     1       7.747 -14.231  12.420  1.00  0.00    -0.355 OA
BRANCH   7   8
HETATM    8  C6  UNL     1       7.062 -13.762  11.341  1.00  0.00     0.173 C 
BRANCH   8   9
HETATM    9  C7  UNL     1       6.608 -12.344  11.511  1.00  0.00     0.053 C 
BRANCH   9  10
HETATM   10  C8  UNL     1       5.489 -12.047  10.536  1.00  0.00     0.178 C 
BRANCH  10  11
HETATM   11  O5  UNL     1       5.526 -12.979   9.465  1.00  0.00    -0.351 OA
BRANCH  11  12
HETATM   12  C9  UNL     1       5.714 -12.473   8.172  1.00  0.00     0.068 A 
HETATM   13  C10 UNL     1       5.874 -13.398   7.169  1.00  0.00     0.038 A 
HETATM   14  C11 UNL     1       6.064 -12.998   5.859  1.00  0.00     0.026 A 
HETATM   15  C12 UNL     1       6.084 -11.630   5.618  1.00  0.00     0.034 A 
HETATM   16 CL1  UNL     1       6.327 -11.136   3.945  1.00  0.00    -0.084 Cl
HETATM   17  C13 UNL     1       5.922 -10.701   6.623  1.00  0.00     0.026 A 
HETATM   18  C14 UNL     1       5.734 -11.128   7.918  1.00  0.00     0.038 A 
ENDBRANCH  11  12
ENDBRANCH  10  11
ENDBRANCH   9  10
ENDBRANCH   8   9
ENDBRANCH   7   8
ENDBRANCH   3   7
BRANCH   4  19
HETATM   19  N1  UNL     1      10.147 -13.329  10.615  1.00  0.00    -0.322 N 
HETATM   20  C16 UNL     1       9.951 -14.122   9.479  1.00  0.00     0.256 C 
HETATM   21  O6  UNL     1       9.625 -15.355   9.570  1.00  0.00    -0.267 OA
ATOM     22  H1  UNL     1      10.408 -12.351  10.491  1.00  0.00     0.169 HD
BRANCH  20  23
HETATM   23  C17 UNL     1      10.110 -13.571   8.145  1.00  0.00     0.032 A 
HETATM   24  C18 UNL     1       9.424 -12.421   7.822  1.00  0.00     0.017 A 
HETATM   25  C19 UNL     1       9.514 -11.833   6.597  1.00  0.00     0.001 A 
HETATM   26  C20 UNL     1      10.328 -12.416   5.640  1.00  0.00     0.000 A 
HETATM   27  C21 UNL     1      11.017 -13.554   5.936  1.00  0.00     0.001 A 
HETATM   28  C22 UNL     1      10.910 -14.128   7.179  1.00  0.00     0.017 A 
ENDBRANCH  20  23
ENDBRANCH   4  19
BRANCH   1  29
HETATM   29  C3  UNL     1      10.014 -16.323  15.199  1.00  0.00     0.213 C 
BRANCH  29  30
HETATM   30  O2  UNL     1       8.708 -16.156  15.633  1.00  0.00    -0.319 OA
BRANCH  30  31
HETATM   31  C2  UNL     1       7.989 -17.086  16.324  1.00  0.00     0.254 C 
HETATM   32  C1  UNL     1       8.462 -17.633  17.651  1.00  0.00     0.126 C 
HETATM   33  O1  UNL     1       6.907 -17.518  15.877  1.00  0.00    -0.266 OA
ENDBRANCH  30  31
ENDBRANCH  29  30
ENDBRANCH   1  29
BRANCH   6  34
HETATM   34  O7  UNL     1      11.167 -13.834  15.318  1.00  0.00    -0.310 OA
BRANCH  34  35
HETATM   35  C25 UNL     1      10.759 -13.116  16.455  1.00  0.00     0.255 C 
HETATM   36  C26 UNL     1      10.388 -13.782  17.725  1.00  0.00     0.126 C 
HETATM   37  O8  UNL     1      10.747 -11.882  16.272  1.00  0.00    -0.266 OA
ENDBRANCH  34  35
ENDBRANCH   6  34
TORSDOF 13
ENDMDL
