MODEL 1
REMARK VINA RESULT: -5.544186031      0.000      0.000
REMARK  4 active torsions:
REMARK  status: ('A' for Active; 'I' for Inactive)
REMARK    1  A    between atoms: N1_2  and  C2_5 
REMARK       I    between atoms: N2_7  and  C4_8 
REMARK    2  A    between atoms: C8_13  and  N3_14 
REMARK    3  A    between atoms: N3_14  and  C9_16 
REMARK    4  A    between atoms: C9_16  and  C10_17 
ROOT
HETATM    1  C2  UNL     1      30.278   9.850  67.848  1.00  0.00     0.225 C 
HETATM    2  C3  UNL     1      28.878   9.408  67.998  1.00  0.00     0.160 C 
HETATM    3  N2  UNL     1      28.337   9.450  69.323  1.00  0.00    -0.350 N 
HETATM    4  C4  UNL     1      27.168   8.754  69.653  1.00  0.00     0.215 C 
HETATM    5  C5  UNL     1      26.589   8.794  71.017  1.00  0.00     0.117 C 
HETATM    6  O1  UNL     1      26.563   8.059  68.787  1.00  0.00    -0.274 OA
HETATM    7  C6  UNL     1      29.012  10.223  70.331  1.00  0.00     0.128 C 
HETATM    8  C7  UNL     1      29.626  11.414  69.633  1.00  0.00     0.047 C 
HETATM    9  C8  UNL     1      30.768  10.920  68.790  1.00  0.00     0.114 C 
ENDROOT
BRANCH   9  10
HETATM   10  N3  UNL     1      31.397  11.916  68.014  1.00  0.00    -0.394 N 
ATOM     11  H3  UNL     1      30.828  12.700  67.693  1.00  0.00     0.159 HD
BRANCH  10  12
HETATM   12  C9  UNL     1      32.729  11.900  67.662  1.00  0.00     0.071 C 
BRANCH  12  13
HETATM   13  C10 UNL     1      33.582  13.088  67.977  1.00  0.00     0.091 C 
HETATM   14  C11 UNL     1      33.332  13.796  69.253  1.00  0.00     0.027 C 
HETATM   15 BR1  UNL     1      35.461  12.691  67.705  1.00  0.00    -0.086 Br
ENDBRANCH  12  13
ENDBRANCH  10  12
ENDBRANCH   9  10
BRANCH   1  16
HETATM   16  N1  UNL     1      31.257   8.770  67.785  1.00  0.00    -0.071 N 
HETATM   17  C1  UNL     1      30.649   7.521  67.354  1.00  0.00     0.267 C 
ATOM     18  H12 UNL     1      31.748   8.659  68.672  1.00  0.00     0.277 HD
ATOM     19  H11 UNL     1      32.050   9.021  67.195  1.00  0.00     0.277 HD
ENDBRANCH   1  16
TORSDOF 4
ENDMDL
MODEL 2
REMARK VINA RESULT: -5.465526268      3.751      6.258
REMARK  4 active torsions:
REMARK  status: ('A' for Active; 'I' for Inactive)
REMARK    1  A    between atoms: N1_2  and  C2_5 
REMARK       I    between atoms: N2_7  and  C4_8 
REMARK    2  A    between atoms: C8_13  and  N3_14 
REMARK    3  A    between atoms: N3_14  and  C9_16 
REMARK    4  A    between atoms: C9_16  and  C10_17 
ROOT
HETATM    1  C2  UNL     1      29.038   8.937  68.650  1.00  0.00     0.225 C 
HETATM    2  C3  UNL     1      30.464   9.005  68.276  1.00  0.00     0.160 C 
HETATM    3  N2  UNL     1      31.040  10.314  68.206  1.00  0.00    -0.350 N 
HETATM    4  C4  UNL     1      32.255  10.538  67.548  1.00  0.00     0.215 C 
HETATM    5  C5  UNL     1      32.872  11.884  67.473  1.00  0.00     0.117 C 
HETATM    6  O1  UNL     1      32.872   9.587  66.987  1.00  0.00    -0.274 OA
HETATM    7  C6  UNL     1      30.353  11.416  68.823  1.00  0.00     0.128 C 
HETATM    8  C7  UNL     1      29.654  10.868  70.045  1.00  0.00     0.047 C 
HETATM    9  C8  UNL     1      28.516  10.003  69.580  1.00  0.00     0.114 C 
ENDROOT
BRANCH   9  10
HETATM   10  N3  UNL     1      27.811   9.356  70.617  1.00  0.00    -0.394 N 
ATOM     11  H3  UNL     1      28.351   8.962  71.387  1.00  0.00     0.159 HD
BRANCH  10  12
HETATM   12  C9  UNL     1      26.440   9.222  70.656  1.00  0.00     0.071 C 
BRANCH  12  13
HETATM   13  C10 UNL     1      25.838   7.854  70.600  1.00  0.00     0.091 C 
HETATM   14  C11 UNL     1      25.710   7.105  71.870  1.00  0.00     0.027 C 
HETATM   15 BR1  UNL     1      24.193   7.857  69.571  1.00  0.00    -0.086 Br
ENDBRANCH  12  13
ENDBRANCH  10  12
ENDBRANCH   9  10
BRANCH   1  16
HETATM   16  N1  UNL     1      28.119   8.777  67.528  1.00  0.00    -0.071 N 
HETATM   17  C1  UNL     1      27.651   7.405  67.410  1.00  0.00     0.267 C 
ATOM     18  H12 UNL     1      28.535   9.105  66.656  1.00  0.00     0.277 HD
ATOM     19  H11 UNL     1      27.340   9.433  67.588  1.00  0.00     0.277 HD
ENDBRANCH   1  16
TORSDOF 4
ENDMDL
MODEL 3
REMARK VINA RESULT: -5.371869253      3.960      6.178
REMARK  4 active torsions:
REMARK  status: ('A' for Active; 'I' for Inactive)
REMARK    1  A    between atoms: N1_2  and  C2_5 
REMARK       I    between atoms: N2_7  and  C4_8 
REMARK    2  A    between atoms: C8_13  and  N3_14 
REMARK    3  A    between atoms: N3_14  and  C9_16 
REMARK    4  A    between atoms: C9_16  and  C10_17 
ROOT
HETATM    1  C2  UNL     1      29.928   8.575  66.713  1.00  0.00     0.225 C 
HETATM    2  C3  UNL     1      31.366   8.904  66.754  1.00  0.00     0.160 C 
HETATM    3  N2  UNL     1      31.714  10.164  67.338  1.00  0.00    -0.350 N 
HETATM    4  C4  UNL     1      32.975  10.735  67.134  1.00  0.00     0.215 C 
HETATM    5  C5  UNL     1      33.356  12.035  67.738  1.00  0.00     0.117 C 
HETATM    6  O1  UNL     1      33.841  10.155  66.418  1.00  0.00    -0.274 OA
HETATM    7  C6  UNL     1      30.744  10.852  68.147  1.00  0.00     0.128 C 
HETATM    8  C7  UNL     1      29.929   9.793  68.851  1.00  0.00     0.047 C 
HETATM    9  C8  UNL     1      29.065   9.113  67.826  1.00  0.00     0.114 C 
ENDROOT
BRANCH   9  10
HETATM   10  N3  UNL     1      28.297   8.041  68.327  1.00  0.00    -0.394 N 
ATOM     11  H3  UNL     1      28.790   7.199  68.624  1.00  0.00     0.159 HD
BRANCH  10  12
HETATM   12  C9  UNL     1      26.923   8.058  68.441  1.00  0.00     0.071 C 
BRANCH  12  13
HETATM   13  C10 UNL     1      26.305   8.160  69.799  1.00  0.00     0.091 C 
HETATM   14  C11 UNL     1      26.652   9.336  70.627  1.00  0.00     0.027 C 
HETATM   15 BR1  UNL     1      24.392   7.845  69.720  1.00  0.00    -0.086 Br
ENDBRANCH  12  13
ENDBRANCH  10  12
ENDBRANCH   9  10
BRANCH   1  16
HETATM   16  N1  UNL     1      29.280   8.825  65.430  1.00  0.00    -0.071 N 
HETATM   17  C1  UNL     1      30.230   8.769  64.330  1.00  0.00     0.267 C 
ATOM     18  H12 UNL     1      28.769   9.708  65.436  1.00  0.00     0.277 HD
ATOM     19  H11 UNL     1      28.497   8.189  65.279  1.00  0.00     0.277 HD
ENDBRANCH   1  16
TORSDOF 4
ENDMDL
MODEL 4
REMARK VINA RESULT: -5.326259950      4.545      6.574
REMARK  4 active torsions:
REMARK  status: ('A' for Active; 'I' for Inactive)
REMARK    1  A    between atoms: N1_2  and  C2_5 
REMARK       I    between atoms: N2_7  and  C4_8 
REMARK    2  A    between atoms: C8_13  and  N3_14 
REMARK    3  A    between atoms: N3_14  and  C9_16 
REMARK    4  A    between atoms: C9_16  and  C10_17 
ROOT
HETATM    1  C2  UNL     1      28.409   6.408  67.037  1.00  0.00     0.225 C 
HETATM    2  C3  UNL     1      29.784   6.350  66.505  1.00  0.00     0.160 C 
HETATM    3  N2  UNL     1      30.225   7.490  65.759  1.00  0.00    -0.350 N 
HETATM    4  C4  UNL     1      31.351   7.425  64.931  1.00  0.00     0.215 C 
HETATM    5  C5  UNL     1      31.828   8.597  64.159  1.00  0.00     0.117 C 
HETATM    6  O1  UNL     1      32.005   6.349  64.812  1.00  0.00    -0.274 OA
HETATM    7  C6  UNL     1      29.492   8.723  65.866  1.00  0.00     0.128 C 
HETATM    8  C7  UNL     1      28.957   8.795  67.277  1.00  0.00     0.047 C 
HETATM    9  C8  UNL     1      27.871   7.765  67.415  1.00  0.00     0.114 C 
ENDROOT
BRANCH   9  10
HETATM   10  N3  UNL     1      27.323   7.661  68.711  1.00  0.00    -0.394 N 
ATOM     11  H3  UNL     1      27.882   7.201  69.429  1.00  0.00     0.159 HD
BRANCH  10  12
HETATM   12  C9  UNL     1      26.082   8.142  69.069  1.00  0.00     0.071 C 
BRANCH  12  13
HETATM   13  C10 UNL     1      25.826   8.505  70.497  1.00  0.00     0.091 C 
HETATM   14  C11 UNL     1      25.803   7.410  71.493  1.00  0.00     0.027 C 
HETATM   15 BR1  UNL     1      26.945   9.990  71.052  1.00  0.00    -0.086 Br
ENDBRANCH  12  13
ENDBRANCH  10  12
ENDBRANCH   9  10
BRANCH   1  16
HETATM   16  N1  UNL     1      27.416   5.694  66.243  1.00  0.00    -0.071 N 
HETATM   17  C1  UNL     1      27.875   4.361  65.883  1.00  0.00     0.267 C 
ATOM     18  H12 UNL     1      27.143   6.229  65.418  1.00  0.00     0.277 HD
ATOM     19  H11 UNL     1      26.513   5.662  66.717  1.00  0.00     0.277 HD
ENDBRANCH   1  16
TORSDOF 4
ENDMDL
MODEL 5
REMARK VINA RESULT: -5.306043983      1.404      1.512
REMARK  4 active torsions:
REMARK  status: ('A' for Active; 'I' for Inactive)
REMARK    1  A    between atoms: N1_2  and  C2_5 
REMARK       I    between atoms: N2_7  and  C4_8 
REMARK    2  A    between atoms: C8_13  and  N3_14 
REMARK    3  A    between atoms: N3_14  and  C9_16 
REMARK    4  A    between atoms: C9_16  and  C10_17 
ROOT
HETATM    1  C2  UNL     1      29.978   8.578  67.521  1.00  0.00     0.225 C 
HETATM    2  C3  UNL     1      28.547   8.669  67.871  1.00  0.00     0.160 C 
HETATM    3  N2  UNL     1      28.240   9.247  69.145  1.00  0.00    -0.350 N 
HETATM    4  C4  UNL     1      26.979   9.084  69.731  1.00  0.00     0.215 C 
HETATM    5  C5  UNL     1      26.641   9.682  71.044  1.00  0.00     0.117 C 
HETATM    6  O1  UNL     1      26.079   8.410  69.152  1.00  0.00    -0.274 OA
HETATM    7  C6  UNL     1      29.249  10.007  69.831  1.00  0.00     0.128 C 
HETATM    8  C7  UNL     1      30.076  10.696  68.771  1.00  0.00     0.047 C 
HETATM    9  C8  UNL     1      30.890   9.648  68.063  1.00  0.00     0.114 C 
ENDROOT
BRANCH   9  10
HETATM   10  N3  UNL     1      31.663  10.135  66.988  1.00  0.00    -0.394 N 
ATOM     11  H3  UNL     1      31.182  10.351  66.114  1.00  0.00     0.159 HD
BRANCH  10  12
HETATM   12  C9  UNL     1      33.025  10.338  67.040  1.00  0.00     0.071 C 
BRANCH  12  13
HETATM   13  C10 UNL     1      33.592  11.621  66.522  1.00  0.00     0.091 C 
HETATM   14  C11 UNL     1      32.643  12.699  66.165  1.00  0.00     0.027 C 
HETATM   15 BR1  UNL     1      35.040  12.251  67.650  1.00  0.00    -0.086 Br
ENDBRANCH  12  13
ENDBRANCH  10  12
ENDBRANCH   9  10
BRANCH   1  16
HETATM   16  N1  UNL     1      30.578   7.267  67.742  1.00  0.00    -0.071 N 
HETATM   17  C1  UNL     1      29.633   6.193  67.479  1.00  0.00     0.267 C 
ATOM     18  H12 UNL     1      30.976   7.192  68.679  1.00  0.00     0.277 HD
ATOM     19  H11 UNL     1      31.433   7.153  67.198  1.00  0.00     0.277 HD
ENDBRANCH   1  16
TORSDOF 4
ENDMDL
