MODEL 1
REMARK VINA RESULT: -6.789616968      0.000      0.000
REMARK  4 active torsions:
REMARK  status: ('A' for Active; 'I' for Inactive)
REMARK    1  A    between atoms: N1_2  and  C2_3 
REMARK       I    between atoms: N1_2  and  C9_13 
REMARK    2  A    between atoms: C2_3  and  C3_4 
REMARK       I    between atoms: C3_4  and  N2_6 
REMARK    3  A    between atoms: N2_6  and  C4_8 
REMARK    4  A    between atoms: C9_13  and  C10_15 
ROOT
HETATM    1  C1  UNL     1      31.061   8.882  65.141  1.00  0.00     0.153 C 
HETATM    2  N1  UNL     1      31.331   8.441  66.491  1.00  0.00    -0.346 N 
HETATM    3  C9  UNL     1      31.081   7.097  66.839  1.00  0.00     0.242 C 
HETATM    4  O2  UNL     1      31.350   6.778  68.038  1.00  0.00    -0.271 OA
ENDROOT
BRANCH   2   5
HETATM    5  C2  UNL     1      31.849   9.422  67.416  1.00  0.00     0.228 C 
BRANCH   5   6
HETATM    6  C3  UNL     1      30.774  10.166  68.108  1.00  0.00     0.235 C 
HETATM    7  O1  UNL     1      30.754  11.430  68.116  1.00  0.00    -0.272 OA
HETATM    8  N2  UNL     1      29.761   9.432  68.770  1.00  0.00    -0.355 N 
ATOM      9  H2  UNL     1      29.775   8.412  68.766  1.00  0.00     0.162 HD
BRANCH   8  10
HETATM   10  C4  UNL     1      28.712  10.142  69.446  1.00  0.00     0.084 C 
HETATM   11  C5  UNL     1      29.110  10.571  70.850  1.00  0.00     0.025 C 
HETATM   12  C6  UNL     1      27.750  11.038  71.381  1.00  0.00     0.002 C 
HETATM   13  C7  UNL     1      26.849   9.920  70.931  1.00  0.00     0.002 C 
HETATM   14  C8  UNL     1      27.520   9.257  69.750  1.00  0.00     0.025 C 
ENDBRANCH   8  10
ENDBRANCH   5   6
ENDBRANCH   2   5
BRANCH   3  15
HETATM   15  C10 UNL     1      30.547   6.045  65.964  1.00  0.00     0.179 C 
HETATM   16  C11 UNL     1      29.622   5.072  66.655  1.00  0.00     0.061 C 
HETATM   17  C12 UNL     1      29.696   3.776  65.839  1.00  0.00     0.179 C 
HETATM   18  O3  UNL     1      30.934   3.215  66.116  1.00  0.00    -0.308 OA
HETATM   19  C13 UNL     1      31.983   4.081  65.848  1.00  0.00     0.445 C 
HETATM   20  F1  UNL     1      32.762   4.348  66.957  1.00  0.00    -0.154 F 
HETATM   21  F2  UNL     1      32.798   3.443  64.929  1.00  0.00    -0.154 F 
HETATM   22  N3  UNL     1      31.571   5.321  65.272  1.00  0.00    -0.324 N 
ATOM     23  H3  UNL     1      31.986   5.673  64.409  1.00  0.00     0.162 HD
ENDBRANCH   3  15
TORSDOF 4
ENDMDL
MODEL 2
REMARK VINA RESULT: -6.586048516      3.393      5.306
REMARK  4 active torsions:
REMARK  status: ('A' for Active; 'I' for Inactive)
REMARK    1  A    between atoms: N1_2  and  C2_3 
REMARK       I    between atoms: N1_2  and  C9_13 
REMARK    2  A    between atoms: C2_3  and  C3_4 
REMARK       I    between atoms: C3_4  and  N2_6 
REMARK    3  A    between atoms: N2_6  and  C4_8 
REMARK    4  A    between atoms: C9_13  and  C10_15 
ROOT
HETATM    1  C1  UNL     1      31.780   7.185  65.364  1.00  0.00     0.153 C 
HETATM    2  N1  UNL     1      30.911   8.266  65.769  1.00  0.00    -0.346 N 
HETATM    3  C9  UNL     1      31.480   9.483  66.200  1.00  0.00     0.242 C 
HETATM    4  O2  UNL     1      30.656  10.390  66.531  1.00  0.00    -0.271 OA
ENDROOT
BRANCH   2   5
HETATM    5  C2  UNL     1      29.487   8.028  65.707  1.00  0.00     0.228 C 
BRANCH   5   6
HETATM    6  C3  UNL     1      28.910   7.718  67.034  1.00  0.00     0.235 C 
HETATM    7  O1  UNL     1      29.033   6.569  67.548  1.00  0.00    -0.272 OA
HETATM    8  N2  UNL     1      28.210   8.738  67.722  1.00  0.00    -0.355 N 
ATOM      9  H2  UNL     1      28.109   9.665  67.309  1.00  0.00     0.162 HD
BRANCH   8  10
HETATM   10  C4  UNL     1      27.644   8.450  69.010  1.00  0.00     0.084 C 
HETATM   11  C5  UNL     1      26.143   8.214  68.948  1.00  0.00     0.025 C 
HETATM   12  C6  UNL     1      25.812   8.205  70.445  1.00  0.00     0.002 C 
HETATM   13  C7  UNL     1      26.584   9.402  70.932  1.00  0.00     0.002 C 
HETATM   14  C8  UNL     1      27.703   9.641  69.945  1.00  0.00     0.025 C 
ENDBRANCH   8  10
ENDBRANCH   5   6
ENDBRANCH   2   5
BRANCH   3  15
HETATM   15  C10 UNL     1      32.910   9.799  66.301  1.00  0.00     0.179 C 
HETATM   16  C11 UNL     1      33.263  10.727  67.439  1.00  0.00     0.061 C 
HETATM   17  C12 UNL     1      34.562  11.425  67.021  1.00  0.00     0.179 C 
HETATM   18  O3  UNL     1      34.213  12.331  66.032  1.00  0.00    -0.308 OA
HETATM   19  C13 UNL     1      33.556  11.732  64.967  1.00  0.00     0.445 C 
HETATM   20  F1  UNL     1      32.294  12.246  64.751  1.00  0.00    -0.154 F 
HETATM   21  F2  UNL     1      34.303  12.010  63.835  1.00  0.00    -0.154 F 
HETATM   22  N3  UNL     1      33.457  10.312  65.080  1.00  0.00    -0.324 N 
ATOM     23  H3  UNL     1      33.761   9.693  64.328  1.00  0.00     0.162 HD
ENDBRANCH   3  15
TORSDOF 4
ENDMDL
MODEL 3
REMARK VINA RESULT: -6.521966342      3.539      4.556
REMARK  4 active torsions:
REMARK  status: ('A' for Active; 'I' for Inactive)
REMARK    1  A    between atoms: N1_2  and  C2_3 
REMARK       I    between atoms: N1_2  and  C9_13 
REMARK    2  A    between atoms: C2_3  and  C3_4 
REMARK       I    between atoms: C3_4  and  N2_6 
REMARK    3  A    between atoms: N2_6  and  C4_8 
REMARK    4  A    between atoms: C9_13  and  C10_15 
ROOT
HETATM    1  C1  UNL     1      30.608   7.165  66.173  1.00  0.00     0.153 C 
HETATM    2  N1  UNL     1      31.177   8.494  66.167  1.00  0.00    -0.346 N 
HETATM    3  C9  UNL     1      31.248   9.208  64.953  1.00  0.00     0.242 C 
HETATM    4  O2  UNL     1      31.751  10.371  65.025  1.00  0.00    -0.271 OA
ENDROOT
BRANCH   2   5
HETATM    5  C2  UNL     1      31.647   9.017  67.429  1.00  0.00     0.228 C 
BRANCH   5   6
HETATM    6  C3  UNL     1      30.634   9.860  68.102  1.00  0.00     0.235 C 
HETATM    7  O1  UNL     1      30.679  11.122  68.027  1.00  0.00    -0.272 OA
HETATM    8  N2  UNL     1      29.604   9.225  68.837  1.00  0.00    -0.355 N 
ATOM      9  H2  UNL     1      29.566   8.207  68.898  1.00  0.00     0.162 HD
BRANCH   8  10
HETATM   10  C4  UNL     1      28.615  10.032  69.495  1.00  0.00     0.084 C 
HETATM   11  C5  UNL     1      29.071  10.511  70.864  1.00  0.00     0.025 C 
HETATM   12  C6  UNL     1      27.754  11.086  71.397  1.00  0.00     0.002 C 
HETATM   13  C7  UNL     1      26.779  10.001  71.028  1.00  0.00     0.002 C 
HETATM   14  C8  UNL     1      27.381   9.237  69.871  1.00  0.00     0.025 C 
ENDBRANCH   8  10
ENDBRANCH   5   6
ENDBRANCH   2   5
BRANCH   3  15
HETATM   15  C10 UNL     1      30.804   8.745  63.632  1.00  0.00     0.179 C 
HETATM   16  C11 UNL     1      31.579   9.329  62.475  1.00  0.00     0.061 C 
HETATM   17  C12 UNL     1      30.633   9.275  61.270  1.00  0.00     0.179 C 
HETATM   18  O3  UNL     1      29.681  10.260  61.481  1.00  0.00    -0.308 OA
HETATM   19  C13 UNL     1      29.021  10.112  62.692  1.00  0.00     0.445 C 
HETATM   20  F1  UNL     1      29.160  11.206  63.523  1.00  0.00    -0.154 F 
HETATM   21  F2  UNL     1      27.673  10.001  62.395  1.00  0.00    -0.154 F 
HETATM   22  N3  UNL     1      29.401   8.940  63.413  1.00  0.00    -0.324 N 
ATOM     23  H3  UNL     1      28.708   8.275  63.756  1.00  0.00     0.162 HD
ENDBRANCH   3  15
TORSDOF 4
ENDMDL
MODEL 4
REMARK VINA RESULT: -6.431052534      4.307      6.427
REMARK  4 active torsions:
REMARK  status: ('A' for Active; 'I' for Inactive)
REMARK    1  A    between atoms: N1_2  and  C2_3 
REMARK       I    between atoms: N1_2  and  C9_13 
REMARK    2  A    between atoms: C2_3  and  C3_4 
REMARK       I    between atoms: C3_4  and  N2_6 
REMARK    3  A    between atoms: N2_6  and  C4_8 
REMARK    4  A    between atoms: C9_13  and  C10_15 
ROOT
HETATM    1  C1  UNL     1      32.811  10.575  64.139  1.00  0.00     0.153 C 
HETATM    2  N1  UNL     1      32.725  10.088  65.497  1.00  0.00    -0.346 N 
HETATM    3  C9  UNL     1      33.500  10.707  66.501  1.00  0.00     0.242 C 
HETATM    4  O2  UNL     1      33.367  10.234  67.671  1.00  0.00    -0.271 OA
ENDROOT
BRANCH   2   5
HETATM    5  C2  UNL     1      31.835   8.978  65.747  1.00  0.00     0.228 C 
BRANCH   5   6
HETATM    6  C3  UNL     1      30.559   9.407  66.361  1.00  0.00     0.235 C 
HETATM    7  O1  UNL     1      29.639   9.924  65.663  1.00  0.00    -0.272 OA
HETATM    8  N2  UNL     1      30.383   9.227  67.753  1.00  0.00    -0.355 N 
ATOM      9  H2  UNL     1      31.123   8.810  68.318  1.00  0.00     0.162 HD
BRANCH   8  10
HETATM   10  C4  UNL     1      29.149   9.639  68.361  1.00  0.00     0.084 C 
HETATM   11  C5  UNL     1      29.314   9.995  69.831  1.00  0.00     0.025 C 
HETATM   12  C6  UNL     1      27.842  10.122  70.241  1.00  0.00     0.002 C 
HETATM   13  C7  UNL     1      27.244   8.897  69.604  1.00  0.00     0.002 C 
HETATM   14  C8  UNL     1      28.147   8.506  68.457  1.00  0.00     0.025 C 
ENDBRANCH   8  10
ENDBRANCH   5   6
ENDBRANCH   2   5
BRANCH   3  15
HETATM   15  C10 UNL     1      34.432  11.828  66.327  1.00  0.00     0.179 C 
HETATM   16  C11 UNL     1      35.536  11.884  67.357  1.00  0.00     0.061 C 
HETATM   17  C12 UNL     1      35.966  13.354  67.427  1.00  0.00     0.179 C 
HETATM   18  O3  UNL     1      34.947  14.024  68.087  1.00  0.00    -0.308 OA
HETATM   19  C13 UNL     1      33.714  13.852  67.477  1.00  0.00     0.445 C 
HETATM   20  F1  UNL     1      32.774  13.277  68.308  1.00  0.00    -0.154 F 
HETATM   21  F2  UNL     1      33.250  15.117  67.160  1.00  0.00    -0.154 F 
HETATM   22  N3  UNL     1      33.773  13.099  66.265  1.00  0.00    -0.324 N 
ATOM     23  H3  UNL     1      33.366  13.449  65.398  1.00  0.00     0.162 HD
ENDBRANCH   3  15
TORSDOF 4
ENDMDL
MODEL 5
REMARK VINA RESULT: -6.405344586      1.033      1.082
REMARK  4 active torsions:
REMARK  status: ('A' for Active; 'I' for Inactive)
REMARK    1  A    between atoms: N1_2  and  C2_3 
REMARK       I    between atoms: N1_2  and  C9_13 
REMARK    2  A    between atoms: C2_3  and  C3_4 
REMARK       I    between atoms: C3_4  and  N2_6 
REMARK    3  A    between atoms: N2_6  and  C4_8 
REMARK    4  A    between atoms: C9_13  and  C10_15 
ROOT
HETATM    1  C1  UNL     1      30.471   9.125  65.068  1.00  0.00     0.153 C 
HETATM    2  N1  UNL     1      30.944   8.330  66.179  1.00  0.00    -0.346 N 
HETATM    3  C9  UNL     1      30.805   6.927  66.130  1.00  0.00     0.242 C 
HETATM    4  O2  UNL     1      31.251   6.293  67.136  1.00  0.00    -0.271 OA
ENDROOT
BRANCH   2   5
HETATM    5  C2  UNL     1      31.542   9.035  67.289  1.00  0.00     0.228 C 
BRANCH   5   6
HETATM    6  C3  UNL     1      30.563   9.874  68.016  1.00  0.00     0.235 C 
HETATM    7  O1  UNL     1      30.645  11.136  68.001  1.00  0.00    -0.272 OA
HETATM    8  N2  UNL     1      29.525   9.234  68.734  1.00  0.00    -0.355 N 
ATOM      9  H2  UNL     1      29.456   8.216  68.747  1.00  0.00     0.162 HD
BRANCH   8  10
HETATM   10  C4  UNL     1      28.569  10.037  69.444  1.00  0.00     0.084 C 
HETATM   11  C5  UNL     1      29.091  10.511  70.791  1.00  0.00     0.025 C 
HETATM   12  C6  UNL     1      27.801  11.082  71.391  1.00  0.00     0.002 C 
HETATM   13  C7  UNL     1      26.810   9.998  71.065  1.00  0.00     0.002 C 
HETATM   14  C8  UNL     1      27.355   9.239  69.877  1.00  0.00     0.025 C 
ENDBRANCH   8  10
ENDBRANCH   5   6
ENDBRANCH   2   5
BRANCH   3  15
HETATM   15  C10 UNL     1      30.202   6.139  65.048  1.00  0.00     0.179 C 
HETATM   16  C11 UNL     1      29.467   4.904  65.512  1.00  0.00     0.061 C 
HETATM   17  C12 UNL     1      29.488   3.935  64.324  1.00  0.00     0.179 C 
HETATM   18  O3  UNL     1      30.787   3.459  64.238  1.00  0.00    -0.308 OA
HETATM   19  C13 UNL     1      31.721   4.477  64.119  1.00  0.00     0.445 C 
HETATM   20  F1  UNL     1      32.653   4.478  65.138  1.00  0.00    -0.154 F 
HETATM   21  F2  UNL     1      32.413   4.243  62.943  1.00  0.00    -0.154 F 
HETATM   22  N3  UNL     1      31.143   5.779  64.028  1.00  0.00    -0.324 N 
ATOM     23  H3  UNL     1      31.387   6.421  63.274  1.00  0.00     0.162 HD
ENDBRANCH   3  15
TORSDOF 4
ENDMDL
