MODEL 1
REMARK VINA RESULT: -5.225973155      0.000      0.000
REMARK  4 active torsions:
REMARK  status: ('A' for Active; 'I' for Inactive)
REMARK       I    between atoms: C1_2  and  N1_3 
REMARK    1  A    between atoms: C1_2  and  C8_15 
REMARK    2  A    between atoms: N1_3  and  C2_5 
REMARK    3  A    between atoms: C2_5  and  C3_6 
REMARK    4  A    between atoms: C2_5  and  C4_9 
ROOT
HETATM    1  C2  UNL     1      29.893   8.606  67.291  1.00  0.00     0.207 C 
ENDROOT
BRANCH   1   2
HETATM    2  N1  UNL     1      28.564   8.596  67.881  1.00  0.00    -0.345 N 
HETATM    3  C1  UNL     1      28.256   9.249  69.093  1.00  0.00     0.222 C 
HETATM    4  O1  UNL     1      29.164   9.870  69.700  1.00  0.00    -0.273 OA
ATOM      5  H1  UNL     1      27.820   8.095  67.396  1.00  0.00     0.163 HD
BRANCH   3   6
HETATM    6  C8  UNL     1      26.906   9.232  69.680  1.00  0.00     0.078 A 
HETATM    7  C9  UNL     1      26.657   9.815  71.030  1.00  0.00     0.015 A 
HETATM    8  C10 UNL     1      26.641   8.318  70.835  1.00  0.00     0.015 A 
ENDBRANCH   3   6
ENDBRANCH   1   2
BRANCH   1   9
HETATM    9  C3  UNL     1      30.054   9.642  66.278  1.00  0.00     0.198 C 
HETATM   10  O2  UNL     1      29.370   9.747  65.229  1.00  0.00    -0.646 OA
HETATM   11  O3  UNL     1      31.042  10.601  66.471  1.00  0.00    -0.646 OA
ENDBRANCH   1   9
BRANCH   1  12
HETATM   12  C4  UNL     1      30.180   7.217  66.811  1.00  0.00     0.071 C 
HETATM   13 BR1  UNL     1      31.427   7.234  65.359  1.00  0.00    -0.080 Br
HETATM   14  C5  UNL     1      30.714   6.306  67.889  1.00  0.00     0.052 C 
HETATM   15  C6  UNL     1      30.239   4.959  67.379  1.00  0.00     0.169 C 
HETATM   16  O4  UNL     1      29.279   5.182  66.437  1.00  0.00    -0.389 OA
HETATM   17  C7  UNL     1      28.890   6.495  66.471  1.00  0.00     0.191 C 
ENDBRANCH   1  12
TORSDOF 4
ENDMDL
MODEL 2
REMARK VINA RESULT: -5.224614594      2.118      3.431
REMARK  4 active torsions:
REMARK  status: ('A' for Active; 'I' for Inactive)
REMARK       I    between atoms: C1_2  and  N1_3 
REMARK    1  A    between atoms: C1_2  and  C8_15 
REMARK    2  A    between atoms: N1_3  and  C2_5 
REMARK    3  A    between atoms: C2_5  and  C3_6 
REMARK    4  A    between atoms: C2_5  and  C4_9 
ROOT
HETATM    1  C2  UNL     1      29.164   8.342  67.334  1.00  0.00     0.207 C 
ENDROOT
BRANCH   1   2
HETATM    2  N1  UNL     1      28.242   8.496  68.448  1.00  0.00    -0.345 N 
HETATM    3  C1  UNL     1      26.885   8.117  68.382  1.00  0.00     0.222 C 
HETATM    4  O1  UNL     1      26.442   7.622  67.316  1.00  0.00    -0.273 OA
ATOM      5  H1  UNL     1      28.593   8.897  69.318  1.00  0.00     0.163 HD
BRANCH   3   6
HETATM    6  C8  UNL     1      25.962   8.278  69.517  1.00  0.00     0.078 A 
HETATM    7  C9  UNL     1      26.278   9.224  70.626  1.00  0.00     0.015 A 
HETATM    8  C10 UNL     1      26.370   7.734  70.851  1.00  0.00     0.015 A 
ENDBRANCH   3   6
ENDBRANCH   1   2
BRANCH   1   9
HETATM    9  C3  UNL     1      29.555   6.954  67.112  1.00  0.00     0.198 C 
HETATM   10  O2  UNL     1      29.688   6.083  68.008  1.00  0.00    -0.646 OA
HETATM   11  O3  UNL     1      29.805   6.544  65.808  1.00  0.00    -0.646 OA
ENDBRANCH   1   9
BRANCH   1  12
HETATM   12  C4  UNL     1      30.308   9.280  67.566  1.00  0.00     0.071 C 
HETATM   13 BR1  UNL     1      29.937  10.472  69.017  1.00  0.00    -0.080 Br
HETATM   14  C5  UNL     1      31.613   8.577  67.847  1.00  0.00     0.052 C 
HETATM   15  C6  UNL     1      32.603   9.608  67.339  1.00  0.00     0.169 C 
HETATM   16  O4  UNL     1      31.921  10.493  66.557  1.00  0.00    -0.389 OA
HETATM   17  C7  UNL     1      30.670  10.005  66.285  1.00  0.00     0.191 C 
ENDBRANCH   1  12
TORSDOF 4
ENDMDL
MODEL 3
REMARK VINA RESULT: -5.172157383      1.269      1.566
REMARK  4 active torsions:
REMARK  status: ('A' for Active; 'I' for Inactive)
REMARK       I    between atoms: C1_2  and  N1_3 
REMARK    1  A    between atoms: C1_2  and  C8_15 
REMARK    2  A    between atoms: N1_3  and  C2_5 
REMARK    3  A    between atoms: C2_5  and  C3_6 
REMARK    4  A    between atoms: C2_5  and  C4_9 
ROOT
HETATM    1  C2  UNL     1      29.892   8.673  67.371  1.00  0.00     0.207 C 
ENDROOT
BRANCH   1   2
HETATM    2  N1  UNL     1      28.590   8.736  68.017  1.00  0.00    -0.345 N 
HETATM    3  C1  UNL     1      28.377   9.373  69.257  1.00  0.00     0.222 C 
HETATM    4  O1  UNL     1      29.349   9.914  69.839  1.00  0.00    -0.273 OA
ATOM      5  H1  UNL     1      27.795   8.299  67.552  1.00  0.00     0.163 HD
BRANCH   3   6
HETATM    6  C8  UNL     1      27.054   9.430  69.900  1.00  0.00     0.078 A 
HETATM    7  C9  UNL     1      26.625   8.365  70.852  1.00  0.00     0.015 A 
HETATM    8  C10 UNL     1      26.010   8.445  69.475  1.00  0.00     0.015 A 
ENDBRANCH   3   6
ENDBRANCH   1   2
BRANCH   1   9
HETATM    9  C3  UNL     1      30.042   9.658  66.307  1.00  0.00     0.198 C 
HETATM   10  O2  UNL     1      29.311   9.748  65.289  1.00  0.00    -0.646 OA
HETATM   11  O3  UNL     1      31.075  10.582  66.409  1.00  0.00    -0.646 OA
ENDBRANCH   1   9
BRANCH   1  12
HETATM   12  C4  UNL     1      30.110   7.255  66.941  1.00  0.00     0.071 C 
HETATM   13 BR1  UNL     1      28.448   6.318  66.791  1.00  0.00    -0.080 Br
HETATM   14  C5  UNL     1      30.848   7.132  65.631  1.00  0.00     0.052 C 
HETATM   15  C6  UNL     1      31.518   5.783  65.811  1.00  0.00     0.169 C 
HETATM   16  O4  UNL     1      31.472   5.467  67.137  1.00  0.00    -0.389 OA
HETATM   17  C7  UNL     1      31.095   6.565  67.864  1.00  0.00     0.191 C 
ENDBRANCH   1  12
TORSDOF 4
ENDMDL
MODEL 4
REMARK VINA RESULT: -5.036186241      2.501      3.840
REMARK  4 active torsions:
REMARK  status: ('A' for Active; 'I' for Inactive)
REMARK       I    between atoms: C1_2  and  N1_3 
REMARK    1  A    between atoms: C1_2  and  C8_15 
REMARK    2  A    between atoms: N1_3  and  C2_5 
REMARK    3  A    between atoms: C2_5  and  C3_6 
REMARK    4  A    between atoms: C2_5  and  C4_9 
ROOT
HETATM    1  C2  UNL     1      30.420   9.460  67.482  1.00  0.00     0.207 C 
ENDROOT
BRANCH   1   2
HETATM    2  N1  UNL     1      29.975   9.679  68.849  1.00  0.00    -0.345 N 
HETATM    3  C1  UNL     1      28.649   9.450  69.272  1.00  0.00     0.222 C 
HETATM    4  O1  UNL     1      27.806   9.037  68.438  1.00  0.00    -0.273 OA
ATOM      5  H1  UNL     1      30.653  10.015  69.533  1.00  0.00     0.163 HD
BRANCH   3   6
HETATM    6  C8  UNL     1      28.211   9.675  70.659  1.00  0.00     0.078 A 
HETATM    7  C9  UNL     1      26.791  10.018  70.962  1.00  0.00     0.015 A 
HETATM    8  C10 UNL     1      27.868  11.069  71.083  1.00  0.00     0.015 A 
ENDBRANCH   3   6
ENDBRANCH   1   2
BRANCH   1   9
HETATM    9  C3  UNL     1      30.732   8.062  67.206  1.00  0.00     0.198 C 
HETATM   10  O2  UNL     1      31.173   7.236  68.044  1.00  0.00    -0.646 OA
HETATM   11  O3  UNL     1      30.532   7.587  65.916  1.00  0.00    -0.646 OA
ENDBRANCH   1   9
BRANCH   1  12
HETATM   12  C4  UNL     1      31.547  10.412  67.220  1.00  0.00     0.071 C 
HETATM   13 BR1  UNL     1      31.467  11.915  68.402  1.00  0.00    -0.080 Br
HETATM   14  C5  UNL     1      32.910   9.777  67.345  1.00  0.00     0.052 C 
HETATM   15  C6  UNL     1      33.713  10.647  66.398  1.00  0.00     0.169 C 
HETATM   16  O4  UNL     1      32.834  11.333  65.613  1.00  0.00    -0.389 OA
HETATM   17  C7  UNL     1      31.576  10.812  65.757  1.00  0.00     0.191 C 
ENDBRANCH   1  12
TORSDOF 4
ENDMDL
MODEL 5
REMARK VINA RESULT: -5.032165383      1.727      3.427
REMARK  4 active torsions:
REMARK  status: ('A' for Active; 'I' for Inactive)
REMARK       I    between atoms: C1_2  and  N1_3 
REMARK    1  A    between atoms: C1_2  and  C8_15 
REMARK    2  A    between atoms: N1_3  and  C2_5 
REMARK    3  A    between atoms: C2_5  and  C3_6 
REMARK    4  A    between atoms: C2_5  and  C4_9 
ROOT
HETATM    1  C2  UNL     1      29.250   7.467  66.991  1.00  0.00     0.207 C 
ENDROOT
BRANCH   1   2
HETATM    2  N1  UNL     1      28.676   8.090  68.173  1.00  0.00    -0.345 N 
HETATM    3  C1  UNL     1      27.301   8.034  68.480  1.00  0.00     0.222 C 
HETATM    4  O1  UNL     1      26.527   7.421  67.705  1.00  0.00    -0.273 OA
ATOM      5  H1  UNL     1      29.297   8.591  68.808  1.00  0.00     0.163 HD
BRANCH   3   6
HETATM    6  C8  UNL     1      26.732   8.669  69.681  1.00  0.00     0.078 A 
HETATM    7  C9  UNL     1      26.338   7.846  70.861  1.00  0.00     0.015 A 
HETATM    8  C10 UNL     1      25.279   8.462  69.977  1.00  0.00     0.015 A 
ENDBRANCH   3   6
ENDBRANCH   1   2
BRANCH   1   9
HETATM    9  C3  UNL     1      29.373   6.019  67.118  1.00  0.00     0.198 C 
HETATM   10  O2  UNL     1      30.044   5.420  67.995  1.00  0.00    -0.646 OA
HETATM   11  O3  UNL     1      28.699   5.220  66.202  1.00  0.00    -0.646 OA
ENDBRANCH   1   9
BRANCH   1  12
HETATM   12  C4  UNL     1      30.535   8.175  66.690  1.00  0.00     0.071 C 
HETATM   13 BR1  UNL     1      31.484   7.307  65.273  1.00  0.00    -0.080 Br
HETATM   14  C5  UNL     1      30.349   9.627  66.322  1.00  0.00     0.052 C 
HETATM   15  C6  UNL     1      31.678  10.203  66.771  1.00  0.00     0.169 C 
HETATM   16  O4  UNL     1      32.269   9.295  67.600  1.00  0.00    -0.389 OA
HETATM   17  C7  UNL     1      31.366   8.327  67.950  1.00  0.00     0.191 C 
ENDBRANCH   1  12
TORSDOF 4
ENDMDL
