MODEL 1
REMARK VINA RESULT: -6.912016612      0.000      0.000
REMARK  4 active torsions:
REMARK  status: ('A' for Active; 'I' for Inactive)
REMARK    1  A    between atoms: C1_2  and  C2_4 
REMARK    2  A    between atoms: C4_6  and  C5_7 
REMARK    3  A    between atoms: C5_7  and  C6_8 
REMARK       I    between atoms: N2_12  and  C8_13 
REMARK    4  A    between atoms: C8_13  and  C9_15 
ROOT
HETATM    1  C2  UNL     1      31.667   8.861  67.059  1.00  0.00     0.176 C 
HETATM    2  C3  UNL     1      32.852   9.685  66.685  1.00  0.00     0.041 C 
HETATM    3  C4  UNL     1      32.788  10.839  67.646  1.00  0.00     0.016 C 
HETATM    4  C7  UNL     1      31.264  11.035  67.720  1.00  0.00     0.132 C 
HETATM    5  N2  UNL     1      30.743   9.690  67.786  1.00  0.00    -0.338 N 
HETATM    6  C8  UNL     1      29.579   9.264  68.429  1.00  0.00     0.224 C 
HETATM    7  O4  UNL     1      29.331   7.996  68.355  1.00  0.00    -0.273 OA
ENDROOT
BRANCH   1   8
HETATM    8  C1  UNL     1      31.066   8.164  65.901  1.00  0.00     0.254 C 
HETATM    9  N1  UNL     1      30.280   8.723  64.894  1.00  0.00    -0.060 NA
HETATM   10  O1  UNL     1      31.307   6.915  65.832  1.00  0.00    -0.275 OA
ENDBRANCH   1   8
BRANCH   6  11
HETATM   11  C9  UNL     1      28.603  10.030  69.172  1.00  0.00     0.081 C 
HETATM   12  C10 UNL     1      27.401   9.178  69.499  1.00  0.00     0.017 C 
HETATM   13  C11 UNL     1      27.004   9.492  70.916  1.00  0.00     0.038 C 
HETATM   14  C12 UNL     1      27.667  10.813  71.186  1.00  0.00     0.171 C 
HETATM   15  F1  UNL     1      27.937  10.972  72.546  1.00  0.00    -0.249 F 
HETATM   16  C13 UNL     1      29.023  10.615  70.485  1.00  0.00     0.051 C 
ENDBRANCH   6  11
BRANCH   3  17
HETATM   17  C5  UNL     1      33.333  12.127  67.061  1.00  0.00     0.119 C 
BRANCH  17  18
HETATM   18  C6  UNL     1      34.400  12.725  67.869  1.00  0.00     0.172 C 
HETATM   19  O2  UNL     1      34.214  13.850  68.393  1.00  0.00    -0.648 OA
HETATM   20  O3  UNL     1      35.594  12.046  68.041  1.00  0.00    -0.648 OA
ENDBRANCH  17  18
ENDBRANCH   3  17
TORSDOF 4
ENDMDL
MODEL 2
REMARK VINA RESULT: -6.830949250      2.059      4.712
REMARK  4 active torsions:
REMARK  status: ('A' for Active; 'I' for Inactive)
REMARK    1  A    between atoms: C1_2  and  C2_4 
REMARK    2  A    between atoms: C4_6  and  C5_7 
REMARK    3  A    between atoms: C5_7  and  C6_8 
REMARK       I    between atoms: N2_12  and  C8_13 
REMARK    4  A    between atoms: C8_13  and  C9_15 
ROOT
HETATM    1  C2  UNL     1      31.339  10.110  66.598  1.00  0.00     0.176 C 
HETATM    2  C3  UNL     1      31.575   9.021  65.607  1.00  0.00     0.041 C 
HETATM    3  C4  UNL     1      30.478   8.037  65.905  1.00  0.00     0.016 C 
HETATM    4  C7  UNL     1      30.421   8.166  67.437  1.00  0.00     0.132 C 
HETATM    5  N2  UNL     1      30.538   9.587  67.672  1.00  0.00    -0.338 N 
HETATM    6  C8  UNL     1      29.984  10.318  68.723  1.00  0.00     0.224 C 
HETATM    7  O4  UNL     1      30.224  11.590  68.707  1.00  0.00    -0.273 OA
ENDROOT
BRANCH   1   8
HETATM    8  C1  UNL     1      32.591  10.759  67.043  1.00  0.00     0.254 C 
HETATM    9  N1  UNL     1      32.914  12.113  66.967  1.00  0.00    -0.060 NA
HETATM   10  O1  UNL     1      33.459   9.977  67.551  1.00  0.00    -0.275 OA
ENDBRANCH   1   8
BRANCH   6  11
HETATM   11  C9  UNL     1      29.176   9.868  69.835  1.00  0.00     0.081 C 
HETATM   12  C10 UNL     1      29.029  10.967  70.860  1.00  0.00     0.017 C 
HETATM   13  C11 UNL     1      27.598  10.954  71.327  1.00  0.00     0.038 C 
HETATM   14  C12 UNL     1      27.109   9.589  70.928  1.00  0.00     0.171 C 
HETATM   15  F1  UNL     1      25.731   9.594  70.710  1.00  0.00    -0.249 F 
HETATM   16  C13 UNL     1      27.775   9.425  69.550  1.00  0.00     0.051 C 
ENDBRANCH   6  11
BRANCH   3  17
HETATM   17  C5  UNL     1      30.882   6.602  65.636  1.00  0.00     0.119 C 
BRANCH  17  18
HETATM   18  C6  UNL     1      29.811   5.800  65.036  1.00  0.00     0.172 C 
HETATM   19  O2  UNL     1      29.884   5.492  63.821  1.00  0.00    -0.648 OA
HETATM   20  O3  UNL     1      28.738   5.397  65.812  1.00  0.00    -0.648 OA
ENDBRANCH  17  18
ENDBRANCH   3  17
TORSDOF 4
ENDMDL
MODEL 3
REMARK VINA RESULT: -6.582295314      2.092      4.448
REMARK  4 active torsions:
REMARK  status: ('A' for Active; 'I' for Inactive)
REMARK    1  A    between atoms: C1_2  and  C2_4 
REMARK    2  A    between atoms: C4_6  and  C5_7 
REMARK    3  A    between atoms: C5_7  and  C6_8 
REMARK       I    between atoms: N2_12  and  C8_13 
REMARK    4  A    between atoms: C8_13  and  C9_15 
ROOT
HETATM    1  C2  UNL     1      31.199  10.074  66.437  1.00  0.00     0.176 C 
HETATM    2  C3  UNL     1      31.293   9.029  65.378  1.00  0.00     0.041 C 
HETATM    3  C4  UNL     1      30.132   8.123  65.681  1.00  0.00     0.016 C 
HETATM    4  C7  UNL     1      30.160   8.167  67.219  1.00  0.00     0.132 C 
HETATM    5  N2  UNL     1      30.410   9.557  67.523  1.00  0.00    -0.338 N 
HETATM    6  C8  UNL     1      29.972  10.269  68.641  1.00  0.00     0.224 C 
HETATM    7  O4  UNL     1      30.319  11.516  68.680  1.00  0.00    -0.273 OA
ENDROOT
BRANCH   1   8
HETATM    8  C1  UNL     1      32.522  10.591  66.849  1.00  0.00     0.254 C 
HETATM    9  N1  UNL     1      33.040  11.864  66.621  1.00  0.00    -0.060 NA
HETATM   10  O1  UNL     1      33.256   9.764  67.483  1.00  0.00    -0.275 OA
ENDBRANCH   1   8
BRANCH   6  11
HETATM   11  C9  UNL     1      29.185   9.824  69.769  1.00  0.00     0.081 C 
HETATM   12  C10 UNL     1      29.133  10.894  70.832  1.00  0.00     0.017 C 
HETATM   13  C11 UNL     1      27.721  10.936  71.353  1.00  0.00     0.038 C 
HETATM   14  C12 UNL     1      27.148   9.613  70.931  1.00  0.00     0.171 C 
HETATM   15  F1  UNL     1      25.764   9.694  70.767  1.00  0.00    -0.249 F 
HETATM   16  C13 UNL     1      27.753   9.461  69.524  1.00  0.00     0.051 C 
ENDBRANCH   6  11
BRANCH   3  17
HETATM   17  C5  UNL     1      30.398   6.677  65.314  1.00  0.00     0.119 C 
BRANCH  17  18
HETATM   18  C6  UNL     1      30.956   6.514  63.968  1.00  0.00     0.172 C 
HETATM   19  O2  UNL     1      32.112   6.042  63.837  1.00  0.00    -0.648 OA
HETATM   20  O3  UNL     1      30.206   6.882  62.864  1.00  0.00    -0.648 OA
ENDBRANCH  17  18
ENDBRANCH   3  17
TORSDOF 4
ENDMDL
MODEL 4
REMARK VINA RESULT: -6.510179754      2.939      6.158
REMARK  4 active torsions:
REMARK  status: ('A' for Active; 'I' for Inactive)
REMARK    1  A    between atoms: C1_2  and  C2_4 
REMARK    2  A    between atoms: C4_6  and  C5_7 
REMARK    3  A    between atoms: C5_7  and  C6_8 
REMARK       I    between atoms: N2_12  and  C8_13 
REMARK    4  A    between atoms: C8_13  and  C9_15 
ROOT
HETATM    1  C2  UNL     1      28.870   8.172  67.396  1.00  0.00     0.176 C 
HETATM    2  C3  UNL     1      27.715   8.166  68.340  1.00  0.00     0.041 C 
HETATM    3  C4  UNL     1      27.895   9.441  69.116  1.00  0.00     0.016 C 
HETATM    4  C7  UNL     1      29.430   9.468  69.222  1.00  0.00     0.132 C 
HETATM    5  N2  UNL     1      29.877   9.061  67.910  1.00  0.00    -0.338 N 
HETATM    6  C8  UNL     1      31.048   9.451  67.257  1.00  0.00     0.224 C 
HETATM    7  O4  UNL     1      31.220   8.955  66.074  1.00  0.00    -0.273 OA
ENDROOT
BRANCH   1   8
HETATM    8  C1  UNL     1      29.367   6.812  67.093  1.00  0.00     0.254 C 
HETATM    9  N1  UNL     1      30.205   6.025  67.880  1.00  0.00    -0.060 NA
HETATM   10  O1  UNL     1      28.973   6.324  65.984  1.00  0.00    -0.275 OA
ENDBRANCH   1   8
BRANCH   6  11
HETATM   11  C9  UNL     1      32.104  10.332  67.705  1.00  0.00     0.081 C 
HETATM   12  C10 UNL     1      33.326  10.176  66.833  1.00  0.00     0.017 C 
HETATM   13  C11 UNL     1      33.874  11.555  66.582  1.00  0.00     0.038 C 
HETATM   14  C12 UNL     1      33.255  12.386  67.671  1.00  0.00     0.171 C 
HETATM   15  F1  UNL     1      33.132  13.719  67.279  1.00  0.00    -0.249 F 
HETATM   16  C13 UNL     1      31.832  11.804  67.717  1.00  0.00     0.051 C 
ENDBRANCH   6  11
BRANCH   3  17
HETATM   17  C5  UNL     1      27.394   9.341  70.542  1.00  0.00     0.119 C 
BRANCH  17  18
HETATM   18  C6  UNL     1      26.220   8.474  70.685  1.00  0.00     0.172 C 
HETATM   19  O2  UNL     1      26.301   7.448  71.404  1.00  0.00    -0.648 OA
HETATM   20  O3  UNL     1      25.045   8.795  70.027  1.00  0.00    -0.648 OA
ENDBRANCH  17  18
ENDBRANCH   3  17
TORSDOF 4
ENDMDL
MODEL 5
REMARK VINA RESULT: -6.420454350      2.844      5.595
REMARK  4 active torsions:
REMARK  status: ('A' for Active; 'I' for Inactive)
REMARK    1  A    between atoms: C1_2  and  C2_4 
REMARK    2  A    between atoms: C4_6  and  C5_7 
REMARK    3  A    between atoms: C5_7  and  C6_8 
REMARK       I    between atoms: N2_12  and  C8_13 
REMARK    4  A    between atoms: C8_13  and  C9_15 
ROOT
HETATM    1  C2  UNL     1      29.175   8.310  67.159  1.00  0.00     0.176 C 
HETATM    2  C3  UNL     1      28.032   8.256  68.115  1.00  0.00     0.041 C 
HETATM    3  C4  UNL     1      28.217   9.494  68.947  1.00  0.00     0.016 C 
HETATM    4  C7  UNL     1      29.753   9.524  69.036  1.00  0.00     0.132 C 
HETATM    5  N2  UNL     1      30.185   9.180  67.701  1.00  0.00    -0.338 N 
HETATM    6  C8  UNL     1      31.345   9.605  67.053  1.00  0.00     0.224 C 
HETATM    7  O4  UNL     1      31.505   9.165  65.845  1.00  0.00    -0.273 OA
ENDROOT
BRANCH   1   8
HETATM    8  C1  UNL     1      29.673   6.969  66.787  1.00  0.00     0.254 C 
HETATM    9  N1  UNL     1      29.618   6.365  65.532  1.00  0.00    -0.060 NA
HETATM   10  O1  UNL     1      30.211   6.306  67.733  1.00  0.00    -0.275 OA
ENDBRANCH   1   8
BRANCH   6  11
HETATM   11  C9  UNL     1      32.404  10.468  67.527  1.00  0.00     0.081 C 
HETATM   12  C10 UNL     1      33.614  10.362  66.632  1.00  0.00     0.017 C 
HETATM   13  C11 UNL     1      34.152  11.754  66.440  1.00  0.00     0.038 C 
HETATM   14  C12 UNL     1      33.544  12.528  67.577  1.00  0.00     0.171 C 
HETATM   15  F1  UNL     1      33.409  13.878  67.251  1.00  0.00    -0.249 F 
HETATM   16  C13 UNL     1      32.124  11.937  67.614  1.00  0.00     0.051 C 
ENDBRANCH   6  11
BRANCH   3  17
HETATM   17  C5  UNL     1      27.733   9.326  70.374  1.00  0.00     0.119 C 
BRANCH  17  18
HETATM   18  C6  UNL     1      27.568  10.598  71.084  1.00  0.00     0.172 C 
HETATM   19  O2  UNL     1      26.420  10.949  71.451  1.00  0.00    -0.648 OA
HETATM   20  O3  UNL     1      28.673  11.391  71.338  1.00  0.00    -0.648 OA
ENDBRANCH  17  18
ENDBRANCH   3  17
TORSDOF 4
ENDMDL
