MODEL 1
REMARK VINA RESULT: -8.878575561      0.000      0.000
REMARK  11 active torsions:
REMARK  status: ('A' for Active; 'I' for Inactive)
REMARK    1  A    between atoms: C2_2  and  C3_3 
REMARK    2  A    between atoms: C3_3  and  C4_4 
REMARK    3  A    between atoms: C4_4  and  C5_5 
REMARK    4  A    between atoms: C5_5  and  C6_6 
REMARK    5  A    between atoms: C6_6  and  C7_7 
REMARK    6  A    between atoms: C7_7  and  C8_8 
REMARK    7  A    between atoms: C8_8  and  C9_9 
REMARK    8  A    between atoms: C9_9  and  C10_10 
REMARK    9  A    between atoms: C10_10  and  C11_11 
REMARK   10  A    between atoms: C10_10  and  C22_32 
REMARK   11  A    between atoms: C11_11  and  N1_12 
ROOT
HETATM    1  N1  UNL     1      16.897   8.650  10.196  1.00  0.00    -0.327 N 
HETATM    2  C12 UNL     1      18.068   7.854  10.616  1.00  0.00     0.359 C 
HETATM    3  N2  UNL     1      17.585   6.501  10.803  1.00  0.00    -0.059 N 
ATOM      4  H21 UNL     1      16.717   6.479  11.339  1.00  0.00     0.279 HD
ATOM      5  H22 UNL     1      18.174   5.973  11.447  1.00  0.00     0.279 HD
HETATM    6  C13 UNL     1      17.447   5.835   9.531  1.00  0.00     0.240 C 
HETATM    7  C14 UNL     1      16.081   5.972   8.941  1.00  0.00     0.029 C 
HETATM    8  C15 UNL     1      15.780   4.822   8.043  1.00  0.00     0.053 C 
HETATM    9  C16 UNL     1      16.553   4.842   6.787  1.00  0.00     0.036 A 
HETATM   10  C17 UNL     1      16.967   6.020   6.255  1.00  0.00     0.038 A 
HETATM   11  N3  UNL     1      17.641   5.756   5.126  1.00  0.00    -0.301 N 
ATOM     12  H3  UNL     1      18.069   6.450   4.513  1.00  0.00     0.186 HD
HETATM   13  N4  UNL     1      17.656   4.445   4.941  1.00  0.00    -0.266 N 
ATOM     14  H4  UNL     1      18.098   3.962   4.159  1.00  0.00     0.190 HD
HETATM   15  C18 UNL     1      16.989   3.854   5.954  1.00  0.00     0.268 A 
HETATM   16  O1  UNL     1      16.814   2.616   6.088  1.00  0.00    -0.266 OA
HETATM   17  C19 UNL     1      16.677   7.298   6.886  1.00  0.00     0.074 C 
HETATM   18  C20 UNL     1      15.903   7.247   8.155  1.00  0.00     0.089 C 
HETATM   19  C21 UNL     1      16.226   8.446   8.968  1.00  0.00     0.226 C 
HETATM   20  O2  UNL     1      15.809   9.546   8.450  1.00  0.00    -0.273 OA
ENDROOT
BRANCH   1  21
HETATM   21  C11 UNL     1      16.444   9.653  11.126  1.00  0.00     0.141 C 
BRANCH  21  22
HETATM   22  C10 UNL     1      15.132   9.510  11.743  1.00  0.00     0.093 C 
BRANCH  22  23
HETATM   23  C9  UNL     1      15.319   9.271  13.242  1.00  0.00     0.015 C 
BRANCH  23  24
HETATM   24  C8  UNL     1      15.470   7.834  13.605  1.00  0.00     0.001 C 
BRANCH  24  25
HETATM   25  C7  UNL     1      14.483   7.520  14.711  1.00  0.00     0.000 C 
BRANCH  25  26
HETATM   26  C6  UNL     1      13.952   8.790  15.376  1.00  0.00     0.000 C 
BRANCH  26  27
HETATM   27  C5  UNL     1      13.596   8.552  16.813  1.00  0.00     0.000 C 
BRANCH  27  28
HETATM   28  C4  UNL     1      13.221   9.857  17.456  1.00  0.00     0.000 C 
BRANCH  28  29
HETATM   29  C3  UNL     1      12.821  10.891  16.463  1.00  0.00    -0.000 C 
BRANCH  29  30
HETATM   30  C2  UNL     1      11.714  11.792  17.013  1.00  0.00    -0.005 C 
HETATM   31  C1  UNL     1      11.107  11.196  18.261  1.00  0.00     0.005 C 
ENDBRANCH  29  30
ENDBRANCH  28  29
ENDBRANCH  27  28
ENDBRANCH  26  27
ENDBRANCH  25  26
ENDBRANCH  24  25
ENDBRANCH  23  24
ENDBRANCH  22  23
BRANCH  22  32
HETATM   32  C22 UNL     1      14.096  10.511  11.499  1.00  0.00     0.236 C 
HETATM   33  N5  UNL     1      13.484  11.168  12.638  1.00  0.00    -0.062 NA
HETATM   34  O3  UNL     1      13.734  10.810  10.344  1.00  0.00    -0.276 OA
ENDBRANCH  22  32
ENDBRANCH  21  22
ENDBRANCH   1  21
TORSDOF 11
ENDMDL
MODEL 2
REMARK VINA RESULT: -8.645658802      1.870      3.607
REMARK  11 active torsions:
REMARK  status: ('A' for Active; 'I' for Inactive)
REMARK    1  A    between atoms: C2_2  and  C3_3 
REMARK    2  A    between atoms: C3_3  and  C4_4 
REMARK    3  A    between atoms: C4_4  and  C5_5 
REMARK    4  A    between atoms: C5_5  and  C6_6 
REMARK    5  A    between atoms: C6_6  and  C7_7 
REMARK    6  A    between atoms: C7_7  and  C8_8 
REMARK    7  A    between atoms: C8_8  and  C9_9 
REMARK    8  A    between atoms: C9_9  and  C10_10 
REMARK    9  A    between atoms: C10_10  and  C11_11 
REMARK   10  A    between atoms: C10_10  and  C22_32 
REMARK   11  A    between atoms: C11_11  and  N1_12 
ROOT
HETATM    1  N1  UNL     1      16.900   8.658  10.218  1.00  0.00    -0.327 N 
HETATM    2  C12 UNL     1      18.085   7.878  10.632  1.00  0.00     0.359 C 
HETATM    3  N2  UNL     1      17.618   6.521  10.836  1.00  0.00    -0.059 N 
ATOM      4  H21 UNL     1      16.757   6.494  11.381  1.00  0.00     0.279 HD
ATOM      5  H22 UNL     1      18.220   6.005  11.478  1.00  0.00     0.279 HD
HETATM    6  C13 UNL     1      17.474   5.843   9.571  1.00  0.00     0.240 C 
HETATM    7  C14 UNL     1      16.100   5.961   8.994  1.00  0.00     0.029 C 
HETATM    8  C15 UNL     1      15.802   4.799   8.110  1.00  0.00     0.053 C 
HETATM    9  C16 UNL     1      16.561   4.817   6.845  1.00  0.00     0.036 A 
HETATM   10  C17 UNL     1      16.957   5.995   6.299  1.00  0.00     0.038 A 
HETATM   11  N3  UNL     1      17.621   5.730   5.165  1.00  0.00    -0.301 N 
ATOM     12  H3  UNL     1      18.035   6.423   4.541  1.00  0.00     0.186 HD
HETATM   13  N4  UNL     1      17.648   4.417   4.990  1.00  0.00    -0.266 N 
ATOM     14  H4  UNL     1      18.087   3.932   4.208  1.00  0.00     0.190 HD
HETATM   15  C18 UNL     1      16.999   3.827   6.015  1.00  0.00     0.268 A 
HETATM   16  O1  UNL     1      16.838   2.588   6.161  1.00  0.00    -0.266 OA
HETATM   17  C19 UNL     1      16.659   7.276   6.922  1.00  0.00     0.074 C 
HETATM   18  C20 UNL     1      15.900   7.227   8.199  1.00  0.00     0.089 C 
HETATM   19  C21 UNL     1      16.219   8.436   9.000  1.00  0.00     0.226 C 
HETATM   20  O2  UNL     1      15.784   9.527   8.476  1.00  0.00    -0.273 OA
ENDROOT
BRANCH   1  21
HETATM   21  C11 UNL     1      16.447   9.664  11.144  1.00  0.00     0.141 C 
BRANCH  21  22
HETATM   22  C10 UNL     1      15.140   9.515  11.772  1.00  0.00     0.093 C 
BRANCH  22  23
HETATM   23  C9  UNL     1      15.338   9.315  13.275  1.00  0.00     0.015 C 
BRANCH  23  24
HETATM   24  C8  UNL     1      15.512   7.889  13.671  1.00  0.00     0.001 C 
BRANCH  24  25
HETATM   25  C7  UNL     1      14.767   7.666  14.971  1.00  0.00     0.000 C 
BRANCH  25  26
HETATM   26  C6  UNL     1      13.890   6.415  14.916  1.00  0.00     0.000 C 
BRANCH  26  27
HETATM   27  C5  UNL     1      14.715   5.166  14.838  1.00  0.00     0.000 C 
BRANCH  27  28
HETATM   28  C4  UNL     1      14.214   4.306  13.712  1.00  0.00     0.000 C 
BRANCH  28  29
HETATM   29  C3  UNL     1      15.007   4.480  12.463  1.00  0.00    -0.000 C 
BRANCH  29  30
HETATM   30  C2  UNL     1      15.263   3.136  11.776  1.00  0.00    -0.005 C 
HETATM   31  C1  UNL     1      16.744   2.884  11.627  1.00  0.00     0.005 C 
ENDBRANCH  29  30
ENDBRANCH  28  29
ENDBRANCH  27  28
ENDBRANCH  26  27
ENDBRANCH  25  26
ENDBRANCH  24  25
ENDBRANCH  23  24
ENDBRANCH  22  23
BRANCH  22  32
HETATM   32  C22 UNL     1      14.088  10.494  11.510  1.00  0.00     0.236 C 
HETATM   33  N5  UNL     1      13.466  11.162  12.637  1.00  0.00    -0.062 NA
HETATM   34  O3  UNL     1      13.721  10.766  10.350  1.00  0.00    -0.276 OA
ENDBRANCH  22  32
ENDBRANCH  21  22
ENDBRANCH   1  21
TORSDOF 11
ENDMDL
MODEL 3
REMARK VINA RESULT: -8.448914482      3.209      5.946
REMARK  11 active torsions:
REMARK  status: ('A' for Active; 'I' for Inactive)
REMARK    1  A    between atoms: C2_2  and  C3_3 
REMARK    2  A    between atoms: C3_3  and  C4_4 
REMARK    3  A    between atoms: C4_4  and  C5_5 
REMARK    4  A    between atoms: C5_5  and  C6_6 
REMARK    5  A    between atoms: C6_6  and  C7_7 
REMARK    6  A    between atoms: C7_7  and  C8_8 
REMARK    7  A    between atoms: C8_8  and  C9_9 
REMARK    8  A    between atoms: C9_9  and  C10_10 
REMARK    9  A    between atoms: C10_10  and  C11_11 
REMARK   10  A    between atoms: C10_10  and  C22_32 
REMARK   11  A    between atoms: C11_11  and  N1_12 
ROOT
HETATM    1  N1  UNL     1      13.720  10.116  14.536  1.00  0.00    -0.327 N 
HETATM    2  C12 UNL     1      12.849  10.860  13.603  1.00  0.00     0.359 C 
HETATM    3  N2  UNL     1      13.704  11.825  12.941  1.00  0.00    -0.059 N 
ATOM      4  H21 UNL     1      14.303  12.317  13.602  1.00  0.00     0.279 HD
ATOM      5  H22 UNL     1      13.175  12.624  12.592  1.00  0.00     0.279 HD
HETATM    6  C13 UNL     1      14.467  11.187  11.896  1.00  0.00     0.240 C 
HETATM    7  C14 UNL     1      15.802  10.699  12.358  1.00  0.00     0.029 C 
HETATM    8  C15 UNL     1      16.766  10.656  11.223  1.00  0.00     0.053 C 
HETATM    9  C16 UNL     1      16.477   9.585  10.251  1.00  0.00     0.036 A 
HETATM   10  C17 UNL     1      15.855   8.446  10.649  1.00  0.00     0.038 A 
HETATM   11  N3  UNL     1      15.716   7.649   9.580  1.00  0.00    -0.301 N 
ATOM     12  H3  UNL     1      15.283   6.725   9.579  1.00  0.00     0.186 HD
HETATM   13  N4  UNL     1      16.236   8.261   8.527  1.00  0.00    -0.266 N 
ATOM     14  H4  UNL     1      16.270   7.885   7.579  1.00  0.00     0.190 HD
HETATM   15  C18 UNL     1      16.715   9.462   8.913  1.00  0.00     0.268 A 
HETATM   16  O1  UNL     1      17.275  10.300   8.161  1.00  0.00    -0.266 OA
HETATM   17  C19 UNL     1      15.448   8.229  12.028  1.00  0.00     0.074 C 
HETATM   18  C20 UNL     1      15.744   9.328  12.984  1.00  0.00     0.089 C 
HETATM   19  C21 UNL     1      14.770   9.274  14.103  1.00  0.00     0.226 C 
HETATM   20  O2  UNL     1      14.901   8.234  14.848  1.00  0.00    -0.273 OA
ENDROOT
BRANCH   1  21
HETATM   21  C11 UNL     1      13.461  10.310  15.939  1.00  0.00     0.141 C 
BRANCH  21  22
HETATM   22  C10 UNL     1      12.680  11.464  16.365  1.00  0.00     0.093 C 
BRANCH  22  23
HETATM   23  C9  UNL     1      11.778  11.046  17.527  1.00  0.00     0.015 C 
BRANCH  23  24
HETATM   24  C8  UNL     1      12.316   9.905  18.321  1.00  0.00     0.001 C 
BRANCH  24  25
HETATM   25  C7  UNL     1      12.044  10.181  19.786  1.00  0.00     0.000 C 
BRANCH  25  26
HETATM   26  C6  UNL     1      10.987   9.236  20.355  1.00  0.00     0.000 C 
BRANCH  26  27
HETATM   27  C5  UNL     1      11.593   8.223  21.280  1.00  0.00     0.000 C 
BRANCH  27  28
HETATM   28  C4  UNL     1      11.740   6.913  20.559  1.00  0.00     0.000 C 
BRANCH  28  29
HETATM   29  C3  UNL     1      13.146   6.638  20.153  1.00  0.00    -0.000 C 
BRANCH  29  30
HETATM   30  C2  UNL     1      14.140   7.296  21.111  1.00  0.00    -0.005 C 
HETATM   31  C1  UNL     1      15.146   8.128  20.352  1.00  0.00     0.005 C 
ENDBRANCH  29  30
ENDBRANCH  28  29
ENDBRANCH  27  28
ENDBRANCH  26  27
ENDBRANCH  25  26
ENDBRANCH  24  25
ENDBRANCH  23  24
ENDBRANCH  22  23
BRANCH  22  32
HETATM   32  C22 UNL     1      13.348  12.731  16.653  1.00  0.00     0.236 C 
HETATM   33  N5  UNL     1      13.589  13.653  15.560  1.00  0.00    -0.062 NA
HETATM   34  O3  UNL     1      13.708  13.034  17.808  1.00  0.00    -0.276 OA
ENDBRANCH  22  32
ENDBRANCH  21  22
ENDBRANCH   1  21
TORSDOF 11
ENDMDL
MODEL 4
REMARK VINA RESULT: -8.379675564      6.442     12.801
REMARK  11 active torsions:
REMARK  status: ('A' for Active; 'I' for Inactive)
REMARK    1  A    between atoms: C2_2  and  C3_3 
REMARK    2  A    between atoms: C3_3  and  C4_4 
REMARK    3  A    between atoms: C4_4  and  C5_5 
REMARK    4  A    between atoms: C5_5  and  C6_6 
REMARK    5  A    between atoms: C6_6  and  C7_7 
REMARK    6  A    between atoms: C7_7  and  C8_8 
REMARK    7  A    between atoms: C8_8  and  C9_9 
REMARK    8  A    between atoms: C9_9  and  C10_10 
REMARK    9  A    between atoms: C10_10  and  C11_11 
REMARK   10  A    between atoms: C10_10  and  C22_32 
REMARK   11  A    between atoms: C11_11  and  N1_12 
ROOT
HETATM    1  N1  UNL     1      12.758  10.120  19.068  1.00  0.00    -0.327 N 
HETATM    2  C12 UNL     1      13.410  11.322  19.626  1.00  0.00     0.359 C 
HETATM    3  N2  UNL     1      12.346  12.273  19.875  1.00  0.00    -0.059 N 
ATOM      4  H21 UNL     1      11.707  12.345  19.083  1.00  0.00     0.279 HD
ATOM      5  H22 UNL     1      12.689  13.234  19.879  1.00  0.00     0.279 HD
HETATM    6  C13 UNL     1      11.652  11.946  21.097  1.00  0.00     0.240 C 
HETATM    7  C14 UNL     1      10.467  11.061  20.880  1.00  0.00     0.029 C 
HETATM    8  C15 UNL     1       9.458  11.263  21.957  1.00  0.00     0.053 C 
HETATM    9  C16 UNL     1       9.882  10.727  23.264  1.00  0.00     0.036 A 
HETATM   10  C17 UNL     1      10.734   9.672  23.330  1.00  0.00     0.038 A 
HETATM   11  N3  UNL     1      10.954   9.389  24.621  1.00  0.00    -0.301 N 
ATOM     12  H3  UNL     1      11.554   8.644  24.974  1.00  0.00     0.186 HD
HETATM   13  N4  UNL     1      10.260  10.240  25.362  1.00  0.00    -0.266 N 
ATOM     14  H4  UNL     1      10.237  10.257  26.382  1.00  0.00     0.190 HD
HETATM   15  C18 UNL     1       9.586  11.079  24.548  1.00  0.00     0.268 A 
HETATM   16  O1  UNL     1       8.830  12.010  24.924  1.00  0.00    -0.266 OA
HETATM   17  C19 UNL     1      11.264   9.030  22.136  1.00  0.00     0.074 C 
HETATM   18  C20 UNL     1      10.825   9.596  20.833  1.00  0.00     0.089 C 
HETATM   19  C21 UNL     1      11.862   9.314  19.808  1.00  0.00     0.226 C 
HETATM   20  O2  UNL     1      11.979   8.065  19.527  1.00  0.00    -0.273 OA
ENDROOT
BRANCH   1  21
HETATM   21  C11 UNL     1      13.065   9.809  17.695  1.00  0.00     0.141 C 
BRANCH  21  22
HETATM   22  C10 UNL     1      13.151  10.892  16.724  1.00  0.00     0.093 C 
BRANCH  22  23
HETATM   23  C9  UNL     1      13.424  10.293  15.343  1.00  0.00     0.015 C 
BRANCH  23  24
HETATM   24  C8  UNL     1      13.751   8.840  15.377  1.00  0.00     0.001 C 
BRANCH  24  25
HETATM   25  C7  UNL     1      14.748   8.556  14.271  1.00  0.00     0.000 C 
BRANCH  25  26
HETATM   26  C6  UNL     1      15.171   7.087  14.250  1.00  0.00     0.000 C 
BRANCH  26  27
HETATM   27  C5  UNL     1      14.082   6.193  14.761  1.00  0.00     0.000 C 
BRANCH  27  28
HETATM   28  C4  UNL     1      14.147   4.870  14.050  1.00  0.00     0.000 C 
BRANCH  28  29
HETATM   29  C3  UNL     1      15.057   4.898  12.873  1.00  0.00    -0.000 C 
BRANCH  29  30
HETATM   30  C2  UNL     1      15.087   3.544  12.161  1.00  0.00    -0.005 C 
HETATM   31  C1  UNL     1      15.683   3.677  10.780  1.00  0.00     0.005 C 
ENDBRANCH  29  30
ENDBRANCH  28  29
ENDBRANCH  27  28
ENDBRANCH  26  27
ENDBRANCH  25  26
ENDBRANCH  24  25
ENDBRANCH  23  24
ENDBRANCH  22  23
BRANCH  22  32
HETATM   32  C22 UNL     1      12.094  11.898  16.656  1.00  0.00     0.236 C 
HETATM   33  N5  UNL     1      12.365  13.143  15.963  1.00  0.00    -0.062 NA
HETATM   34  O3  UNL     1      10.977  11.710  17.175  1.00  0.00    -0.276 OA
ENDBRANCH  22  32
ENDBRANCH  21  22
ENDBRANCH   1  21
TORSDOF 11
ENDMDL
MODEL 5
REMARK VINA RESULT: -8.340838838      4.100      6.970
REMARK  11 active torsions:
REMARK  status: ('A' for Active; 'I' for Inactive)
REMARK    1  A    between atoms: C2_2  and  C3_3 
REMARK    2  A    between atoms: C3_3  and  C4_4 
REMARK    3  A    between atoms: C4_4  and  C5_5 
REMARK    4  A    between atoms: C5_5  and  C6_6 
REMARK    5  A    between atoms: C6_6  and  C7_7 
REMARK    6  A    between atoms: C7_7  and  C8_8 
REMARK    7  A    between atoms: C8_8  and  C9_9 
REMARK    8  A    between atoms: C9_9  and  C10_10 
REMARK    9  A    between atoms: C10_10  and  C11_11 
REMARK   10  A    between atoms: C10_10  and  C22_32 
REMARK   11  A    between atoms: C11_11  and  N1_12 
ROOT
HETATM    1  N1  UNL     1      14.518   6.856  17.712  1.00  0.00    -0.327 N 
HETATM    2  C12 UNL     1      15.697   5.978  17.859  1.00  0.00     0.359 C 
HETATM    3  N2  UNL     1      15.392   4.773  17.115  1.00  0.00    -0.059 N 
ATOM      4  H21 UNL     1      14.454   4.428  17.319  1.00  0.00     0.279 HD
ATOM      5  H22 UNL     1      15.924   3.971  17.454  1.00  0.00     0.279 HD
HETATM    6  C13 UNL     1      15.589   4.989  15.702  1.00  0.00     0.240 C 
HETATM    7  C14 UNL     1      14.348   5.436  14.998  1.00  0.00     0.029 C 
HETATM    8  C15 UNL     1      14.388   5.039  13.563  1.00  0.00     0.053 C 
HETATM    9  C16 UNL     1      15.366   5.808  12.770  1.00  0.00     0.036 A 
HETATM   10  C17 UNL     1      15.693   7.076  13.127  1.00  0.00     0.038 A 
HETATM   11  N3  UNL     1      16.593   7.540  12.248  1.00  0.00    -0.301 N 
ATOM     12  H3  UNL     1      17.020   8.466  12.266  1.00  0.00     0.186 HD
HETATM   13  N4  UNL     1      16.834   6.594  11.353  1.00  0.00    -0.266 N 
ATOM     14  H4  UNL     1      17.478   6.673  10.566  1.00  0.00     0.190 HD
HETATM   15  C18 UNL     1      16.088   5.510  11.651  1.00  0.00     0.268 A 
HETATM   16  O1  UNL     1      16.075   4.433  11.004  1.00  0.00    -0.266 OA
HETATM   17  C19 UNL     1      15.108   7.728  14.288  1.00  0.00     0.074 C 
HETATM   18  C20 UNL     1      14.132   6.927  15.072  1.00  0.00     0.089 C 
HETATM   19  C21 UNL     1      14.121   7.413  16.475  1.00  0.00     0.226 C 
HETATM   20  O2  UNL     1      13.648   8.602  16.603  1.00  0.00    -0.273 OA
ENDROOT
BRANCH   1  21
HETATM   21  C11 UNL     1      13.761   7.108  18.912  1.00  0.00     0.141 C 
BRANCH  21  22
HETATM   22  C10 UNL     1      14.106   8.255  19.742  1.00  0.00     0.093 C 
BRANCH  22  23
HETATM   23  C9  UNL     1      12.925   8.567  20.663  1.00  0.00     0.015 C 
BRANCH  23  24
HETATM   24  C8  UNL     1      11.620   8.661  19.951  1.00  0.00     0.001 C 
BRANCH  24  25
HETATM   25  C7  UNL     1      10.922   9.924  20.411  1.00  0.00     0.000 C 
BRANCH  25  26
HETATM   26  C6  UNL     1      10.615  10.862  19.245  1.00  0.00     0.000 C 
BRANCH  26  27
HETATM   27  C5  UNL     1      11.555  10.641  18.097  1.00  0.00     0.000 C 
BRANCH  27  28
HETATM   28  C4  UNL     1      11.722  11.924  17.334  1.00  0.00     0.000 C 
BRANCH  28  29
HETATM   29  C3  UNL     1      13.149  12.322  17.189  1.00  0.00    -0.000 C 
BRANCH  29  30
HETATM   30  C2  UNL     1      13.995  11.787  18.347  1.00  0.00    -0.005 C 
HETATM   31  C1  UNL     1      14.395  12.904  19.280  1.00  0.00     0.005 C 
ENDBRANCH  29  30
ENDBRANCH  28  29
ENDBRANCH  27  28
ENDBRANCH  26  27
ENDBRANCH  25  26
ENDBRANCH  24  25
ENDBRANCH  23  24
ENDBRANCH  22  23
BRANCH  22  32
HETATM   32  C22 UNL     1      15.364   8.268  20.484  1.00  0.00     0.236 C 
HETATM   33  N5  UNL     1      16.172   9.472  20.459  1.00  0.00    -0.062 NA
HETATM   34  O3  UNL     1      15.752   7.277  21.132  1.00  0.00    -0.276 OA
ENDBRANCH  22  32
ENDBRANCH  21  22
ENDBRANCH   1  21
TORSDOF 11
ENDMDL
