MODEL 1
REMARK VINA RESULT: -7.649090628      0.000      0.000
REMARK  10 active torsions:
REMARK  status: ('A' for Active; 'I' for Inactive)
REMARK    1  A    between atoms: C6_7  and  C7_8 
REMARK    2  A    between atoms: C7_8  and  O1_9 
REMARK    3  A    between atoms: C7_8  and  N2_11 
REMARK    4  A    between atoms: N2_11  and  C9_13 
REMARK    5  A    between atoms: C12_16  and  C13_17 
REMARK    6  A    between atoms: C13_17  and  N3_20 
REMARK    7  A    between atoms: N5_29  and  C19_31 
REMARK    8  A    between atoms: C19_31  and  C20_32 
REMARK    9  A    between atoms: C19_31  and  C25_39 
REMARK   10  A    between atoms: C20_32  and  N6_33 
ROOT
HETATM    1  C1  UNL     1       3.422  -8.053 -18.316  1.00  0.00     0.150 C 
HETATM    2  N1  UNL     1       2.345  -8.880 -17.868  1.00  0.00    -0.381 N 
HETATM    3  C2  UNL     1       2.487 -10.276 -17.503  1.00  0.00     0.127 A 
HETATM    4  C3  UNL     1       1.188 -10.724 -16.933  1.00  0.00     0.061 A 
HETATM    5  C4  UNL     1       0.274  -9.565 -17.172  1.00  0.00    -0.024 A 
HETATM    6  C5  UNL     1      -1.085  -9.381 -16.960  1.00  0.00     0.043 A 
HETATM    7  C6  UNL     1      -1.753  -8.233 -17.243  1.00  0.00     0.085 A 
HETATM    8  N4  UNL     1      -0.956  -7.237 -17.774  1.00  0.00    -0.337 N 
ATOM      9  H4  UNL     1      -1.406  -6.352 -18.006  1.00  0.00     0.167 HD
HETATM   10  C18 UNL     1       0.344  -7.334 -18.006  1.00  0.00     0.129 A 
HETATM   11  N5  UNL     1       1.043  -6.363 -18.508  1.00  0.00    -0.367 N 
ATOM     12  H5  UNL     1       2.039  -6.542 -18.644  1.00  0.00     0.161 HD
HETATM   13  C29 UNL     1       0.997  -8.529 -17.703  1.00  0.00     0.080 A 
ENDROOT
BRANCH   7  14
HETATM   14  C7  UNL     1      -3.159  -7.948 -17.045  1.00  0.00     0.165 C 
BRANCH  14  15
HETATM   15  O1  UNL     1      -3.997  -8.738 -17.698  1.00  0.00    -0.344 OA
ATOM     16  H1  UNL     1      -4.000  -8.639 -18.644  1.00  0.00     0.219 HD
ENDBRANCH  14  15
BRANCH  14  17
HETATM   17  N2  UNL     1      -3.820  -6.999 -16.299  1.00  0.00    -0.360 N 
HETATM   18  C8  UNL     1      -3.614  -5.582 -16.390  1.00  0.00     0.152 C 
BRANCH  17  19
HETATM   19  C9  UNL     1      -4.861  -7.416 -15.290  1.00  0.00     0.086 C 
HETATM   20  C10 UNL     1      -6.167  -7.432 -15.983  1.00  0.00     0.026 C 
HETATM   21  C11 UNL     1      -7.275  -6.632 -15.421  1.00  0.00     0.009 C 
HETATM   22  C12 UNL     1      -7.179  -6.516 -13.936  1.00  0.00     0.020 C 
HETATM   23  C16 UNL     1      -5.887  -5.756 -13.673  1.00  0.00     0.009 C 
HETATM   24  C17 UNL     1      -4.684  -6.542 -14.121  1.00  0.00     0.026 C 
BRANCH  22  25
HETATM   25  C13 UNL     1      -8.281  -5.611 -13.371  1.00  0.00     0.120 C 
HETATM   26  C14 UNL     1      -7.633  -4.283 -12.957  1.00  0.00     0.046 C 
HETATM   27  C15 UNL     1      -8.818  -6.215 -12.111  1.00  0.00     0.046 C 
BRANCH  25  28
HETATM   28  N3  UNL     1      -9.290  -5.313 -14.340  1.00  0.00    -0.071 N 
ATOM     29  H33 UNL     1      -8.900  -4.809 -15.136  1.00  0.00     0.275 HD
ATOM     30  H32 UNL     1      -9.601  -6.159 -14.820  1.00  0.00     0.275 HD
ATOM     31  H31 UNL     1     -10.080  -4.808 -13.936  1.00  0.00     0.275 HD
ENDBRANCH  25  28
ENDBRANCH  22  25
ENDBRANCH  17  19
ENDBRANCH  14  17
ENDBRANCH   7  14
BRANCH  11  32
HETATM   32  C19 UNL     1       0.577  -5.088 -18.886  1.00  0.00     0.118 C 
BRANCH  32  33
HETATM   33  C20 UNL     1       0.652  -3.971 -17.929  1.00  0.00     0.298 C 
BRANCH  33  34
HETATM   34  N6  UNL     1       0.983  -4.247 -16.569  1.00  0.00     0.094 N 
HETATM   35  C21 UNL     1       2.307  -3.595 -16.363  1.00  0.00     0.298 C 
HETATM   36  C22 UNL     1       2.743  -3.917 -14.960  1.00  0.00     0.198 C 
HETATM   37  O2  UNL     1       1.955  -3.122 -14.116  1.00  0.00    -0.388 OA
HETATM   38  C23 UNL     1       0.667  -3.582 -14.236  1.00  0.00     0.198 C 
HETATM   39  C24 UNL     1       0.111  -3.499 -15.651  1.00  0.00     0.298 C 
ENDBRANCH  33  34
ENDBRANCH  32  33
BRANCH  32  40
HETATM   40  C25 UNL     1       1.162  -4.621 -20.220  1.00  0.00    -0.029 C 
HETATM   41  C26 UNL     1       2.507  -3.994 -20.096  1.00  0.00     0.016 C 
HETATM   42  C27 UNL     1       0.157  -3.671 -20.833  1.00  0.00     0.016 C 
HETATM   43  C28 UNL     1       1.262  -5.815 -21.180  1.00  0.00     0.016 C 
ENDBRANCH  32  40
ENDBRANCH  11  32
TORSDOF 10
ENDMDL
MODEL 2
REMARK VINA RESULT: -7.481618858      2.260      2.920
REMARK  10 active torsions:
REMARK  status: ('A' for Active; 'I' for Inactive)
REMARK    1  A    between atoms: C6_7  and  C7_8 
REMARK    2  A    between atoms: C7_8  and  O1_9 
REMARK    3  A    between atoms: C7_8  and  N2_11 
REMARK    4  A    between atoms: N2_11  and  C9_13 
REMARK    5  A    between atoms: C12_16  and  C13_17 
REMARK    6  A    between atoms: C13_17  and  N3_20 
REMARK    7  A    between atoms: N5_29  and  C19_31 
REMARK    8  A    between atoms: C19_31  and  C20_32 
REMARK    9  A    between atoms: C19_31  and  C25_39 
REMARK   10  A    between atoms: C20_32  and  N6_33 
ROOT
HETATM    1  C1  UNL     1       4.090  -7.907 -18.301  1.00  0.00     0.150 C 
HETATM    2  N1  UNL     1       3.058  -8.348 -17.416  1.00  0.00    -0.381 N 
HETATM    3  C2  UNL     1       3.293  -9.121 -16.212  1.00  0.00     0.127 A 
HETATM    4  C3  UNL     1       1.997  -9.227 -15.488  1.00  0.00     0.061 A 
HETATM    5  C4  UNL     1       1.007  -8.636 -16.440  1.00  0.00    -0.024 A 
HETATM    6  C5  UNL     1      -0.376  -8.518 -16.404  1.00  0.00     0.043 A 
HETATM    7  C6  UNL     1      -1.116  -7.936 -17.382  1.00  0.00     0.085 A 
HETATM    8  N4  UNL     1      -0.371  -7.458 -18.442  1.00  0.00    -0.337 N 
ATOM      9  H4  UNL     1      -0.877  -7.011 -19.206  1.00  0.00     0.167 HD
HETATM   10  C18 UNL     1       0.947  -7.531 -18.550  1.00  0.00     0.129 A 
HETATM   11  N5  UNL     1       1.596  -7.064 -19.572  1.00  0.00    -0.367 N 
ATOM     12  H5  UNL     1       2.611  -7.170 -19.554  1.00  0.00     0.161 HD
HETATM   13  C29 UNL     1       1.676  -8.137 -17.527  1.00  0.00     0.080 A 
ENDROOT
BRANCH   7  14
HETATM   14  C7  UNL     1      -2.553  -7.758 -17.425  1.00  0.00     0.165 C 
BRANCH  14  15
HETATM   15  O1  UNL     1      -3.180  -8.421 -18.386  1.00  0.00    -0.344 OA
ATOM     16  H1  UNL     1      -3.952  -8.903 -18.112  1.00  0.00     0.219 HD
ENDBRANCH  14  15
BRANCH  14  17
HETATM   17  N2  UNL     1      -3.424  -7.023 -16.653  1.00  0.00    -0.360 N 
HETATM   18  C8  UNL     1      -3.433  -5.593 -16.549  1.00  0.00     0.152 C 
BRANCH  17  19
HETATM   19  C9  UNL     1      -4.481  -7.717 -15.831  1.00  0.00     0.086 C 
HETATM   20  C10 UNL     1      -5.623  -8.001 -16.726  1.00  0.00     0.026 C 
HETATM   21  C11 UNL     1      -6.961  -7.506 -16.345  1.00  0.00     0.009 C 
HETATM   22  C12 UNL     1      -7.128  -7.441 -14.862  1.00  0.00     0.020 C 
HETATM   23  C16 UNL     1      -6.109  -6.417 -14.386  1.00  0.00     0.009 C 
HETATM   24  C17 UNL     1      -4.700  -6.883 -14.640  1.00  0.00     0.026 C 
BRANCH  22  25
HETATM   25  C13 UNL     1      -8.486  -6.843 -14.475  1.00  0.00     0.120 C 
HETATM   26  C14 UNL     1      -8.631  -5.498 -15.199  1.00  0.00     0.046 C 
HETATM   27  C15 UNL     1      -8.485  -6.523 -13.012  1.00  0.00     0.046 C 
BRANCH  25  28
HETATM   28  N3  UNL     1      -9.581  -7.670 -14.881  1.00  0.00    -0.071 N 
ATOM     29  H33 UNL     1      -9.263  -8.608 -15.124  1.00  0.00     0.275 HD
ATOM     30  H32 UNL     1     -10.180  -7.902 -14.089  1.00  0.00     0.275 HD
ATOM     31  H31 UNL     1     -10.120  -7.256 -15.642  1.00  0.00     0.275 HD
ENDBRANCH  25  28
ENDBRANCH  22  25
ENDBRANCH  17  19
ENDBRANCH  14  17
ENDBRANCH   7  14
BRANCH  11  32
HETATM   32  C19 UNL     1       1.051  -6.426 -20.705  1.00  0.00     0.118 C 
BRANCH  32  33
HETATM   33  C20 UNL     1       1.300  -4.991 -20.924  1.00  0.00     0.298 C 
BRANCH  33  34
HETATM   34  N6  UNL     1       2.605  -4.471 -20.677  1.00  0.00     0.094 N 
HETATM   35  C21 UNL     1       2.791  -3.413 -21.710  1.00  0.00     0.298 C 
HETATM   36  C22 UNL     1       4.186  -2.875 -21.543  1.00  0.00     0.198 C 
HETATM   37  O2  UNL     1       4.160  -2.078 -20.391  1.00  0.00    -0.388 OA
HETATM   38  C23 UNL     1       3.943  -2.925 -19.332  1.00  0.00     0.198 C 
HETATM   39  C24 UNL     1       2.637  -3.704 -19.423  1.00  0.00     0.298 C 
ENDBRANCH  33  34
ENDBRANCH  32  33
BRANCH  32  40
HETATM   40  C25 UNL     1       1.358  -7.174 -22.004  1.00  0.00    -0.029 C 
HETATM   41  C26 UNL     1       1.136  -6.358 -23.229  1.00  0.00     0.016 C 
HETATM   42  C27 UNL     1       0.508  -8.425 -22.003  1.00  0.00     0.016 C 
HETATM   43  C28 UNL     1       2.818  -7.650 -21.986  1.00  0.00     0.016 C 
ENDBRANCH  32  40
ENDBRANCH  11  32
TORSDOF 10
ENDMDL
MODEL 3
REMARK VINA RESULT: -7.453136012      1.552      2.046
REMARK  10 active torsions:
REMARK  status: ('A' for Active; 'I' for Inactive)
REMARK    1  A    between atoms: C6_7  and  C7_8 
REMARK    2  A    between atoms: C7_8  and  O1_9 
REMARK    3  A    between atoms: C7_8  and  N2_11 
REMARK    4  A    between atoms: N2_11  and  C9_13 
REMARK    5  A    between atoms: C12_16  and  C13_17 
REMARK    6  A    between atoms: C13_17  and  N3_20 
REMARK    7  A    between atoms: N5_29  and  C19_31 
REMARK    8  A    between atoms: C19_31  and  C20_32 
REMARK    9  A    between atoms: C19_31  and  C25_39 
REMARK   10  A    between atoms: C20_32  and  N6_33 
ROOT
HETATM    1  C1  UNL     1       3.926  -8.461 -15.976  1.00  0.00     0.150 C 
HETATM    2  N1  UNL     1       2.738  -9.179 -16.319  1.00  0.00    -0.381 N 
HETATM    3  C2  UNL     1       2.691 -10.608 -16.558  1.00  0.00     0.127 A 
HETATM    4  C3  UNL     1       1.261 -10.989 -16.712  1.00  0.00     0.061 A 
HETATM    5  C4  UNL     1       0.542  -9.679 -16.731  1.00  0.00    -0.024 A 
HETATM    6  C5  UNL     1      -0.788  -9.339 -16.938  1.00  0.00     0.043 A 
HETATM    7  C6  UNL     1      -1.263  -8.068 -16.915  1.00  0.00     0.085 A 
HETATM    8  N4  UNL     1      -0.297  -7.112 -16.665  1.00  0.00    -0.337 N 
ATOM      9  H4  UNL     1      -0.599  -6.139 -16.637  1.00  0.00     0.167 HD
HETATM   10  C18 UNL     1       0.989  -7.354 -16.458  1.00  0.00     0.129 A 
HETATM   11  N5  UNL     1       1.853  -6.414 -16.228  1.00  0.00    -0.367 N 
ATOM     12  H5  UNL     1       2.818  -6.710 -16.079  1.00  0.00     0.161 HD
HETATM   13  C29 UNL     1       1.441  -8.673 -16.490  1.00  0.00     0.080 A 
ENDROOT
BRANCH   7  14
HETATM   14  C7  UNL     1      -2.628  -7.623 -17.106  1.00  0.00     0.165 C 
BRANCH  14  15
HETATM   15  O1  UNL     1      -3.219  -8.059 -18.208  1.00  0.00    -0.344 OA
ATOM     16  H1  UNL     1      -2.961  -8.927 -18.494  1.00  0.00     0.219 HD
ENDBRANCH  14  15
BRANCH  14  17
HETATM   17  N2  UNL     1      -3.458  -6.818 -16.359  1.00  0.00    -0.360 N 
HETATM   18  C8  UNL     1      -3.457  -5.384 -16.377  1.00  0.00     0.152 C 
BRANCH  17  19
HETATM   19  C9  UNL     1      -4.476  -7.431 -15.431  1.00  0.00     0.086 C 
HETATM   20  C10 UNL     1      -5.639  -7.832 -16.252  1.00  0.00     0.026 C 
HETATM   21  C11 UNL     1      -6.975  -7.318 -15.885  1.00  0.00     0.009 C 
HETATM   22  C12 UNL     1      -7.097  -7.090 -14.414  1.00  0.00     0.020 C 
HETATM   23  C16 UNL     1      -6.084  -6.004 -14.088  1.00  0.00     0.009 C 
HETATM   24  C17 UNL     1      -4.674  -6.473 -14.334  1.00  0.00     0.026 C 
BRANCH  22  25
HETATM   25  C13 UNL     1      -8.454  -6.474 -14.053  1.00  0.00     0.120 C 
HETATM   26  C14 UNL     1      -8.572  -5.133 -14.789  1.00  0.00     0.046 C 
HETATM   27  C15 UNL     1      -8.472  -6.142 -12.592  1.00  0.00     0.046 C 
BRANCH  25  28
HETATM   28  N3  UNL     1      -9.552  -7.292 -14.468  1.00  0.00    -0.071 N 
ATOM     29  H33 UNL     1     -10.228  -7.410 -13.715  1.00  0.00     0.275 HD
ATOM     30  H32 UNL     1     -10.141  -6.802 -15.142  1.00  0.00     0.275 HD
ATOM     31  H31 UNL     1      -9.247  -8.194 -14.834  1.00  0.00     0.275 HD
ENDBRANCH  25  28
ENDBRANCH  22  25
ENDBRANCH  17  19
ENDBRANCH  14  17
ENDBRANCH   7  14
BRANCH  11  32
HETATM   32  C19 UNL     1       1.603  -5.028 -16.161  1.00  0.00     0.118 C 
BRANCH  32  33
HETATM   33  C20 UNL     1       1.747  -4.322 -14.877  1.00  0.00     0.298 C 
BRANCH  33  34
HETATM   34  N6  UNL     1       0.574  -3.860 -14.207  1.00  0.00     0.094 N 
HETATM   35  C21 UNL     1       0.993  -2.592 -13.547  1.00  0.00     0.298 C 
HETATM   36  C22 UNL     1      -0.189  -2.094 -12.761  1.00  0.00     0.198 C 
HETATM   37  O2  UNL     1      -1.094  -1.583 -13.702  1.00  0.00    -0.388 OA
HETATM   38  C23 UNL     1      -1.541  -2.654 -14.436  1.00  0.00     0.198 C 
HETATM   39  C24 UNL     1      -0.437  -3.403 -15.171  1.00  0.00     0.298 C 
ENDBRANCH  33  34
ENDBRANCH  32  33
BRANCH  32  40
HETATM   40  C25 UNL     1       2.363  -4.243 -17.232  1.00  0.00    -0.029 C 
HETATM   41  C26 UNL     1       3.037  -3.022 -16.711  1.00  0.00     0.016 C 
HETATM   42  C27 UNL     1       1.369  -3.911 -18.322  1.00  0.00     0.016 C 
HETATM   43  C28 UNL     1       3.419  -5.151 -17.879  1.00  0.00     0.016 C 
ENDBRANCH  32  40
ENDBRANCH  11  32
TORSDOF 10
ENDMDL
MODEL 4
REMARK VINA RESULT: -7.450373846      6.071      8.885
REMARK  10 active torsions:
REMARK  status: ('A' for Active; 'I' for Inactive)
REMARK    1  A    between atoms: C6_7  and  C7_8 
REMARK    2  A    between atoms: C7_8  and  O1_9 
REMARK    3  A    between atoms: C7_8  and  N2_11 
REMARK    4  A    between atoms: N2_11  and  C9_13 
REMARK    5  A    between atoms: C12_16  and  C13_17 
REMARK    6  A    between atoms: C13_17  and  N3_20 
REMARK    7  A    between atoms: N5_29  and  C19_31 
REMARK    8  A    between atoms: C19_31  and  C20_32 
REMARK    9  A    between atoms: C19_31  and  C25_39 
REMARK   10  A    between atoms: C20_32  and  N6_33 
ROOT
HETATM    1  C1  UNL     1       0.676  -0.047 -13.955  1.00  0.00     0.150 C 
HETATM    2  N1  UNL     1      -0.441  -0.926 -14.111  1.00  0.00    -0.381 N 
HETATM    3  C2  UNL     1      -0.360  -2.249 -14.700  1.00  0.00     0.127 A 
HETATM    4  C3  UNL     1      -1.686  -2.900 -14.521  1.00  0.00     0.061 A 
HETATM    5  C4  UNL     1      -2.549  -1.809 -13.974  1.00  0.00    -0.024 A 
HETATM    6  C5  UNL     1      -3.904  -1.740 -13.679  1.00  0.00     0.043 A 
HETATM    7  C6  UNL     1      -4.520  -0.640 -13.176  1.00  0.00     0.085 A 
HETATM    8  N4  UNL     1      -3.675   0.435 -12.976  1.00  0.00    -0.337 N 
ATOM      9  H4  UNL     1      -4.087   1.289 -12.601  1.00  0.00     0.167 HD
HETATM   10  C18 UNL     1      -2.376   0.449 -13.232  1.00  0.00     0.129 A 
HETATM   11  N5  UNL     1      -1.631   1.491 -13.024  1.00  0.00    -0.367 N 
ATOM     12  H5  UNL     1      -0.641   1.394 -13.253  1.00  0.00     0.161 HD
HETATM   13  C29 UNL     1      -1.777  -0.699 -13.749  1.00  0.00     0.080 A 
ENDROOT
BRANCH   7  14
HETATM   14  C7  UNL     1      -5.917  -0.482 -12.829  1.00  0.00     0.165 C 
BRANCH  14  15
HETATM   15  O1  UNL     1      -6.177   0.447 -11.921  1.00  0.00    -0.344 OA
ATOM     16  H1  UNL     1      -6.471   1.283 -12.265  1.00  0.00     0.219 HD
ENDBRANCH  14  15
BRANCH  14  17
HETATM   17  N2  UNL     1      -7.061  -1.116 -13.259  1.00  0.00    -0.360 N 
HETATM   18  C8  UNL     1      -7.864  -0.708 -14.375  1.00  0.00     0.152 C 
BRANCH  17  19
HETATM   19  C9  UNL     1      -7.560  -2.348 -12.546  1.00  0.00     0.086 C 
HETATM   20  C10 UNL     1      -6.429  -3.294 -12.451  1.00  0.00     0.026 C 
HETATM   21  C11 UNL     1      -6.602  -4.660 -12.988  1.00  0.00     0.009 C 
HETATM   22  C12 UNL     1      -8.018  -5.122 -12.884  1.00  0.00     0.020 C 
HETATM   23  C16 UNL     1      -8.816  -4.178 -13.770  1.00  0.00     0.009 C 
HETATM   24  C17 UNL     1      -8.785  -2.768 -13.243  1.00  0.00     0.026 C 
BRANCH  22  25
HETATM   25  C13 UNL     1      -8.206  -6.503 -13.524  1.00  0.00     0.120 C 
HETATM   26  C14 UNL     1      -6.828  -7.003 -13.976  1.00  0.00     0.046 C 
HETATM   27  C15 UNL     1      -9.021  -6.362 -14.773  1.00  0.00     0.046 C 
BRANCH  25  28
HETATM   28  N3  UNL     1      -8.732  -7.462 -12.602  1.00  0.00    -0.071 N 
ATOM     29  H33 UNL     1      -9.233  -7.006 -11.841  1.00  0.00     0.275 HD
ATOM     30  H32 UNL     1      -9.504  -7.985 -13.015  1.00  0.00     0.275 HD
ATOM     31  H31 UNL     1      -8.012  -8.091 -12.243  1.00  0.00     0.275 HD
ENDBRANCH  25  28
ENDBRANCH  22  25
ENDBRANCH  17  19
ENDBRANCH  14  17
ENDBRANCH   7  14
BRANCH  11  32
HETATM   32  C19 UNL     1      -2.040   2.741 -12.518  1.00  0.00     0.118 C 
BRANCH  32  33
HETATM   33  C20 UNL     1      -2.496   2.848 -11.121  1.00  0.00     0.298 C 
BRANCH  33  34
HETATM   34  N6  UNL     1      -3.809   3.339 -10.859  1.00  0.00     0.094 N 
HETATM   35  C21 UNL     1      -4.370   2.395  -9.851  1.00  0.00     0.298 C 
HETATM   36  C22 UNL     1      -5.788   2.823  -9.588  1.00  0.00     0.198 C 
HETATM   37  O2  UNL     1      -5.705   3.983  -8.805  1.00  0.00    -0.388 OA
HETATM   38  C23 UNL     1      -5.149   4.954  -9.602  1.00  0.00     0.198 C 
HETATM   39  C24 UNL     1      -3.759   4.608 -10.118  1.00  0.00     0.298 C 
ENDBRANCH  33  34
ENDBRANCH  32  33
BRANCH  32  40
HETATM   40  C25 UNL     1      -1.012   3.844 -12.776  1.00  0.00    -0.029 C 
HETATM   41  C26 UNL     1      -1.350   5.140 -12.126  1.00  0.00     0.016 C 
HETATM   42  C27 UNL     1      -0.887   3.986 -14.276  1.00  0.00     0.016 C 
HETATM   43  C28 UNL     1       0.366   3.386 -12.274  1.00  0.00     0.016 C 
ENDBRANCH  32  40
ENDBRANCH  11  32
TORSDOF 10
ENDMDL
MODEL 5
REMARK VINA RESULT: -7.448340940      1.870      2.574
REMARK  10 active torsions:
REMARK  status: ('A' for Active; 'I' for Inactive)
REMARK    1  A    between atoms: C6_7  and  C7_8 
REMARK    2  A    between atoms: C7_8  and  O1_9 
REMARK    3  A    between atoms: C7_8  and  N2_11 
REMARK    4  A    between atoms: N2_11  and  C9_13 
REMARK    5  A    between atoms: C12_16  and  C13_17 
REMARK    6  A    between atoms: C13_17  and  N3_20 
REMARK    7  A    between atoms: N5_29  and  C19_31 
REMARK    8  A    between atoms: C19_31  and  C20_32 
REMARK    9  A    between atoms: C19_31  and  C25_39 
REMARK   10  A    between atoms: C20_32  and  N6_33 
ROOT
HETATM    1  C1  UNL     1       3.650  -8.704 -15.899  1.00  0.00     0.150 C 
HETATM    2  N1  UNL     1       2.498  -9.368 -16.422  1.00  0.00    -0.381 N 
HETATM    3  C2  UNL     1       2.514 -10.703 -16.989  1.00  0.00     0.127 A 
HETATM    4  C3  UNL     1       1.104 -11.093 -17.255  1.00  0.00     0.061 A 
HETATM    5  C4  UNL     1       0.329  -9.844 -16.982  1.00  0.00    -0.024 A 
HETATM    6  C5  UNL     1      -1.012  -9.518 -17.129  1.00  0.00     0.043 A 
HETATM    7  C6  UNL     1      -1.541  -8.307 -16.819  1.00  0.00     0.085 A 
HETATM    8  N4  UNL     1      -0.619  -7.398 -16.335  1.00  0.00    -0.337 N 
ATOM      9  H4  UNL     1      -0.962  -6.471 -16.087  1.00  0.00     0.167 HD
HETATM   10  C18 UNL     1       0.674  -7.631 -16.165  1.00  0.00     0.129 A 
HETATM   11  N5  UNL     1       1.495  -6.738 -15.706  1.00  0.00    -0.367 N 
ATOM     12  H5  UNL     1       2.470  -7.022 -15.612  1.00  0.00     0.161 HD
HETATM   13  C29 UNL     1       1.182  -8.888 -16.495  1.00  0.00     0.080 A 
ENDROOT
BRANCH   7  14
HETATM   14  C7  UNL     1      -2.922  -7.883 -16.928  1.00  0.00     0.165 C 
BRANCH  14  15
HETATM   15  O1  UNL     1      -3.635  -8.500 -17.858  1.00  0.00    -0.344 OA
ATOM     16  H1  UNL     1      -4.540  -8.677 -17.629  1.00  0.00     0.219 HD
ENDBRANCH  14  15
BRANCH  14  17
HETATM   17  N2  UNL     1      -3.664  -6.946 -16.245  1.00  0.00    -0.360 N 
HETATM   18  C8  UNL     1      -3.551  -5.525 -16.401  1.00  0.00     0.152 C 
BRANCH  17  19
HETATM   19  C9  UNL     1      -4.702  -7.385 -15.242  1.00  0.00     0.086 C 
HETATM   20  C10 UNL     1      -5.991  -7.495 -15.958  1.00  0.00     0.026 C 
HETATM   21  C11 UNL     1      -7.151  -6.737 -15.445  1.00  0.00     0.009 C 
HETATM   22  C12 UNL     1      -7.093  -6.565 -13.963  1.00  0.00     0.020 C 
HETATM   23  C16 UNL     1      -5.849  -5.729 -13.703  1.00  0.00     0.009 C 
HETATM   24  C17 UNL     1      -4.597  -6.464 -14.101  1.00  0.00     0.026 C 
BRANCH  22  25
HETATM   25  C13 UNL     1      -8.252  -5.703 -13.451  1.00  0.00     0.120 C 
HETATM   26  C14 UNL     1      -7.680  -4.338 -13.045  1.00  0.00     0.046 C 
HETATM   27  C15 UNL     1      -8.800  -6.307 -12.195  1.00  0.00     0.046 C 
BRANCH  25  28
HETATM   28  N3  UNL     1      -9.244  -5.472 -14.457  1.00  0.00    -0.071 N 
ATOM     29  H33 UNL     1      -9.795  -4.641 -14.245  1.00  0.00     0.275 HD
ATOM     30  H32 UNL     1      -8.816  -5.166 -15.331  1.00  0.00     0.275 HD
ATOM     31  H31 UNL     1      -9.843  -6.284 -14.604  1.00  0.00     0.275 HD
ENDBRANCH  25  28
ENDBRANCH  22  25
ENDBRANCH  17  19
ENDBRANCH  14  17
ENDBRANCH   7  14
BRANCH  11  32
HETATM   32  C19 UNL     1       1.185  -5.417 -15.324  1.00  0.00     0.118 C 
BRANCH  32  33
HETATM   33  C20 UNL     1       1.568  -4.937 -13.985  1.00  0.00     0.298 C 
BRANCH  33  34
HETATM   34  N6  UNL     1       2.356  -5.782 -13.147  1.00  0.00     0.094 N 
HETATM   35  C21 UNL     1       3.759  -5.336 -13.375  1.00  0.00     0.298 C 
HETATM   36  C22 UNL     1       4.646  -6.244 -12.568  1.00  0.00     0.198 C 
HETATM   37  O2  UNL     1       4.489  -5.854 -11.231  1.00  0.00    -0.388 OA
HETATM   38  C23 UNL     1       3.198  -6.165 -10.882  1.00  0.00     0.198 C 
HETATM   39  C24 UNL     1       2.144  -5.462 -11.728  1.00  0.00     0.298 C 
ENDBRANCH  33  34
ENDBRANCH  32  33
BRANCH  32  40
HETATM   40  C25 UNL     1       1.642  -4.385 -16.356  1.00  0.00    -0.029 C 
HETATM   41  C26 UNL     1       2.816  -4.823 -17.160  1.00  0.00     0.016 C 
HETATM   42  C27 UNL     1       1.927  -3.105 -15.602  1.00  0.00     0.016 C 
HETATM   43  C28 UNL     1       0.482  -4.069 -17.311  1.00  0.00     0.016 C 
ENDBRANCH  32  40
ENDBRANCH  11  32
TORSDOF 10
ENDMDL
