MODEL 1
REMARK VINA RESULT: -6.431443039      0.000      0.000
REMARK  10 active torsions:
REMARK  status: ('A' for Active; 'I' for Inactive)
REMARK    1  A    between atoms: C2_2  and  C3_3 
REMARK    2  A    between atoms: C3_3  and  C5_5 
REMARK    3  A    between atoms: C5_5  and  N1_6 
REMARK    4  A    between atoms: C5_5  and  C21_30 
REMARK       I    between atoms: N1_6  and  C6_8 
REMARK    5  A    between atoms: C6_8  and  C7_10 
REMARK    6  A    between atoms: C11_14  and  N2_15 
REMARK       I    between atoms: N2_15  and  C12_17 
REMARK    7  A    between atoms: C12_17  and  O3_19 
REMARK    8  A    between atoms: O3_19  and  C13_20 
REMARK    9  A    between atoms: C21_30  and  O6_32 
REMARK   10  A    between atoms: O6_32  and  C22_33 
ROOT
HETATM    1  C7  UNL     1       0.672  -4.548 -15.590  1.00  0.00     0.186 C 
HETATM    2  C8  UNL     1       0.914  -4.012 -17.027  1.00  0.00     0.040 C 
HETATM    3  C9  UNL     1      -0.110  -4.674 -17.876  1.00  0.00    -0.021 C 
HETATM    4  C10 UNL     1      -0.622  -5.890 -17.886  1.00  0.00     0.004 C 
HETATM    5  C11 UNL     1      -0.454  -7.137 -17.111  1.00  0.00     0.202 C 
HETATM    6  C17 UNL     1       0.676  -7.032 -16.103  1.00  0.00     0.247 C 
HETATM    7  O4  UNL     1       1.101  -8.081 -15.593  1.00  0.00    -0.271 OA
HETATM    8  N3  UNL     1       1.294  -5.841 -15.694  1.00  0.00    -0.336 N 
HETATM    9  C18 UNL     1       2.711  -5.951 -15.521  1.00  0.00     0.127 C 
HETATM   10  C19 UNL     1       3.257  -4.785 -16.381  1.00  0.00     0.021 C 
HETATM   11  C20 UNL     1       2.292  -4.389 -17.464  1.00  0.00     0.013 C 
ENDROOT
BRANCH   1  12
HETATM   12  C6  UNL     1       1.133  -3.650 -14.552  1.00  0.00     0.242 C 
HETATM   13  N1  UNL     1       1.684  -2.387 -14.861  1.00  0.00    -0.345 N 
ATOM     14  H1  UNL     1       1.762  -2.116 -15.841  1.00  0.00     0.163 HD
HETATM   15  O1  UNL     1       1.055  -3.982 -13.346  1.00  0.00    -0.271 OA
BRANCH  13  16
HETATM   16  C5  UNL     1       2.144  -1.458 -13.848  1.00  0.00     0.188 C 
BRANCH  16  17
HETATM   17  C3  UNL     1       3.625  -1.308 -13.915  1.00  0.00     0.014 C 
HETATM   18  C4  UNL     1       4.243  -2.395 -13.020  1.00  0.00     0.012 C 
BRANCH  17  19
HETATM   19  C2  UNL     1       4.263  -1.445 -15.245  1.00  0.00     0.002 C 
HETATM   20  C1  UNL     1       4.652  -0.210 -15.960  1.00  0.00     0.005 C 
ENDBRANCH  17  19
ENDBRANCH  16  17
BRANCH  16  21
HETATM   21  C21 UNL     1       1.444  -0.178 -13.820  1.00  0.00     0.282 C 
HETATM   22  O5  UNL     1       2.022   0.938 -13.634  1.00  0.00    -0.263 OA
BRANCH  21  23
HETATM   23  O6  UNL     1       0.051  -0.075 -14.000  1.00  0.00    -0.314 OA
BRANCH  23  24
HETATM   24  C22 UNL     1      -0.816   0.073 -12.918  1.00  0.00     0.141 C 
HETATM   25  C23 UNL     1      -2.158   0.751 -13.219  1.00  0.00     0.020 C 
HETATM   26  C24 UNL     1      -2.655   0.516 -14.633  1.00  0.00     0.012 C 
HETATM   27  C27 UNL     1      -2.788  -0.330 -12.368  1.00  0.00    -0.001 C 
HETATM   28  C25 UNL     1      -3.127  -0.907 -14.553  1.00  0.00    -0.013 C 
HETATM   29  C26 UNL     1      -3.910  -0.862 -13.230  1.00  0.00     0.010 C 
HETATM   30  C29 UNL     1      -1.964  -1.773 -14.136  1.00  0.00     0.012 C 
HETATM   31  C28 UNL     1      -1.630  -1.211 -12.759  1.00  0.00     0.020 C 
ENDBRANCH  23  24
ENDBRANCH  21  23
ENDBRANCH  16  21
ENDBRANCH  13  16
ENDBRANCH   1  12
BRANCH   5  32
HETATM   32  N2  UNL     1      -1.641  -7.490 -16.373  1.00  0.00    -0.320 N 
HETATM   33  C12 UNL     1      -2.547  -8.427 -16.934  1.00  0.00     0.362 C 
HETATM   34  O2  UNL     1      -2.346  -8.960 -18.066  1.00  0.00    -0.238 OA
ATOM     35  H2  UNL     1      -1.826  -7.073 -15.461  1.00  0.00     0.166 HD
BRANCH  33  36
HETATM   36  O3  UNL     1      -3.688  -8.787 -16.248  1.00  0.00    -0.294 OA
BRANCH  36  37
HETATM   37  C13 UNL     1      -4.797  -7.887 -16.226  1.00  0.00     0.061 C 
HETATM   38  C14 UNL     1      -4.778  -6.960 -15.055  1.00  0.00     0.046 C 
HETATM   39  C15 UNL     1      -6.049  -8.729 -16.155  1.00  0.00     0.046 C 
HETATM   40  C16 UNL     1      -4.833  -7.085 -17.515  1.00  0.00     0.046 C 
ENDBRANCH  36  37
ENDBRANCH  33  36
ENDBRANCH   5  32
TORSDOF 10
ENDMDL
MODEL 2
REMARK VINA RESULT: -6.266628614      4.444      8.606
REMARK  10 active torsions:
REMARK  status: ('A' for Active; 'I' for Inactive)
REMARK    1  A    between atoms: C2_2  and  C3_3 
REMARK    2  A    between atoms: C3_3  and  C5_5 
REMARK    3  A    between atoms: C5_5  and  N1_6 
REMARK    4  A    between atoms: C5_5  and  C21_30 
REMARK       I    between atoms: N1_6  and  C6_8 
REMARK    5  A    between atoms: C6_8  and  C7_10 
REMARK    6  A    between atoms: C11_14  and  N2_15 
REMARK       I    between atoms: N2_15  and  C12_17 
REMARK    7  A    between atoms: C12_17  and  O3_19 
REMARK    8  A    between atoms: O3_19  and  C13_20 
REMARK    9  A    between atoms: C21_30  and  O6_32 
REMARK   10  A    between atoms: O6_32  and  C22_33 
ROOT
HETATM    1  C7  UNL     1       1.924  -4.166 -19.884  1.00  0.00     0.186 C 
HETATM    2  C8  UNL     1       2.946  -5.261 -19.474  1.00  0.00     0.040 C 
HETATM    3  C9  UNL     1       4.279  -4.611 -19.551  1.00  0.00    -0.021 C 
HETATM    4  C10 UNL     1       4.807  -3.736 -20.386  1.00  0.00     0.004 C 
HETATM    5  C11 UNL     1       4.375  -3.001 -21.593  1.00  0.00     0.202 C 
HETATM    6  C17 UNL     1       3.000  -3.439 -22.064  1.00  0.00     0.247 C 
HETATM    7  O4  UNL     1       2.643  -3.111 -23.207  1.00  0.00    -0.271 OA
HETATM    8  N3  UNL     1       2.085  -4.193 -21.314  1.00  0.00    -0.336 N 
HETATM    9  C18 UNL     1       1.376  -5.174 -22.079  1.00  0.00     0.127 C 
HETATM   10  C19 UNL     1       1.607  -6.476 -21.274  1.00  0.00     0.021 C 
HETATM   11  C20 UNL     1       2.853  -6.401 -20.435  1.00  0.00     0.013 C 
ENDROOT
BRANCH   1  12
HETATM   12  C6  UNL     1       0.598  -4.378 -19.343  1.00  0.00     0.242 C 
HETATM   13  N1  UNL     1       0.355  -5.352 -18.348  1.00  0.00    -0.345 N 
ATOM     14  H1  UNL     1       1.137  -5.917 -18.019  1.00  0.00     0.163 HD
HETATM   15  O1  UNL     1      -0.371  -3.698 -19.753  1.00  0.00    -0.271 OA
BRANCH  13  16
HETATM   16  C5  UNL     1      -0.955  -5.583 -17.774  1.00  0.00     0.188 C 
BRANCH  16  17
HETATM   17  C3  UNL     1      -1.127  -7.024 -17.436  1.00  0.00     0.014 C 
HETATM   18  C4  UNL     1       0.116  -7.467 -16.648  1.00  0.00     0.012 C 
BRANCH  17  19
HETATM   19  C2  UNL     1      -2.301  -7.393 -16.612  1.00  0.00     0.002 C 
HETATM   20  C1  UNL     1      -3.173  -8.487 -17.095  1.00  0.00     0.005 C 
ENDBRANCH  17  19
ENDBRANCH  16  17
BRANCH  16  21
HETATM   21  C21 UNL     1      -1.313  -4.694 -16.674  1.00  0.00     0.282 C 
HETATM   22  O5  UNL     1      -2.433  -4.101 -16.582  1.00  0.00    -0.263 OA
BRANCH  21  23
HETATM   23  O6  UNL     1      -0.434  -4.419 -15.608  1.00  0.00    -0.314 OA
BRANCH  23  24
HETATM   24  C22 UNL     1       0.238  -3.202 -15.512  1.00  0.00     0.141 C 
HETATM   25  C23 UNL     1       0.662  -2.775 -14.101  1.00  0.00     0.020 C 
HETATM   26  C24 UNL     1       0.954  -3.941 -13.175  1.00  0.00     0.012 C 
HETATM   27  C27 UNL     1       1.987  -2.386 -14.718  1.00  0.00    -0.001 C 
HETATM   28  C25 UNL     1       2.287  -4.404 -13.688  1.00  0.00    -0.013 C 
HETATM   29  C26 UNL     1       3.010  -3.053 -13.827  1.00  0.00     0.010 C 
HETATM   30  C29 UNL     1       2.139  -4.770 -15.143  1.00  0.00     0.012 C 
HETATM   31  C28 UNL     1       1.728  -3.440 -15.763  1.00  0.00     0.020 C 
ENDBRANCH  23  24
ENDBRANCH  21  23
ENDBRANCH  16  21
ENDBRANCH  13  16
ENDBRANCH   1  12
BRANCH   5  32
HETATM   32  N2  UNL     1       4.309  -1.578 -21.377  1.00  0.00    -0.320 N 
HETATM   33  C12 UNL     1       5.228  -0.736 -22.056  1.00  0.00     0.362 C 
HETATM   34  O2  UNL     1       6.106  -1.197 -22.844  1.00  0.00    -0.238 OA
ATOM     35  H2  UNL     1       3.613  -1.182 -20.746  1.00  0.00     0.166 HD
BRANCH  33  36
HETATM   36  O3  UNL     1       5.185   0.631 -21.872  1.00  0.00    -0.294 OA
BRANCH  36  37
HETATM   37  C13 UNL     1       6.238   1.266 -21.146  1.00  0.00     0.061 C 
HETATM   38  C14 UNL     1       7.198   0.298 -20.535  1.00  0.00     0.046 C 
HETATM   39  C15 UNL     1       5.593   2.069 -20.041  1.00  0.00     0.046 C 
HETATM   40  C16 UNL     1       6.986   2.223 -22.057  1.00  0.00     0.046 C 
ENDBRANCH  36  37
ENDBRANCH  33  36
ENDBRANCH   5  32
TORSDOF 10
ENDMDL
MODEL 3
REMARK VINA RESULT: -6.209512875      3.515      7.941
REMARK  10 active torsions:
REMARK  status: ('A' for Active; 'I' for Inactive)
REMARK    1  A    between atoms: C2_2  and  C3_3 
REMARK    2  A    between atoms: C3_3  and  C5_5 
REMARK    3  A    between atoms: C5_5  and  N1_6 
REMARK    4  A    between atoms: C5_5  and  C21_30 
REMARK       I    between atoms: N1_6  and  C6_8 
REMARK    5  A    between atoms: C6_8  and  C7_10 
REMARK    6  A    between atoms: C11_14  and  N2_15 
REMARK       I    between atoms: N2_15  and  C12_17 
REMARK    7  A    between atoms: C12_17  and  O3_19 
REMARK    8  A    between atoms: O3_19  and  C13_20 
REMARK    9  A    between atoms: C21_30  and  O6_32 
REMARK   10  A    between atoms: O6_32  and  C22_33 
ROOT
HETATM    1  C7  UNL     1      -0.626  -6.507 -16.529  1.00  0.00     0.186 C 
HETATM    2  C8  UNL     1      -0.368  -8.026 -16.343  1.00  0.00     0.040 C 
HETATM    3  C9  UNL     1       0.982  -8.129 -15.732  1.00  0.00    -0.021 C 
HETATM    4  C10 UNL     1       2.105  -7.460 -15.912  1.00  0.00     0.004 C 
HETATM    5  C11 UNL     1       2.569  -6.339 -16.755  1.00  0.00     0.202 C 
HETATM    6  C17 UNL     1       1.512  -5.904 -17.755  1.00  0.00     0.247 C 
HETATM    7  O4  UNL     1       1.864  -5.174 -18.696  1.00  0.00    -0.271 OA
HETATM    8  N3  UNL     1       0.155  -6.260 -17.711  1.00  0.00    -0.336 N 
HETATM    9  C18 UNL     1      -0.414  -6.538 -18.996  1.00  0.00     0.127 C 
HETATM   10  C19 UNL     1      -1.054  -7.932 -18.798  1.00  0.00     0.021 C 
HETATM   11  C20 UNL     1      -0.400  -8.694 -17.679  1.00  0.00     0.013 C 
ENDROOT
BRANCH   1  12
HETATM   12  C6  UNL     1      -2.030  -6.156 -16.554  1.00  0.00     0.242 C 
HETATM   13  N1  UNL     1      -3.010  -6.995 -15.977  1.00  0.00    -0.345 N 
ATOM     14  H1  UNL     1      -2.710  -7.868 -15.545  1.00  0.00     0.163 HD
HETATM   15  O1  UNL     1      -2.409  -5.092 -17.096  1.00  0.00    -0.271 OA
BRANCH  13  16
HETATM   16  C5  UNL     1      -4.422  -6.670 -15.973  1.00  0.00     0.188 C 
BRANCH  16  17
HETATM   17  C3  UNL     1      -5.192  -7.691 -16.738  1.00  0.00     0.014 C 
HETATM   18  C4  UNL     1      -4.185  -8.705 -17.303  1.00  0.00     0.012 C 
BRANCH  17  19
HETATM   19  C2  UNL     1      -6.208  -8.474 -15.997  1.00  0.00     0.002 C 
HETATM   20  C1  UNL     1      -7.632  -8.268 -16.340  1.00  0.00     0.005 C 
ENDBRANCH  17  19
ENDBRANCH  16  17
BRANCH  16  21
HETATM   21  C21 UNL     1      -4.990  -6.401 -14.656  1.00  0.00     0.282 C 
HETATM   22  O5  UNL     1      -4.394  -6.662 -13.564  1.00  0.00    -0.263 OA
BRANCH  21  23
HETATM   23  O6  UNL     1      -6.262  -5.821 -14.486  1.00  0.00    -0.314 OA
BRANCH  23  24
HETATM   24  C22 UNL     1      -7.003  -6.016 -13.321  1.00  0.00     0.141 C 
HETATM   25  C23 UNL     1      -7.396  -4.748 -12.553  1.00  0.00     0.020 C 
HETATM   26  C24 UNL     1      -7.581  -3.532 -13.440  1.00  0.00     0.012 C 
HETATM   27  C27 UNL     1      -8.766  -5.374 -12.407  1.00  0.00    -0.001 C 
HETATM   28  C25 UNL     1      -8.903  -3.830 -14.088  1.00  0.00    -0.013 C 
HETATM   29  C26 UNL     1      -9.711  -4.284 -12.860  1.00  0.00     0.010 C 
HETATM   30  C29 UNL     1      -8.789  -5.142 -14.823  1.00  0.00     0.012 C 
HETATM   31  C28 UNL     1      -8.484  -6.114 -13.689  1.00  0.00     0.020 C 
ENDBRANCH  23  24
ENDBRANCH  21  23
ENDBRANCH  16  21
ENDBRANCH  13  16
ENDBRANCH   1  12
BRANCH   5  32
HETATM   32  N2  UNL     1       2.915  -5.174 -15.980  1.00  0.00    -0.320 N 
HETATM   33  C12 UNL     1       4.256  -5.012 -15.544  1.00  0.00     0.362 C 
HETATM   34  O2  UNL     1       5.157  -5.861 -15.812  1.00  0.00    -0.238 OA
ATOM     35  H2  UNL     1       2.208  -4.477 -15.749  1.00  0.00     0.166 HD
BRANCH  33  36
HETATM   36  O3  UNL     1       4.617  -3.905 -14.806  1.00  0.00    -0.294 OA
BRANCH  36  37
HETATM   37  C13 UNL     1       4.309  -3.870 -13.411  1.00  0.00     0.061 C 
HETATM   38  C14 UNL     1       4.040  -5.223 -12.836  1.00  0.00     0.046 C 
HETATM   39  C15 UNL     1       3.069  -3.022 -13.253  1.00  0.00     0.046 C 
HETATM   40  C16 UNL     1       5.442  -3.206 -12.651  1.00  0.00     0.046 C 
ENDBRANCH  36  37
ENDBRANCH  33  36
ENDBRANCH   5  32
TORSDOF 10
ENDMDL
MODEL 4
REMARK VINA RESULT: -6.169629278      2.489      7.883
REMARK  10 active torsions:
REMARK  status: ('A' for Active; 'I' for Inactive)
REMARK    1  A    between atoms: C2_2  and  C3_3 
REMARK    2  A    between atoms: C3_3  and  C5_5 
REMARK    3  A    between atoms: C5_5  and  N1_6 
REMARK    4  A    between atoms: C5_5  and  C21_30 
REMARK       I    between atoms: N1_6  and  C6_8 
REMARK    5  A    between atoms: C6_8  and  C7_10 
REMARK    6  A    between atoms: C11_14  and  N2_15 
REMARK       I    between atoms: N2_15  and  C12_17 
REMARK    7  A    between atoms: C12_17  and  O3_19 
REMARK    8  A    between atoms: O3_19  and  C13_20 
REMARK    9  A    between atoms: C21_30  and  O6_32 
REMARK   10  A    between atoms: O6_32  and  C22_33 
ROOT
HETATM    1  C7  UNL     1       1.294  -5.891 -15.003  1.00  0.00     0.186 C 
HETATM    2  C8  UNL     1       2.394  -6.261 -13.972  1.00  0.00     0.040 C 
HETATM    3  C9  UNL     1       2.080  -5.471 -12.754  1.00  0.00    -0.021 C 
HETATM    4  C10 UNL     1       1.625  -4.246 -12.567  1.00  0.00     0.004 C 
HETATM    5  C11 UNL     1       1.221  -3.105 -13.415  1.00  0.00     0.202 C 
HETATM    6  C17 UNL     1       1.495  -3.365 -14.886  1.00  0.00     0.247 C 
HETATM    7  O4  UNL     1       1.465  -2.398 -15.664  1.00  0.00    -0.271 OA
HETATM    8  N3  UNL     1       1.785  -4.615 -15.451  1.00  0.00    -0.336 N 
HETATM    9  C18 UNL     1       2.789  -4.572 -16.472  1.00  0.00     0.127 C 
HETATM   10  C19 UNL     1       3.803  -5.645 -16.007  1.00  0.00     0.021 C 
HETATM   11  C20 UNL     1       3.729  -5.879 -14.523  1.00  0.00     0.013 C 
ENDROOT
BRANCH   1  12
HETATM   12  C6  UNL     1       1.060  -6.919 -15.995  1.00  0.00     0.242 C 
HETATM   13  N1  UNL     1       0.182  -6.710 -17.081  1.00  0.00    -0.345 N 
ATOM     14  H1  UNL     1      -0.299  -5.814 -17.153  1.00  0.00     0.163 HD
HETATM   15  O1  UNL     1       1.636  -8.029 -15.906  1.00  0.00    -0.271 OA
BRANCH  13  16
HETATM   16  C5  UNL     1      -0.065  -7.711 -18.099  1.00  0.00     0.188 C 
BRANCH  16  17
HETATM   17  C3  UNL     1      -1.352  -8.415 -17.834  1.00  0.00     0.014 C 
HETATM   18  C4  UNL     1      -1.035  -9.659 -16.990  1.00  0.00     0.012 C 
BRANCH  17  19
HETATM   19  C2  UNL     1      -2.398  -7.665 -17.102  1.00  0.00     0.002 C 
HETATM   20  C1  UNL     1      -3.637  -8.383 -16.729  1.00  0.00     0.005 C 
ENDBRANCH  17  19
ENDBRANCH  16  17
BRANCH  16  21
HETATM   21  C21 UNL     1       0.049  -7.235 -19.474  1.00  0.00     0.282 C 
HETATM   22  O5  UNL     1      -0.187  -7.958 -20.492  1.00  0.00    -0.263 OA
BRANCH  21  23
HETATM   23  O6  UNL     1       0.435  -5.918 -19.788  1.00  0.00    -0.314 OA
BRANCH  23  24
HETATM   24  C22 UNL     1       1.777  -5.559 -19.905  1.00  0.00     0.141 C 
HETATM   25  C23 UNL     1       2.399  -5.723 -21.297  1.00  0.00     0.020 C 
HETATM   26  C24 UNL     1       1.408  -5.545 -22.432  1.00  0.00     0.012 C 
HETATM   27  C27 UNL     1       3.029  -4.366 -21.073  1.00  0.00    -0.001 C 
HETATM   28  C25 UNL     1       1.220  -4.055 -22.435  1.00  0.00    -0.013 C 
HETATM   29  C26 UNL     1       2.685  -3.596 -22.327  1.00  0.00     0.010 C 
HETATM   30  C29 UNL     1       0.715  -3.634 -21.078  1.00  0.00     0.012 C 
HETATM   31  C28 UNL     1       1.864  -4.055 -20.169  1.00  0.00     0.020 C 
ENDBRANCH  23  24
ENDBRANCH  21  23
ENDBRANCH  16  21
ENDBRANCH  13  16
ENDBRANCH   1  12
BRANCH   5  32
HETATM   32  N2  UNL     1      -0.184  -2.804 -13.299  1.00  0.00    -0.320 N 
HETATM   33  C12 UNL     1      -0.582  -1.652 -12.571  1.00  0.00     0.362 C 
HETATM   34  O2  UNL     1       0.259  -0.883 -12.018  1.00  0.00    -0.238 OA
ATOM     35  H2  UNL     1      -0.881  -3.409 -13.733  1.00  0.00     0.166 HD
BRANCH  33  36
HETATM   36  O3  UNL     1      -1.919  -1.337 -12.448  1.00  0.00    -0.294 OA
BRANCH  36  37
HETATM   37  C13 UNL     1      -2.585  -0.697 -13.538  1.00  0.00     0.061 C 
HETATM   38  C14 UNL     1      -1.665   0.109 -14.396  1.00  0.00     0.046 C 
HETATM   39  C15 UNL     1      -3.623   0.225 -12.943  1.00  0.00     0.046 C 
HETATM   40  C16 UNL     1      -3.297  -1.736 -14.385  1.00  0.00     0.046 C 
ENDBRANCH  36  37
ENDBRANCH  33  36
ENDBRANCH   5  32
TORSDOF 10
ENDMDL
MODEL 5
REMARK VINA RESULT: -6.159389340      3.915      8.024
REMARK  10 active torsions:
REMARK  status: ('A' for Active; 'I' for Inactive)
REMARK    1  A    between atoms: C2_2  and  C3_3 
REMARK    2  A    between atoms: C3_3  and  C5_5 
REMARK    3  A    between atoms: C5_5  and  N1_6 
REMARK    4  A    between atoms: C5_5  and  C21_30 
REMARK       I    between atoms: N1_6  and  C6_8 
REMARK    5  A    between atoms: C6_8  and  C7_10 
REMARK    6  A    between atoms: C11_14  and  N2_15 
REMARK       I    between atoms: N2_15  and  C12_17 
REMARK    7  A    between atoms: C12_17  and  O3_19 
REMARK    8  A    between atoms: O3_19  and  C13_20 
REMARK    9  A    between atoms: C21_30  and  O6_32 
REMARK   10  A    between atoms: O6_32  and  C22_33 
ROOT
HETATM    1  C7  UNL     1       0.386  -3.873 -17.225  1.00  0.00     0.186 C 
HETATM    2  C8  UNL     1      -0.552  -5.084 -17.482  1.00  0.00     0.040 C 
HETATM    3  C9  UNL     1      -1.889  -4.662 -16.992  1.00  0.00    -0.021 C 
HETATM    4  C10 UNL     1      -2.284  -3.948 -15.955  1.00  0.00     0.004 C 
HETATM    5  C11 UNL     1      -1.644  -3.246 -14.823  1.00  0.00     0.202 C 
HETATM    6  C17 UNL     1      -0.147  -3.492 -14.774  1.00  0.00     0.247 C 
HETATM    7  O4  UNL     1       0.459  -3.197 -13.731  1.00  0.00    -0.271 OA
HETATM    8  N3  UNL     1       0.623  -4.032 -15.815  1.00  0.00    -0.336 N 
HETATM    9  C18 UNL     1       1.638  -4.942 -15.376  1.00  0.00     0.127 C 
HETATM   10  C19 UNL     1       1.374  -6.200 -16.238  1.00  0.00     0.021 C 
HETATM   11  C20 UNL     1      -0.050  -6.262 -16.714  1.00  0.00     0.013 C 
ENDROOT
BRANCH   1  12
HETATM   12  C6  UNL     1       1.531  -3.830 -18.110  1.00  0.00     0.242 C 
HETATM   13  N1  UNL     1       1.519  -4.478 -19.364  1.00  0.00    -0.345 N 
ATOM     14  H1  UNL     1       0.683  -4.993 -19.639  1.00  0.00     0.163 HD
HETATM   15  O1  UNL     1       2.569  -3.213 -17.774  1.00  0.00    -0.271 OA
BRANCH  13  16
HETATM   16  C5  UNL     1       2.642  -4.445 -20.280  1.00  0.00     0.188 C 
BRANCH  16  17
HETATM   17  C3  UNL     1       2.909  -5.807 -20.823  1.00  0.00     0.014 C 
HETATM   18  C4  UNL     1       4.281  -6.257 -20.295  1.00  0.00     0.012 C 
BRANCH  17  19
HETATM   19  C2  UNL     1       1.950  -6.879 -20.472  1.00  0.00     0.002 C 
HETATM   20  C1  UNL     1       1.000  -7.332 -21.512  1.00  0.00     0.005 C 
ENDBRANCH  17  19
ENDBRANCH  16  17
BRANCH  16  21
HETATM   21  C21 UNL     1       2.562  -3.424 -21.320  1.00  0.00     0.282 C 
HETATM   22  O5  UNL     1       1.586  -3.314 -22.125  1.00  0.00    -0.263 OA
BRANCH  21  23
HETATM   23  O6  UNL     1       3.575  -2.465 -21.516  1.00  0.00    -0.314 OA
BRANCH  23  24
HETATM   24  C22 UNL     1       4.351  -1.997 -20.457  1.00  0.00     0.141 C 
HETATM   25  C23 UNL     1       5.788  -2.529 -20.388  1.00  0.00     0.020 C 
HETATM   26  C24 UNL     1       6.379  -2.862 -21.745  1.00  0.00     0.012 C 
HETATM   27  C27 UNL     1       6.202  -1.106 -20.088  1.00  0.00    -0.001 C 
HETATM   28  C25 UNL     1       6.665  -1.493 -22.293  1.00  0.00    -0.013 C 
HETATM   29  C26 UNL     1       7.325  -0.841 -21.065  1.00  0.00     0.010 C 
HETATM   30  C29 UNL     1       5.372  -0.717 -22.335  1.00  0.00     0.012 C 
HETATM   31  C28 UNL     1       4.986  -0.666 -20.862  1.00  0.00     0.020 C 
ENDBRANCH  23  24
ENDBRANCH  21  23
ENDBRANCH  16  21
ENDBRANCH  13  16
ENDBRANCH   1  12
BRANCH   5  32
HETATM   32  N2  UNL     1      -1.831  -1.818 -14.885  1.00  0.00    -0.320 N 
HETATM   33  C12 UNL     1      -3.001  -1.252 -14.314  1.00  0.00     0.362 C 
HETATM   34  O2  UNL     1      -3.888  -1.964 -13.755  1.00  0.00    -0.238 OA
ATOM     35  H2  UNL     1      -1.133  -1.224 -15.332  1.00  0.00     0.166 HD
BRANCH  33  36
HETATM   36  O3  UNL     1      -3.204   0.111 -14.354  1.00  0.00    -0.294 OA
BRANCH  36  37
HETATM   37  C13 UNL     1      -2.793   0.907 -13.241  1.00  0.00     0.061 C 
HETATM   38  C14 UNL     1      -2.225   0.099 -12.120  1.00  0.00     0.046 C 
HETATM   39  C15 UNL     1      -4.018   1.634 -12.740  1.00  0.00     0.046 C 
HETATM   40  C16 UNL     1      -1.777   1.939 -13.696  1.00  0.00     0.046 C 
ENDBRANCH  36  37
ENDBRANCH  33  36
ENDBRANCH   5  32
TORSDOF 10
ENDMDL
