MODEL 1
REMARK VINA RESULT: -7.381893018      0.000      0.000
REMARK  9 active torsions:
REMARK  status: ('A' for Active; 'I' for Inactive)
REMARK    1  A    between atoms: C2_2  and  N1_3 
REMARK    2  A    between atoms: C4_6  and  C5_7 
REMARK    3  A    between atoms: C5_7  and  C6_8 
REMARK    4  A    between atoms: C5_7  and  C18_25 
REMARK    5  A    between atoms: C6_8  and  C7_9 
REMARK    6  A    between atoms: N2_12  and  C10_13 
REMARK    7  A    between atoms: N3_17  and  O2_19 
REMARK       I    between atoms: C18_25  and  N4_27 
REMARK    8  A    between atoms: C21_30  and  O4_31 
REMARK    9  A    between atoms: C23_34  and  O5_35 
ROOT
HETATM    1  C5  UNL     1      -1.501  -7.310 -17.264  1.00  0.00     0.004 C 
ENDROOT
BRANCH   1   2
HETATM    2  C4  UNL     1      -0.848  -6.394 -18.245  1.00  0.00     0.141 C 
HETATM    3  C3  UNL     1      -0.325  -5.172 -17.590  1.00  0.00     0.231 C 
HETATM    4  N1  UNL     1       0.778  -4.464 -18.230  1.00  0.00    -0.343 N 
HETATM    5  O1  UNL     1      -0.701  -4.649 -16.537  1.00  0.00    -0.272 OA
HETATM    6  C26 UNL     1       0.860  -4.516 -19.659  1.00  0.00     0.030 C 
HETATM    7  C25 UNL     1       0.452  -5.845 -20.178  1.00  0.00     0.063 C 
HETATM    8  C27 UNL     1      -0.140  -3.475 -20.183  1.00  0.00     0.038 C 
HETATM    9  C28 UNL     1       2.248  -4.212 -20.186  1.00  0.00     0.038 C 
HETATM   10  C23 UNL     1       0.303  -6.895 -19.030  1.00  0.00     0.140 C 
BRANCH   4  11
HETATM   11  C2  UNL     1       1.760  -3.731 -17.472  1.00  0.00     0.122 C 
HETATM   12  C1  UNL     1       2.710  -4.591 -16.688  1.00  0.00     0.026 C 
ENDBRANCH   4  11
BRANCH  10  13
HETATM   13  O5  UNL     1       0.220  -8.065 -19.700  1.00  0.00    -0.389 OA
HETATM   14  C24 UNL     1       0.419  -7.834 -21.063  1.00  0.00     0.202 C 
ENDBRANCH  10  13
ENDBRANCH   1   2
BRANCH   1  15
HETATM   15  C6  UNL     1      -2.958  -7.336 -17.480  1.00  0.00     0.046 C 
BRANCH  15  16
HETATM   16  C7  UNL     1      -3.899  -7.703 -16.375  1.00  0.00    -0.004 C 
HETATM   17  C8  UNL     1      -3.875  -6.424 -15.433  1.00  0.00     0.025 C 
HETATM   18  C9  UNL     1      -4.703  -6.644 -14.233  1.00  0.00     0.122 C 
HETATM   19  N2  UNL     1      -6.029  -7.121 -14.498  1.00  0.00    -0.389 N 
HETATM   20  C16 UNL     1      -6.104  -8.126 -15.451  1.00  0.00     0.059 C 
HETATM   21  C17 UNL     1      -5.357  -7.745 -16.714  1.00  0.00     0.049 C 
BRANCH  19  22
HETATM   22  C10 UNL     1      -7.062  -6.218 -14.246  1.00  0.00     0.084 C 
HETATM   23  C11 UNL     1      -8.188  -6.252 -15.220  1.00  0.00     0.031 C 
HETATM   24  C12 UNL     1      -9.149  -5.083 -14.986  1.00  0.00     0.056 C 
HETATM   25  C13 UNL     1      -8.923  -4.530 -13.638  1.00  0.00     0.010 C 
HETATM   26  N3  UNL     1      -8.861  -3.270 -13.462  1.00  0.00    -0.277 N 
HETATM   27  C14 UNL     1      -8.765  -5.545 -12.541  1.00  0.00     0.056 C 
ATOM     28  H3  UNL     1      -8.702  -2.902 -12.524  1.00  0.00     0.193 HD
HETATM   29  C15 UNL     1      -7.514  -6.347 -12.805  1.00  0.00     0.031 C 
BRANCH  26  30
HETATM   30  O2  UNL     1      -9.004  -2.414 -14.499  1.00  0.00    -0.290 OA
ATOM     31  H2  UNL     1      -8.985  -1.474 -14.363  1.00  0.00     0.244 HD
ENDBRANCH  26  30
ENDBRANCH  19  22
ENDBRANCH  15  16
ENDBRANCH   1  15
BRANCH   1  32
HETATM   32  C18 UNL     1      -0.824  -8.578 -17.008  1.00  0.00     0.246 C 
HETATM   33  O3  UNL     1      -1.222  -9.697 -17.502  1.00  0.00    -0.268 OA
HETATM   34  N4  UNL     1       0.335  -8.693 -16.187  1.00  0.00    -0.346 N 
HETATM   35  C19 UNL     1       0.982  -7.571 -15.550  1.00  0.00     0.129 C 
HETATM   36  C22 UNL     1       1.032  -9.908 -15.823  1.00  0.00     0.157 C 
HETATM   37  C20 UNL     1       2.350  -8.054 -15.128  1.00  0.00     0.053 C 
HETATM   38  C21 UNL     1       2.444  -9.502 -15.560  1.00  0.00     0.137 C 
BRANCH  38  39
HETATM   39  O4  UNL     1       3.190  -9.613 -16.728  1.00  0.00    -0.394 OA
ATOM     40  H4  UNL     1       3.239 -10.521 -17.006  1.00  0.00     0.210 HD
ENDBRANCH  38  39
ENDBRANCH   1  32
TORSDOF 9
ENDMDL
MODEL 2
REMARK VINA RESULT: -7.136844623      1.551      2.510
REMARK  9 active torsions:
REMARK  status: ('A' for Active; 'I' for Inactive)
REMARK    1  A    between atoms: C2_2  and  N1_3 
REMARK    2  A    between atoms: C4_6  and  C5_7 
REMARK    3  A    between atoms: C5_7  and  C6_8 
REMARK    4  A    between atoms: C5_7  and  C18_25 
REMARK    5  A    between atoms: C6_8  and  C7_9 
REMARK    6  A    between atoms: N2_12  and  C10_13 
REMARK    7  A    between atoms: N3_17  and  O2_19 
REMARK       I    between atoms: C18_25  and  N4_27 
REMARK    8  A    between atoms: C21_30  and  O4_31 
REMARK    9  A    between atoms: C23_34  and  O5_35 
ROOT
HETATM    1  C5  UNL     1      -1.331  -7.230 -17.376  1.00  0.00     0.004 C 
ENDROOT
BRANCH   1   2
HETATM    2  C4  UNL     1      -0.544  -6.090 -16.819  1.00  0.00     0.141 C 
HETATM    3  C3  UNL     1       0.627  -6.560 -16.044  1.00  0.00     0.231 C 
HETATM    4  N1  UNL     1       1.769  -5.662 -15.907  1.00  0.00    -0.343 N 
HETATM    5  O1  UNL     1       0.785  -7.646 -15.478  1.00  0.00    -0.272 OA
HETATM    6  C26 UNL     1       1.510  -4.254 -15.895  1.00  0.00     0.030 C 
HETATM    7  C25 UNL     1       0.412  -3.896 -16.828  1.00  0.00     0.063 C 
HETATM    8  C27 UNL     1       1.048  -3.917 -14.469  1.00  0.00     0.038 C 
HETATM    9  C28 UNL     1       2.723  -3.422 -16.256  1.00  0.00     0.038 C 
HETATM   10  C23 UNL     1       0.025  -5.094 -17.754  1.00  0.00     0.140 C 
BRANCH   4  11
HETATM   11  C2  UNL     1       3.119  -6.153 -15.787  1.00  0.00     0.122 C 
HETATM   12  C1  UNL     1       3.647  -6.831 -17.020  1.00  0.00     0.026 C 
ENDBRANCH   4  11
BRANCH  10  13
HETATM   13  O5  UNL     1      -0.751  -4.511 -18.693  1.00  0.00    -0.389 OA
HETATM   14  C24 UNL     1       0.047  -4.094 -19.761  1.00  0.00     0.202 C 
ENDBRANCH  10  13
ENDBRANCH   1   2
BRANCH   1  15
HETATM   15  C6  UNL     1      -2.756  -6.869 -17.474  1.00  0.00     0.046 C 
BRANCH  15  16
HETATM   16  C7  UNL     1      -3.760  -7.405 -16.502  1.00  0.00    -0.004 C 
HETATM   17  C8  UNL     1      -3.793  -6.299 -15.361  1.00  0.00     0.025 C 
HETATM   18  C9  UNL     1      -4.690  -6.706 -14.265  1.00  0.00     0.122 C 
HETATM   19  N2  UNL     1      -5.998  -7.121 -14.682  1.00  0.00    -0.389 N 
HETATM   20  C16 UNL     1      -6.016  -7.955 -15.791  1.00  0.00     0.059 C 
HETATM   21  C17 UNL     1      -5.195  -7.377 -16.928  1.00  0.00     0.049 C 
BRANCH  19  22
HETATM   22  C10 UNL     1      -7.045  -6.263 -14.346  1.00  0.00     0.084 C 
HETATM   23  C11 UNL     1      -8.216  -6.297 -15.265  1.00  0.00     0.031 C 
HETATM   24  C12 UNL     1      -9.200  -5.170 -14.939  1.00  0.00     0.056 C 
HETATM   25  C13 UNL     1      -8.924  -4.660 -13.583  1.00  0.00     0.010 C 
HETATM   26  N3  UNL     1      -8.893  -3.407 -13.360  1.00  0.00    -0.277 N 
HETATM   27  C14 UNL     1      -8.681  -5.711 -12.536  1.00  0.00     0.056 C 
ATOM     28  H3  UNL     1      -8.700  -3.069 -12.417  1.00  0.00     0.193 HD
HETATM   29  C15 UNL     1      -7.421  -6.460 -12.891  1.00  0.00     0.031 C 
BRANCH  26  30
HETATM   30  O2  UNL     1      -9.113  -2.518 -14.355  1.00  0.00    -0.290 OA
ATOM     31  H2  UNL     1      -8.878  -1.603 -14.254  1.00  0.00     0.244 HD
ENDBRANCH  26  30
ENDBRANCH  19  22
ENDBRANCH  15  16
ENDBRANCH   1  15
BRANCH   1  32
HETATM   32  C18 UNL     1      -0.728  -7.952 -18.492  1.00  0.00     0.246 C 
HETATM   33  O3  UNL     1      -0.723  -7.499 -19.697  1.00  0.00    -0.268 OA
HETATM   34  N4  UNL     1      -0.095  -9.220 -18.353  1.00  0.00    -0.346 N 
HETATM   35  C19 UNL     1       0.049  -9.911 -17.093  1.00  0.00     0.129 C 
HETATM   36  C22 UNL     1       0.469 -10.037 -19.406  1.00  0.00     0.157 C 
HETATM   37  C20 UNL     1       1.093 -10.980 -17.314  1.00  0.00     0.053 C 
HETATM   38  C21 UNL     1       1.533 -10.858 -18.757  1.00  0.00     0.137 C 
BRANCH  38  39
HETATM   39  O4  UNL     1       2.753 -10.194 -18.838  1.00  0.00    -0.394 OA
ATOM     40  H4  UNL     1       3.392 -10.727 -19.298  1.00  0.00     0.210 HD
ENDBRANCH  38  39
ENDBRANCH   1  32
TORSDOF 9
ENDMDL
MODEL 3
REMARK VINA RESULT: -6.912996111      5.894      7.812
REMARK  9 active torsions:
REMARK  status: ('A' for Active; 'I' for Inactive)
REMARK    1  A    between atoms: C2_2  and  N1_3 
REMARK    2  A    between atoms: C4_6  and  C5_7 
REMARK    3  A    between atoms: C5_7  and  C6_8 
REMARK    4  A    between atoms: C5_7  and  C18_25 
REMARK    5  A    between atoms: C6_8  and  C7_9 
REMARK    6  A    between atoms: N2_12  and  C10_13 
REMARK    7  A    between atoms: N3_17  and  O2_19 
REMARK       I    between atoms: C18_25  and  N4_27 
REMARK    8  A    between atoms: C21_30  and  O4_31 
REMARK    9  A    between atoms: C23_34  and  O5_35 
ROOT
HETATM    1  C5  UNL     1      -2.342  -0.549 -12.985  1.00  0.00     0.004 C 
ENDROOT
BRANCH   1   2
HETATM    2  C4  UNL     1      -1.667   0.781 -12.912  1.00  0.00     0.141 C 
HETATM    3  C3  UNL     1      -0.989   1.121 -14.185  1.00  0.00     0.231 C 
HETATM    4  N1  UNL     1      -0.771   2.530 -14.495  1.00  0.00    -0.343 N 
HETATM    5  O1  UNL     1      -0.571   0.354 -15.057  1.00  0.00    -0.272 OA
HETATM    6  C26 UNL     1      -0.572   3.428 -13.398  1.00  0.00     0.030 C 
HETATM    7  C25 UNL     1      -1.422   3.063 -12.237  1.00  0.00     0.063 C 
HETATM    8  C27 UNL     1       0.897   3.271 -12.977  1.00  0.00     0.038 C 
HETATM    9  C28 UNL     1      -0.857   4.873 -13.753  1.00  0.00     0.038 C 
HETATM   10  C23 UNL     1      -2.482   1.979 -12.613  1.00  0.00     0.140 C 
BRANCH   4  11
HETATM   11  C2  UNL     1      -0.750   3.021 -15.850  1.00  0.00     0.122 C 
HETATM   12  C1  UNL     1       0.588   2.921 -16.527  1.00  0.00     0.026 C 
ENDBRANCH   4  11
BRANCH  10  13
HETATM   13  O5  UNL     1      -3.318   1.993 -11.552  1.00  0.00    -0.389 OA
HETATM   14  C24 UNL     1      -3.158   3.191 -10.852  1.00  0.00     0.202 C 
ENDBRANCH  10  13
ENDBRANCH   1   2
BRANCH   1  15
HETATM   15  C6  UNL     1      -3.722  -0.395 -13.476  1.00  0.00     0.046 C 
BRANCH  15  16
HETATM   16  C7  UNL     1      -4.875  -1.022 -12.758  1.00  0.00    -0.004 C 
HETATM   17  C8  UNL     1      -6.042  -0.990 -13.837  1.00  0.00     0.025 C 
HETATM   18  C9  UNL     1      -7.297  -1.509 -13.265  1.00  0.00     0.122 C 
HETATM   19  N2  UNL     1      -7.177  -2.777 -12.606  1.00  0.00    -0.389 N 
HETATM   20  C16 UNL     1      -6.066  -2.902 -11.785  1.00  0.00     0.059 C 
HETATM   21  C17 UNL     1      -4.797  -2.497 -12.509  1.00  0.00     0.049 C 
BRANCH  19  22
HETATM   22  C10 UNL     1      -7.787  -3.856 -13.247  1.00  0.00     0.084 C 
HETATM   23  C11 UNL     1      -7.626  -5.173 -12.571  1.00  0.00     0.031 C 
HETATM   24  C12 UNL     1      -8.132  -6.311 -13.461  1.00  0.00     0.056 C 
HETATM   25  C13 UNL     1      -8.998  -5.755 -14.516  1.00  0.00     0.010 C 
HETATM   26  N3  UNL     1      -8.875  -6.144 -15.722  1.00  0.00    -0.277 N 
HETATM   27  C14 UNL     1      -9.989  -4.721 -14.059  1.00  0.00     0.056 C 
ATOM     28  H3  UNL     1      -9.481  -5.749 -16.442  1.00  0.00     0.193 HD
HETATM   29  C15 UNL     1      -9.231  -3.517 -13.558  1.00  0.00     0.031 C 
BRANCH  26  30
HETATM   30  O2  UNL     1      -7.953  -7.073 -16.063  1.00  0.00    -0.290 OA
ATOM     31  H2  UNL     1      -7.289  -6.887 -16.716  1.00  0.00     0.244 HD
ENDBRANCH  26  30
ENDBRANCH  19  22
ENDBRANCH  15  16
ENDBRANCH   1  15
BRANCH   1  32
HETATM   32  C18 UNL     1      -1.546  -1.654 -13.510  1.00  0.00     0.246 C 
HETATM   33  O3  UNL     1      -1.834  -2.265 -14.605  1.00  0.00    -0.268 OA
HETATM   34  N4  UNL     1      -0.383  -2.158 -12.861  1.00  0.00    -0.346 N 
HETATM   35  C19 UNL     1       0.152  -1.612 -11.635  1.00  0.00     0.129 C 
HETATM   36  C22 UNL     1       0.427  -3.285 -13.268  1.00  0.00     0.157 C 
HETATM   37  C20 UNL     1       1.559  -2.148 -11.513  1.00  0.00     0.053 C 
HETATM   38  C21 UNL     1       1.793  -3.019 -12.727  1.00  0.00     0.137 C 
BRANCH  38  39
HETATM   39  O4  UNL     1       2.549  -2.338 -13.676  1.00  0.00    -0.394 OA
ATOM     40  H4  UNL     1       3.395  -2.755 -13.789  1.00  0.00     0.210 HD
ENDBRANCH  38  39
ENDBRANCH   1  32
TORSDOF 9
ENDMDL
MODEL 4
REMARK VINA RESULT: -6.886851893      6.655      9.369
REMARK  9 active torsions:
REMARK  status: ('A' for Active; 'I' for Inactive)
REMARK    1  A    between atoms: C2_2  and  N1_3 
REMARK    2  A    between atoms: C4_6  and  C5_7 
REMARK    3  A    between atoms: C5_7  and  C6_8 
REMARK    4  A    between atoms: C5_7  and  C18_25 
REMARK    5  A    between atoms: C6_8  and  C7_9 
REMARK    6  A    between atoms: N2_12  and  C10_13 
REMARK    7  A    between atoms: N3_17  and  O2_19 
REMARK       I    between atoms: C18_25  and  N4_27 
REMARK    8  A    between atoms: C21_30  and  O4_31 
REMARK    9  A    between atoms: C23_34  and  O5_35 
ROOT
HETATM    1  C5  UNL     1      -3.310   1.558 -13.109  1.00  0.00     0.004 C 
ENDROOT
BRANCH   1   2
HETATM    2  C4  UNL     1      -2.005   1.634 -13.829  1.00  0.00     0.141 C 
HETATM    3  C3  UNL     1      -1.280   2.889 -13.518  1.00  0.00     0.231 C 
HETATM    4  N1  UNL     1       0.172   2.899 -13.659  1.00  0.00    -0.343 N 
HETATM    5  O1  UNL     1      -1.746   3.967 -13.137  1.00  0.00    -0.272 OA
HETATM    6  C26 UNL     1       0.749   2.052 -14.659  1.00  0.00     0.030 C 
HETATM    7  C25 UNL     1       0.018   0.764 -14.766  1.00  0.00     0.063 C 
HETATM    8  C27 UNL     1       0.592   2.798 -15.993  1.00  0.00     0.038 C 
HETATM    9  C28 UNL     1       2.210   1.743 -14.406  1.00  0.00     0.038 C 
HETATM   10  C23 UNL     1      -0.998   0.576 -13.594  1.00  0.00     0.140 C 
BRANCH   4  11
HETATM   11  C2  UNL     1       1.015   3.727 -12.833  1.00  0.00     0.122 C 
HETATM   12  C1  UNL     1       1.177   3.236 -11.422  1.00  0.00     0.026 C 
ENDBRANCH   4  11
BRANCH  10  13
HETATM   13  O5  UNL     1      -1.337  -0.728 -13.696  1.00  0.00    -0.389 OA
HETATM   14  C24 UNL     1      -0.540  -1.483 -12.831  1.00  0.00     0.202 C 
ENDBRANCH  10  13
ENDBRANCH   1   2
BRANCH   1  15
HETATM   15  C6  UNL     1      -4.147   0.487 -13.678  1.00  0.00     0.046 C 
BRANCH  15  16
HETATM   16  C7  UNL     1      -4.693  -0.610 -12.818  1.00  0.00    -0.004 C 
HETATM   17  C8  UNL     1      -6.265  -0.478 -13.009  1.00  0.00     0.025 C 
HETATM   18  C9  UNL     1      -6.978  -1.449 -12.160  1.00  0.00     0.122 C 
HETATM   19  N2  UNL     1      -6.511  -2.800 -12.272  1.00  0.00    -0.389 N 
HETATM   20  C16 UNL     1      -5.130  -2.938 -12.284  1.00  0.00     0.059 C 
HETATM   21  C17 UNL     1      -4.492  -2.012 -13.301  1.00  0.00     0.049 C 
BRANCH  19  22
HETATM   22  C10 UNL     1      -7.379  -3.695 -12.896  1.00  0.00     0.084 C 
HETATM   23  C11 UNL     1      -7.402  -5.068 -12.320  1.00  0.00     0.031 C 
HETATM   24  C12 UNL     1      -8.207  -6.021 -13.207  1.00  0.00     0.056 C 
HETATM   25  C13 UNL     1      -9.058  -5.234 -14.119  1.00  0.00     0.010 C 
HETATM   26  N3  UNL     1      -9.139  -5.544 -15.351  1.00  0.00    -0.277 N 
HETATM   27  C14 UNL     1      -9.779  -4.075 -13.490  1.00  0.00     0.056 C 
ATOM     28  H3  UNL     1      -9.731  -4.990 -15.970  1.00  0.00     0.193 HD
HETATM   29  C15 UNL     1      -8.756  -3.074 -13.015  1.00  0.00     0.031 C 
BRANCH  26  30
HETATM   30  O2  UNL     1      -8.454  -6.597 -15.851  1.00  0.00    -0.290 OA
ATOM     31  H2  UNL     1      -8.851  -7.185 -16.482  1.00  0.00     0.244 HD
ENDBRANCH  26  30
ENDBRANCH  19  22
ENDBRANCH  15  16
ENDBRANCH   1  15
BRANCH   1  32
HETATM   32  C18 UNL     1      -3.259   1.689 -11.656  1.00  0.00     0.246 C 
HETATM   33  O3  UNL     1      -2.290   1.227 -10.945  1.00  0.00    -0.268 OA
HETATM   34  N4  UNL     1      -4.274   2.334 -10.893  1.00  0.00    -0.346 N 
HETATM   35  C19 UNL     1      -5.441   2.955 -11.473  1.00  0.00     0.129 C 
HETATM   36  C22 UNL     1      -4.342   2.453  -9.453  1.00  0.00     0.157 C 
HETATM   37  C20 UNL     1      -6.027   3.840 -10.397  1.00  0.00     0.053 C 
HETATM   38  C21 UNL     1      -5.134   3.690  -9.185  1.00  0.00     0.137 C 
BRANCH  38  39
HETATM   39  O4  UNL     1      -4.278   4.781  -9.075  1.00  0.00    -0.394 OA
ATOM     40  H4  UNL     1      -4.745   5.539  -8.743  1.00  0.00     0.210 HD
ENDBRANCH  38  39
ENDBRANCH   1  32
TORSDOF 9
ENDMDL
MODEL 5
REMARK VINA RESULT: -6.704868765      4.516      5.723
REMARK  9 active torsions:
REMARK  status: ('A' for Active; 'I' for Inactive)
REMARK    1  A    between atoms: C2_2  and  N1_3 
REMARK    2  A    between atoms: C4_6  and  C5_7 
REMARK    3  A    between atoms: C5_7  and  C6_8 
REMARK    4  A    between atoms: C5_7  and  C18_25 
REMARK    5  A    between atoms: C6_8  and  C7_9 
REMARK    6  A    between atoms: N2_12  and  C10_13 
REMARK    7  A    between atoms: N3_17  and  O2_19 
REMARK       I    between atoms: C18_25  and  N4_27 
REMARK    8  A    between atoms: C21_30  and  O4_31 
REMARK    9  A    between atoms: C23_34  and  O5_35 
ROOT
HETATM    1  C5  UNL     1       0.065  -4.615 -16.585  1.00  0.00     0.004 C 
ENDROOT
BRANCH   1   2
HETATM    2  C4  UNL     1       1.073  -4.593 -17.687  1.00  0.00     0.141 C 
HETATM    3  C3  UNL     1       2.102  -5.645 -17.507  1.00  0.00     0.231 C 
HETATM    4  N1  UNL     1       2.802  -6.133 -18.690  1.00  0.00    -0.343 N 
HETATM    5  O1  UNL     1       2.463  -6.191 -16.460  1.00  0.00    -0.272 OA
HETATM    6  C26 UNL     1       2.998  -5.216 -19.772  1.00  0.00     0.030 C 
HETATM    7  C25 UNL     1       1.828  -4.317 -19.940  1.00  0.00     0.063 C 
HETATM    8  C27 UNL     1       4.208  -4.352 -19.387  1.00  0.00     0.038 C 
HETATM    9  C28 UNL     1       3.254  -5.905 -21.097  1.00  0.00     0.038 C 
HETATM   10  C23 UNL     1       0.611  -4.784 -19.079  1.00  0.00     0.140 C 
BRANCH   4  11
HETATM   11  C2  UNL     1       3.289  -7.486 -18.787  1.00  0.00     0.122 C 
HETATM   12  C1  UNL     1       2.216  -8.523 -18.963  1.00  0.00     0.026 C 
ENDBRANCH   4  11
BRANCH  10  13
HETATM   13  O5  UNL     1      -0.408  -4.045 -19.571  1.00  0.00    -0.389 OA
HETATM   14  C24 UNL     1      -0.083  -3.607 -20.857  1.00  0.00     0.202 C 
ENDBRANCH  10  13
ENDBRANCH   1   2
BRANCH   1  15
HETATM   15  C6  UNL     1       0.085  -3.340 -15.848  1.00  0.00     0.046 C 
BRANCH  15  16
HETATM   16  C7  UNL     1      -0.790  -3.121 -14.654  1.00  0.00    -0.004 C 
HETATM   17  C8  UNL     1      -0.053  -1.952 -13.868  1.00  0.00     0.025 C 
HETATM   18  C9  UNL     1      -0.748  -1.653 -12.604  1.00  0.00     0.122 C 
HETATM   19  N2  UNL     1      -2.161  -1.441 -12.731  1.00  0.00    -0.389 N 
HETATM   20  C16 UNL     1      -2.812  -2.347 -13.555  1.00  0.00     0.059 C 
HETATM   21  C17 UNL     1      -2.116  -2.471 -14.896  1.00  0.00     0.049 C 
BRANCH  19  22
HETATM   22  C10 UNL     1      -2.601  -0.134 -12.523  1.00  0.00     0.084 C 
HETATM   23  C11 UNL     1      -1.760   0.928 -13.143  1.00  0.00     0.031 C 
HETATM   24  C12 UNL     1      -2.197   2.317 -12.671  1.00  0.00     0.056 C 
HETATM   25  C13 UNL     1      -3.552   2.232 -12.097  1.00  0.00     0.010 C 
HETATM   26  N3  UNL     1      -3.826   2.821 -11.002  1.00  0.00    -0.277 N 
HETATM   27  C14 UNL     1      -4.536   1.411 -12.883  1.00  0.00     0.056 C 
ATOM     28  H3  UNL     1      -4.768   2.752 -10.616  1.00  0.00     0.193 HD
HETATM   29  C15 UNL     1      -4.067  -0.023 -12.889  1.00  0.00     0.031 C 
BRANCH  26  30
HETATM   30  O2  UNL     1      -2.887   3.537 -10.343  1.00  0.00    -0.290 OA
ATOM     31  H2  UNL     1      -2.906   3.615  -9.397  1.00  0.00     0.244 HD
ENDBRANCH  26  30
ENDBRANCH  19  22
ENDBRANCH  15  16
ENDBRANCH   1  15
BRANCH   1  32
HETATM   32  C18 UNL     1      -1.233  -5.202 -16.904  1.00  0.00     0.246 C 
HETATM   33  O3  UNL     1      -2.258  -4.497 -17.233  1.00  0.00    -0.268 OA
HETATM   34  N4  UNL     1      -1.486  -6.603 -16.878  1.00  0.00    -0.346 N 
HETATM   35  C19 UNL     1      -0.482  -7.594 -16.568  1.00  0.00     0.129 C 
HETATM   36  C22 UNL     1      -2.748  -7.269 -17.113  1.00  0.00     0.157 C 
HETATM   37  C20 UNL     1      -1.038  -8.920 -17.032  1.00  0.00     0.053 C 
HETATM   38  C21 UNL     1      -2.402  -8.629 -17.621  1.00  0.00     0.137 C 
BRANCH  38  39
HETATM   39  O4  UNL     1      -2.337  -8.609 -19.010  1.00  0.00    -0.394 OA
ATOM     40  H4  UNL     1      -3.200  -8.741 -19.385  1.00  0.00     0.210 HD
ENDBRANCH  38  39
ENDBRANCH   1  32
TORSDOF 9
ENDMDL
