MODEL 1
REMARK VINA RESULT: -9.084207094      0.000      0.000
REMARK  17 active torsions:
REMARK  status: ('A' for Active; 'I' for Inactive)
REMARK    1  A    between atoms: O1_2  and  C2_3 
REMARK    2  A    between atoms: C2_3  and  O2_4 
REMARK    3  A    between atoms: C2_3  and  C3_6 
REMARK    4  A    between atoms: C6_14  and  C7_15 
REMARK       I    between atoms: C7_15  and  N3_17 
REMARK    5  A    between atoms: C8_22  and  C9_23 
REMARK    6  A    between atoms: C9_23  and  O5_24 
REMARK    7  A    between atoms: C9_23  and  C10_26 
REMARK    8  A    between atoms: C10_26  and  C11_27 
REMARK    9  A    between atoms: C10_26  and  C15_38 
REMARK   10  A    between atoms: C14_32  and  N7_33 
REMARK   11  A    between atoms: C15_38  and  N9_39 
REMARK   12  A    between atoms: C15_38  and  O6_43 
REMARK   13  A    between atoms: C15_38  and  C18_47 
REMARK   14  A    between atoms: O6_43  and  C16_44 
REMARK   15  A    between atoms: C18_47  and  O8_48 
REMARK   16  A    between atoms: C18_47  and  O9_50 
REMARK   17  A    between atoms: C19_52  and  O10_53 
ROOT
HETATM    1  C9  UNL     1      14.596  19.757  13.030  1.00  0.00     0.188 C 
ENDROOT
BRANCH   1   2
HETATM    2  C8  UNL     1      14.972  18.508  12.286  1.00  0.00     0.109 A 
HETATM    3  N5  UNL     1      14.902  17.244  12.655  1.00  0.00    -0.283 N 
HETATM    4  N4  UNL     1      15.385  16.516  11.673  1.00  0.00    -0.231 N 
ATOM      5  H5  UNL     1      14.539  16.895  13.542  1.00  0.00     0.188 HD
HETATM    6  N3  UNL     1      15.774  17.294  10.647  1.00  0.00    -0.178 N 
ATOM      7  H4  UNL     1      15.454  15.499  11.687  1.00  0.00     0.209 HD
HETATM    8  C7  UNL     1      16.372  16.859   9.447  1.00  0.00     0.316 C 
HETATM    9  C19 UNL     1      15.523  18.535  11.017  1.00  0.00     0.193 A 
HETATM   10  O4  UNL     1      16.697  15.660   9.263  1.00  0.00    -0.262 OA
BRANCH   8  11
HETATM   11  C6  UNL     1      16.639  17.797   8.354  1.00  0.00     0.206 A 
HETATM   12  N2  UNL     1      15.919  17.920   7.219  1.00  0.00    -0.168 N 
HETATM   13  C5  UNL     1      16.454  18.887   6.462  1.00  0.00     0.704 A 
ATOM     14  H2  UNL     1      15.099  17.366   6.976  1.00  0.00     0.186 HD
HETATM   15  N1  UNL     1      16.315  19.558   5.193  1.00  0.00    -0.156 N 
HETATM   16  N11 UNL     1      17.510  19.373   7.122  1.00  0.00    -0.103 N 
HETATM   17  C4  UNL     1      17.373  20.499   5.121  1.00  0.00     0.266 A 
ATOM     18  H1  UNL     1      15.598  19.388   4.488  1.00  0.00     0.187 HD
HETATM   19  C3  UNL     1      18.120  20.437   6.384  1.00  0.00     0.273 A 
HETATM   20  O3  UNL     1      17.619  21.257   4.132  1.00  0.00    -0.270 OA
HETATM   21  N10 UNL     1      17.619  18.701   8.280  1.00  0.00    -0.263 N 
ATOM     22  H10 UNL     1      18.337  18.856   8.988  1.00  0.00     0.189 HD
BRANCH  19  23
HETATM   23  C2  UNL     1      19.595  20.221   6.106  1.00  0.00     0.290 C 
BRANCH  23  24
HETATM   24  O1  UNL     1      19.870  18.845   6.151  1.00  0.00    -0.364 OA
HETATM   25  C1  UNL     1      21.173  18.667   6.580  1.00  0.00     0.204 C 
ENDBRANCH  23  24
BRANCH  23  26
HETATM   26  O2  UNL     1      20.016  20.791   4.932  1.00  0.00    -0.369 OA
ATOM     27  H2  UNL     1      19.621  21.643   4.788  1.00  0.00     0.212 HD
ENDBRANCH  23  26
ENDBRANCH  19  23
ENDBRANCH   8  11
BRANCH   9  28
HETATM   28  O10 UNL     1      15.759  19.704  10.283  1.00  0.00    -0.343 OA
ATOM     29  H10 UNL     1      16.215  20.485  10.574  1.00  0.00     0.219 HD
ENDBRANCH   9  28
ENDBRANCH   1   2
BRANCH   1  30
HETATM   30  O5  UNL     1      15.574  20.685  12.715  1.00  0.00    -0.388 OA
ATOM     31  H5  UNL     1      15.950  20.949  13.546  1.00  0.00     0.210 HD
ENDBRANCH   1  30
BRANCH   1  32
HETATM   32  C10 UNL     1      14.371  19.508  14.474  1.00  0.00     0.140 C 
BRANCH  32  33
HETATM   33  C11 UNL     1      13.229  20.274  14.931  1.00  0.00     0.040 A 
HETATM   34  C12 UNL     1      12.437  20.865  13.945  1.00  0.00     0.044 A 
HETATM   35  C13 UNL     1      11.334  21.611  14.308  1.00  0.00     0.108 A 
HETATM   36  N6  UNL     1      11.003  21.781  15.606  1.00  0.00    -0.202 N 
HETATM   37  C14 UNL     1      11.765  21.212  16.551  1.00  0.00     0.675 A 
ATOM     38  H6  UNL     1      10.186  22.334  15.863  1.00  0.00     0.183 HD
HETATM   39  N8  UNL     1      12.822  20.497  16.188  1.00  0.00    -0.195 N 
ATOM     40  H8  UNL     1      13.377  20.079  16.934  1.00  0.00     0.184 HD
BRANCH  37  41
HETATM   41  N7  UNL     1      11.462  21.363  17.819  1.00  0.00    -0.234 N 
ATOM     42  H72 UNL     1      11.569  22.269  18.276  1.00  0.00     0.174 HD
ATOM     43  H71 UNL     1      11.117  20.570  18.360  1.00  0.00     0.174 HD
ENDBRANCH  37  41
ENDBRANCH  32  33
BRANCH  32  44
HETATM   44  C15 UNL     1      15.676  19.705  15.257  1.00  0.00     0.292 C 
BRANCH  44  45
HETATM   45  N9  UNL     1      16.706  19.649  14.248  1.00  0.00    -0.041 N 
ATOM     46  H93 UNL     1      16.594  20.330  13.497  1.00  0.00     0.278 HD
ATOM     47  H92 UNL     1      17.619  19.980  14.563  1.00  0.00     0.278 HD
ATOM     48  H91 UNL     1      16.698  18.678  13.935  1.00  0.00     0.278 HD
ENDBRANCH  44  45
BRANCH  44  49
HETATM   49  O6  UNL     1      15.651  20.933  15.893  1.00  0.00    -0.276 OA
BRANCH  49  50
HETATM   50  C16 UNL     1      16.386  22.064  15.717  1.00  0.00     0.257 C 
HETATM   51  C17 UNL     1      17.222  22.664  16.817  1.00  0.00     0.126 C 
HETATM   52  O7  UNL     1      16.368  22.621  14.610  1.00  0.00    -0.266 OA
ENDBRANCH  49  50
ENDBRANCH  44  49
BRANCH  44  53
HETATM   53  C18 UNL     1      15.883  18.504  16.155  1.00  0.00     0.319 C 
BRANCH  53  54
HETATM   54  O8  UNL     1      16.119  17.329  15.439  1.00  0.00    -0.367 OA
ATOM     55  H8  UNL     1      15.553  16.615  15.709  1.00  0.00     0.212 HD
ENDBRANCH  53  54
BRANCH  53  56
HETATM   56  O9  UNL     1      14.878  18.246  17.056  1.00  0.00    -0.367 OA
ATOM     57  H9  UNL     1      14.229  17.608  16.783  1.00  0.00     0.212 HD
ENDBRANCH  53  56
ENDBRANCH  44  53
ENDBRANCH  32  44
ENDBRANCH   1  32
TORSDOF 17
ENDMDL
MODEL 2
REMARK VINA RESULT: -8.417910449      1.399      1.998
REMARK  17 active torsions:
REMARK  status: ('A' for Active; 'I' for Inactive)
REMARK    1  A    between atoms: O1_2  and  C2_3 
REMARK    2  A    between atoms: C2_3  and  O2_4 
REMARK    3  A    between atoms: C2_3  and  C3_6 
REMARK    4  A    between atoms: C6_14  and  C7_15 
REMARK       I    between atoms: C7_15  and  N3_17 
REMARK    5  A    between atoms: C8_22  and  C9_23 
REMARK    6  A    between atoms: C9_23  and  O5_24 
REMARK    7  A    between atoms: C9_23  and  C10_26 
REMARK    8  A    between atoms: C10_26  and  C11_27 
REMARK    9  A    between atoms: C10_26  and  C15_38 
REMARK   10  A    between atoms: C14_32  and  N7_33 
REMARK   11  A    between atoms: C15_38  and  N9_39 
REMARK   12  A    between atoms: C15_38  and  O6_43 
REMARK   13  A    between atoms: C15_38  and  C18_47 
REMARK   14  A    between atoms: O6_43  and  C16_44 
REMARK   15  A    between atoms: C18_47  and  O8_48 
REMARK   16  A    between atoms: C18_47  and  O9_50 
REMARK   17  A    between atoms: C19_52  and  O10_53 
ROOT
HETATM    1  C9  UNL     1      14.806  20.457  13.054  1.00  0.00     0.188 C 
ENDROOT
BRANCH   1   2
HETATM    2  C8  UNL     1      15.037  19.113  12.424  1.00  0.00     0.109 A 
HETATM    3  N5  UNL     1      14.846  17.902  12.909  1.00  0.00    -0.283 N 
HETATM    4  N4  UNL     1      15.230  17.042  11.993  1.00  0.00    -0.231 N 
ATOM      5  H5  UNL     1      14.467  17.674  13.829  1.00  0.00     0.188 HD
HETATM    6  N3  UNL     1      15.676  17.678  10.896  1.00  0.00    -0.178 N 
ATOM      7  H4  UNL     1      15.194  16.028  12.100  1.00  0.00     0.209 HD
HETATM    8  C7  UNL     1      16.200  17.076   9.734  1.00  0.00     0.316 C 
HETATM    9  C19 UNL     1      15.561  18.967  11.152  1.00  0.00     0.193 A 
HETATM   10  O4  UNL     1      16.396  15.838   9.658  1.00  0.00    -0.262 OA
BRANCH   8  11
HETATM   11  C6  UNL     1      16.539  17.878   8.556  1.00  0.00     0.206 A 
HETATM   12  N2  UNL     1      15.926  17.823   7.355  1.00  0.00    -0.168 N 
HETATM   13  C5  UNL     1      16.499  18.709   6.529  1.00  0.00     0.704 A 
ATOM     14  H2  UNL     1      15.151  17.206   7.114  1.00  0.00     0.186 HD
HETATM   15  N1  UNL     1      16.459  19.205   5.176  1.00  0.00    -0.156 N 
HETATM   16  N11 UNL     1      17.471  19.321   7.211  1.00  0.00    -0.103 N 
HETATM   17  C4  UNL     1      17.487  20.176   5.076  1.00  0.00     0.266 A 
ATOM     18  H1  UNL     1      15.817  18.915   4.437  1.00  0.00     0.187 HD
HETATM   19  C3  UNL     1      18.113  20.309   6.398  1.00  0.00     0.273 A 
HETATM   20  O3  UNL     1      17.802  20.812   4.022  1.00  0.00    -0.270 OA
HETATM   21  N10 UNL     1      17.492  18.808   8.452  1.00  0.00    -0.263 N 
ATOM     22  H10 UNL     1      18.133  19.084   9.195  1.00  0.00     0.189 HD
BRANCH  19  23
HETATM   23  C2  UNL     1      19.615  20.125   6.284  1.00  0.00     0.290 C 
BRANCH  23  24
HETATM   24  O1  UNL     1      19.904  18.752   6.255  1.00  0.00    -0.364 OA
HETATM   25  C1  UNL     1      21.246  18.575   6.539  1.00  0.00     0.204 C 
ENDBRANCH  23  24
BRANCH  23  26
HETATM   26  O2  UNL     1      20.164  20.789   5.217  1.00  0.00    -0.369 OA
ATOM     27  H2  UNL     1      21.026  20.457   4.997  1.00  0.00     0.212 HD
ENDBRANCH  23  26
ENDBRANCH  19  23
ENDBRANCH   8  11
BRANCH   9  28
HETATM   28  O10 UNL     1      15.900  20.033  10.310  1.00  0.00    -0.343 OA
ATOM     29  H10 UNL     1      15.549  20.221   9.447  1.00  0.00     0.219 HD
ENDBRANCH   9  28
ENDBRANCH   1   2
BRANCH   1  30
HETATM   30  O5  UNL     1      15.930  21.206  12.750  1.00  0.00    -0.388 OA
ATOM     31  H5  UNL     1      15.622  21.908  12.189  1.00  0.00     0.210 HD
ENDBRANCH   1  30
BRANCH   1  32
HETATM   32  C10 UNL     1      14.458  20.354  14.491  1.00  0.00     0.140 C 
BRANCH  32  33
HETATM   33  C11 UNL     1      13.026  20.181  14.636  1.00  0.00     0.040 A 
HETATM   34  C12 UNL     1      12.215  20.947  13.797  1.00  0.00     0.044 A 
HETATM   35  C13 UNL     1      10.843  20.836  13.882  1.00  0.00     0.108 A 
HETATM   36  N6  UNL     1      10.265  19.995  14.766  1.00  0.00    -0.202 N 
HETATM   37  C14 UNL     1      11.046  19.261  15.572  1.00  0.00     0.675 A 
ATOM     38  H6  UNL     1       9.248  19.920  14.821  1.00  0.00     0.183 HD
HETATM   39  N8  UNL     1      12.364  19.378  15.478  1.00  0.00    -0.195 N 
ATOM     40  H8  UNL     1      12.925  18.802  16.106  1.00  0.00     0.184 HD
BRANCH  37  41
HETATM   41  N7  UNL     1      10.506  18.436  16.438  1.00  0.00    -0.234 N 
ATOM     42  H72 UNL     1       9.693  17.874  16.186  1.00  0.00     0.174 HD
ATOM     43  H71 UNL     1      10.898  18.352  17.376  1.00  0.00     0.174 HD
ENDBRANCH  37  41
ENDBRANCH  32  33
BRANCH  32  44
HETATM   44  C15 UNL     1      15.083  21.516  15.274  1.00  0.00     0.292 C 
BRANCH  44  45
HETATM   45  N9  UNL     1      14.176  21.728  16.377  1.00  0.00    -0.041 N 
ATOM     46  H93 UNL     1      13.213  21.451  16.187  1.00  0.00     0.278 HD
ATOM     47  H92 UNL     1      14.320  21.095  17.165  1.00  0.00     0.278 HD
ATOM     48  H91 UNL     1      14.289  22.715  16.608  1.00  0.00     0.278 HD
ENDBRANCH  44  45
BRANCH  44  49
HETATM   49  O6  UNL     1      16.343  21.151  15.713  1.00  0.00    -0.276 OA
BRANCH  49  50
HETATM   50  C16 UNL     1      17.038  21.458  16.842  1.00  0.00     0.257 C 
HETATM   51  C17 UNL     1      17.756  20.415  17.657  1.00  0.00     0.126 C 
HETATM   52  O7  UNL     1      17.081  22.640  17.213  1.00  0.00    -0.266 OA
ENDBRANCH  49  50
ENDBRANCH  44  49
BRANCH  44  53
HETATM   53  C18 UNL     1      15.021  22.762  14.417  1.00  0.00     0.319 C 
BRANCH  53  54
HETATM   54  O8  UNL     1      16.257  23.401  14.304  1.00  0.00    -0.367 OA
ATOM     55  H8  UNL     1      16.984  22.790  14.270  1.00  0.00     0.212 HD
ENDBRANCH  53  54
BRANCH  53  56
HETATM   56  O9  UNL     1      14.098  23.707  14.795  1.00  0.00    -0.367 OA
ATOM     57  H9  UNL     1      13.267  23.684  14.335  1.00  0.00     0.212 HD
ENDBRANCH  53  56
ENDBRANCH  44  53
ENDBRANCH  32  44
ENDBRANCH   1  32
TORSDOF 17
ENDMDL
MODEL 3
REMARK VINA RESULT: -8.195554218      1.503      2.337
REMARK  17 active torsions:
REMARK  status: ('A' for Active; 'I' for Inactive)
REMARK    1  A    between atoms: O1_2  and  C2_3 
REMARK    2  A    between atoms: C2_3  and  O2_4 
REMARK    3  A    between atoms: C2_3  and  C3_6 
REMARK    4  A    between atoms: C6_14  and  C7_15 
REMARK       I    between atoms: C7_15  and  N3_17 
REMARK    5  A    between atoms: C8_22  and  C9_23 
REMARK    6  A    between atoms: C9_23  and  O5_24 
REMARK    7  A    between atoms: C9_23  and  C10_26 
REMARK    8  A    between atoms: C10_26  and  C11_27 
REMARK    9  A    between atoms: C10_26  and  C15_38 
REMARK   10  A    between atoms: C14_32  and  N7_33 
REMARK   11  A    between atoms: C15_38  and  N9_39 
REMARK   12  A    between atoms: C15_38  and  O6_43 
REMARK   13  A    between atoms: C15_38  and  C18_47 
REMARK   14  A    between atoms: O6_43  and  C16_44 
REMARK   15  A    between atoms: C18_47  and  O8_48 
REMARK   16  A    between atoms: C18_47  and  O9_50 
REMARK   17  A    between atoms: C19_52  and  O10_53 
ROOT
HETATM    1  C9  UNL     1      15.001  20.189  12.113  1.00  0.00     0.188 C 
ENDROOT
BRANCH   1   2
HETATM    2  C8  UNL     1      15.265  18.909  11.373  1.00  0.00     0.109 A 
HETATM    3  N5  UNL     1      14.948  17.666  11.683  1.00  0.00    -0.283 N 
HETATM    4  N4  UNL     1      15.428  16.887  10.739  1.00  0.00    -0.231 N 
ATOM      5  H5  UNL     1      14.425  17.365  12.505  1.00  0.00     0.188 HD
HETATM    6  N3  UNL     1      16.063  17.609   9.799  1.00  0.00    -0.178 N 
ATOM      7  H4  UNL     1      15.331  15.872  10.723  1.00  0.00     0.209 HD
HETATM    8  C7  UNL     1      16.730  17.104   8.665  1.00  0.00     0.316 C 
HETATM    9  C19 UNL     1      15.968  18.868  10.182  1.00  0.00     0.193 A 
HETATM   10  O4  UNL     1      16.880  15.871   8.475  1.00  0.00    -0.262 OA
BRANCH   8  11
HETATM   11  C6  UNL     1      17.278  18.005   7.648  1.00  0.00     0.206 A 
HETATM   12  N2  UNL     1      18.541  18.479   7.605  1.00  0.00    -0.168 N 
HETATM   13  C5  UNL     1      18.679  19.262   6.527  1.00  0.00     0.704 A 
ATOM     14  H2  UNL     1      19.273  18.273   8.284  1.00  0.00     0.186 HD
HETATM   15  N1  UNL     1      19.624  20.105   5.837  1.00  0.00    -0.156 N 
HETATM   16  N11 UNL     1      17.503  19.280   5.892  1.00  0.00    -0.103 N 
HETATM   17  C4  UNL     1      18.936  20.647   4.722  1.00  0.00     0.266 A 
ATOM     18  H1  UNL     1      20.595  20.276   6.099  1.00  0.00     0.187 HD
HETATM   19  C3  UNL     1      17.583  20.078   4.706  1.00  0.00     0.273 A 
HETATM   20  O3  UNL     1      19.418  21.478   3.891  1.00  0.00    -0.270 OA
HETATM   21  N10 UNL     1      16.648  18.509   6.584  1.00  0.00    -0.263 N 
ATOM     22  H10 UNL     1      15.674  18.337   6.336  1.00  0.00     0.189 HD
BRANCH  19  23
HETATM   23  C2  UNL     1      16.551  21.189   4.648  1.00  0.00     0.290 C 
BRANCH  23  24
HETATM   24  O1  UNL     1      15.516  20.804   3.782  1.00  0.00    -0.364 OA
HETATM   25  C1  UNL     1      16.015  20.748   2.493  1.00  0.00     0.204 C 
ENDBRANCH  23  24
BRANCH  23  26
HETATM   26  O2  UNL     1      16.079  21.557   5.882  1.00  0.00    -0.369 OA
ATOM     27  H2  UNL     1      16.745  21.989   6.404  1.00  0.00     0.212 HD
ENDBRANCH  23  26
ENDBRANCH  19  23
ENDBRANCH   8  11
BRANCH   9  28
HETATM   28  O10 UNL     1      16.478  19.995   9.527  1.00  0.00    -0.343 OA
ATOM     29  H10 UNL     1      17.028  20.676   9.897  1.00  0.00     0.219 HD
ENDBRANCH   9  28
ENDBRANCH   1   2
BRANCH   1  30
HETATM   30  O5  UNL     1      16.250  20.722  12.385  1.00  0.00    -0.388 OA
ATOM     31  H5  UNL     1      16.447  21.291  11.650  1.00  0.00     0.210 HD
ENDBRANCH   1  30
BRANCH   1  32
HETATM   32  C10 UNL     1      14.106  19.993  13.278  1.00  0.00     0.140 C 
BRANCH  32  33
HETATM   33  C11 UNL     1      13.025  20.958  13.231  1.00  0.00     0.040 A 
HETATM   34  C12 UNL     1      12.997  21.813  12.128  1.00  0.00     0.044 A 
HETATM   35  C13 UNL     1      11.997  22.758  12.019  1.00  0.00     0.108 A 
HETATM   36  N6  UNL     1      11.040  22.873  12.964  1.00  0.00    -0.202 N 
HETATM   37  C14 UNL     1      11.069  22.051  14.022  1.00  0.00     0.675 A 
ATOM     38  H6  UNL     1      10.305  23.576  12.874  1.00  0.00     0.183 HD
HETATM   39  N8  UNL     1      12.035  21.146  14.114  1.00  0.00    -0.195 N 
ATOM     40  H8  UNL     1      12.024  20.538  14.932  1.00  0.00     0.184 HD
BRANCH  37  41
HETATM   41  N7  UNL     1      10.148  22.143  14.953  1.00  0.00    -0.234 N 
ATOM     42  H72 UNL     1       9.872  23.052  15.324  1.00  0.00     0.174 HD
ATOM     43  H71 UNL     1       9.700  21.301  15.313  1.00  0.00     0.174 HD
ENDBRANCH  37  41
ENDBRANCH  32  33
BRANCH  32  44
HETATM   44  C15 UNL     1      14.922  19.953  14.576  1.00  0.00     0.292 C 
BRANCH  44  45
HETATM   45  N9  UNL     1      16.236  19.529  14.155  1.00  0.00    -0.041 N 
ATOM     46  H93 UNL     1      16.890  20.294  13.992  1.00  0.00     0.278 HD
ATOM     47  H92 UNL     1      16.781  19.069  14.885  1.00  0.00     0.278 HD
ATOM     48  H91 UNL     1      16.060  18.947  13.335  1.00  0.00     0.278 HD
ENDBRANCH  44  45
BRANCH  44  49
HETATM   49  O6  UNL     1      14.951  21.216  15.142  1.00  0.00    -0.276 OA
BRANCH  49  50
HETATM   50  C16 UNL     1      15.952  22.125  15.286  1.00  0.00     0.257 C 
HETATM   51  C17 UNL     1      16.688  22.317  16.584  1.00  0.00     0.126 C 
HETATM   52  O7  UNL     1      16.269  22.822  14.310  1.00  0.00    -0.266 OA
ENDBRANCH  49  50
ENDBRANCH  44  49
BRANCH  44  53
HETATM   53  C18 UNL     1      14.371  18.851  15.456  1.00  0.00     0.319 C 
BRANCH  53  54
HETATM   54  O8  UNL     1      13.925  17.749  14.724  1.00  0.00    -0.367 OA
ATOM     55  H8  UNL     1      13.515  17.088  15.270  1.00  0.00     0.212 HD
ENDBRANCH  53  54
BRANCH  53  56
HETATM   56  O9  UNL     1      13.363  19.215  16.315  1.00  0.00    -0.367 OA
ATOM     57  H9  UNL     1      13.602  19.286  17.232  1.00  0.00     0.212 HD
ENDBRANCH  53  56
ENDBRANCH  44  53
ENDBRANCH  32  44
ENDBRANCH   1  32
TORSDOF 17
ENDMDL
MODEL 4
REMARK VINA RESULT: -8.169514491      1.778      2.676
REMARK  17 active torsions:
REMARK  status: ('A' for Active; 'I' for Inactive)
REMARK    1  A    between atoms: O1_2  and  C2_3 
REMARK    2  A    between atoms: C2_3  and  O2_4 
REMARK    3  A    between atoms: C2_3  and  C3_6 
REMARK    4  A    between atoms: C6_14  and  C7_15 
REMARK       I    between atoms: C7_15  and  N3_17 
REMARK    5  A    between atoms: C8_22  and  C9_23 
REMARK    6  A    between atoms: C9_23  and  O5_24 
REMARK    7  A    between atoms: C9_23  and  C10_26 
REMARK    8  A    between atoms: C10_26  and  C11_27 
REMARK    9  A    between atoms: C10_26  and  C15_38 
REMARK   10  A    between atoms: C14_32  and  N7_33 
REMARK   11  A    between atoms: C15_38  and  N9_39 
REMARK   12  A    between atoms: C15_38  and  O6_43 
REMARK   13  A    between atoms: C15_38  and  C18_47 
REMARK   14  A    between atoms: O6_43  and  C16_44 
REMARK   15  A    between atoms: C18_47  and  O8_48 
REMARK   16  A    between atoms: C18_47  and  O9_50 
REMARK   17  A    between atoms: C19_52  and  O10_53 
ROOT
HETATM    1  C9  UNL     1      14.995  20.207  13.088  1.00  0.00     0.188 C 
ENDROOT
BRANCH   1   2
HETATM    2  C8  UNL     1      15.038  18.802  12.560  1.00  0.00     0.109 A 
HETATM    3  N5  UNL     1      14.646  17.672  13.117  1.00  0.00    -0.283 N 
HETATM    4  N4  UNL     1      14.925  16.699  12.278  1.00  0.00    -0.231 N 
ATOM      5  H5  UNL     1      14.207  17.572  14.032  1.00  0.00     0.188 HD
HETATM    6  N3  UNL     1      15.500  17.179  11.161  1.00  0.00    -0.178 N 
ATOM      7  H4  UNL     1      14.730  15.713  12.451  1.00  0.00     0.209 HD
HETATM    8  C7  UNL     1      15.964  16.422  10.067  1.00  0.00     0.316 C 
HETATM    9  C19 UNL     1      15.576  18.486  11.325  1.00  0.00     0.193 A 
HETATM   10  O4  UNL     1      15.971  15.166  10.082  1.00  0.00    -0.262 OA
BRANCH   8  11
HETATM   11  C6  UNL     1      16.461  17.076   8.854  1.00  0.00     0.206 A 
HETATM   12  N2  UNL     1      17.574  16.739   8.169  1.00  0.00    -0.168 N 
HETATM   13  C5  UNL     1      17.701  17.550   7.110  1.00  0.00     0.704 A 
ATOM     14  H2  UNL     1      18.217  15.987   8.418  1.00  0.00     0.186 HD
HETATM   15  N1  UNL     1      18.561  17.848   5.992  1.00  0.00    -0.156 N 
HETATM   16  N11 UNL     1      16.666  18.395   7.129  1.00  0.00    -0.103 N 
HETATM   17  C4  UNL     1      17.975  18.950   5.319  1.00  0.00     0.266 A 
ATOM     18  H1  UNL     1      19.421  17.363   5.737  1.00  0.00     0.187 HD
HETATM   19  C3  UNL     1      16.717  19.279   6.003  1.00  0.00     0.273 A 
HETATM   20  O3  UNL     1      18.461  19.539   4.305  1.00  0.00    -0.270 OA
HETATM   21  N10 UNL     1      15.911  18.101   8.199  1.00  0.00    -0.263 N 
ATOM     22  H10 UNL     1      15.054  18.585   8.469  1.00  0.00     0.189 HD
BRANCH  19  23
HETATM   23  C2  UNL     1      16.698  20.748   6.379  1.00  0.00     0.290 C 
BRANCH  23  24
HETATM   24  O1  UNL     1      15.642  21.378   5.702  1.00  0.00    -0.364 OA
HETATM   25  C1  UNL     1      16.161  22.081   4.629  1.00  0.00     0.204 C 
ENDBRANCH  23  24
BRANCH  23  26
HETATM   26  O2  UNL     1      16.640  20.961   7.733  1.00  0.00    -0.369 OA
ATOM     27  H2  UNL     1      17.490  20.865   8.146  1.00  0.00     0.212 HD
ENDBRANCH  23  26
ENDBRANCH  19  23
ENDBRANCH   8  11
BRANCH   9  28
HETATM   28  O10 UNL     1      16.102  19.425  10.430  1.00  0.00    -0.343 OA
ATOM     29  H10 UNL     1      16.653  20.171  10.636  1.00  0.00     0.219 HD
ENDBRANCH   9  28
ENDBRANCH   1   2
BRANCH   1  30
HETATM   30  O5  UNL     1      16.260  20.724  12.866  1.00  0.00    -0.388 OA
ATOM     31  H5  UNL     1      16.808  19.975  12.668  1.00  0.00     0.210 HD
ENDBRANCH   1  30
BRANCH   1  32
HETATM   32  C10 UNL     1      14.498  20.272  14.483  1.00  0.00     0.140 C 
BRANCH  32  33
HETATM   33  C11 UNL     1      13.049  20.215  14.489  1.00  0.00     0.040 A 
HETATM   34  C12 UNL     1      12.385  21.105  13.643  1.00  0.00     0.044 A 
HETATM   35  C13 UNL     1      11.006  21.108  13.599  1.00  0.00     0.108 A 
HETATM   36  N6  UNL     1      10.282  20.263  14.363  1.00  0.00    -0.202 N 
HETATM   37  C14 UNL     1      10.922  19.410  15.175  1.00  0.00     0.675 A 
ATOM     38  H6  UNL     1       9.262  20.274  14.323  1.00  0.00     0.183 HD
HETATM   39  N8  UNL     1      12.248  19.417  15.206  1.00  0.00    -0.195 N 
ATOM     40  H8  UNL     1      12.700  18.753  15.835  1.00  0.00     0.184 HD
BRANCH  37  41
HETATM   41  N7  UNL     1      10.238  18.578  15.926  1.00  0.00    -0.234 N 
ATOM     42  H72 UNL     1      10.136  17.599  15.659  1.00  0.00     0.174 HD
ATOM     43  H71 UNL     1       9.802  18.908  16.787  1.00  0.00     0.174 HD
ENDBRANCH  37  41
ENDBRANCH  32  33
BRANCH  32  44
HETATM   44  C15 UNL     1      15.132  21.458  15.220  1.00  0.00     0.292 C 
BRANCH  44  45
HETATM   45  N9  UNL     1      14.219  21.731  16.304  1.00  0.00    -0.041 N 
ATOM     46  H93 UNL     1      13.369  22.218  16.023  1.00  0.00     0.278 HD
ATOM     47  H92 UNL     1      13.755  20.903  16.678  1.00  0.00     0.278 HD
ATOM     48  H91 UNL     1      14.785  22.237  16.986  1.00  0.00     0.278 HD
ENDBRANCH  44  45
BRANCH  44  49
HETATM   49  O6  UNL     1      16.383  21.095  15.686  1.00  0.00    -0.276 OA
BRANCH  49  50
HETATM   50  C16 UNL     1      17.055  21.407  16.827  1.00  0.00     0.257 C 
HETATM   51  C17 UNL     1      17.722  20.363  17.683  1.00  0.00     0.126 C 
HETATM   52  O7  UNL     1      17.121  22.595  17.174  1.00  0.00    -0.266 OA
ENDBRANCH  49  50
ENDBRANCH  44  49
BRANCH  44  53
HETATM   53  C18 UNL     1      15.096  22.666  14.308  1.00  0.00     0.319 C 
BRANCH  53  54
HETATM   54  O8  UNL     1      16.349  23.260  14.149  1.00  0.00    -0.367 OA
ATOM     55  H8  UNL     1      16.315  24.053  13.626  1.00  0.00     0.212 HD
ENDBRANCH  53  54
BRANCH  53  56
HETATM   56  O9  UNL     1      14.209  23.655  14.655  1.00  0.00    -0.367 OA
ATOM     57  H9  UNL     1      14.559  24.539  14.680  1.00  0.00     0.212 HD
ENDBRANCH  53  56
ENDBRANCH  44  53
ENDBRANCH  32  44
ENDBRANCH   1  32
TORSDOF 17
ENDMDL
MODEL 5
REMARK VINA RESULT: -8.128508778      1.222      2.133
REMARK  17 active torsions:
REMARK  status: ('A' for Active; 'I' for Inactive)
REMARK    1  A    between atoms: O1_2  and  C2_3 
REMARK    2  A    between atoms: C2_3  and  O2_4 
REMARK    3  A    between atoms: C2_3  and  C3_6 
REMARK    4  A    between atoms: C6_14  and  C7_15 
REMARK       I    between atoms: C7_15  and  N3_17 
REMARK    5  A    between atoms: C8_22  and  C9_23 
REMARK    6  A    between atoms: C9_23  and  O5_24 
REMARK    7  A    between atoms: C9_23  and  C10_26 
REMARK    8  A    between atoms: C10_26  and  C11_27 
REMARK    9  A    between atoms: C10_26  and  C15_38 
REMARK   10  A    between atoms: C14_32  and  N7_33 
REMARK   11  A    between atoms: C15_38  and  N9_39 
REMARK   12  A    between atoms: C15_38  and  O6_43 
REMARK   13  A    between atoms: C15_38  and  C18_47 
REMARK   14  A    between atoms: O6_43  and  C16_44 
REMARK   15  A    between atoms: C18_47  and  O8_48 
REMARK   16  A    between atoms: C18_47  and  O9_50 
REMARK   17  A    between atoms: C19_52  and  O10_53 
ROOT
HETATM    1  C9  UNL     1      14.405  20.686  12.798  1.00  0.00     0.188 C 
ENDROOT
BRANCH   1   2
HETATM    2  C8  UNL     1      14.818  19.337  12.284  1.00  0.00     0.109 A 
HETATM    3  N5  UNL     1      14.756  18.152  12.860  1.00  0.00    -0.283 N 
HETATM    4  N4  UNL     1      15.274  17.278  12.026  1.00  0.00    -0.231 N 
ATOM      5  H5  UNL     1      14.375  17.950  13.784  1.00  0.00     0.188 HD
HETATM    6  N3  UNL     1      15.680  17.878  10.894  1.00  0.00    -0.178 N 
ATOM      7  H4  UNL     1      15.357  16.278  12.213  1.00  0.00     0.209 HD
HETATM    8  C7  UNL     1      16.315  17.258   9.798  1.00  0.00     0.316 C 
HETATM    9  C19 UNL     1      15.402  19.159  11.042  1.00  0.00     0.193 A 
HETATM   10  O4  UNL     1      16.661  16.051   9.826  1.00  0.00    -0.262 OA
BRANCH   8  11
HETATM   11  C6  UNL     1      16.597  18.003   8.569  1.00  0.00     0.206 A 
HETATM   12  N2  UNL     1      15.952  17.868   7.392  1.00  0.00    -0.168 N 
HETATM   13  C5  UNL     1      16.476  18.722   6.502  1.00  0.00     0.704 A 
ATOM     14  H2  UNL     1      15.187  17.219   7.208  1.00  0.00     0.186 HD
HETATM   15  N1  UNL     1      16.384  19.143   5.127  1.00  0.00    -0.156 N 
HETATM   16  N11 UNL     1      17.450  19.395   7.122  1.00  0.00    -0.103 N 
HETATM   17  C4  UNL     1      17.382  20.133   4.944  1.00  0.00     0.266 A 
ATOM     18  H1  UNL     1      15.729  18.797   4.424  1.00  0.00     0.187 HD
HETATM   19  C3  UNL     1      18.042  20.353   6.237  1.00  0.00     0.273 A 
HETATM   20  O3  UNL     1      17.649  20.718   3.849  1.00  0.00    -0.270 OA
HETATM   21  N10 UNL     1      17.521  18.950   8.387  1.00  0.00    -0.263 N 
ATOM     22  H10 UNL     1      18.176  19.283   9.095  1.00  0.00     0.189 HD
BRANCH  19  23
HETATM   23  C2  UNL     1      19.544  20.202   6.088  1.00  0.00     0.290 C 
BRANCH  23  24
HETATM   24  O1  UNL     1      19.868  18.836   6.109  1.00  0.00    -0.364 OA
HETATM   25  C1  UNL     1      21.150  18.692   6.610  1.00  0.00     0.204 C 
ENDBRANCH  23  24
BRANCH  23  26
HETATM   26  O2  UNL     1      20.046  20.832   4.979  1.00  0.00    -0.369 OA
ATOM     27  H2  UNL     1      19.418  20.852   4.266  1.00  0.00     0.212 HD
ENDBRANCH  23  26
ENDBRANCH  19  23
ENDBRANCH   8  11
BRANCH   9  28
HETATM   28  O10 UNL     1      15.641  20.192  10.127  1.00  0.00    -0.343 OA
ATOM     29  H10 UNL     1      16.019  21.045  10.307  1.00  0.00     0.219 HD
ENDBRANCH   9  28
ENDBRANCH   1   2
BRANCH   1  30
HETATM   30  O5  UNL     1      15.586  21.365  13.045  1.00  0.00    -0.388 OA
ATOM     31  H5  UNL     1      15.464  21.787  13.887  1.00  0.00     0.210 HD
ENDBRANCH   1  30
BRANCH   1  32
HETATM   32  C10 UNL     1      13.455  20.592  13.931  1.00  0.00     0.140 C 
BRANCH  32  33
HETATM   33  C11 UNL     1      12.343  21.496  13.714  1.00  0.00     0.040 A 
HETATM   34  C12 UNL     1      12.346  22.215  12.518  1.00  0.00     0.044 A 
HETATM   35  C13 UNL     1      11.319  23.097  12.246  1.00  0.00     0.108 A 
HETATM   36  N6  UNL     1      10.306  23.278  13.119  1.00  0.00    -0.202 N 
HETATM   37  C14 UNL     1      10.306  22.586  14.268  1.00  0.00     0.675 A 
ATOM     38  H6  UNL     1       9.552  23.932  12.908  1.00  0.00     0.183 HD
HETATM   39  N8  UNL     1      11.298  21.742  14.516  1.00  0.00    -0.195 N 
ATOM     40  H8  UNL     1      11.263  21.232  15.399  1.00  0.00     0.184 HD
BRANCH  37  41
HETATM   41  N7  UNL     1       9.330  22.746  15.131  1.00  0.00    -0.234 N 
ATOM     42  H72 UNL     1       8.845  23.639  15.210  1.00  0.00     0.174 HD
ATOM     43  H71 UNL     1       9.050  21.972  15.734  1.00  0.00     0.174 HD
ENDBRANCH  37  41
ENDBRANCH  32  33
BRANCH  32  44
HETATM   44  C15 UNL     1      14.200  20.742  15.264  1.00  0.00     0.292 C 
BRANCH  44  45
HETATM   45  N9  UNL     1      13.460  19.905  16.179  1.00  0.00    -0.041 N 
ATOM     46  H93 UNL     1      12.551  20.279  16.447  1.00  0.00     0.278 HD
ATOM     47  H92 UNL     1      13.109  19.041  15.765  1.00  0.00     0.278 HD
ATOM     48  H91 UNL     1      14.101  19.763  16.961  1.00  0.00     0.278 HD
ENDBRANCH  44  45
BRANCH  44  49
HETATM   49  O6  UNL     1      15.504  20.306  15.115  1.00  0.00    -0.276 OA
BRANCH  49  50
HETATM   50  C16 UNL     1      16.272  19.463  15.857  1.00  0.00     0.257 C 
HETATM   51  C17 UNL     1      17.284  19.960  16.854  1.00  0.00     0.126 C 
HETATM   52  O7  UNL     1      16.133  18.240  15.706  1.00  0.00    -0.266 OA
ENDBRANCH  49  50
ENDBRANCH  44  49
BRANCH  44  53
HETATM   53  C18 UNL     1      14.034  22.166  15.750  1.00  0.00     0.319 C 
BRANCH  53  54
HETATM   54  O8  UNL     1      15.241  22.867  15.785  1.00  0.00    -0.367 OA
ATOM     55  H8  UNL     1      15.843  22.528  16.438  1.00  0.00     0.212 HD
ENDBRANCH  53  54
BRANCH  53  56
HETATM   56  O9  UNL     1      13.430  22.318  16.974  1.00  0.00    -0.367 OA
ATOM     57  H9  UNL     1      13.331  23.212  17.281  1.00  0.00     0.212 HD
ENDBRANCH  53  56
ENDBRANCH  44  53
ENDBRANCH  32  44
ENDBRANCH   1  32
TORSDOF 17
ENDMDL
