MODEL 1
REMARK VINA RESULT: -8.733523212      0.000      0.000
REMARK  21 active torsions:
REMARK  status: ('A' for Active; 'I' for Inactive)
REMARK    1  A    between atoms: C2_2  and  O2_4 
REMARK    2  A    between atoms: O2_4  and  C3_5 
REMARK    3  A    between atoms: C3_5  and  O3_6 
REMARK    4  A    between atoms: C3_5  and  C12_27 
REMARK    5  A    between atoms: O3_6  and  C4_7 
REMARK    6  A    between atoms: C4_7  and  C6_10 
REMARK    7  A    between atoms: C6_10  and  C7_12 
REMARK    8  A    between atoms: C7_12  and  O5_13 
REMARK    9  A    between atoms: C7_12  and  C8_15 
REMARK   10  A    between atoms: C8_15  and  O6_17 
REMARK   11  A    between atoms: C8_15  and  C10_19 
REMARK   12  A    between atoms: C10_19  and  O7_20 
REMARK   13  A    between atoms: C10_19  and  C11_22 
REMARK   14  A    between atoms: C11_22  and  O8_23 
REMARK   15  A    between atoms: C11_22  and  O9_25 
REMARK   16  A    between atoms: C13_32  and  C14_33 
REMARK   17  A    between atoms: N5_36  and  O10_37 
REMARK   18  A    between atoms: C15_39  and  O11_40 
REMARK   19  A    between atoms: C16_42  and  O12_43 
REMARK   20  A    between atoms: C17_45  and  O13_46 
REMARK   21  A    between atoms: C18_48  and  O14_49 
ROOT
HETATM    1  C4  UNL     1      14.402  21.119  13.119  1.00  0.00     0.303 C 
HETATM    2  C5  UNL     1      13.647  21.534  11.916  1.00  0.00     0.099 C 
HETATM    3  N1  UNL     1      13.040  21.845  10.974  1.00  0.00    -0.194 NA
ENDROOT
BRANCH   1   4
HETATM    4  O3  UNL     1      14.414  19.752  13.306  1.00  0.00    -0.328 OA
BRANCH   4   5
HETATM    5  C3  UNL     1      15.660  19.159  13.268  1.00  0.00     0.328 C 
BRANCH   5   6
HETATM    6  O2  UNL     1      15.815  18.197  14.311  1.00  0.00    -0.284 OA
BRANCH   6   7
HETATM    7  C2  UNL     1      15.734  18.547  15.632  1.00  0.00     0.257 C 
HETATM    8  C1  UNL     1      16.684  19.507  16.278  1.00  0.00     0.126 C 
HETATM    9  O1  UNL     1      14.817  18.034  16.324  1.00  0.00    -0.266 OA
ENDBRANCH   6   7
ENDBRANCH   5   6
BRANCH   5  10
HETATM   10  C12 UNL     1      16.098  18.648  11.976  1.00  0.00     0.134 C 
HETATM   11  N2  UNL     1      17.221  19.172  11.446  1.00  0.00    -0.296 N 
HETATM   12  N3  UNL     1      17.612  19.324  10.202  1.00  0.00    -0.295 N 
ATOM     13  H2  UNL     1      17.888  19.512  12.137  1.00  0.00     0.187 HD
HETATM   14  C13 UNL     1      17.017  18.865   9.101  1.00  0.00     0.115 C 
ATOM     15  H3  UNL     1      18.472  19.854  10.061  1.00  0.00     0.187 HD
HETATM   16  C17 UNL     1      16.093  17.830   9.016  1.00  0.00     0.134 C 
HETATM   17  C18 UNL     1      15.159  17.469   9.979  1.00  0.00     0.154 C 
HETATM   18  C19 UNL     1      15.352  17.671  11.353  1.00  0.00     0.236 C 
HETATM   19  O15 UNL     1      14.768  16.851  12.095  1.00  0.00    -0.283 OA
BRANCH  14  20
HETATM   20  C14 UNL     1      17.352  19.492   7.822  1.00  0.00     0.119 A 
HETATM   21  N4  UNL     1      16.552  20.274   7.078  1.00  0.00    -0.267 N 
HETATM   22  N5  UNL     1      17.192  20.663   5.981  1.00  0.00    -0.136 N 
ATOM     23  H4  UNL     1      15.594  20.531   7.320  1.00  0.00     0.190 HD
HETATM   24  C15 UNL     1      18.430  20.152   5.970  1.00  0.00     0.222 A 
HETATM   25  C16 UNL     1      18.544  19.402   7.139  1.00  0.00     0.151 A 
BRANCH  22  26
HETATM   26  O10 UNL     1      16.681  21.469   4.997  1.00  0.00    -0.266 OA
ATOM     27  H10 UNL     1      17.115  22.221   4.613  1.00  0.00     0.247 HD
ENDBRANCH  22  26
BRANCH  24  28
HETATM   28  O11 UNL     1      19.431  20.297   5.027  1.00  0.00    -0.341 OA
ATOM     29  H11 UNL     1      20.198  20.858   5.043  1.00  0.00     0.219 HD
ENDBRANCH  24  28
BRANCH  25  30
HETATM   30  O12 UNL     1      19.634  18.688   7.565  1.00  0.00    -0.355 OA
ATOM     31  H12 UNL     1      19.808  17.782   7.341  1.00  0.00     0.218 HD
ENDBRANCH  25  30
ENDBRANCH  14  20
BRANCH  16  32
HETATM   32  O13 UNL     1      16.104  17.086   7.856  1.00  0.00    -0.356 OA
ATOM     33  H13 UNL     1      15.353  16.526   7.702  1.00  0.00     0.218 HD
ENDBRANCH  16  32
BRANCH  17  34
HETATM   34  O14 UNL     1      13.981  16.885   9.587  1.00  0.00    -0.355 OA
ATOM     35  H14 UNL     1      13.189  17.058  10.081  1.00  0.00     0.218 HD
ENDBRANCH  17  34
ENDBRANCH   5  10
ENDBRANCH   4   5
ENDBRANCH   1   4
BRANCH   1  36
HETATM   36  C6  UNL     1      14.034  21.935  14.285  1.00  0.00     0.201 C 
HETATM   37  O4  UNL     1      14.176  23.168  14.089  1.00  0.00    -0.291 OA
BRANCH  36  38
HETATM   38  C7  UNL     1      13.561  21.499  15.566  1.00  0.00     0.228 C 
BRANCH  38  39
HETATM   39  O5  UNL     1      14.375  22.156  16.601  1.00  0.00    -0.385 OA
ATOM     40  H5  UNL     1      14.483  21.546  17.323  1.00  0.00     0.210 HD
ENDBRANCH  38  39
BRANCH  38  41
HETATM   41  C8  UNL     1      12.182  21.599  16.046  1.00  0.00     0.117 C 
HETATM   42  C9  UNL     1      11.890  22.765  16.899  1.00  0.00     0.052 C 
BRANCH  41  43
HETATM   43  O6  UNL     1      11.469  21.953  14.781  1.00  0.00    -0.384 OA
ATOM     44  H6  UNL     1      11.942  22.734  14.520  1.00  0.00     0.210 HD
ENDBRANCH  41  43
BRANCH  41  45
HETATM   45  C10 UNL     1      11.431  20.350  16.418  1.00  0.00     0.209 C 
BRANCH  45  46
HETATM   46  O7  UNL     1      12.424  19.505  17.072  1.00  0.00    -0.388 OA
ATOM     47  H7  UNL     1      12.460  19.825  17.966  1.00  0.00     0.210 HD
ENDBRANCH  45  46
BRANCH  45  48
HETATM   48  C11 UNL     1      10.968  19.477  15.308  1.00  0.00     0.285 C 
BRANCH  48  49
HETATM   49  O8  UNL     1      10.049  18.504  15.590  1.00  0.00    -0.369 OA
ATOM     50  H8  UNL     1       9.183  18.773  15.872  1.00  0.00     0.212 HD
ENDBRANCH  48  49
BRANCH  48  51
HETATM   51  O9  UNL     1      12.070  18.789  14.723  1.00  0.00    -0.369 OA
ATOM     52  H9  UNL     1      11.799  18.342  13.931  1.00  0.00     0.212 HD
ENDBRANCH  48  51
ENDBRANCH  45  48
ENDBRANCH  41  45
ENDBRANCH  38  41
ENDBRANCH  36  38
ENDBRANCH   1  36
TORSDOF 21
ENDMDL
MODEL 2
REMARK VINA RESULT: -8.508117317      1.000      1.453
REMARK  21 active torsions:
REMARK  status: ('A' for Active; 'I' for Inactive)
REMARK    1  A    between atoms: C2_2  and  O2_4 
REMARK    2  A    between atoms: O2_4  and  C3_5 
REMARK    3  A    between atoms: C3_5  and  O3_6 
REMARK    4  A    between atoms: C3_5  and  C12_27 
REMARK    5  A    between atoms: O3_6  and  C4_7 
REMARK    6  A    between atoms: C4_7  and  C6_10 
REMARK    7  A    between atoms: C6_10  and  C7_12 
REMARK    8  A    between atoms: C7_12  and  O5_13 
REMARK    9  A    between atoms: C7_12  and  C8_15 
REMARK   10  A    between atoms: C8_15  and  O6_17 
REMARK   11  A    between atoms: C8_15  and  C10_19 
REMARK   12  A    between atoms: C10_19  and  O7_20 
REMARK   13  A    between atoms: C10_19  and  C11_22 
REMARK   14  A    between atoms: C11_22  and  O8_23 
REMARK   15  A    between atoms: C11_22  and  O9_25 
REMARK   16  A    between atoms: C13_32  and  C14_33 
REMARK   17  A    between atoms: N5_36  and  O10_37 
REMARK   18  A    between atoms: C15_39  and  O11_40 
REMARK   19  A    between atoms: C16_42  and  O12_43 
REMARK   20  A    between atoms: C17_45  and  O13_46 
REMARK   21  A    between atoms: C18_48  and  O14_49 
ROOT
HETATM    1  C4  UNL     1      14.245  20.946  13.156  1.00  0.00     0.303 C 
HETATM    2  C5  UNL     1      13.609  21.331  11.875  1.00  0.00     0.099 C 
HETATM    3  N1  UNL     1      13.097  21.616  10.871  1.00  0.00    -0.194 NA
ENDROOT
BRANCH   1   4
HETATM    4  O3  UNL     1      14.404  19.584  13.293  1.00  0.00    -0.328 OA
BRANCH   4   5
HETATM    5  C3  UNL     1      15.705  19.128  13.218  1.00  0.00     0.328 C 
BRANCH   5   6
HETATM    6  O2  UNL     1      16.009  18.230  14.285  1.00  0.00    -0.284 OA
BRANCH   6   7
HETATM    7  C2  UNL     1      15.862  18.594  15.596  1.00  0.00     0.257 C 
HETATM    8  C1  UNL     1      16.692  19.659  16.243  1.00  0.00     0.126 C 
HETATM    9  O1  UNL     1      14.988  18.001  16.280  1.00  0.00    -0.266 OA
ENDBRANCH   6   7
ENDBRANCH   5   6
BRANCH   5  10
HETATM   10  C12 UNL     1      16.142  18.616  11.926  1.00  0.00     0.134 C 
HETATM   11  N2  UNL     1      17.270  19.133  11.399  1.00  0.00    -0.296 N 
HETATM   12  N3  UNL     1      17.665  19.285  10.156  1.00  0.00    -0.295 N 
ATOM     13  H2  UNL     1      17.939  19.466  12.092  1.00  0.00     0.187 HD
HETATM   14  C13 UNL     1      17.069  18.835   9.053  1.00  0.00     0.115 C 
ATOM     15  H3  UNL     1      18.529  19.809  10.019  1.00  0.00     0.187 HD
HETATM   16  C17 UNL     1      16.137  17.807   8.963  1.00  0.00     0.134 C 
HETATM   17  C18 UNL     1      15.197  17.451   9.923  1.00  0.00     0.154 C 
HETATM   18  C19 UNL     1      15.390  17.648  11.298  1.00  0.00     0.236 C 
HETATM   19  O15 UNL     1      14.797  16.830  12.037  1.00  0.00    -0.283 OA
BRANCH  14  20
HETATM   20  C14 UNL     1      17.411  19.462   7.776  1.00  0.00     0.119 A 
HETATM   21  N4  UNL     1      16.610  20.231   7.020  1.00  0.00    -0.267 N 
HETATM   22  N5  UNL     1      17.259  20.626   5.930  1.00  0.00    -0.136 N 
ATOM     23  H4  UNL     1      15.646  20.475   7.249  1.00  0.00     0.190 HD
HETATM   24  C15 UNL     1      18.504  20.131   5.935  1.00  0.00     0.222 A 
HETATM   25  C16 UNL     1      18.613  19.386   7.109  1.00  0.00     0.151 A 
BRANCH  22  26
HETATM   26  O10 UNL     1      16.749  21.421   4.937  1.00  0.00    -0.266 OA
ATOM     27  H10 UNL     1      17.257  21.951   4.334  1.00  0.00     0.247 HD
ENDBRANCH  22  26
BRANCH  24  28
HETATM   28  O11 UNL     1      19.515  20.287   5.005  1.00  0.00    -0.341 OA
ATOM     29  H11 UNL     1      19.951  19.631   4.473  1.00  0.00     0.219 HD
ENDBRANCH  24  28
BRANCH  25  30
HETATM   30  O12 UNL     1      19.708  18.688   7.550  1.00  0.00    -0.355 OA
ATOM     31  H12 UNL     1      20.110  17.965   7.086  1.00  0.00     0.218 HD
ENDBRANCH  25  30
ENDBRANCH  14  20
BRANCH  16  32
HETATM   32  O13 UNL     1      16.144  17.066   7.800  1.00  0.00    -0.356 OA
ATOM     33  H13 UNL     1      15.361  17.107   7.265  1.00  0.00     0.218 HD
ENDBRANCH  16  32
BRANCH  17  34
HETATM   34  O14 UNL     1      14.016  16.877   9.527  1.00  0.00    -0.355 OA
ATOM     35  H14 UNL     1      13.589  16.251  10.099  1.00  0.00     0.218 HD
ENDBRANCH  17  34
ENDBRANCH   5  10
ENDBRANCH   4   5
ENDBRANCH   1   4
BRANCH   1  36
HETATM   36  C6  UNL     1      13.627  21.650  14.288  1.00  0.00     0.201 C 
HETATM   37  O4  UNL     1      13.401  22.864  14.052  1.00  0.00    -0.291 OA
BRANCH  36  38
HETATM   38  C7  UNL     1      13.277  21.131  15.578  1.00  0.00     0.228 C 
BRANCH  38  39
HETATM   39  O5  UNL     1      13.654  22.130  16.590  1.00  0.00    -0.385 OA
ATOM     40  H5  UNL     1      13.586  21.723  17.446  1.00  0.00     0.210 HD
ENDBRANCH  38  39
BRANCH  38  41
HETATM   41  C8  UNL     1      11.949  20.666  15.978  1.00  0.00     0.117 C 
HETATM   42  C9  UNL     1      11.258  19.803  15.002  1.00  0.00     0.052 C 
BRANCH  41  43
HETATM   43  O6  UNL     1      12.304  19.693  17.056  1.00  0.00    -0.384 OA
ATOM     44  H6  UNL     1      11.624  19.875  17.694  1.00  0.00     0.210 HD
ENDBRANCH  41  43
BRANCH  41  45
HETATM   45  C10 UNL     1      11.041  21.581  16.754  1.00  0.00     0.209 C 
BRANCH  45  46
HETATM   46  O7  UNL     1      11.429  21.389  18.147  1.00  0.00    -0.388 OA
ATOM     47  H7  UNL     1      10.610  21.230  18.603  1.00  0.00     0.210 HD
ENDBRANCH  45  46
BRANCH  45  48
HETATM   48  C11 UNL     1       9.596  21.240  16.788  1.00  0.00     0.285 C 
BRANCH  48  49
HETATM   49  O8  UNL     1       8.733  22.004  16.052  1.00  0.00    -0.369 OA
ATOM     50  H8  UNL     1       8.068  21.563  15.537  1.00  0.00     0.212 HD
ENDBRANCH  48  49
BRANCH  48  51
HETATM   51  O9  UNL     1       9.101  21.300  18.121  1.00  0.00    -0.369 OA
ATOM     52  H9  UNL     1       8.830  22.185  18.336  1.00  0.00     0.212 HD
ENDBRANCH  48  51
ENDBRANCH  45  48
ENDBRANCH  41  45
ENDBRANCH  38  41
ENDBRANCH  36  38
ENDBRANCH   1  36
TORSDOF 21
ENDMDL
MODEL 3
REMARK VINA RESULT: -8.391672259      0.985      1.371
REMARK  21 active torsions:
REMARK  status: ('A' for Active; 'I' for Inactive)
REMARK    1  A    between atoms: C2_2  and  O2_4 
REMARK    2  A    between atoms: O2_4  and  C3_5 
REMARK    3  A    between atoms: C3_5  and  O3_6 
REMARK    4  A    between atoms: C3_5  and  C12_27 
REMARK    5  A    between atoms: O3_6  and  C4_7 
REMARK    6  A    between atoms: C4_7  and  C6_10 
REMARK    7  A    between atoms: C6_10  and  C7_12 
REMARK    8  A    between atoms: C7_12  and  O5_13 
REMARK    9  A    between atoms: C7_12  and  C8_15 
REMARK   10  A    between atoms: C8_15  and  O6_17 
REMARK   11  A    between atoms: C8_15  and  C10_19 
REMARK   12  A    between atoms: C10_19  and  O7_20 
REMARK   13  A    between atoms: C10_19  and  C11_22 
REMARK   14  A    between atoms: C11_22  and  O8_23 
REMARK   15  A    between atoms: C11_22  and  O9_25 
REMARK   16  A    between atoms: C13_32  and  C14_33 
REMARK   17  A    between atoms: N5_36  and  O10_37 
REMARK   18  A    between atoms: C15_39  and  O11_40 
REMARK   19  A    between atoms: C16_42  and  O12_43 
REMARK   20  A    between atoms: C17_45  and  O13_46 
REMARK   21  A    between atoms: C18_48  and  O14_49 
ROOT
HETATM    1  C4  UNL     1      14.223  21.334  12.972  1.00  0.00     0.303 C 
HETATM    2  C5  UNL     1      13.637  21.848  11.713  1.00  0.00     0.099 C 
HETATM    3  N1  UNL     1      13.160  22.238  10.727  1.00  0.00    -0.194 NA
ENDROOT
BRANCH   1   4
HETATM    4  O3  UNL     1      14.066  19.973  13.126  1.00  0.00    -0.328 OA
BRANCH   4   5
HETATM    5  C3  UNL     1      15.228  19.264  13.356  1.00  0.00     0.328 C 
BRANCH   5   6
HETATM    6  O2  UNL     1      15.075  18.341  14.434  1.00  0.00    -0.284 OA
BRANCH   6   7
HETATM    7  C2  UNL     1      15.530  18.622  15.694  1.00  0.00     0.257 C 
HETATM    8  C1  UNL     1      16.600  19.633  15.965  1.00  0.00     0.126 C 
HETATM    9  O1  UNL     1      15.018  17.998  16.659  1.00  0.00    -0.266 OA
ENDBRANCH   6   7
ENDBRANCH   5   6
BRANCH   5  10
HETATM   10  C12 UNL     1      15.859  18.655  12.193  1.00  0.00     0.134 C 
HETATM   11  N2  UNL     1      17.066  19.124  11.821  1.00  0.00    -0.296 N 
HETATM   12  N3  UNL     1      17.661  19.181  10.651  1.00  0.00    -0.295 N 
ATOM     13  H2  UNL     1      17.620  19.505  12.588  1.00  0.00     0.187 HD
HETATM   14  C13 UNL     1      17.243  18.652   9.502  1.00  0.00     0.115 C 
ATOM     15  H3  UNL     1      18.545  19.688  10.619  1.00  0.00     0.187 HD
HETATM   16  C17 UNL     1      16.320  17.625   9.337  1.00  0.00     0.134 C 
HETATM   17  C18 UNL     1      15.232  17.348  10.155  1.00  0.00     0.154 C 
HETATM   18  C19 UNL     1      15.202  17.646  11.524  1.00  0.00     0.236 C 
HETATM   19  O15 UNL     1      14.483  16.890  12.214  1.00  0.00    -0.283 OA
BRANCH  14  20
HETATM   20  C14 UNL     1      17.799  19.180   8.256  1.00  0.00     0.119 A 
HETATM   21  N4  UNL     1      18.975  18.847   7.697  1.00  0.00    -0.267 N 
HETATM   22  N5  UNL     1      19.149  19.527   6.570  1.00  0.00    -0.136 N 
ATOM     23  H4  UNL     1      19.636  18.172   8.083  1.00  0.00     0.190 HD
HETATM   24  C15 UNL     1      18.097  20.326   6.351  1.00  0.00     0.222 A 
HETATM   25  C16 UNL     1      17.228  20.113   7.421  1.00  0.00     0.151 A 
BRANCH  22  26
HETATM   26  O10 UNL     1      20.237  19.438   5.739  1.00  0.00    -0.266 OA
ATOM     27  H10 UNL     1      20.965  20.047   5.711  1.00  0.00     0.247 HD
ENDBRANCH  22  26
BRANCH  24  28
HETATM   28  O11 UNL     1      17.860  21.200   5.307  1.00  0.00    -0.341 OA
ATOM     29  H11 UNL     1      18.480  21.654   4.748  1.00  0.00     0.219 HD
ENDBRANCH  24  28
BRANCH  25  30
HETATM   30  O12 UNL     1      16.013  20.712   7.634  1.00  0.00    -0.355 OA
ATOM     31  H12 UNL     1      15.823  21.626   7.463  1.00  0.00     0.218 HD
ENDBRANCH  25  30
ENDBRANCH  14  20
BRANCH  16  32
HETATM   32  O13 UNL     1      16.503  16.799   8.248  1.00  0.00    -0.356 OA
ATOM     33  H13 UNL     1      15.953  16.964   7.492  1.00  0.00     0.218 HD
ENDBRANCH  16  32
BRANCH  17  34
HETATM   34  O14 UNL     1      14.121  16.752   9.614  1.00  0.00    -0.355 OA
ATOM     35  H14 UNL     1      13.921  16.889   8.695  1.00  0.00     0.218 HD
ENDBRANCH  17  34
ENDBRANCH   5  10
ENDBRANCH   4   5
ENDBRANCH   1   4
BRANCH   1  36
HETATM   36  C6  UNL     1      13.837  22.171  14.117  1.00  0.00     0.201 C 
HETATM   37  O4  UNL     1      14.037  23.397  13.924  1.00  0.00    -0.291 OA
BRANCH  36  38
HETATM   38  C7  UNL     1      13.292  21.762  15.378  1.00  0.00     0.228 C 
BRANCH  38  39
HETATM   39  O5  UNL     1      14.199  22.224  16.440  1.00  0.00    -0.385 OA
ATOM     40  H5  UNL     1      14.070  21.668  17.201  1.00  0.00     0.210 HD
ENDBRANCH  38  39
BRANCH  38  41
HETATM   41  C8  UNL     1      11.946  22.069  15.865  1.00  0.00     0.117 C 
HETATM   42  C9  UNL     1      11.754  23.438  16.378  1.00  0.00     0.052 C 
BRANCH  41  43
HETATM   43  O6  UNL     1      11.183  22.109  14.580  1.00  0.00    -0.384 OA
ATOM     44  H6  UNL     1      10.416  22.604  14.842  1.00  0.00     0.210 HD
ENDBRANCH  41  43
BRANCH  41  45
HETATM   45  C10 UNL     1      11.160  21.014  16.593  1.00  0.00     0.209 C 
BRANCH  45  46
HETATM   46  O7  UNL     1      11.567  21.148  17.988  1.00  0.00    -0.388 OA
ATOM     47  H7  UNL     1      11.505  22.079  18.167  1.00  0.00     0.210 HD
ENDBRANCH  45  46
BRANCH  45  48
HETATM   48  C11 UNL     1      11.497  19.595  16.310  1.00  0.00     0.285 C 
BRANCH  48  49
HETATM   49  O8  UNL     1      10.479  18.683  16.267  1.00  0.00    -0.369 OA
ATOM     50  H8  UNL     1      10.054  18.524  15.433  1.00  0.00     0.212 HD
ENDBRANCH  48  49
BRANCH  48  51
HETATM   51  O9  UNL     1      12.403  19.095  17.288  1.00  0.00    -0.369 OA
ATOM     52  H9  UNL     1      11.929  18.702  18.011  1.00  0.00     0.212 HD
ENDBRANCH  48  51
ENDBRANCH  45  48
ENDBRANCH  41  45
ENDBRANCH  38  41
ENDBRANCH  36  38
ENDBRANCH   1  36
TORSDOF 21
ENDMDL
MODEL 4
REMARK VINA RESULT: -8.309603812      1.664      3.044
REMARK  21 active torsions:
REMARK  status: ('A' for Active; 'I' for Inactive)
REMARK    1  A    between atoms: C2_2  and  O2_4 
REMARK    2  A    between atoms: O2_4  and  C3_5 
REMARK    3  A    between atoms: C3_5  and  O3_6 
REMARK    4  A    between atoms: C3_5  and  C12_27 
REMARK    5  A    between atoms: O3_6  and  C4_7 
REMARK    6  A    between atoms: C4_7  and  C6_10 
REMARK    7  A    between atoms: C6_10  and  C7_12 
REMARK    8  A    between atoms: C7_12  and  O5_13 
REMARK    9  A    between atoms: C7_12  and  C8_15 
REMARK   10  A    between atoms: C8_15  and  O6_17 
REMARK   11  A    between atoms: C8_15  and  C10_19 
REMARK   12  A    between atoms: C10_19  and  O7_20 
REMARK   13  A    between atoms: C10_19  and  C11_22 
REMARK   14  A    between atoms: C11_22  and  O8_23 
REMARK   15  A    between atoms: C11_22  and  O9_25 
REMARK   16  A    between atoms: C13_32  and  C14_33 
REMARK   17  A    between atoms: N5_36  and  O10_37 
REMARK   18  A    between atoms: C15_39  and  O11_40 
REMARK   19  A    between atoms: C16_42  and  O12_43 
REMARK   20  A    between atoms: C17_45  and  O13_46 
REMARK   21  A    between atoms: C18_48  and  O14_49 
ROOT
HETATM    1  C4  UNL     1      15.509  19.596  15.002  1.00  0.00     0.303 C 
HETATM    2  C5  UNL     1      16.449  20.254  15.938  1.00  0.00     0.099 C 
HETATM    3  N1  UNL     1      17.182  20.789  16.666  1.00  0.00    -0.194 NA
ENDROOT
BRANCH   1   4
HETATM    4  O3  UNL     1      15.509  20.167  13.746  1.00  0.00    -0.328 OA
BRANCH   4   5
HETATM    5  C3  UNL     1      14.857  19.445  12.767  1.00  0.00     0.328 C 
BRANCH   5   6
HETATM    6  O2  UNL     1      13.788  20.192  12.188  1.00  0.00    -0.284 OA
BRANCH   6   7
HETATM    7  C2  UNL     1      14.020  21.264  11.367  1.00  0.00     0.257 C 
HETATM    8  C1  UNL     1      13.482  22.633  11.645  1.00  0.00     0.126 C 
HETATM    9  O1  UNL     1      14.718  21.078  10.337  1.00  0.00    -0.266 OA
ENDBRANCH   6   7
ENDBRANCH   5   6
BRANCH   5  10
HETATM   10  C12 UNL     1      15.696  18.811  11.759  1.00  0.00     0.134 C 
HETATM   11  N2  UNL     1      16.888  19.380  11.491  1.00  0.00    -0.296 N 
HETATM   12  N3  UNL     1      17.624  19.400  10.404  1.00  0.00    -0.295 N 
ATOM     13  H2  UNL     1      17.293  19.887  12.278  1.00  0.00     0.187 HD
HETATM   14  C13 UNL     1      17.419  18.728   9.272  1.00  0.00     0.115 C 
ATOM     15  H3  UNL     1      18.449  20.000  10.428  1.00  0.00     0.187 HD
HETATM   16  C17 UNL     1      16.635  17.592   9.100  1.00  0.00     0.134 C 
HETATM   17  C18 UNL     1      15.481  17.266   9.803  1.00  0.00     0.154 C 
HETATM   18  C19 UNL     1      15.239  17.679  11.120  1.00  0.00     0.236 C 
HETATM   19  O15 UNL     1      14.516  16.909  11.791  1.00  0.00    -0.283 OA
BRANCH  14  20
HETATM   20  C14 UNL     1      18.079  19.204   8.056  1.00  0.00     0.119 A 
HETATM   21  N4  UNL     1      19.304  18.862   7.622  1.00  0.00    -0.267 N 
HETATM   22  N5  UNL     1      19.572  19.489   6.482  1.00  0.00    -0.136 N 
ATOM     23  H4  UNL     1      19.935  18.216   8.098  1.00  0.00     0.190 HD
HETATM   24  C15 UNL     1      18.535  20.261   6.131  1.00  0.00     0.222 A 
HETATM   25  C16 UNL     1      17.576  20.087   7.128  1.00  0.00     0.151 A 
BRANCH  22  26
HETATM   26  O10 UNL     1      20.731  19.377   5.758  1.00  0.00    -0.266 OA
ATOM     27  H10 UNL     1      20.874  18.787   5.028  1.00  0.00     0.247 HD
ENDBRANCH  22  26
BRANCH  24  28
HETATM   28  O11 UNL     1      18.384  21.080   5.028  1.00  0.00    -0.341 OA
ATOM     29  H11 UNL     1      17.619  21.224   4.484  1.00  0.00     0.219 HD
ENDBRANCH  24  28
BRANCH  25  30
HETATM   30  O12 UNL     1      16.340  20.677   7.203  1.00  0.00    -0.355 OA
ATOM     31  H12 UNL     1      15.516  20.224   7.069  1.00  0.00     0.218 HD
ENDBRANCH  25  30
ENDBRANCH  14  20
BRANCH  16  32
HETATM   32  O13 UNL     1      17.044  16.700   8.133  1.00  0.00    -0.356 OA
ATOM     33  H13 UNL     1      17.533  17.058   7.402  1.00  0.00     0.218 HD
ENDBRANCH  16  32
BRANCH  17  34
HETATM   34  O14 UNL     1      14.518  16.502   9.193  1.00  0.00    -0.355 OA
ATOM     35  H14 UNL     1      13.987  16.887   8.506  1.00  0.00     0.218 HD
ENDBRANCH  17  34
ENDBRANCH   5  10
ENDBRANCH   4   5
ENDBRANCH   1   4
BRANCH   1  36
HETATM   36  C6  UNL     1      14.195  19.390  15.626  1.00  0.00     0.201 C 
HETATM   37  O4  UNL     1      14.042  18.229  16.083  1.00  0.00    -0.291 OA
BRANCH  36  38
HETATM   38  C7  UNL     1      13.113  20.320  15.758  1.00  0.00     0.228 C 
BRANCH  38  39
HETATM   39  O5  UNL     1      13.466  21.540  15.014  1.00  0.00    -0.385 OA
ATOM     40  H5  UNL     1      14.338  21.806  15.281  1.00  0.00     0.210 HD
ENDBRANCH  38  39
BRANCH  38  41
HETATM   41  C8  UNL     1      11.714  20.057  15.416  1.00  0.00     0.117 C 
HETATM   42  C9  UNL     1      11.124  20.965  14.416  1.00  0.00     0.052 C 
BRANCH  41  43
HETATM   43  O6  UNL     1      11.848  18.786  14.640  1.00  0.00    -0.384 OA
ATOM     44  H6  UNL     1      11.046  18.340  14.886  1.00  0.00     0.210 HD
ENDBRANCH  41  43
BRANCH  41  45
HETATM   45  C10 UNL     1      10.760  19.601  16.485  1.00  0.00     0.209 C 
BRANCH  45  46
HETATM   46  O7  UNL     1      11.252  18.285  16.880  1.00  0.00    -0.388 OA
ATOM     47  H7  UNL     1      11.949  18.466  17.500  1.00  0.00     0.210 HD
ENDBRANCH  45  46
BRANCH  45  48
HETATM   48  C11 UNL     1       9.367  19.295  16.070  1.00  0.00     0.285 C 
BRANCH  48  49
HETATM   49  O8  UNL     1       8.369  19.446  16.993  1.00  0.00    -0.369 OA
ATOM     50  H8  UNL     1       8.433  18.961  17.807  1.00  0.00     0.212 HD
ENDBRANCH  48  49
BRANCH  48  51
HETATM   51  O9  UNL     1       9.263  17.946  15.627  1.00  0.00    -0.369 OA
ATOM     52  H9  UNL     1       8.415  17.790  15.231  1.00  0.00     0.212 HD
ENDBRANCH  48  51
ENDBRANCH  45  48
ENDBRANCH  41  45
ENDBRANCH  38  41
ENDBRANCH  36  38
ENDBRANCH   1  36
TORSDOF 21
ENDMDL
MODEL 5
REMARK VINA RESULT: -8.109554286      2.725      8.808
REMARK  21 active torsions:
REMARK  status: ('A' for Active; 'I' for Inactive)
REMARK    1  A    between atoms: C2_2  and  O2_4 
REMARK    2  A    between atoms: O2_4  and  C3_5 
REMARK    3  A    between atoms: C3_5  and  O3_6 
REMARK    4  A    between atoms: C3_5  and  C12_27 
REMARK    5  A    between atoms: O3_6  and  C4_7 
REMARK    6  A    between atoms: C4_7  and  C6_10 
REMARK    7  A    between atoms: C6_10  and  C7_12 
REMARK    8  A    between atoms: C7_12  and  O5_13 
REMARK    9  A    between atoms: C7_12  and  C8_15 
REMARK   10  A    between atoms: C8_15  and  O6_17 
REMARK   11  A    between atoms: C8_15  and  C10_19 
REMARK   12  A    between atoms: C10_19  and  O7_20 
REMARK   13  A    between atoms: C10_19  and  C11_22 
REMARK   14  A    between atoms: C11_22  and  O8_23 
REMARK   15  A    between atoms: C11_22  and  O9_25 
REMARK   16  A    between atoms: C13_32  and  C14_33 
REMARK   17  A    between atoms: N5_36  and  O10_37 
REMARK   18  A    between atoms: C15_39  and  O11_40 
REMARK   19  A    between atoms: C16_42  and  O12_43 
REMARK   20  A    between atoms: C17_45  and  O13_46 
REMARK   21  A    between atoms: C18_48  and  O14_49 
ROOT
HETATM    1  C4  UNL     1      16.379  19.465  11.661  1.00  0.00     0.303 C 
HETATM    2  C5  UNL     1      15.527  18.256  11.720  1.00  0.00     0.099 C 
HETATM    3  N1  UNL     1      14.841  17.318  11.763  1.00  0.00    -0.194 NA
ENDROOT
BRANCH   1   4
HETATM    4  O3  UNL     1      15.798  20.566  12.255  1.00  0.00    -0.328 OA
BRANCH   4   5
HETATM    5  C3  UNL     1      15.701  20.515  13.631  1.00  0.00     0.328 C 
BRANCH   5   6
HETATM    6  O2  UNL     1      16.006  21.776  14.226  1.00  0.00    -0.284 OA
BRANCH   6   7
HETATM    7  C2  UNL     1      16.029  21.945  15.584  1.00  0.00     0.257 C 
HETATM    8  C1  UNL     1      15.029  22.786  16.316  1.00  0.00     0.126 C 
HETATM    9  O1  UNL     1      16.933  21.364  16.237  1.00  0.00    -0.266 OA
ENDBRANCH   6   7
ENDBRANCH   5   6
BRANCH   5  10
HETATM   10  C12 UNL     1      14.484  19.928  14.177  1.00  0.00     0.134 C 
HETATM   11  N2  UNL     1      13.307  20.374  13.695  1.00  0.00    -0.296 N 
HETATM   12  N3  UNL     1      12.113  20.454  14.237  1.00  0.00    -0.295 N 
ATOM     13  H2  UNL     1      13.351  20.709  12.733  1.00  0.00     0.187 HD
HETATM   14  C13 UNL     1      11.725  19.980  15.421  1.00  0.00     0.115 C 
ATOM     15  H3  UNL     1      11.400  20.935  13.689  1.00  0.00     0.187 HD
HETATM   16  C17 UNL     1      12.347  18.989  16.172  1.00  0.00     0.134 C 
HETATM   17  C18 UNL     1      13.708  18.716  16.223  1.00  0.00     0.154 C 
HETATM   18  C19 UNL     1      14.584  18.965  15.156  1.00  0.00     0.236 C 
HETATM   19  O15 UNL     1      15.577  18.207  15.099  1.00  0.00    -0.283 OA
BRANCH  14  20
HETATM   20  C14 UNL     1      10.514  20.535  16.024  1.00  0.00     0.119 A 
HETATM   21  N4  UNL     1      10.430  21.200  17.189  1.00  0.00    -0.267 N 
HETATM   22  N5  UNL     1       9.170  21.555  17.417  1.00  0.00    -0.136 N 
ATOM     23  H4  UNL     1      11.217  21.402  17.806  1.00  0.00     0.190 HD
HETATM   24  C15 UNL     1       8.389  21.136  16.413  1.00  0.00     0.222 A 
HETATM   25  C16 UNL     1       9.235  20.483  15.518  1.00  0.00     0.151 A 
BRANCH  22  26
HETATM   26  O10 UNL     1       8.718  22.247  18.511  1.00  0.00    -0.266 OA
ATOM     27  H10 UNL     1       8.212  21.883  19.228  1.00  0.00     0.247 HD
ENDBRANCH  22  26
BRANCH  24  28
HETATM   28  O11 UNL     1       7.025  21.286  16.241  1.00  0.00    -0.341 OA
ATOM     29  H11 UNL     1       6.498  21.156  15.461  1.00  0.00     0.219 HD
ENDBRANCH  24  28
BRANCH  25  30
HETATM   30  O12 UNL     1       8.888  19.885  14.334  1.00  0.00    -0.355 OA
ATOM     31  H12 UNL     1       8.382  20.300  13.646  1.00  0.00     0.218 HD
ENDBRANCH  25  30
ENDBRANCH  14  20
BRANCH  16  32
HETATM   32  O13 UNL     1      11.528  18.197  16.948  1.00  0.00    -0.356 OA
ATOM     33  H13 UNL     1      11.919  17.811  17.723  1.00  0.00     0.218 HD
ENDBRANCH  16  32
BRANCH  17  34
HETATM   34  O14 UNL     1      14.242  18.174  17.364  1.00  0.00    -0.355 OA
ATOM     35  H14 UNL     1      14.498  18.750  18.075  1.00  0.00     0.218 HD
ENDBRANCH  17  34
ENDBRANCH   5  10
ENDBRANCH   4   5
ENDBRANCH   1   4
BRANCH   1  36
HETATM   36  C6  UNL     1      16.927  19.664  10.311  1.00  0.00     0.201 C 
HETATM   37  O4  UNL     1      18.150  19.953  10.312  1.00  0.00    -0.291 OA
BRANCH  36  38
HETATM   38  C7  UNL     1      16.249  19.577   9.051  1.00  0.00     0.228 C 
BRANCH  38  39
HETATM   39  O5  UNL     1      16.322  20.895   8.402  1.00  0.00    -0.385 OA
ATOM     40  H5  UNL     1      15.615  21.432   8.742  1.00  0.00     0.210 HD
ENDBRANCH  38  39
BRANCH  38  41
HETATM   41  C8  UNL     1      16.540  18.612   7.991  1.00  0.00     0.117 C 
HETATM   42  C9  UNL     1      16.571  19.163   6.623  1.00  0.00     0.052 C 
BRANCH  41  43
HETATM   43  O6  UNL     1      17.987  18.338   8.248  1.00  0.00    -0.384 OA
ATOM     44  H6  UNL     1      18.316  19.219   8.382  1.00  0.00     0.210 HD
ENDBRANCH  41  43
BRANCH  41  45
HETATM   45  C10 UNL     1      15.997  17.213   8.087  1.00  0.00     0.209 C 
BRANCH  45  46
HETATM   46  O7  UNL     1      14.690  17.369   8.715  1.00  0.00    -0.388 OA
ATOM     47  H7  UNL     1      14.085  16.943   8.118  1.00  0.00     0.210 HD
ENDBRANCH  45  46
BRANCH  45  48
HETATM   48  C11 UNL     1      16.678  16.281   9.023  1.00  0.00     0.285 C 
BRANCH  48  49
HETATM   49  O8  UNL     1      17.630  15.438   8.520  1.00  0.00    -0.369 OA
ATOM     50  H8  UNL     1      18.170  15.748   7.803  1.00  0.00     0.212 HD
ENDBRANCH  48  49
BRANCH  48  51
HETATM   51  O9  UNL     1      15.728  15.432   9.659  1.00  0.00    -0.369 OA
ATOM     52  H9  UNL     1      15.320  15.878  10.391  1.00  0.00     0.212 HD
ENDBRANCH  48  51
ENDBRANCH  45  48
ENDBRANCH  41  45
ENDBRANCH  38  41
ENDBRANCH  36  38
ENDBRANCH   1  36
TORSDOF 21
ENDMDL
