MODEL 1
REMARK VINA RESULT: -9.741757747      0.000      0.000
REMARK  14 active torsions:
REMARK  status: ('A' for Active; 'I' for Inactive)
REMARK    1  A    between atoms: C2_3  and  C3_4 
REMARK    2  A    between atoms: C2_3  and  C11_32 
REMARK    3  A    between atoms: C3_4  and  O1_5 
REMARK    4  A    between atoms: O1_5  and  C4_6 
REMARK    5  A    between atoms: C6_10  and  N4_11 
REMARK    6  A    between atoms: C7_18  and  C8_19 
REMARK    7  A    between atoms: C8_19  and  C9_24 
REMARK    8  A    between atoms: N8_20  and  O2_22 
REMARK    9  A    between atoms: C9_24  and  O3_25 
REMARK   10  A    between atoms: C9_24  and  C10_27 
REMARK   11  A    between atoms: C10_27  and  O4_28 
REMARK   12  A    between atoms: C10_27  and  O5_30 
REMARK       I    between atoms: C11_32  and  N9_34 
REMARK       I    between atoms: N9_34  and  C12_36 
REMARK   13  A    between atoms: C12_36  and  C13_38 
REMARK   14  A    between atoms: C17_50  and  N14_51 
ROOT
HETATM    1  N1  UNL     1      11.935  19.152  15.012  1.00  0.00    -0.196 NA
HETATM    2  C1  UNL     1      12.977  19.386  14.572  1.00  0.00     0.075 C 
HETATM    3  C2  UNL     1      14.339  19.713  14.020  1.00  0.00     0.208 C 
ENDROOT
BRANCH   3   4
HETATM    4  C3  UNL     1      14.645  18.471  13.164  1.00  0.00     0.197 C 
BRANCH   4   5
HETATM    5  O1  UNL     1      14.536  18.731  11.820  1.00  0.00    -0.379 OA
BRANCH   5   6
HETATM    6  C4  UNL     1      15.679  18.333  11.172  1.00  0.00     0.179 C 
HETATM    7  C5  UNL     1      16.839  19.150  11.737  1.00  0.00     0.166 C 
HETATM    8  N2  UNL     1      17.595  19.496  10.548  1.00  0.00    -0.144 NA
HETATM    9  N3  UNL     1      16.550  19.931   9.704  1.00  0.00    -0.118 NA
HETATM   10  C6  UNL     1      15.731  18.701   9.704  1.00  0.00     0.250 C 
BRANCH  10  11
HETATM   11  N4  UNL     1      16.499  17.718   8.981  1.00  0.00    -0.234 N 
HETATM   12  N5  UNL     1      16.720  16.474   9.437  1.00  0.00    -0.223 N 
HETATM   13  N6  UNL     1      17.463  15.810   8.578  1.00  0.00    -0.226 N 
ATOM     14  H5  UNL     1      16.365  16.100  10.318  1.00  0.00     0.210 HD
HETATM   15  N7  UNL     1      17.714  16.625   7.581  1.00  0.00    -0.267 N 
ATOM     16  H6  UNL     1      17.783  14.846   8.670  1.00  0.00     0.210 HD
HETATM   17  C7  UNL     1      17.131  17.804   7.809  1.00  0.00     0.168 A 
ATOM     18  H7  UNL     1      18.270  16.393   6.758  1.00  0.00     0.190 HD
BRANCH  17  19
HETATM   19  C8  UNL     1      17.188  18.951   6.907  1.00  0.00     0.112 C 
HETATM   20  N8  UNL     1      16.191  19.106   6.101  1.00  0.00    -0.267 N 
ATOM     21  H8  UNL     1      15.422  18.437   6.122  1.00  0.00     0.194 HD
BRANCH  20  22
HETATM   22  O2  UNL     1      16.147  20.141   5.228  1.00  0.00    -0.290 OA
ATOM     23  H2  UNL     1      15.393  20.717   5.184  1.00  0.00     0.244 HD
ENDBRANCH  20  22
BRANCH  19  24
HETATM   24  C9  UNL     1      18.284  19.917   6.831  1.00  0.00     0.228 C 
BRANCH  24  25
HETATM   25  O3  UNL     1      18.870  20.222   8.063  1.00  0.00    -0.384 OA
ATOM     26  H3  UNL     1      18.777  21.130   8.328  1.00  0.00     0.210 HD
ENDBRANCH  24  25
BRANCH  24  27
HETATM   27  C10 UNL     1      19.383  19.592   5.876  1.00  0.00     0.288 C 
BRANCH  27  28
HETATM   28  O4  UNL     1      20.118  18.458   6.277  1.00  0.00    -0.368 OA
ATOM     29  H4  UNL     1      21.028  18.508   6.009  1.00  0.00     0.212 HD
ENDBRANCH  27  28
BRANCH  27  30
HETATM   30  O5  UNL     1      20.162  20.649   5.491  1.00  0.00    -0.368 OA
ATOM     31  H5  UNL     1      20.069  20.919   4.585  1.00  0.00     0.212 HD
ENDBRANCH  27  30
ENDBRANCH  24  27
ENDBRANCH  19  24
ENDBRANCH  17  19
ENDBRANCH  10  11
ENDBRANCH   5   6
ENDBRANCH   4   5
ENDBRANCH   3   4
BRANCH   3  32
HETATM   32  C11 UNL     1      15.294  19.861  15.111  1.00  0.00     0.244 C 
HETATM   33  O6  UNL     1      15.506  18.807  15.830  1.00  0.00    -0.272 OA
HETATM   34  N9  UNL     1      15.998  20.994  15.461  1.00  0.00    -0.290 N 
HETATM   35  C12 UNL     1      15.882  22.279  14.849  1.00  0.00     0.283 C 
ATOM     36  H9  UNL     1      16.664  20.905  16.228  1.00  0.00     0.172 HD
HETATM   37  O7  UNL     1      15.062  22.417  13.913  1.00  0.00    -0.265 OA
BRANCH  35  38
HETATM   38  C13 UNL     1      16.692  23.402  15.296  1.00  0.00     0.159 A 
HETATM   39  N10 UNL     1      17.451  23.308  16.306  1.00  0.00    -0.289 N 
HETATM   40  N11 UNL     1      18.271  24.300  16.832  1.00  0.00    -0.294 N 
ATOM     41  H10 UNL     1      17.462  22.408  16.785  1.00  0.00     0.188 HD
HETATM   42  C14 UNL     1      18.403  25.621  16.319  1.00  0.00     0.126 A 
ATOM     43  H11 UNL     1      18.824  24.061  17.655  1.00  0.00     0.187 HD
HETATM   44  C15 UNL     1      17.709  26.052  15.220  1.00  0.00     0.109 A 
HETATM   45  C17 UNL     1      19.257  26.536  16.921  1.00  0.00     0.131 A 
HETATM   46  N12 UNL     1      17.872  27.298  14.777  1.00  0.00    -0.345 N 
HETATM   47  S1  UNL     1      16.602  24.934  14.400  1.00  0.00    -0.045 SA
HETATM   48  C16 UNL     1      18.706  28.176  15.374  1.00  0.00     0.183 A 
ATOM     49  H12 UNL     1      17.347  27.600  13.957  1.00  0.00     0.167 HD
HETATM   50  N13 UNL     1      19.395  27.801  16.438  1.00  0.00    -0.337 N 
ATOM     51  H13 UNL     1      20.029  28.457  16.895  1.00  0.00     0.168 HD
BRANCH  45  52
HETATM   52  N14 UNL     1      19.939  26.217  17.956  1.00  0.00    -0.383 N 
ATOM     53 2H14 UNL     1      19.549  25.513  18.581  1.00  0.00     0.157 HD
ATOM     54 1H14 UNL     1      20.842  26.652  18.143  1.00  0.00     0.157 HD
ENDBRANCH  45  52
ENDBRANCH  35  38
ENDBRANCH   3  32
TORSDOF 14
ENDMDL
MODEL 2
REMARK VINA RESULT: -9.553569401      2.244      3.016
REMARK  14 active torsions:
REMARK  status: ('A' for Active; 'I' for Inactive)
REMARK    1  A    between atoms: C2_3  and  C3_4 
REMARK    2  A    between atoms: C2_3  and  C11_32 
REMARK    3  A    between atoms: C3_4  and  O1_5 
REMARK    4  A    between atoms: O1_5  and  C4_6 
REMARK    5  A    between atoms: C6_10  and  N4_11 
REMARK    6  A    between atoms: C7_18  and  C8_19 
REMARK    7  A    between atoms: C8_19  and  C9_24 
REMARK    8  A    between atoms: N8_20  and  O2_22 
REMARK    9  A    between atoms: C9_24  and  O3_25 
REMARK   10  A    between atoms: C9_24  and  C10_27 
REMARK   11  A    between atoms: C10_27  and  O4_28 
REMARK   12  A    between atoms: C10_27  and  O5_30 
REMARK       I    between atoms: C11_32  and  N9_34 
REMARK       I    between atoms: N9_34  and  C12_36 
REMARK   13  A    between atoms: C12_36  and  C13_38 
REMARK   14  A    between atoms: C17_50  and  N14_51 
ROOT
HETATM    1  N1  UNL     1      11.006  22.268  10.525  1.00  0.00    -0.196 NA
HETATM    2  C1  UNL     1      12.007  22.098  11.075  1.00  0.00     0.075 C 
HETATM    3  C2  UNL     1      13.302  21.894  11.815  1.00  0.00     0.208 C 
ENDROOT
BRANCH   3   4
HETATM    4  C3  UNL     1      13.915  20.699  11.064  1.00  0.00     0.197 C 
BRANCH   4   5
HETATM    5  O1  UNL     1      14.074  19.604  11.879  1.00  0.00    -0.379 OA
BRANCH   5   6
HETATM    6  C4  UNL     1      15.143  18.856  11.454  1.00  0.00     0.179 C 
HETATM    7  C5  UNL     1      16.324  19.177  12.368  1.00  0.00     0.166 C 
HETATM    8  N2  UNL     1      17.430  19.287  11.437  1.00  0.00    -0.144 NA
HETATM    9  N3  UNL     1      16.843  20.107  10.447  1.00  0.00    -0.118 NA
HETATM   10  C6  UNL     1      15.690  19.252  10.098  1.00  0.00     0.250 C 
BRANCH  10  11
HETATM   11  N4  UNL     1      16.244  18.096   9.439  1.00  0.00    -0.234 N 
HETATM   12  N5  UNL     1      16.156  16.851   9.935  1.00  0.00    -0.223 N 
HETATM   13  N6  UNL     1      16.764  16.007   9.130  1.00  0.00    -0.226 N 
ATOM     14  H5  UNL     1      15.688  16.598  10.806  1.00  0.00     0.210 HD
HETATM   15  N7  UNL     1      17.236  16.707   8.127  1.00  0.00    -0.267 N 
ATOM     16  H6  UNL     1      16.852  14.999   9.262  1.00  0.00     0.210 HD
HETATM   17  C7  UNL     1      16.927  17.995   8.297  1.00  0.00     0.168 A 
ATOM     18  H7  UNL     1      17.758  16.327   7.338  1.00  0.00     0.190 HD
BRANCH  17  19
HETATM   19  C8  UNL     1      17.283  19.067   7.371  1.00  0.00     0.112 C 
HETATM   20  N8  UNL     1      16.471  19.278   6.388  1.00  0.00    -0.267 N 
ATOM     21  H8  UNL     1      15.635  18.701   6.297  1.00  0.00     0.194 HD
BRANCH  20  22
HETATM   22  O2  UNL     1      16.709  20.251   5.477  1.00  0.00    -0.290 OA
ATOM     23  H2  UNL     1      16.957  21.128   5.746  1.00  0.00     0.244 HD
ENDBRANCH  20  22
BRANCH  19  24
HETATM   24  C9  UNL     1      18.483  19.899   7.456  1.00  0.00     0.228 C 
BRANCH  24  25
HETATM   25  O3  UNL     1      19.063  19.946   8.726  1.00  0.00    -0.384 OA
ATOM     26  H3  UNL     1      19.814  19.375   8.835  1.00  0.00     0.210 HD
ENDBRANCH  24  25
BRANCH  24  27
HETATM   27  C10 UNL     1      19.566  19.594   6.476  1.00  0.00     0.288 C 
BRANCH  27  28
HETATM   28  O4  UNL     1      19.873  20.703   5.661  1.00  0.00    -0.368 OA
ATOM     29  H4  UNL     1      20.459  21.313   6.093  1.00  0.00     0.212 HD
ENDBRANCH  27  28
BRANCH  27  30
HETATM   30  O5  UNL     1      19.423  18.422   5.785  1.00  0.00    -0.368 OA
ATOM     31  H5  UNL     1      20.198  17.875   5.740  1.00  0.00     0.212 HD
ENDBRANCH  27  30
ENDBRANCH  24  27
ENDBRANCH  19  24
ENDBRANCH  17  19
ENDBRANCH  10  11
ENDBRANCH   5   6
ENDBRANCH   4   5
ENDBRANCH   3   4
BRANCH   3  32
HETATM   32  C11 UNL     1      13.030  21.569  13.210  1.00  0.00     0.244 C 
HETATM   33  O6  UNL     1      11.820  21.204  13.484  1.00  0.00    -0.272 OA
HETATM   34  N9  UNL     1      13.914  21.603  14.266  1.00  0.00    -0.290 N 
HETATM   35  C12 UNL     1      15.277  22.028  14.210  1.00  0.00     0.283 C 
ATOM     36  H9  UNL     1      13.563  21.296  15.173  1.00  0.00     0.172 HD
HETATM   37  O7  UNL     1      15.728  22.422  13.110  1.00  0.00    -0.265 OA
BRANCH  35  38
HETATM   38  C13 UNL     1      16.122  22.007  15.394  1.00  0.00     0.159 A 
HETATM   39  N10 UNL     1      16.228  20.969  16.112  1.00  0.00    -0.289 N 
HETATM   40  N11 UNL     1      16.997  20.819  17.259  1.00  0.00    -0.294 N 
ATOM     41  H10 UNL     1      15.690  20.155  15.816  1.00  0.00     0.188 HD
HETATM   42  C14 UNL     1      17.817  21.826  17.842  1.00  0.00     0.126 A 
ATOM     43  H11 UNL     1      16.971  19.912  17.724  1.00  0.00     0.187 HD
HETATM   44  C15 UNL     1      17.927  23.081  17.304  1.00  0.00     0.109 A 
HETATM   45  C17 UNL     1      18.550  21.569  18.992  1.00  0.00     0.131 A 
HETATM   46  N12 UNL     1      18.712  23.987  17.886  1.00  0.00    -0.345 N 
HETATM   47  S1  UNL     1      17.018  23.477  15.834  1.00  0.00    -0.045 SA
HETATM   48  C16 UNL     1      19.419  23.721  19.005  1.00  0.00     0.183 A 
ATOM     49  H12 UNL     1      18.782  24.916  17.470  1.00  0.00     0.167 HD
HETATM   50  N13 UNL     1      19.342  22.523  19.557  1.00  0.00    -0.337 N 
ATOM     51  H13 UNL     1      19.874  22.313  20.401  1.00  0.00     0.168 HD
BRANCH  45  52
HETATM   52  N14 UNL     1      18.502  20.425  19.562  1.00  0.00    -0.383 N 
ATOM     53 2H14 UNL     1      17.973  19.687  19.097  1.00  0.00     0.157 HD
ATOM     54 1H14 UNL     1      18.979  20.259  20.447  1.00  0.00     0.157 HD
ENDBRANCH  45  52
ENDBRANCH  35  38
ENDBRANCH   3  32
TORSDOF 14
ENDMDL
MODEL 3
REMARK VINA RESULT: -9.475932250      3.995     10.261
REMARK  14 active torsions:
REMARK  status: ('A' for Active; 'I' for Inactive)
REMARK    1  A    between atoms: C2_3  and  C3_4 
REMARK    2  A    between atoms: C2_3  and  C11_32 
REMARK    3  A    between atoms: C3_4  and  O1_5 
REMARK    4  A    between atoms: O1_5  and  C4_6 
REMARK    5  A    between atoms: C6_10  and  N4_11 
REMARK    6  A    between atoms: C7_18  and  C8_19 
REMARK    7  A    between atoms: C8_19  and  C9_24 
REMARK    8  A    between atoms: N8_20  and  O2_22 
REMARK    9  A    between atoms: C9_24  and  O3_25 
REMARK   10  A    between atoms: C9_24  and  C10_27 
REMARK   11  A    between atoms: C10_27  and  O4_28 
REMARK   12  A    between atoms: C10_27  and  O5_30 
REMARK       I    between atoms: C11_32  and  N9_34 
REMARK       I    between atoms: N9_34  and  C12_36 
REMARK   13  A    between atoms: C12_36  and  C13_38 
REMARK   14  A    between atoms: C17_50  and  N14_51 
ROOT
HETATM    1  N1  UNL     1      14.488  16.730  11.623  1.00  0.00    -0.196 NA
HETATM    2  C1  UNL     1      15.230  17.556  11.305  1.00  0.00     0.075 C 
HETATM    3  C2  UNL     1      16.188  18.629  10.861  1.00  0.00     0.208 C 
ENDROOT
BRANCH   3   4
HETATM    4  C3  UNL     1      16.510  19.340  12.188  1.00  0.00     0.197 C 
BRANCH   4   5
HETATM    5  O1  UNL     1      16.698  18.450  13.217  1.00  0.00    -0.379 OA
BRANCH   5   6
HETATM    6  C4  UNL     1      16.311  19.020  14.404  1.00  0.00     0.179 C 
HETATM    7  C5  UNL     1      16.254  17.911  15.453  1.00  0.00     0.166 C 
HETATM    8  N2  UNL     1      15.031  18.211  16.171  1.00  0.00    -0.144 NA
HETATM    9  N3  UNL     1      14.152  18.434  15.087  1.00  0.00    -0.118 NA
HETATM   10  C6  UNL     1      14.886  19.532  14.423  1.00  0.00     0.250 C 
BRANCH  10  11
HETATM   11  N4  UNL     1      14.785  20.664  15.310  1.00  0.00    -0.234 N 
HETATM   12  N5  UNL     1      15.816  21.126  16.036  1.00  0.00    -0.223 N 
HETATM   13  N6  UNL     1      15.426  22.152  16.761  1.00  0.00    -0.226 N 
ATOM     14  H5  UNL     1      16.760  20.739  16.027  1.00  0.00     0.210 HD
HETATM   15  N7  UNL     1      14.155  22.344  16.499  1.00  0.00    -0.267 N 
ATOM     16  H6  UNL     1      16.002  22.694  17.404  1.00  0.00     0.210 HD
HETATM   17  C7  UNL     1      13.741  21.439  15.609  1.00  0.00     0.168 A 
ATOM     18  H7  UNL     1      13.572  23.072  16.912  1.00  0.00     0.190 HD
BRANCH  17  19
HETATM   19  C8  UNL     1      12.383  21.354  15.075  1.00  0.00     0.112 C 
HETATM   20  N8  UNL     1      12.080  22.178  14.127  1.00  0.00    -0.267 N 
ATOM     21  H8  UNL     1      12.781  22.841  13.798  1.00  0.00     0.194 HD
BRANCH  20  22
HETATM   22  O2  UNL     1      10.849  22.178  13.563  1.00  0.00    -0.290 OA
ATOM     23  H2  UNL     1      10.727  21.961  12.647  1.00  0.00     0.244 HD
ENDBRANCH  20  22
BRANCH  19  24
HETATM   24  C9  UNL     1      11.345  20.434  15.539  1.00  0.00     0.228 C 
BRANCH  24  25
HETATM   25  O3  UNL     1      11.235  19.263  14.783  1.00  0.00    -0.384 OA
ATOM     26  H3  UNL     1      11.750  19.262  13.985  1.00  0.00     0.210 HD
ENDBRANCH  24  25
BRANCH  24  27
HETATM   27  C10 UNL     1      11.408  20.041  16.976  1.00  0.00     0.288 C 
BRANCH  27  28
HETATM   28  O4  UNL     1      11.534  21.157  17.828  1.00  0.00    -0.368 OA
ATOM     29  H4  UNL     1      11.993  20.944  18.632  1.00  0.00     0.212 HD
ENDBRANCH  27  28
BRANCH  27  30
HETATM   30  O5  UNL     1      12.270  19.020  17.271  1.00  0.00    -0.368 OA
ATOM     31  H5  UNL     1      11.891  18.287  17.743  1.00  0.00     0.212 HD
ENDBRANCH  27  30
ENDBRANCH  24  27
ENDBRANCH  19  24
ENDBRANCH  17  19
ENDBRANCH  10  11
ENDBRANCH   5   6
ENDBRANCH   4   5
ENDBRANCH   3   4
BRANCH   3  32
HETATM   32  C11 UNL     1      15.528  19.525   9.920  1.00  0.00     0.244 C 
HETATM   33  O6  UNL     1      14.549  20.227  10.392  1.00  0.00    -0.272 OA
HETATM   34  N9  UNL     1      15.829  19.711   8.588  1.00  0.00    -0.290 N 
HETATM   35  C12 UNL     1      16.824  19.007   7.844  1.00  0.00     0.283 C 
ATOM     36  H9  UNL     1      15.291  20.417   8.087  1.00  0.00     0.172 HD
HETATM   37  O7  UNL     1      17.490  18.125   8.434  1.00  0.00    -0.265 OA
BRANCH  35  38
HETATM   38  C13 UNL     1      17.064  19.301   6.439  1.00  0.00     0.159 A 
HETATM   39  N10 UNL     1      16.307  18.846   5.530  1.00  0.00    -0.289 N 
HETATM   40  N11 UNL     1      16.426  19.052   4.161  1.00  0.00    -0.294 N 
ATOM     41  H10 UNL     1      15.527  18.266   5.837  1.00  0.00     0.188 HD
HETATM   42  C14 UNL     1      17.438  19.826   3.527  1.00  0.00     0.126 A 
ATOM     43  H11 UNL     1      15.729  18.612   3.561  1.00  0.00     0.187 HD
HETATM   44  C15 UNL     1      18.424  20.460   4.233  1.00  0.00     0.109 A 
HETATM   45  C17 UNL     1      17.462  19.970   2.146  1.00  0.00     0.131 A 
HETATM   46  N12 UNL     1      19.348  21.176   3.591  1.00  0.00    -0.345 N 
HETATM   47  S1  UNL     1      18.453  20.318   6.001  1.00  0.00    -0.045 SA
HETATM   48  C16 UNL     1      19.357  21.307   2.247  1.00  0.00     0.183 A 
ATOM     49  H12 UNL     1      20.073  21.642   4.135  1.00  0.00     0.167 HD
HETATM   50  N13 UNL     1      18.423  20.711   1.527  1.00  0.00    -0.337 N 
ATOM     51  H13 UNL     1      18.421  20.806   0.511  1.00  0.00     0.168 HD
BRANCH  45  52
HETATM   52  N14 UNL     1      16.580  19.407   1.410  1.00  0.00    -0.383 N 
ATOM     53 2H14 UNL     1      16.279  18.468   1.667  1.00  0.00     0.157 HD
ATOM     54 1H14 UNL     1      16.192  19.886   0.597  1.00  0.00     0.157 HD
ENDBRANCH  45  52
ENDBRANCH  35  38
ENDBRANCH   3  32
TORSDOF 14
ENDMDL
MODEL 4
REMARK VINA RESULT: -9.472560847      3.999      9.955
REMARK  14 active torsions:
REMARK  status: ('A' for Active; 'I' for Inactive)
REMARK    1  A    between atoms: C2_3  and  C3_4 
REMARK    2  A    between atoms: C2_3  and  C11_32 
REMARK    3  A    between atoms: C3_4  and  O1_5 
REMARK    4  A    between atoms: O1_5  and  C4_6 
REMARK    5  A    between atoms: C6_10  and  N4_11 
REMARK    6  A    between atoms: C7_18  and  C8_19 
REMARK    7  A    between atoms: C8_19  and  C9_24 
REMARK    8  A    between atoms: N8_20  and  O2_22 
REMARK    9  A    between atoms: C9_24  and  O3_25 
REMARK   10  A    between atoms: C9_24  and  C10_27 
REMARK   11  A    between atoms: C10_27  and  O4_28 
REMARK   12  A    between atoms: C10_27  and  O5_30 
REMARK       I    between atoms: C11_32  and  N9_34 
REMARK       I    between atoms: N9_34  and  C12_36 
REMARK   13  A    between atoms: C12_36  and  C13_38 
REMARK   14  A    between atoms: C17_50  and  N14_51 
ROOT
HETATM    1  N1  UNL     1      14.557  16.852  11.315  1.00  0.00    -0.196 NA
HETATM    2  C1  UNL     1      15.299  17.698  11.057  1.00  0.00     0.075 C 
HETATM    3  C2  UNL     1      16.258  18.799  10.690  1.00  0.00     0.208 C 
ENDROOT
BRANCH   3   4
HETATM    4  C3  UNL     1      16.561  19.430  12.061  1.00  0.00     0.197 C 
BRANCH   4   5
HETATM    5  O1  UNL     1      16.670  18.485  13.051  1.00  0.00    -0.379 OA
BRANCH   5   6
HETATM    6  C4  UNL     1      16.308  19.028  14.258  1.00  0.00     0.179 C 
HETATM    7  C5  UNL     1      16.283  17.897  15.285  1.00  0.00     0.166 C 
HETATM    8  N2  UNL     1      15.074  18.174  16.037  1.00  0.00    -0.144 NA
HETATM    9  N3  UNL     1      14.170  18.413  14.978  1.00  0.00    -0.118 NA
HETATM   10  C6  UNL     1      14.881  19.529  14.320  1.00  0.00     0.250 C 
BRANCH  10  11
HETATM   11  N4  UNL     1      14.793  20.642  15.233  1.00  0.00    -0.234 N 
HETATM   12  N5  UNL     1      15.836  21.089  15.953  1.00  0.00    -0.223 N 
HETATM   13  N6  UNL     1      15.457  22.099  16.706  1.00  0.00    -0.226 N 
ATOM     14  H5  UNL     1      16.779  20.702  15.921  1.00  0.00     0.210 HD
HETATM   15  N7  UNL     1      14.182  22.296  16.467  1.00  0.00    -0.267 N 
ATOM     16  H6  UNL     1      16.043  22.627  17.351  1.00  0.00     0.210 HD
HETATM   17  C7  UNL     1      13.754  21.410  15.564  1.00  0.00     0.168 A 
ATOM     18  H7  UNL     1      13.606  23.015  16.904  1.00  0.00     0.190 HD
BRANCH  17  19
HETATM   19  C8  UNL     1      12.389  21.337  15.050  1.00  0.00     0.112 C 
HETATM   20  N8  UNL     1      12.079  22.163  14.106  1.00  0.00    -0.267 N 
ATOM     21  H8  UNL     1      12.781  22.820  13.766  1.00  0.00     0.194 HD
BRANCH  20  22
HETATM   22  O2  UNL     1      10.840  22.173  13.559  1.00  0.00    -0.290 OA
ATOM     23  H2  UNL     1      10.594  22.820  12.909  1.00  0.00     0.244 HD
ENDBRANCH  20  22
BRANCH  19  24
HETATM   24  C9  UNL     1      11.349  20.426  15.528  1.00  0.00     0.228 C 
BRANCH  24  25
HETATM   25  O3  UNL     1      11.208  19.263  14.767  1.00  0.00    -0.384 OA
ATOM     26  H3  UNL     1      11.451  18.465  15.221  1.00  0.00     0.210 HD
ENDBRANCH  24  25
BRANCH  24  27
HETATM   27  C10 UNL     1      11.439  20.020  16.961  1.00  0.00     0.288 C 
BRANCH  27  28
HETATM   28  O4  UNL     1      11.550  21.131  17.822  1.00  0.00    -0.368 OA
ATOM     29  H4  UNL     1      11.851  20.883  18.689  1.00  0.00     0.212 HD
ENDBRANCH  27  28
BRANCH  27  30
HETATM   30  O5  UNL     1      12.326  19.015  17.236  1.00  0.00    -0.368 OA
ATOM     31  H5  UNL     1      13.071  19.261  17.771  1.00  0.00     0.212 HD
ENDBRANCH  27  30
ENDBRANCH  24  27
ENDBRANCH  19  24
ENDBRANCH  17  19
ENDBRANCH  10  11
ENDBRANCH   5   6
ENDBRANCH   4   5
ENDBRANCH   3   4
BRANCH   3  32
HETATM   32  C11 UNL     1      15.606  19.747   9.795  1.00  0.00     0.244 C 
HETATM   33  O6  UNL     1      14.503  20.269  10.224  1.00  0.00    -0.272 OA
HETATM   34  N9  UNL     1      16.031  20.153   8.549  1.00  0.00    -0.290 N 
HETATM   35  C12 UNL     1      17.182  19.669   7.854  1.00  0.00     0.283 C 
ATOM     36  H9  UNL     1      15.473  20.864   8.078  1.00  0.00     0.172 HD
HETATM   37  O7  UNL     1      17.877  18.786   8.405  1.00  0.00    -0.265 OA
BRANCH  35  38
HETATM   38  C13 UNL     1      17.542  20.184   6.542  1.00  0.00     0.159 A 
HETATM   39  N10 UNL     1      18.714  20.055   6.080  1.00  0.00    -0.289 N 
HETATM   40  N11 UNL     1      19.183  20.499   4.849  1.00  0.00    -0.294 N 
ATOM     41  H10 UNL     1      19.387  19.573   6.675  1.00  0.00     0.188 HD
HETATM   42  C14 UNL     1      18.413  21.191   3.872  1.00  0.00     0.126 A 
ATOM     43  H11 UNL     1      20.161  20.313   4.627  1.00  0.00     0.187 HD
HETATM   44  C15 UNL     1      17.091  21.494   4.064  1.00  0.00     0.109 A 
HETATM   45  C17 UNL     1      18.981  21.588   2.669  1.00  0.00     0.131 A 
HETATM   46  N12 UNL     1      16.413  22.141   3.115  1.00  0.00    -0.345 N 
HETATM   47  S1  UNL     1      16.302  21.016   5.578  1.00  0.00    -0.045 SA
HETATM   48  C16 UNL     1      16.981  22.521   1.951  1.00  0.00     0.183 A 
ATOM     49  H12 UNL     1      15.430  22.357   3.276  1.00  0.00     0.167 HD
HETATM   50  N13 UNL     1      18.254  22.247   1.725  1.00  0.00    -0.337 N 
ATOM     51  H13 UNL     1      18.690  22.529   0.847  1.00  0.00     0.168 HD
BRANCH  45  52
HETATM   52  N14 UNL     1      20.211  21.349   2.411  1.00  0.00    -0.383 N 
ATOM     53 2H14 UNL     1      20.789  20.980   3.166  1.00  0.00     0.157 HD
ATOM     54 1H14 UNL     1      20.594  21.518   1.481  1.00  0.00     0.157 HD
ENDBRANCH  45  52
ENDBRANCH  35  38
ENDBRANCH   3  32
TORSDOF 14
ENDMDL
MODEL 5
REMARK VINA RESULT: -9.454561897      3.879      8.968
REMARK  14 active torsions:
REMARK  status: ('A' for Active; 'I' for Inactive)
REMARK    1  A    between atoms: C2_3  and  C3_4 
REMARK    2  A    between atoms: C2_3  and  C11_32 
REMARK    3  A    between atoms: C3_4  and  O1_5 
REMARK    4  A    between atoms: O1_5  and  C4_6 
REMARK    5  A    between atoms: C6_10  and  N4_11 
REMARK    6  A    between atoms: C7_18  and  C8_19 
REMARK    7  A    between atoms: C8_19  and  C9_24 
REMARK    8  A    between atoms: N8_20  and  O2_22 
REMARK    9  A    between atoms: C9_24  and  O3_25 
REMARK   10  A    between atoms: C9_24  and  C10_27 
REMARK   11  A    between atoms: C10_27  and  O4_28 
REMARK   12  A    between atoms: C10_27  and  O5_30 
REMARK       I    between atoms: C11_32  and  N9_34 
REMARK       I    between atoms: N9_34  and  C12_36 
REMARK   13  A    between atoms: C12_36  and  C13_38 
REMARK   14  A    between atoms: C17_50  and  N14_51 
ROOT
HETATM    1  N1  UNL     1      10.255  24.357  12.021  1.00  0.00    -0.196 NA
HETATM    2  C1  UNL     1      11.331  23.955  12.140  1.00  0.00     0.075 C 
HETATM    3  C2  UNL     1      12.729  23.412  12.273  1.00  0.00     0.208 C 
ENDROOT
BRANCH   3   4
HETATM    4  C3  UNL     1      13.420  24.503  13.110  1.00  0.00     0.197 C 
BRANCH   4   5
HETATM    5  O1  UNL     1      14.587  24.056  13.679  1.00  0.00    -0.379 OA
BRANCH   5   6
HETATM    6  C4  UNL     1      14.309  23.357  14.828  1.00  0.00     0.179 C 
HETATM    7  C5  UNL     1      15.243  23.874  15.921  1.00  0.00     0.166 C 
HETATM    8  N2  UNL     1      15.665  22.655  16.584  1.00  0.00    -0.144 NA
HETATM    9  N3  UNL     1      15.989  21.859  15.463  1.00  0.00    -0.118 NA
HETATM   10  C6  UNL     1      14.680  21.889  14.777  1.00  0.00     0.250 C 
BRANCH  10  11
HETATM   11  N4  UNL     1      13.782  21.130  15.611  1.00  0.00    -0.234 N 
HETATM   12  N5  UNL     1      12.922  21.695  16.474  1.00  0.00    -0.223 N 
HETATM   13  N6  UNL     1      12.247  20.759  17.106  1.00  0.00    -0.226 N 
ATOM     14  H5  UNL     1      12.809  22.698  16.617  1.00  0.00     0.210 HD
HETATM   15  N7  UNL     1      12.673  19.605  16.650  1.00  0.00    -0.267 N 
ATOM     16  H6  UNL     1      11.529  20.904  17.816  1.00  0.00     0.210 HD
HETATM   17  C7  UNL     1      13.618  19.811  15.730  1.00  0.00     0.168 A 
ATOM     18  H7  UNL     1      12.335  18.692  16.952  1.00  0.00     0.190 HD
BRANCH  17  19
HETATM   19  C8  UNL     1      14.314  18.755  14.999  1.00  0.00     0.112 C 
HETATM   20  N8  UNL     1      13.640  18.141  14.083  1.00  0.00    -0.267 N 
ATOM     21  H8  UNL     1      12.672  18.410  13.911  1.00  0.00     0.194 HD
BRANCH  20  22
HETATM   22  O2  UNL     1      14.196  17.150  13.347  1.00  0.00    -0.290 OA
ATOM     23  H2  UNL     1      14.915  17.322  12.751  1.00  0.00     0.244 HD
ENDBRANCH  20  22
BRANCH  19  24
HETATM   24  C9  UNL     1      15.693  18.327  15.233  1.00  0.00     0.228 C 
BRANCH  24  25
HETATM   25  O3  UNL     1      16.634  18.930  14.394  1.00  0.00    -0.384 OA
ATOM     26  H3  UNL     1      17.361  18.368  14.152  1.00  0.00     0.210 HD
ENDBRANCH  24  25
BRANCH  24  27
HETATM   27  C10 UNL     1      16.192  18.451  16.634  1.00  0.00     0.288 C 
BRANCH  27  28
HETATM   28  O4  UNL     1      15.244  18.003  17.577  1.00  0.00    -0.368 OA
ATOM     29  H4  UNL     1      15.353  17.082  17.783  1.00  0.00     0.212 HD
ENDBRANCH  27  28
BRANCH  27  30
HETATM   30  O5  UNL     1      16.764  19.653  16.952  1.00  0.00    -0.368 OA
ATOM     31  H5  UNL     1      16.670  19.925  17.858  1.00  0.00     0.212 HD
ENDBRANCH  27  30
ENDBRANCH  24  27
ENDBRANCH  19  24
ENDBRANCH  17  19
ENDBRANCH  10  11
ENDBRANCH   5   6
ENDBRANCH   4   5
ENDBRANCH   3   4
BRANCH   3  32
HETATM   32  C11 UNL     1      13.338  23.281  10.955  1.00  0.00     0.244 C 
HETATM   33  O6  UNL     1      13.250  24.315  10.183  1.00  0.00    -0.272 OA
HETATM   34  N9  UNL     1      13.997  22.186  10.441  1.00  0.00    -0.290 N 
HETATM   35  C12 UNL     1      14.163  20.923  11.088  1.00  0.00     0.283 C 
ATOM     36  H9  UNL     1      14.405  22.286   9.512  1.00  0.00     0.172 HD
HETATM   37  O7  UNL     1      13.660  20.771  12.224  1.00  0.00    -0.265 OA
BRANCH  35  38
HETATM   38  C13 UNL     1      14.894  19.839  10.449  1.00  0.00     0.159 A 
HETATM   39  N10 UNL     1      14.822  18.650  10.879  1.00  0.00    -0.289 N 
HETATM   40  N11 UNL     1      15.466  17.533  10.362  1.00  0.00    -0.294 N 
ATOM     41  H10 UNL     1      14.226  18.496  11.692  1.00  0.00     0.188 HD
HETATM   42  C14 UNL     1      16.338  17.528   9.237  1.00  0.00     0.126 A 
ATOM     43  H11 UNL     1      15.300  16.641  10.828  1.00  0.00     0.187 HD
HETATM   44  C15 UNL     1      16.633  18.666   8.536  1.00  0.00     0.109 A 
HETATM   45  C17 UNL     1      16.928  16.350   8.800  1.00  0.00     0.131 A 
HETATM   46  N12 UNL     1      17.453  18.607   7.486  1.00  0.00    -0.345 N 
HETATM   47  S1  UNL     1      15.911  20.207   9.039  1.00  0.00    -0.045 SA
HETATM   48  C16 UNL     1      18.020  17.454   7.074  1.00  0.00     0.183 A 
ATOM     49  H12 UNL     1      17.660  19.466   6.977  1.00  0.00     0.167 HD
HETATM   50  N13 UNL     1      17.761  16.331   7.722  1.00  0.00    -0.337 N 
ATOM     51  H13 UNL     1      18.184  15.455   7.417  1.00  0.00     0.168 HD
BRANCH  45  52
HETATM   52  N14 UNL     1      16.710  15.242   9.400  1.00  0.00    -0.383 N 
ATOM     53 2H14 UNL     1      17.287  14.442   9.141  1.00  0.00     0.157 HD
ATOM     54 1H14 UNL     1      15.987  15.166  10.116  1.00  0.00     0.157 HD
ENDBRANCH  45  52
ENDBRANCH  35  38
ENDBRANCH   3  32
TORSDOF 14
ENDMDL
