MODEL 1
REMARK VINA RESULT: -9.137679295      0.000      0.000
REMARK  17 active torsions:
REMARK  status: ('A' for Active; 'I' for Inactive)
REMARK    1  A    between atoms: C2_2  and  O2_4 
REMARK    2  A    between atoms: O2_4  and  C3_5 
REMARK    3  A    between atoms: C3_5  and  O3_6 
REMARK    4  A    between atoms: C3_5  and  C4_8 
REMARK    5  A    between atoms: C4_8  and  C5_9 
REMARK    6  A    between atoms: C4_8  and  N10_53 
REMARK    7  A    between atoms: C5_9  and  O4_10 
REMARK    8  A    between atoms: C5_9  and  N1_12 
REMARK    9  A    between atoms: N1_12  and  C6_14 
REMARK   10  A    between atoms: C7_20  and  C8_21 
REMARK   11  A    between atoms: C9_24  and  C10_25 
REMARK   12  A    between atoms: C10_25  and  O6_26 
REMARK   13  A    between atoms: C11_29  and  N5_30 
REMARK   14  A    between atoms: C12_31  and  N6_32 
REMARK   15  A    between atoms: C13_37  and  N8_38 
REMARK   16  A    between atoms: C15_45  and  O9_46 
REMARK   17  A    between atoms: C16_48  and  O10_49 
ROOT
HETATM    1  C8  UNL     1      17.054  18.055   7.549  1.00  0.00     0.180 A 
HETATM    2  N4  UNL     1      17.839  18.320   6.504  1.00  0.00    -0.332 N 
ATOM      3  H4  UNL     1      18.488  17.660   6.076  1.00  0.00     0.168 HD
HETATM    4  C9  UNL     1      17.644  19.608   6.090  1.00  0.00     0.099 A 
HETATM    5  C17 UNL     1      16.698  20.102   6.946  1.00  0.00     0.175 A 
HETATM    6  O11 UNL     1      16.370  19.155   7.796  1.00  0.00    -0.301 OA
ENDROOT
BRANCH   4   7
HETATM    7  C10 UNL     1      18.359  20.259   4.940  1.00  0.00     0.239 C 
HETATM    8  O7  UNL     1      18.006  21.555   4.854  1.00  0.00    -0.319 OA
HETATM    9  C11 UNL     1      16.936  21.715   3.958  1.00  0.00     0.286 C 
HETATM   10  C15 UNL     1      16.583  20.393   3.536  1.00  0.00     0.202 C 
HETATM   11  C16 UNL     1      17.876  19.580   3.658  1.00  0.00     0.220 C 
BRANCH   7  12
HETATM   12  O6  UNL     1      19.727  19.997   5.126  1.00  0.00    -0.358 OA
ATOM     13  H6  UNL     1      19.780  19.292   5.761  1.00  0.00     0.213 HD
ENDBRANCH   7  12
BRANCH   9  14
HETATM   14  N5  UNL     1      17.159  22.843   3.186  1.00  0.00    -0.101 N 
HETATM   15  C12 UNL     1      16.551  24.004   3.525  1.00  0.00     0.699 A 
HETATM   16  N7  UNL     1      16.723  25.155   2.837  1.00  0.00    -0.022 N 
HETATM   17  C13 UNL     1      17.511  25.203   1.776  1.00  0.00     0.694 A 
ATOM     18  H7  UNL     1      16.238  26.000   3.141  1.00  0.00     0.203 HD
HETATM   19  N9  UNL     1      18.138  24.061   1.403  1.00  0.00    -0.140 N 
HETATM   20  C14 UNL     1      17.965  22.921   2.088  1.00  0.00     0.357 A 
ATOM     21  H9  UNL     1      18.751  24.068   0.588  1.00  0.00     0.189 HD
HETATM   22  O8  UNL     1      18.519  21.869   1.770  1.00  0.00    -0.245 OA
BRANCH  15  23
HETATM   23  N6  UNL     1      15.730  24.119   4.520  1.00  0.00    -0.234 N 
ATOM     24  H62 UNL     1      14.749  24.073   4.243  1.00  0.00     0.174 HD
ATOM     25  H61 UNL     1      16.029  24.225   5.490  1.00  0.00     0.174 HD
ENDBRANCH  15  23
BRANCH  17  26
HETATM   26  N8  UNL     1      17.692  26.286   1.110  1.00  0.00    -0.234 N 
ATOM     27  H82 UNL     1      16.955  26.990   1.064  1.00  0.00     0.174 HD
ATOM     28  H81 UNL     1      18.562  26.475   0.610  1.00  0.00     0.174 HD
ENDBRANCH  17  26
ENDBRANCH   9  14
BRANCH  10  29
HETATM   29  O9  UNL     1      15.860  20.084   2.448  1.00  0.00    -0.388 OA
ATOM     30  H9  UNL     1      14.982  19.721   2.451  1.00  0.00     0.210 HD
ENDBRANCH  10  29
BRANCH  11  31
HETATM   31  O10 UNL     1      17.606  18.237   3.872  1.00  0.00    -0.387 OA
ATOM     32  H10 UNL     1      16.671  18.070   3.868  1.00  0.00     0.210 HD
ENDBRANCH  11  31
ENDBRANCH   4   7
BRANCH   1  33
HETATM   33  C7  UNL     1      16.897  16.829   8.346  1.00  0.00     0.154 A 
HETATM   34  C6  UNL     1      15.905  16.523   9.258  1.00  0.00     0.202 A 
HETATM   35  O5  UNL     1      16.164  15.326   9.697  1.00  0.00    -0.202 OA
HETATM   36  N2  UNL     1      17.225  14.864   9.142  1.00  0.00    -0.199 N 
HETATM   37  N3  UNL     1      17.709  15.745   8.308  1.00  0.00    -0.273 N 
ATOM     38  H2  UNL     1      17.630  13.945   9.324  1.00  0.00     0.216 HD
ATOM     39  H3  UNL     1      18.545  15.636   7.734  1.00  0.00     0.189 HD
BRANCH  34  40
HETATM   40  N1  UNL     1      14.815  17.297   9.668  1.00  0.00    -0.339 N 
ATOM     41  H1  UNL     1      13.927  17.055   9.229  1.00  0.00     0.164 HD
BRANCH  40  42
HETATM   42  C5  UNL     1      14.751  18.364  10.599  1.00  0.00     0.253 C 
BRANCH  42  43
HETATM   43  C4  UNL     1      15.704  18.337  11.747  1.00  0.00     0.259 C 
BRANCH  43  44
HETATM   44  C3  UNL     1      15.208  17.790  13.038  1.00  0.00     0.299 C 
BRANCH  44  45
HETATM   45  O2  UNL     1      14.046  18.472  13.465  1.00  0.00    -0.288 OA
BRANCH  45  46
HETATM   46  C2  UNL     1      13.731  18.679  14.787  1.00  0.00     0.257 C 
HETATM   47  C1  UNL     1      14.765  18.449  15.853  1.00  0.00     0.126 C 
HETATM   48  O1  UNL     1      12.583  19.059  15.125  1.00  0.00    -0.266 OA
ENDBRANCH  45  46
ENDBRANCH  44  45
BRANCH  44  49
HETATM   49  O3  UNL     1      14.750  16.467  12.782  1.00  0.00    -0.368 OA
ATOM     50  H3  UNL     1      14.228  16.556  11.993  1.00  0.00     0.212 HD
ENDBRANCH  44  49
ENDBRANCH  43  44
BRANCH  43  51
HETATM   51  N10 UNL     1      16.447  19.568  11.836  1.00  0.00    -0.141 N 
HETATM   52  O12 UNL     1      17.487  19.727  11.179  1.00  0.00    -0.536 OA
HETATM   53  O13 UNL     1      16.067  20.627  12.633  1.00  0.00    -0.536 OA
ENDBRANCH  43  51
ENDBRANCH  42  43
BRANCH  42  54
HETATM   54  O4  UNL     1      14.653  19.623  10.025  1.00  0.00    -0.374 OA
ATOM     55  H4  UNL     1      14.714  19.593   9.078  1.00  0.00     0.212 HD
ENDBRANCH  42  54
ENDBRANCH  40  42
ENDBRANCH  34  40
ENDBRANCH   1  33
TORSDOF 17
ENDMDL
MODEL 2
REMARK VINA RESULT: -9.111219749      4.474      7.664
REMARK  17 active torsions:
REMARK  status: ('A' for Active; 'I' for Inactive)
REMARK    1  A    between atoms: C2_2  and  O2_4 
REMARK    2  A    between atoms: O2_4  and  C3_5 
REMARK    3  A    between atoms: C3_5  and  O3_6 
REMARK    4  A    between atoms: C3_5  and  C4_8 
REMARK    5  A    between atoms: C4_8  and  C5_9 
REMARK    6  A    between atoms: C4_8  and  N10_53 
REMARK    7  A    between atoms: C5_9  and  O4_10 
REMARK    8  A    between atoms: C5_9  and  N1_12 
REMARK    9  A    between atoms: N1_12  and  C6_14 
REMARK   10  A    between atoms: C7_20  and  C8_21 
REMARK   11  A    between atoms: C9_24  and  C10_25 
REMARK   12  A    between atoms: C10_25  and  O6_26 
REMARK   13  A    between atoms: C11_29  and  N5_30 
REMARK   14  A    between atoms: C12_31  and  N6_32 
REMARK   15  A    between atoms: C13_37  and  N8_38 
REMARK   16  A    between atoms: C15_45  and  O9_46 
REMARK   17  A    between atoms: C16_48  and  O10_49 
ROOT
HETATM    1  C8  UNL     1      13.191  19.884  14.291  1.00  0.00     0.180 A 
HETATM    2  N4  UNL     1      14.127  18.984  13.982  1.00  0.00    -0.332 N 
ATOM      3  H4  UNL     1      14.338  18.148  14.527  1.00  0.00     0.168 HD
HETATM    4  C9  UNL     1      14.761  19.349  12.828  1.00  0.00     0.099 A 
HETATM    5  C17 UNL     1      14.153  20.518  12.460  1.00  0.00     0.175 A 
HETATM    6  O11 UNL     1      13.228  20.805  13.349  1.00  0.00    -0.301 OA
ENDROOT
BRANCH   4   7
HETATM    7  C10 UNL     1      15.873  18.577  12.177  1.00  0.00     0.239 C 
HETATM    8  O7  UNL     1      16.219  19.162  11.014  1.00  0.00    -0.319 OA
HETATM    9  C11 UNL     1      15.521  18.577   9.945  1.00  0.00     0.286 C 
HETATM   10  C15 UNL     1      14.637  17.617  10.536  1.00  0.00     0.202 C 
HETATM   11  C16 UNL     1      15.329  17.190  11.835  1.00  0.00     0.220 C 
BRANCH   7  12
HETATM   12  O6  UNL     1      16.889  18.461  13.141  1.00  0.00    -0.358 OA
ATOM     13  H6  UNL     1      17.712  18.505  12.667  1.00  0.00     0.213 HD
ENDBRANCH   7  12
BRANCH   9  14
HETATM   14  N5  UNL     1      16.386  18.419   8.875  1.00  0.00    -0.101 N 
HETATM   15  C12 UNL     1      16.754  19.506   8.157  1.00  0.00     0.699 A 
HETATM   16  N7  UNL     1      17.603  19.445   7.108  1.00  0.00    -0.022 N 
HETATM   17  C13 UNL     1      18.127  18.294   6.722  1.00  0.00     0.694 A 
ATOM     18  H7  UNL     1      17.844  20.300   6.606  1.00  0.00     0.203 HD
HETATM   19  N9  UNL     1      17.783  17.181   7.414  1.00  0.00    -0.140 N 
HETATM   20  C14 UNL     1      16.940  17.245   8.455  1.00  0.00     0.357 A 
ATOM     21  H9  UNL     1      18.172  16.279   7.138  1.00  0.00     0.189 HD
HETATM   22  O8  UNL     1      16.608  16.250   9.098  1.00  0.00    -0.245 OA
BRANCH  15  23
HETATM   23  N6  UNL     1      16.310  20.701   8.390  1.00  0.00    -0.234 N 
ATOM     24  H62 UNL     1      15.306  20.797   8.237  1.00  0.00     0.174 HD
ATOM     25  H61 UNL     1      16.899  21.469   8.713  1.00  0.00     0.174 HD
ENDBRANCH  15  23
BRANCH  17  26
HETATM   26  N8  UNL     1      18.940  18.213   5.732  1.00  0.00    -0.234 N 
ATOM     27  H82 UNL     1      19.942  18.116   5.897  1.00  0.00     0.174 HD
ATOM     28  H81 UNL     1      18.619  18.246   4.764  1.00  0.00     0.174 HD
ENDBRANCH  17  26
ENDBRANCH   9  14
BRANCH  10  29
HETATM   29  O9  UNL     1      14.038  16.604   9.893  1.00  0.00    -0.388 OA
ATOM     30  H9  UNL     1      13.101  16.505   9.764  1.00  0.00     0.210 HD
ENDBRANCH  10  29
BRANCH  11  31
HETATM   31  O10 UNL     1      14.407  16.766  12.779  1.00  0.00    -0.387 OA
ATOM     32  H10 UNL     1      13.890  16.039  12.452  1.00  0.00     0.210 HD
ENDBRANCH  11  31
ENDBRANCH   4   7
BRANCH   1  33
HETATM   33  C7  UNL     1      12.254  19.944  15.422  1.00  0.00     0.154 A 
HETATM   34  C6  UNL     1      12.255  20.824  16.488  1.00  0.00     0.202 A 
HETATM   35  O5  UNL     1      11.229  20.512  17.225  1.00  0.00    -0.202 OA
HETATM   36  N2  UNL     1      10.595  19.521  16.714  1.00  0.00    -0.199 N 
HETATM   37  N3  UNL     1      11.181  19.139  15.612  1.00  0.00    -0.273 N 
ATOM     38  H2  UNL     1       9.756  19.095  17.109  1.00  0.00     0.216 HD
ATOM     39  H3  UNL     1      10.885  18.374  15.006  1.00  0.00     0.189 HD
BRANCH  34  40
HETATM   40  N1  UNL     1      13.148  21.862  16.773  1.00  0.00    -0.339 N 
ATOM     41  H1  UNL     1      13.636  21.776  17.664  1.00  0.00     0.164 HD
BRANCH  40  42
HETATM   42  C5  UNL     1      13.481  23.014  16.018  1.00  0.00     0.253 C 
BRANCH  42  43
HETATM   43  C4  UNL     1      14.831  23.056  15.384  1.00  0.00     0.259 C 
BRANCH  43  44
HETATM   44  C3  UNL     1      15.945  22.373  16.093  1.00  0.00     0.299 C 
BRANCH  44  45
HETATM   45  O2  UNL     1      16.185  21.092  15.548  1.00  0.00    -0.288 OA
BRANCH  45  46
HETATM   46  C2  UNL     1      16.671  20.035  16.279  1.00  0.00     0.257 C 
HETATM   47  C1  UNL     1      17.568  20.284  17.460  1.00  0.00     0.126 C 
HETATM   48  O1  UNL     1      16.379  18.852  15.977  1.00  0.00    -0.266 OA
ENDBRANCH  45  46
ENDBRANCH  44  45
BRANCH  44  49
HETATM   49  O3  UNL     1      17.135  23.097  15.796  1.00  0.00    -0.368 OA
ATOM     50  H3  UNL     1      17.320  23.567  16.600  1.00  0.00     0.212 HD
ENDBRANCH  44  49
ENDBRANCH  43  44
BRANCH  43  51
HETATM   51  N10 UNL     1      15.128  24.373  14.879  1.00  0.00    -0.141 N 
HETATM   52  O12 UNL     1      14.904  25.379  15.568  1.00  0.00    -0.536 OA
HETATM   53  O13 UNL     1      15.667  24.602  13.631  1.00  0.00    -0.536 OA
ENDBRANCH  43  51
ENDBRANCH  42  43
BRANCH  42  54
HETATM   54  O4  UNL     1      12.482  23.449  15.161  1.00  0.00    -0.374 OA
ATOM     55  H4  UNL     1      11.932  24.115  15.556  1.00  0.00     0.212 HD
ENDBRANCH  42  54
ENDBRANCH  40  42
ENDBRANCH  34  40
ENDBRANCH   1  33
TORSDOF 17
ENDMDL
MODEL 3
REMARK VINA RESULT: -8.970857947      0.779      1.436
REMARK  17 active torsions:
REMARK  status: ('A' for Active; 'I' for Inactive)
REMARK    1  A    between atoms: C2_2  and  O2_4 
REMARK    2  A    between atoms: O2_4  and  C3_5 
REMARK    3  A    between atoms: C3_5  and  O3_6 
REMARK    4  A    between atoms: C3_5  and  C4_8 
REMARK    5  A    between atoms: C4_8  and  C5_9 
REMARK    6  A    between atoms: C4_8  and  N10_53 
REMARK    7  A    between atoms: C5_9  and  O4_10 
REMARK    8  A    between atoms: C5_9  and  N1_12 
REMARK    9  A    between atoms: N1_12  and  C6_14 
REMARK   10  A    between atoms: C7_20  and  C8_21 
REMARK   11  A    between atoms: C9_24  and  C10_25 
REMARK   12  A    between atoms: C10_25  and  O6_26 
REMARK   13  A    between atoms: C11_29  and  N5_30 
REMARK   14  A    between atoms: C12_31  and  N6_32 
REMARK   15  A    between atoms: C13_37  and  N8_38 
REMARK   16  A    between atoms: C15_45  and  O9_46 
REMARK   17  A    between atoms: C16_48  and  O10_49 
ROOT
HETATM    1  C8  UNL     1      17.036  18.017   7.561  1.00  0.00     0.180 A 
HETATM    2  N4  UNL     1      17.834  18.300   6.530  1.00  0.00    -0.332 N 
ATOM      3  H4  UNL     1      18.509  17.657   6.117  1.00  0.00     0.168 HD
HETATM    4  C9  UNL     1      17.613  19.582   6.108  1.00  0.00     0.099 A 
HETATM    5  C17 UNL     1      16.637  20.052   6.944  1.00  0.00     0.175 A 
HETATM    6  O11 UNL     1      16.318  19.099   7.791  1.00  0.00    -0.301 OA
ENDROOT
BRANCH   4   7
HETATM    7  C10 UNL     1      18.333  20.248   4.970  1.00  0.00     0.239 C 
HETATM    8  O7  UNL     1      17.990  21.549   4.909  1.00  0.00    -0.319 OA
HETATM    9  C11 UNL     1      16.922  21.734   4.016  1.00  0.00     0.286 C 
HETATM   10  C15 UNL     1      16.558  20.422   3.569  1.00  0.00     0.202 C 
HETATM   11  C16 UNL     1      17.844  19.597   3.676  1.00  0.00     0.220 C 
BRANCH   7  12
HETATM   12  O6  UNL     1      19.699  19.972   5.151  1.00  0.00    -0.358 OA
ATOM     13  H6  UNL     1      20.107  20.796   5.392  1.00  0.00     0.213 HD
ENDBRANCH   7  12
BRANCH   9  14
HETATM   14  N5  UNL     1      17.154  22.874   3.266  1.00  0.00    -0.101 N 
HETATM   15  C12 UNL     1      18.047  22.825   2.249  1.00  0.00     0.699 A 
HETATM   16  N7  UNL     1      18.324  23.885   1.458  1.00  0.00    -0.022 N 
HETATM   17  C13 UNL     1      17.723  25.049   1.644  1.00  0.00     0.694 A 
ATOM     18  H7  UNL     1      19.006  23.786   0.706  1.00  0.00     0.203 HD
HETATM   19  N9  UNL     1      16.823  25.140   2.653  1.00  0.00    -0.140 N 
HETATM   20  C14 UNL     1      16.550  24.085   3.435  1.00  0.00     0.357 A 
ATOM     21  H9  UNL     1      16.345  26.025   2.819  1.00  0.00     0.189 HD
HETATM   22  O8  UNL     1      15.740  24.142   4.360  1.00  0.00    -0.245 OA
BRANCH  15  23
HETATM   23  N6  UNL     1      18.737  21.769   1.953  1.00  0.00    -0.234 N 
ATOM     24  H62 UNL     1      19.366  21.474   2.700  1.00  0.00     0.174 HD
ATOM     25  H61 UNL     1      18.650  21.267   1.069  1.00  0.00     0.174 HD
ENDBRANCH  15  23
BRANCH  17  26
HETATM   26  N8  UNL     1      17.967  26.067   0.902  1.00  0.00    -0.234 N 
ATOM     27  H82 UNL     1      18.902  26.212   0.520  1.00  0.00     0.174 HD
ATOM     28  H81 UNL     1      17.250  26.757   0.676  1.00  0.00     0.174 HD
ENDBRANCH  17  26
ENDBRANCH   9  14
BRANCH  10  29
HETATM   29  O9  UNL     1      15.832  20.140   2.477  1.00  0.00    -0.388 OA
ATOM     30  H9  UNL     1      15.684  19.273   2.117  1.00  0.00     0.210 HD
ENDBRANCH  10  29
BRANCH  11  31
HETATM   31  O10 UNL     1      17.564  18.253   3.865  1.00  0.00    -0.387 OA
ATOM     32  H10 UNL     1      18.284  17.808   4.297  1.00  0.00     0.210 HD
ENDBRANCH  11  31
ENDBRANCH   4   7
BRANCH   1  33
HETATM   33  C7  UNL     1      16.896  16.790   8.358  1.00  0.00     0.154 A 
HETATM   34  C6  UNL     1      15.910  16.472   9.273  1.00  0.00     0.202 A 
HETATM   35  O5  UNL     1      16.186  15.278   9.712  1.00  0.00    -0.202 OA
HETATM   36  N2  UNL     1      17.250  14.830   9.154  1.00  0.00    -0.199 N 
HETATM   37  N3  UNL     1      17.721  15.716   8.319  1.00  0.00    -0.273 N 
ATOM     38  H2  UNL     1      17.667  13.916   9.335  1.00  0.00     0.216 HD
ATOM     39  H3  UNL     1      18.557  15.617   7.743  1.00  0.00     0.189 HD
BRANCH  34  40
HETATM   40  N1  UNL     1      14.812  17.232   9.686  1.00  0.00    -0.339 N 
ATOM     41  H1  UNL     1      13.918  16.949   9.285  1.00  0.00     0.164 HD
BRANCH  40  42
HETATM   42  C5  UNL     1      14.746  18.335  10.574  1.00  0.00     0.253 C 
BRANCH  42  43
HETATM   43  C4  UNL     1      15.685  18.344  11.733  1.00  0.00     0.259 C 
BRANCH  43  44
HETATM   44  C3  UNL     1      15.150  17.920  13.054  1.00  0.00     0.299 C 
BRANCH  44  45
HETATM   45  O2  UNL     1      14.036  18.706  13.428  1.00  0.00    -0.288 OA
BRANCH  45  46
HETATM   46  C2  UNL     1      13.679  18.943  14.733  1.00  0.00     0.257 C 
HETATM   47  C1  UNL     1      12.859  20.154  15.082  1.00  0.00     0.126 C 
HETATM   48  O1  UNL     1      14.028  18.161  15.651  1.00  0.00    -0.266 OA
ENDBRANCH  45  46
ENDBRANCH  44  45
BRANCH  44  49
HETATM   49  O3  UNL     1      14.602  16.616  12.882  1.00  0.00    -0.368 OA
ATOM     50  H3  UNL     1      15.129  16.073  13.456  1.00  0.00     0.212 HD
ENDBRANCH  44  49
ENDBRANCH  43  44
BRANCH  43  51
HETATM   51  N10 UNL     1      16.490  19.540  11.743  1.00  0.00    -0.141 N 
HETATM   52  O12 UNL     1      16.177  20.506  12.456  1.00  0.00    -0.536 OA
HETATM   53  O13 UNL     1      17.630  19.692  10.984  1.00  0.00    -0.536 OA
ENDBRANCH  43  51
ENDBRANCH  42  43
BRANCH  42  54
HETATM   54  O4  UNL     1      14.666  19.572   9.951  1.00  0.00    -0.374 OA
ATOM     55  H4  UNL     1      13.953  19.614   9.325  1.00  0.00     0.212 HD
ENDBRANCH  42  54
ENDBRANCH  40  42
ENDBRANCH  34  40
ENDBRANCH   1  33
TORSDOF 17
ENDMDL
MODEL 4
REMARK VINA RESULT: -8.967171244      3.157     10.527
REMARK  17 active torsions:
REMARK  status: ('A' for Active; 'I' for Inactive)
REMARK    1  A    between atoms: C2_2  and  O2_4 
REMARK    2  A    between atoms: O2_4  and  C3_5 
REMARK    3  A    between atoms: C3_5  and  O3_6 
REMARK    4  A    between atoms: C3_5  and  C4_8 
REMARK    5  A    between atoms: C4_8  and  C5_9 
REMARK    6  A    between atoms: C4_8  and  N10_53 
REMARK    7  A    between atoms: C5_9  and  O4_10 
REMARK    8  A    between atoms: C5_9  and  N1_12 
REMARK    9  A    between atoms: N1_12  and  C6_14 
REMARK   10  A    between atoms: C7_20  and  C8_21 
REMARK   11  A    between atoms: C9_24  and  C10_25 
REMARK   12  A    between atoms: C10_25  and  O6_26 
REMARK   13  A    between atoms: C11_29  and  N5_30 
REMARK   14  A    between atoms: C12_31  and  N6_32 
REMARK   15  A    between atoms: C13_37  and  N8_38 
REMARK   16  A    between atoms: C15_45  and  O9_46 
REMARK   17  A    between atoms: C16_48  and  O10_49 
ROOT
HETATM    1  C8  UNL     1      15.986  18.207  10.350  1.00  0.00     0.180 A 
HETATM    2  N4  UNL     1      15.467  17.728  11.482  1.00  0.00    -0.332 N 
ATOM      3  H4  UNL     1      15.448  16.744  11.747  1.00  0.00     0.168 HD
HETATM    4  C9  UNL     1      14.962  18.753  12.232  1.00  0.00     0.099 A 
HETATM    5  C17 UNL     1      15.209  19.874  11.488  1.00  0.00     0.175 A 
HETATM    6  O11 UNL     1      15.817  19.514  10.380  1.00  0.00    -0.301 OA
ENDROOT
BRANCH   4   7
HETATM    7  C10 UNL     1      14.298  18.592  13.570  1.00  0.00     0.239 C 
HETATM    8  O7  UNL     1      13.244  19.426  13.662  1.00  0.00    -0.319 OA
HETATM    9  C11 UNL     1      13.624  20.631  14.274  1.00  0.00     0.286 C 
HETATM   10  C15 UNL     1      15.035  20.527  14.494  1.00  0.00     0.202 C 
HETATM   11  C16 UNL     1      15.303  19.025  14.637  1.00  0.00     0.220 C 
BRANCH   7  12
HETATM   12  O6  UNL     1      14.021  17.221  13.710  1.00  0.00    -0.358 OA
ATOM     13  H6  UNL     1      14.776  16.840  14.142  1.00  0.00     0.213 HD
ENDBRANCH   7  12
BRANCH   9  14
HETATM   14  N5  UNL     1      12.632  21.020  15.159  1.00  0.00    -0.101 N 
HETATM   15  C12 UNL     1      12.298  20.194  16.179  1.00  0.00     0.699 A 
HETATM   16  N7  UNL     1      11.353  20.499  17.096  1.00  0.00    -0.022 N 
HETATM   17  C13 UNL     1      10.694  21.644  17.039  1.00  0.00     0.694 A 
ATOM     18  H7  UNL     1      11.146  19.836  17.843  1.00  0.00     0.203 HD
HETATM   19  N9  UNL     1      10.998  22.498  16.032  1.00  0.00    -0.140 N 
HETATM   20  C14 UNL     1      11.936  22.192  15.124  1.00  0.00     0.357 A 
ATOM     21  H9  UNL     1      10.505  23.388  15.963  1.00  0.00     0.189 HD
HETATM   22  O8  UNL     1      12.230  22.947  14.198  1.00  0.00    -0.245 OA
BRANCH  15  23
HETATM   23  N6  UNL     1      12.831  19.027  16.360  1.00  0.00    -0.234 N 
ATOM     24  H62 UNL     1      13.728  18.915  15.887  1.00  0.00     0.174 HD
ATOM     25  H61 UNL     1      12.409  18.297  16.934  1.00  0.00     0.174 HD
ENDBRANCH  15  23
BRANCH  17  26
HETATM   26  N8  UNL     1       9.796  21.957  17.901  1.00  0.00    -0.234 N 
ATOM     27  H82 UNL     1       8.823  21.690  17.749  1.00  0.00     0.174 HD
ATOM     28  H81 UNL     1      10.018  22.477  18.751  1.00  0.00     0.174 HD
ENDBRANCH  17  26
ENDBRANCH   9  14
BRANCH  10  29
HETATM   29  O9  UNL     1      15.754  21.279  15.342  1.00  0.00    -0.388 OA
ATOM     30  H9  UNL     1      16.702  21.295  15.402  1.00  0.00     0.210 HD
ENDBRANCH  10  29
BRANCH  11  31
HETATM   31  O10 UNL     1      16.600  18.709  14.262  1.00  0.00    -0.387 OA
ATOM     32  H10 UNL     1      17.041  18.210  14.939  1.00  0.00     0.210 HD
ENDBRANCH  11  31
ENDBRANCH   4   7
BRANCH   1  33
HETATM   33  C7  UNL     1      16.637  17.519   9.226  1.00  0.00     0.154 A 
HETATM   34  C6  UNL     1      17.012  18.043   8.002  1.00  0.00     0.202 A 
HETATM   35  O5  UNL     1      17.568  17.071   7.339  1.00  0.00    -0.202 OA
HETATM   36  N2  UNL     1      17.571  15.995   8.039  1.00  0.00    -0.199 N 
HETATM   37  N3  UNL     1      17.014  16.218   9.198  1.00  0.00    -0.273 N 
ATOM     38  H2  UNL     1      17.953  15.100   7.734  1.00  0.00     0.216 HD
ATOM     39  H3  UNL     1      16.886  15.536   9.946  1.00  0.00     0.189 HD
BRANCH  34  40
HETATM   40  N1  UNL     1      16.855  19.345   7.516  1.00  0.00    -0.339 N 
ATOM     41  H1  UNL     1      16.991  20.081   8.209  1.00  0.00     0.164 HD
BRANCH  40  42
HETATM   42  C5  UNL     1      16.539  19.802   6.213  1.00  0.00     0.253 C 
BRANCH  42  43
HETATM   43  C4  UNL     1      17.535  20.677   5.528  1.00  0.00     0.259 C 
BRANCH  43  44
HETATM   44  C3  UNL     1      17.177  21.203   4.184  1.00  0.00     0.299 C 
BRANCH  44  45
HETATM   45  O2  UNL     1      18.183  22.065   3.691  1.00  0.00    -0.288 OA
BRANCH  45  46
HETATM   46  C2  UNL     1      18.826  21.873   2.492  1.00  0.00     0.257 C 
HETATM   47  C1  UNL     1      18.505  22.753   1.316  1.00  0.00     0.126 C 
HETATM   48  O1  UNL     1      19.684  20.968   2.356  1.00  0.00    -0.266 OA
ENDBRANCH  45  46
ENDBRANCH  44  45
BRANCH  44  49
HETATM   49  O3  UNL     1      17.205  20.100   3.284  1.00  0.00    -0.368 OA
ATOM     50  H3  UNL     1      16.398  19.635   3.470  1.00  0.00     0.212 HD
ENDBRANCH  44  49
ENDBRANCH  43  44
BRANCH  43  51
HETATM   51  N10 UNL     1      18.869  20.148   5.655  1.00  0.00    -0.141 N 
HETATM   52  O12 UNL     1      19.108  18.965   5.370  1.00  0.00    -0.536 OA
HETATM   53  O13 UNL     1      19.943  20.895   6.089  1.00  0.00    -0.536 OA
ENDBRANCH  43  51
ENDBRANCH  42  43
BRANCH  42  54
HETATM   54  O4  UNL     1      16.027  18.827   5.369  1.00  0.00    -0.374 OA
ATOM     55  H4  UNL     1      15.152  18.557   5.620  1.00  0.00     0.212 HD
ENDBRANCH  42  54
ENDBRANCH  40  42
ENDBRANCH  34  40
ENDBRANCH   1  33
TORSDOF 17
ENDMDL
MODEL 5
REMARK VINA RESULT: -8.886012918      1.000      1.535
REMARK  17 active torsions:
REMARK  status: ('A' for Active; 'I' for Inactive)
REMARK    1  A    between atoms: C2_2  and  O2_4 
REMARK    2  A    between atoms: O2_4  and  C3_5 
REMARK    3  A    between atoms: C3_5  and  O3_6 
REMARK    4  A    between atoms: C3_5  and  C4_8 
REMARK    5  A    between atoms: C4_8  and  C5_9 
REMARK    6  A    between atoms: C4_8  and  N10_53 
REMARK    7  A    between atoms: C5_9  and  O4_10 
REMARK    8  A    between atoms: C5_9  and  N1_12 
REMARK    9  A    between atoms: N1_12  and  C6_14 
REMARK   10  A    between atoms: C7_20  and  C8_21 
REMARK   11  A    between atoms: C9_24  and  C10_25 
REMARK   12  A    between atoms: C10_25  and  O6_26 
REMARK   13  A    between atoms: C11_29  and  N5_30 
REMARK   14  A    between atoms: C12_31  and  N6_32 
REMARK   15  A    between atoms: C13_37  and  N8_38 
REMARK   16  A    between atoms: C15_45  and  O9_46 
REMARK   17  A    between atoms: C16_48  and  O10_49 
ROOT
HETATM    1  C8  UNL     1      17.039  17.856   7.761  1.00  0.00     0.180 A 
HETATM    2  N4  UNL     1      17.801  18.123   6.699  1.00  0.00    -0.332 N 
ATOM      3  H4  UNL     1      18.426  17.458   6.243  1.00  0.00     0.168 HD
HETATM    4  C9  UNL     1      17.621  19.422   6.311  1.00  0.00     0.099 A 
HETATM    5  C17 UNL     1      16.707  19.919   7.200  1.00  0.00     0.175 A 
HETATM    6  O11 UNL     1      16.384  18.965   8.044  1.00  0.00    -0.301 OA
ENDROOT
BRANCH   4   7
HETATM    7  C10 UNL     1      18.317  20.077   5.152  1.00  0.00     0.239 C 
HETATM    8  O7  UNL     1      17.969  21.376   5.083  1.00  0.00    -0.319 OA
HETATM    9  C11 UNL     1      16.884  21.548   4.208  1.00  0.00     0.286 C 
HETATM   10  C15 UNL     1      16.515  20.231   3.783  1.00  0.00     0.202 C 
HETATM   11  C16 UNL     1      17.806  19.410   3.875  1.00  0.00     0.220 C 
BRANCH   7  12
HETATM   12  O6  UNL     1      19.687  19.807   5.310  1.00  0.00    -0.358 OA
ATOM     13  H6  UNL     1      20.008  19.550   4.454  1.00  0.00     0.213 HD
ENDBRANCH   7  12
BRANCH   9  14
HETATM   14  N5  UNL     1      17.098  22.681   3.441  1.00  0.00    -0.101 N 
HETATM   15  C12 UNL     1      17.999  22.633   2.431  1.00  0.00     0.699 A 
HETATM   16  N7  UNL     1      18.260  23.686   1.625  1.00  0.00    -0.022 N 
HETATM   17  C13 UNL     1      17.635  24.840   1.788  1.00  0.00     0.694 A 
ATOM     18  H7  UNL     1      18.949  23.588   0.879  1.00  0.00     0.203 HD
HETATM   19  N9  UNL     1      16.726  24.929   2.789  1.00  0.00    -0.140 N 
HETATM   20  C14 UNL     1      16.470  23.882   3.587  1.00  0.00     0.357 A 
ATOM     21  H9  UNL     1      16.230  25.808   2.939  1.00  0.00     0.189 HD
HETATM   22  O8  UNL     1      15.652  23.938   4.506  1.00  0.00    -0.245 OA
BRANCH  15  23
HETATM   23  N6  UNL     1      18.712  21.586   2.157  1.00  0.00    -0.234 N 
ATOM     24  H62 UNL     1      19.715  21.769   2.160  1.00  0.00     0.174 HD
ATOM     25  H61 UNL     1      18.314  20.664   1.974  1.00  0.00     0.174 HD
ENDBRANCH  15  23
BRANCH  17  26
HETATM   26  N8  UNL     1      17.864  25.851   1.031  1.00  0.00    -0.234 N 
ATOM     27  H82 UNL     1      18.743  25.920   0.519  1.00  0.00     0.174 HD
ATOM     28  H81 UNL     1      17.189  26.609   0.921  1.00  0.00     0.174 HD
ENDBRANCH  17  26
ENDBRANCH   9  14
BRANCH  10  29
HETATM   29  O9  UNL     1      15.770  19.935   2.708  1.00  0.00    -0.388 OA
ATOM     30  H9  UNL     1      15.066  19.296   2.679  1.00  0.00     0.210 HD
ENDBRANCH  10  29
BRANCH  11  31
HETATM   31  O10 UNL     1      17.533  18.067   4.084  1.00  0.00    -0.387 OA
ATOM     32  H10 UNL     1      16.645  17.942   4.400  1.00  0.00     0.210 HD
ENDBRANCH  11  31
ENDBRANCH   4   7
BRANCH   1  33
HETATM   33  C7  UNL     1      16.880  16.621   8.542  1.00  0.00     0.154 A 
HETATM   34  C6  UNL     1      15.887  16.305   9.450  1.00  0.00     0.202 A 
HETATM   35  O5  UNL     1      16.144  15.102   9.874  1.00  0.00    -0.202 OA
HETATM   36  N2  UNL     1      17.204  14.646   9.313  1.00  0.00    -0.199 N 
HETATM   37  N3  UNL     1      17.690  15.536   8.491  1.00  0.00    -0.273 N 
ATOM     38  H2  UNL     1      17.607  13.724   9.484  1.00  0.00     0.216 HD
ATOM     39  H3  UNL     1      18.526  15.433   7.916  1.00  0.00     0.189 HD
BRANCH  34  40
HETATM   40  N1  UNL     1      14.798  17.076   9.869  1.00  0.00    -0.339 N 
ATOM     41  H1  UNL     1      13.898  16.793   9.484  1.00  0.00     0.164 HD
BRANCH  40  42
HETATM   42  C5  UNL     1      14.749  18.188  10.746  1.00  0.00     0.253 C 
BRANCH  42  43
HETATM   43  C4  UNL     1      15.728  18.222  11.872  1.00  0.00     0.259 C 
BRANCH  43  44
HETATM   44  C3  UNL     1      15.270  17.722  13.195  1.00  0.00     0.299 C 
BRANCH  44  45
HETATM   45  O2  UNL     1      16.237  17.970  14.196  1.00  0.00    -0.288 OA
BRANCH  45  46
HETATM   46  C2  UNL     1      15.931  18.465  15.441  1.00  0.00     0.257 C 
HETATM   47  C1  UNL     1      16.629  19.692  15.957  1.00  0.00     0.126 C 
HETATM   48  O1  UNL     1      15.073  17.904  16.166  1.00  0.00    -0.266 OA
ENDBRANCH  45  46
ENDBRANCH  44  45
BRANCH  44  49
HETATM   49  O3  UNL     1      14.163  18.529  13.586  1.00  0.00    -0.368 OA
ATOM     50  H3  UNL     1      13.620  18.560  12.807  1.00  0.00     0.212 HD
ENDBRANCH  44  49
ENDBRANCH  43  44
BRANCH  43  51
HETATM   51  N10 UNL     1      16.454  19.466  11.894  1.00  0.00    -0.141 N 
HETATM   52  O12 UNL     1      17.545  19.571  11.314  1.00  0.00    -0.536 OA
HETATM   53  O13 UNL     1      16.002  20.596  12.541  1.00  0.00    -0.536 OA
ENDBRANCH  43  51
ENDBRANCH  42  43
BRANCH  42  54
HETATM   54  O4  UNL     1      14.633  19.416  10.113  1.00  0.00    -0.374 OA
ATOM     55  H4  UNL     1      15.478  19.799   9.911  1.00  0.00     0.212 HD
ENDBRANCH  42  54
ENDBRANCH  40  42
ENDBRANCH  34  40
ENDBRANCH   1  33
TORSDOF 17
ENDMDL
