MODEL 1
REMARK VINA RESULT: -9.519608820      0.000      0.000
REMARK  17 active torsions:
REMARK  status: ('A' for Active; 'I' for Inactive)
REMARK    1  A    between atoms: N1_1  and  C1_4 
REMARK    2  A    between atoms: C2_7  and  C3_8 
REMARK    3  A    between atoms: C3_8  and  S1_9 
REMARK    4  A    between atoms: S1_9  and  C4_10 
REMARK    5  A    between atoms: N6_16  and  C5_17 
REMARK    6  A    between atoms: C7_19  and  O1_20 
REMARK    7  A    between atoms: C8_22  and  O2_23 
REMARK    8  A    between atoms: C9_25  and  O3_26 
REMARK    9  A    between atoms: O3_26  and  C10_27 
REMARK   10  A    between atoms: C10_27  and  C11_28 
REMARK   11  A    between atoms: C13_40  and  N12_41 
REMARK   12  A    between atoms: N12_41  and  C14_42 
REMARK   13  A    between atoms: C15_46  and  O4_47 
REMARK   14  A    between atoms: C15_46  and  O5_49 
REMARK   15  A    between atoms: C16_51  and  O6_52 
REMARK   16  A    between atoms: C16_51  and  C17_54 
REMARK   17  A    between atoms: C17_54  and  O7_55 
ROOT
HETATM    1  C3  UNL     1     -27.306  10.026 -22.184  1.00  0.00     0.159 C 
ENDROOT
BRANCH   1   2
HETATM    2  C2  UNL     1     -26.576  11.252 -21.878  1.00  0.00     0.110 A 
HETATM    3  N2  UNL     1     -25.616  11.214 -20.931  1.00  0.00    -0.180 N 
HETATM    4  C1  UNL     1     -24.892  12.306 -20.617  1.00  0.00     0.680 A 
ATOM      5  H2  UNL     1     -25.433  10.338 -20.443  1.00  0.00     0.185 HD
HETATM    6  N14 UNL     1     -25.096  13.463 -21.226  1.00  0.00    -0.149 N 
HETATM    7  C13 UNL     1     -26.065  13.567 -22.203  1.00  0.00     0.273 A 
ATOM      8  H14 UNL     1     -24.536  14.278 -20.974  1.00  0.00     0.188 HD
HETATM    9  N11 UNL     1     -26.767  12.424 -22.478  1.00  0.00    -0.304 N 
ATOM     10  H11 UNL     1     -27.490  12.474 -23.196  1.00  0.00     0.171 HD
BRANCH   4  11
HETATM   11  N1  UNL     1     -23.967  12.236 -19.693  1.00  0.00    -0.234 N 
ATOM     12  H12 UNL     1     -24.104  12.747 -18.821  1.00  0.00     0.174 HD
ATOM     13  H11 UNL     1     -23.128  11.677 -19.851  1.00  0.00     0.174 HD
ENDBRANCH   4  11
BRANCH   7  14
HETATM   14  N12 UNL     1     -26.245  14.601 -22.738  1.00  0.00    -0.354 NA
BRANCH  14  15
HETATM   15  C14 UNL     1     -26.427  15.770 -23.329  1.00  0.00     0.519 C 
HETATM   16  N13 UNL     1     -26.399  16.934 -22.426  1.00  0.00     0.045 N 
HETATM   17  C15 UNL     1     -26.213  18.067 -23.278  1.00  0.00     0.400 C 
ATOM     18 2H13 UNL     1     -27.216  17.004 -21.820  1.00  0.00     0.290 HD
ATOM     19 1H13 UNL     1     -25.705  16.861 -21.682  1.00  0.00     0.290 HD
HETATM   20  C16 UNL     1     -25.449  17.482 -24.422  1.00  0.00     0.275 C 
HETATM   21  O8  UNL     1     -25.523  16.121 -24.357  1.00  0.00    -0.287 OA
BRANCH  17  22
HETATM   22  O4  UNL     1     -25.451  19.036 -22.589  1.00  0.00    -0.339 OA
ATOM     23  H4  UNL     1     -25.195  19.717 -23.200  1.00  0.00     0.215 HD
ENDBRANCH  17  22
BRANCH  17  24
HETATM   24  O5  UNL     1     -27.384  18.672 -23.686  1.00  0.00    -0.339 OA
ATOM     25  H5  UNL     1     -27.485  18.734 -24.628  1.00  0.00     0.215 HD
ENDBRANCH  17  24
BRANCH  20  26
HETATM   26  O6  UNL     1     -24.092  17.851 -24.297  1.00  0.00    -0.358 OA
ATOM     27  H6  UNL     1     -23.909  18.552 -24.911  1.00  0.00     0.213 HD
ENDBRANCH  20  26
BRANCH  20  28
HETATM   28  C17 UNL     1     -25.906  18.034 -25.760  1.00  0.00     0.240 C 
BRANCH  28  29
HETATM   29  O7  UNL     1     -26.938  17.297 -26.317  1.00  0.00    -0.395 OA
ATOM     30  H7  UNL     1     -26.994  17.399 -27.260  1.00  0.00     0.209 HD
ENDBRANCH  28  29
ENDBRANCH  20  28
ENDBRANCH  14  15
ENDBRANCH   7  14
ENDBRANCH   1   2
BRANCH   1  31
HETATM   31  S1  UNL     1     -26.336   8.577 -22.537  1.00  0.00    -0.083 SA
BRANCH  31  32
HETATM   32  C4  UNL     1     -25.816   8.470 -24.225  1.00  0.00     0.180 A 
HETATM   33  N3  UNL     1     -26.339   7.706 -25.228  1.00  0.00    -0.266 N 
HETATM   34  N4  UNL     1     -25.698   7.925 -26.347  1.00  0.00    -0.224 N 
ATOM     35  H3  UNL     1     -27.118   7.057 -25.120  1.00  0.00     0.190 HD
HETATM   36  N5  UNL     1     -24.760   8.822 -26.100  1.00  0.00     0.003 NA
ATOM     37  H4  UNL     1     -25.888   7.484 -27.246  1.00  0.00     0.205 HD
HETATM   38  N6  UNL     1     -24.824   9.166 -24.797  1.00  0.00    -0.215 N 
BRANCH  38  39
HETATM   39  C5  UNL     1     -23.954  10.133 -24.223  1.00  0.00     0.062 A 
HETATM   40  C6  UNL     1     -24.147  11.468 -24.483  1.00  0.00     0.071 A 
HETATM   41  C7  UNL     1     -23.321  12.424 -23.931  1.00  0.00     0.103 A 
HETATM   42  C8  UNL     1     -22.271  12.091 -23.100  1.00  0.00     0.132 A 
HETATM   43  C9  UNL     1     -22.063  10.736 -22.827  1.00  0.00     0.107 A 
HETATM   44  C12 UNL     1     -22.899   9.797 -23.389  1.00  0.00     0.071 A 
BRANCH  41  45
HETATM   45  O1  UNL     1     -23.557  13.755 -24.224  1.00  0.00    -0.358 OA
ATOM     46  H1  UNL     1     -23.264  14.417 -23.608  1.00  0.00     0.217 HD
ENDBRANCH  41  45
BRANCH  42  47
HETATM   47  O2  UNL     1     -21.449  13.068 -22.552  1.00  0.00    -0.356 OA
ATOM     48  H2  UNL     1     -20.818  12.856 -21.874  1.00  0.00     0.218 HD
ENDBRANCH  42  47
BRANCH  43  49
HETATM   49  O3  UNL     1     -21.029  10.394 -22.007  1.00  0.00    -0.341 OA
BRANCH  49  50
HETATM   50  C10 UNL     1     -20.402   9.162 -21.870  1.00  0.00     0.255 C 
BRANCH  50  51
HETATM   51  C11 UNL     1     -19.595   8.976 -20.665  1.00  0.00     0.137 A 
HETATM   52  N7  UNL     1     -18.611   8.067 -20.529  1.00  0.00    -0.270 N 
HETATM   53  N8  UNL     1     -18.103   8.169 -19.325  1.00  0.00    -0.227 N 
ATOM     54  H7  UNL     1     -18.311   7.406 -21.246  1.00  0.00     0.190 HD
HETATM   55  N9  UNL     1     -18.738   9.135 -18.663  1.00  0.00    -0.227 N 
ATOM     56  H8  UNL     1     -17.342   7.599 -18.955  1.00  0.00     0.210 HD
HETATM   57  N10 UNL     1     -19.631   9.610 -19.479  1.00  0.00    -0.270 N 
ATOM     58  H9  UNL     1     -18.560   9.441 -17.706  1.00  0.00     0.210 HD
ATOM     59  H10 UNL     1     -20.276  10.367 -19.250  1.00  0.00     0.190 HD
ENDBRANCH  50  51
ENDBRANCH  49  50
ENDBRANCH  43  49
ENDBRANCH  38  39
ENDBRANCH  31  32
ENDBRANCH   1  31
TORSDOF 17
ENDMDL
MODEL 2
REMARK VINA RESULT: -9.022910315      2.141      4.940
REMARK  17 active torsions:
REMARK  status: ('A' for Active; 'I' for Inactive)
REMARK    1  A    between atoms: N1_1  and  C1_4 
REMARK    2  A    between atoms: C2_7  and  C3_8 
REMARK    3  A    between atoms: C3_8  and  S1_9 
REMARK    4  A    between atoms: S1_9  and  C4_10 
REMARK    5  A    between atoms: N6_16  and  C5_17 
REMARK    6  A    between atoms: C7_19  and  O1_20 
REMARK    7  A    between atoms: C8_22  and  O2_23 
REMARK    8  A    between atoms: C9_25  and  O3_26 
REMARK    9  A    between atoms: O3_26  and  C10_27 
REMARK   10  A    between atoms: C10_27  and  C11_28 
REMARK   11  A    between atoms: C13_40  and  N12_41 
REMARK   12  A    between atoms: N12_41  and  C14_42 
REMARK   13  A    between atoms: C15_46  and  O4_47 
REMARK   14  A    between atoms: C15_46  and  O5_49 
REMARK   15  A    between atoms: C16_51  and  O6_52 
REMARK   16  A    between atoms: C16_51  and  C17_54 
REMARK   17  A    between atoms: C17_54  and  O7_55 
ROOT
HETATM    1  C3  UNL     1     -21.767  12.484 -20.417  1.00  0.00     0.159 C 
ENDROOT
BRANCH   1   2
HETATM    2  C2  UNL     1     -23.154  12.608 -20.856  1.00  0.00     0.110 A 
HETATM    3  N2  UNL     1     -24.025  11.631 -20.529  1.00  0.00    -0.180 N 
HETATM    4  C1  UNL     1     -25.322  11.695 -20.886  1.00  0.00     0.680 A 
ATOM      5  H2  UNL     1     -23.694  10.826 -19.999  1.00  0.00     0.185 HD
HETATM    6  N14 UNL     1     -25.794  12.722 -21.575  1.00  0.00    -0.149 N 
HETATM    7  C13 UNL     1     -24.953  13.753 -21.940  1.00  0.00     0.273 A 
ATOM      8  H14 UNL     1     -26.781  12.752 -21.834  1.00  0.00     0.188 HD
HETATM    9  N11 UNL     1     -23.647  13.631 -21.549  1.00  0.00    -0.304 N 
ATOM     10  H11 UNL     1     -23.004  14.380 -21.807  1.00  0.00     0.171 HD
BRANCH   4  11
HETATM   11  N1  UNL     1     -26.143  10.730 -20.553  1.00  0.00    -0.234 N 
ATOM     12  H12 UNL     1     -25.772   9.786 -20.446  1.00  0.00     0.174 HD
ATOM     13  H11 UNL     1     -27.132  10.929 -20.405  1.00  0.00     0.174 HD
ENDBRANCH   4  11
BRANCH   7  14
HETATM   14  N12 UNL     1     -25.378  14.662 -22.557  1.00  0.00    -0.354 NA
BRANCH  14  15
HETATM   15  C14 UNL     1     -25.837  15.697 -23.241  1.00  0.00     0.519 C 
HETATM   16  N13 UNL     1     -25.877  16.967 -22.495  1.00  0.00     0.045 N 
HETATM   17  C15 UNL     1     -26.010  17.985 -23.491  1.00  0.00     0.400 C 
ATOM     18 2H13 UNL     1     -26.600  16.998 -21.776  1.00  0.00     0.290 HD
ATOM     19 1H13 UNL     1     -25.082  17.103 -21.871  1.00  0.00     0.290 HD
HETATM   20  C16 UNL     1     -25.330  17.365 -24.670  1.00  0.00     0.275 C 
HETATM   21  O8  UNL     1     -25.162  16.031 -24.437  1.00  0.00    -0.287 OA
BRANCH  17  22
HETATM   22  O4  UNL     1     -25.331  19.143 -23.053  1.00  0.00    -0.339 OA
ATOM     23  H4  UNL     1     -25.636  19.886 -23.558  1.00  0.00     0.215 HD
ENDBRANCH  17  22
BRANCH  17  24
HETATM   24  O5  UNL     1     -27.312  18.344 -23.768  1.00  0.00    -0.339 OA
ATOM     25  H5  UNL     1     -27.532  19.236 -23.528  1.00  0.00     0.215 HD
ENDBRANCH  17  24
BRANCH  20  26
HETATM   26  O6  UNL     1     -24.051  17.946 -24.812  1.00  0.00    -0.358 OA
ATOM     27  H6  UNL     1     -23.396  17.262 -24.737  1.00  0.00     0.213 HD
ENDBRANCH  20  26
BRANCH  20  28
HETATM   28  C17 UNL     1     -26.060  17.650 -25.969  1.00  0.00     0.240 C 
BRANCH  28  29
HETATM   29  O7  UNL     1     -27.084  16.750 -26.215  1.00  0.00    -0.395 OA
ATOM     30  H7  UNL     1     -27.944  17.148 -26.156  1.00  0.00     0.209 HD
ENDBRANCH  28  29
ENDBRANCH  20  28
ENDBRANCH  14  15
ENDBRANCH   7  14
ENDBRANCH   1   2
BRANCH   1  31
HETATM   31  S1  UNL     1     -20.577  11.977 -21.638  1.00  0.00    -0.083 SA
BRANCH  31  32
HETATM   32  C4  UNL     1     -20.296  10.230 -21.666  1.00  0.00     0.180 A 
HETATM   33  N3  UNL     1     -19.590   9.469 -20.780  1.00  0.00    -0.266 N 
HETATM   34  N4  UNL     1     -19.635   8.209 -21.128  1.00  0.00    -0.224 N 
ATOM     35  H3  UNL     1     -19.097   9.831 -19.964  1.00  0.00     0.190 HD
HETATM   36  N5  UNL     1     -20.360   8.124 -22.229  1.00  0.00     0.003 NA
ATOM     37  H4  UNL     1     -19.191   7.433 -20.637  1.00  0.00     0.205 HD
HETATM   38  N6  UNL     1     -20.773   9.363 -22.570  1.00  0.00    -0.215 N 
BRANCH  38  39
HETATM   39  C5  UNL     1     -21.595   9.604 -23.704  1.00  0.00     0.062 A 
HETATM   40  C6  UNL     1     -21.047   9.586 -24.964  1.00  0.00     0.071 A 
HETATM   41  C7  UNL     1     -21.827   9.809 -26.079  1.00  0.00     0.103 A 
HETATM   42  C8  UNL     1     -23.180  10.059 -25.986  1.00  0.00     0.132 A 
HETATM   43  C9  UNL     1     -23.751  10.079 -24.710  1.00  0.00     0.107 A 
HETATM   44  C12 UNL     1     -22.955   9.854 -23.610  1.00  0.00     0.071 A 
BRANCH  41  45
HETATM   45  O1  UNL     1     -21.227   9.780 -27.325  1.00  0.00    -0.358 OA
ATOM     46  H1  UNL     1     -21.458   9.082 -27.927  1.00  0.00     0.217 HD
ENDBRANCH  41  45
BRANCH  42  47
HETATM   47  O2  UNL     1     -23.951  10.281 -27.121  1.00  0.00    -0.356 OA
ATOM     48  H2  UNL     1     -24.824  10.650 -27.058  1.00  0.00     0.218 HD
ENDBRANCH  42  47
BRANCH  43  49
HETATM   49  O3  UNL     1     -25.089  10.324 -24.605  1.00  0.00    -0.341 OA
BRANCH  49  50
HETATM   50  C10 UNL     1     -26.003   9.775 -23.716  1.00  0.00     0.255 C 
BRANCH  50  51
HETATM   51  C11 UNL     1     -26.509   8.443 -24.047  1.00  0.00     0.137 A 
HETATM   52  N7  UNL     1     -25.951   7.608 -24.944  1.00  0.00    -0.270 N 
HETATM   53  N8  UNL     1     -26.659   6.507 -24.997  1.00  0.00    -0.227 N 
ATOM     54  H7  UNL     1     -25.113   7.802 -25.494  1.00  0.00     0.190 HD
HETATM   55  N9  UNL     1     -27.680   6.602 -24.145  1.00  0.00    -0.227 N 
ATOM     56  H8  UNL     1     -26.461   5.704 -25.595  1.00  0.00     0.210 HD
HETATM   57  N10 UNL     1     -27.576   7.770 -23.582  1.00  0.00    -0.270 N 
ATOM     58  H9  UNL     1     -28.398   5.900 -23.969  1.00  0.00     0.210 HD
ATOM     59  H10 UNL     1     -28.221   8.129 -22.879  1.00  0.00     0.190 HD
ENDBRANCH  50  51
ENDBRANCH  49  50
ENDBRANCH  43  49
ENDBRANCH  38  39
ENDBRANCH  31  32
ENDBRANCH   1  31
TORSDOF 17
ENDMDL
MODEL 3
REMARK VINA RESULT: -8.838886045      2.518      4.905
REMARK  17 active torsions:
REMARK  status: ('A' for Active; 'I' for Inactive)
REMARK    1  A    between atoms: N1_1  and  C1_4 
REMARK    2  A    between atoms: C2_7  and  C3_8 
REMARK    3  A    between atoms: C3_8  and  S1_9 
REMARK    4  A    between atoms: S1_9  and  C4_10 
REMARK    5  A    between atoms: N6_16  and  C5_17 
REMARK    6  A    between atoms: C7_19  and  O1_20 
REMARK    7  A    between atoms: C8_22  and  O2_23 
REMARK    8  A    between atoms: C9_25  and  O3_26 
REMARK    9  A    between atoms: O3_26  and  C10_27 
REMARK   10  A    between atoms: C10_27  and  C11_28 
REMARK   11  A    between atoms: C13_40  and  N12_41 
REMARK   12  A    between atoms: N12_41  and  C14_42 
REMARK   13  A    between atoms: C15_46  and  O4_47 
REMARK   14  A    between atoms: C15_46  and  O5_49 
REMARK   15  A    between atoms: C16_51  and  O6_52 
REMARK   16  A    between atoms: C16_51  and  C17_54 
REMARK   17  A    between atoms: C17_54  and  O7_55 
ROOT
HETATM    1  C3  UNL     1     -21.338  12.739 -22.171  1.00  0.00     0.159 C 
ENDROOT
BRANCH   1   2
HETATM    2  C2  UNL     1     -22.650  13.365 -22.300  1.00  0.00     0.110 A 
HETATM    3  N2  UNL     1     -23.719  12.741 -21.764  1.00  0.00    -0.180 N 
HETATM    4  C1  UNL     1     -24.954  13.276 -21.831  1.00  0.00     0.680 A 
ATOM      5  H2  UNL     1     -23.590  11.844 -21.298  1.00  0.00     0.185 HD
HETATM    6  N14 UNL     1     -25.167  14.439 -22.427  1.00  0.00    -0.149 N 
HETATM    7  C13 UNL     1     -24.114  15.126 -22.995  1.00  0.00     0.273 A 
ATOM      8  H14 UNL     1     -26.109  14.827 -22.465  1.00  0.00     0.188 HD
HETATM    9  N11 UNL     1     -22.884  14.532 -22.895  1.00  0.00    -0.304 N 
ATOM     10  H11 UNL     1     -22.088  15.019 -23.308  1.00  0.00     0.171 HD
BRANCH   4  11
HETATM   11  N1  UNL     1     -25.972  12.645 -21.301  1.00  0.00    -0.234 N 
ATOM     12  H12 UNL     1     -25.981  12.488 -20.293  1.00  0.00     0.174 HD
ATOM     13  H11 UNL     1     -26.737  12.321 -21.893  1.00  0.00     0.174 HD
ENDBRANCH   4  11
BRANCH   7  14
HETATM   14  N12 UNL     1     -24.310  16.157 -23.528  1.00  0.00    -0.354 NA
BRANCH  14  15
HETATM   15  C14 UNL     1     -24.545  17.323 -24.108  1.00  0.00     0.519 C 
HETATM   16  N13 UNL     1     -25.248  17.244 -25.400  1.00  0.00     0.045 N 
HETATM   17  C15 UNL     1     -25.740  18.565 -25.642  1.00  0.00     0.400 C 
ATOM     18 2H13 UNL     1     -24.675  16.873 -26.158  1.00  0.00     0.290 HD
ATOM     19 1H13 UNL     1     -25.970  16.524 -25.433  1.00  0.00     0.290 HD
HETATM   20  C16 UNL     1     -25.939  19.089 -24.256  1.00  0.00     0.275 C 
HETATM   21  O8  UNL     1     -25.296  18.270 -23.374  1.00  0.00    -0.287 OA
BRANCH  17  22
HETATM   22  O4  UNL     1     -26.964  18.475 -26.341  1.00  0.00    -0.339 OA
ATOM     23  H4  UNL     1     -26.794  18.150 -27.216  1.00  0.00     0.215 HD
ENDBRANCH  17  22
BRANCH  17  24
HETATM   24  O5  UNL     1     -24.894  19.361 -26.385  1.00  0.00    -0.339 OA
ATOM     25  H5  UNL     1     -25.213  20.243 -26.533  1.00  0.00     0.215 HD
ENDBRANCH  17  24
BRANCH  20  26
HETATM   26  O6  UNL     1     -27.317  19.057 -23.952  1.00  0.00    -0.358 OA
ATOM     27  H6  UNL     1     -27.491  19.681 -23.257  1.00  0.00     0.213 HD
ENDBRANCH  20  26
BRANCH  20  28
HETATM   28  C17 UNL     1     -25.520  20.541 -24.124  1.00  0.00     0.240 C 
BRANCH  28  29
HETATM   29  O7  UNL     1     -26.285  21.391 -24.906  1.00  0.00    -0.395 OA
ATOM     30  H7  UNL     1     -27.197  21.412 -24.639  1.00  0.00     0.209 HD
ENDBRANCH  28  29
ENDBRANCH  20  28
ENDBRANCH  14  15
ENDBRANCH   7  14
ENDBRANCH   1   2
BRANCH   1  31
HETATM   31  S1  UNL     1     -21.230  11.301 -21.130  1.00  0.00    -0.083 SA
BRANCH  31  32
HETATM   32  C4  UNL     1     -20.219  10.015 -21.806  1.00  0.00     0.180 A 
HETATM   33  N3  UNL     1     -19.145   9.393 -21.239  1.00  0.00    -0.266 N 
HETATM   34  N4  UNL     1     -18.678   8.471 -22.041  1.00  0.00    -0.224 N 
ATOM     35  H3  UNL     1     -18.760   9.615 -20.321  1.00  0.00     0.190 HD
HETATM   36  N5  UNL     1     -19.427   8.474 -23.129  1.00  0.00     0.003 NA
ATOM     37  H4  UNL     1     -17.881   7.861 -21.859  1.00  0.00     0.205 HD
HETATM   38  N6  UNL     1     -20.380   9.420 -22.995  1.00  0.00    -0.215 N 
BRANCH  38  39
HETATM   39  C5  UNL     1     -21.362   9.655 -23.996  1.00  0.00     0.062 A 
HETATM   40  C6  UNL     1     -20.983   9.801 -25.308  1.00  0.00     0.071 A 
HETATM   41  C7  UNL     1     -21.919  10.022 -26.296  1.00  0.00     0.103 A 
HETATM   42  C8  UNL     1     -23.268  10.107 -26.019  1.00  0.00     0.132 A 
HETATM   43  C9  UNL     1     -23.668   9.959 -24.688  1.00  0.00     0.107 A 
HETATM   44  C12 UNL     1     -22.717   9.740 -23.716  1.00  0.00     0.071 A 
BRANCH  41  45
HETATM   45  O1  UNL     1     -21.486  10.164 -27.602  1.00  0.00    -0.358 OA
ATOM     46  H1  UNL     1     -21.808   9.556 -28.258  1.00  0.00     0.217 HD
ENDBRANCH  41  45
BRANCH  42  47
HETATM   47  O2  UNL     1     -24.197  10.330 -27.027  1.00  0.00    -0.356 OA
ATOM     48  H2  UNL     1     -25.110  10.501 -26.826  1.00  0.00     0.218 HD
ENDBRANCH  42  47
BRANCH  43  49
HETATM   49  O3  UNL     1     -24.999  10.040 -24.401  1.00  0.00    -0.341 OA
BRANCH  49  50
HETATM   50  C10 UNL     1     -25.858   9.031 -23.986  1.00  0.00     0.255 C 
BRANCH  50  51
HETATM   51  C11 UNL     1     -26.102   8.939 -22.546  1.00  0.00     0.137 A 
HETATM   52  N7  UNL     1     -27.283   8.618 -21.984  1.00  0.00    -0.270 N 
HETATM   53  N8  UNL     1     -27.149   8.633 -20.680  1.00  0.00    -0.227 N 
ATOM     54  H7  UNL     1     -28.141   8.399 -22.491  1.00  0.00     0.190 HD
HETATM   55  N9  UNL     1     -25.894   8.961 -20.373  1.00  0.00    -0.227 N 
ATOM     56  H8  UNL     1     -27.888   8.427 -20.008  1.00  0.00     0.210 HD
HETATM   57  N10 UNL     1     -25.278   9.141 -21.503  1.00  0.00    -0.270 N 
ATOM     58  H9  UNL     1     -25.497   9.052 -19.438  1.00  0.00     0.210 HD
ATOM     59  H10 UNL     1     -24.296   9.403 -21.588  1.00  0.00     0.190 HD
ENDBRANCH  50  51
ENDBRANCH  49  50
ENDBRANCH  43  49
ENDBRANCH  38  39
ENDBRANCH  31  32
ENDBRANCH   1  31
TORSDOF 17
ENDMDL
MODEL 4
REMARK VINA RESULT: -8.774720851      2.818      5.057
REMARK  17 active torsions:
REMARK  status: ('A' for Active; 'I' for Inactive)
REMARK    1  A    between atoms: N1_1  and  C1_4 
REMARK    2  A    between atoms: C2_7  and  C3_8 
REMARK    3  A    between atoms: C3_8  and  S1_9 
REMARK    4  A    between atoms: S1_9  and  C4_10 
REMARK    5  A    between atoms: N6_16  and  C5_17 
REMARK    6  A    between atoms: C7_19  and  O1_20 
REMARK    7  A    between atoms: C8_22  and  O2_23 
REMARK    8  A    between atoms: C9_25  and  O3_26 
REMARK    9  A    between atoms: O3_26  and  C10_27 
REMARK   10  A    between atoms: C10_27  and  C11_28 
REMARK   11  A    between atoms: C13_40  and  N12_41 
REMARK   12  A    between atoms: N12_41  and  C14_42 
REMARK   13  A    between atoms: C15_46  and  O4_47 
REMARK   14  A    between atoms: C15_46  and  O5_49 
REMARK   15  A    between atoms: C16_51  and  O6_52 
REMARK   16  A    between atoms: C16_51  and  C17_54 
REMARK   17  A    between atoms: C17_54  and  O7_55 
ROOT
HETATM    1  C3  UNL     1     -22.076  13.703 -22.287  1.00  0.00     0.159 C 
ENDROOT
BRANCH   1   2
HETATM    2  C2  UNL     1     -23.383  14.156 -22.752  1.00  0.00     0.110 A 
HETATM    3  N2  UNL     1     -24.482  13.486 -22.348  1.00  0.00    -0.180 N 
HETATM    4  C1  UNL     1     -25.718  13.866 -22.725  1.00  0.00     0.680 A 
ATOM      5  H2  UNL     1     -24.374  12.673 -21.742  1.00  0.00     0.185 HD
HETATM    6  N14 UNL     1     -25.904  14.915 -23.509  1.00  0.00    -0.149 N 
HETATM    7  C13 UNL     1     -24.820  15.642 -23.958  1.00  0.00     0.273 A 
ATOM      8  H14 UNL     1     -26.848  15.187 -23.783  1.00  0.00     0.188 HD
HETATM    9  N11 UNL     1     -23.590  15.207 -23.541  1.00  0.00    -0.304 N 
ATOM     10  H11 UNL     1     -22.772  15.727 -23.859  1.00  0.00     0.171 HD
BRANCH   4  11
HETATM   11  N1  UNL     1     -26.765  13.193 -22.315  1.00  0.00    -0.234 N 
ATOM     12  H12 UNL     1     -26.714  12.175 -22.288  1.00  0.00     0.174 HD
ATOM     13  H11 UNL     1     -27.610  13.688 -22.029  1.00  0.00     0.174 HD
ENDBRANCH   4  11
BRANCH   7  14
HETATM   14  N12 UNL     1     -24.991  16.572 -24.660  1.00  0.00    -0.354 NA
BRANCH  14  15
HETATM   15  C14 UNL     1     -25.196  17.602 -25.464  1.00  0.00     0.519 C 
HETATM   16  N13 UNL     1     -26.611  17.952 -25.678  1.00  0.00     0.045 N 
HETATM   17  C15 UNL     1     -26.593  19.276 -26.220  1.00  0.00     0.400 C 
ATOM     18 2H13 UNL     1     -27.119  17.279 -26.251  1.00  0.00     0.290 HD
ATOM     19 1H13 UNL     1     -27.189  17.858 -24.843  1.00  0.00     0.290 HD
HETATM   20  C16 UNL     1     -25.346  19.846 -25.625  1.00  0.00     0.275 C 
HETATM   21  O8  UNL     1     -24.596  18.830 -25.106  1.00  0.00    -0.287 OA
BRANCH  17  22
HETATM   22  O4  UNL     1     -27.741  19.967 -25.773  1.00  0.00    -0.339 OA
ATOM     23  H4  UNL     1     -28.461  19.778 -26.362  1.00  0.00     0.215 HD
ENDBRANCH  17  22
BRANCH  17  24
HETATM   24  O5  UNL     1     -26.586  19.326 -27.598  1.00  0.00    -0.339 OA
ATOM     25  H5  UNL     1     -26.160  20.094 -27.960  1.00  0.00     0.215 HD
ENDBRANCH  17  24
BRANCH  20  26
HETATM   26  O6  UNL     1     -25.701  20.709 -24.567  1.00  0.00    -0.358 OA
ATOM     27  H6  UNL     1     -25.423  21.591 -24.786  1.00  0.00     0.213 HD
ENDBRANCH  20  26
BRANCH  20  28
HETATM   28  C17 UNL     1     -24.575  20.699 -26.615  1.00  0.00     0.240 C 
BRANCH  28  29
HETATM   29  O7  UNL     1     -25.344  21.718 -27.154  1.00  0.00    -0.395 OA
ATOM     30  H7  UNL     1     -25.644  22.337 -26.498  1.00  0.00     0.209 HD
ENDBRANCH  28  29
ENDBRANCH  20  28
ENDBRANCH  14  15
ENDBRANCH   7  14
ENDBRANCH   1   2
BRANCH   1  31
HETATM   31  S1  UNL     1     -22.037  12.206 -21.327  1.00  0.00    -0.083 SA
BRANCH  31  32
HETATM   32  C4  UNL     1     -20.705  11.124 -21.760  1.00  0.00     0.180 A 
HETATM   33  N3  UNL     1     -19.542  10.895 -21.083  1.00  0.00    -0.266 N 
HETATM   34  N4  UNL     1     -18.820  10.004 -21.710  1.00  0.00    -0.224 N 
ATOM     35  H3  UNL     1     -19.275  11.355 -20.212  1.00  0.00     0.190 HD
HETATM   36  N5  UNL     1     -19.485   9.639 -22.791  1.00  0.00     0.003 NA
ATOM     37  H4  UNL     1     -17.908   9.653 -21.417  1.00  0.00     0.205 HD
HETATM   38  N6  UNL     1     -20.648  10.322 -22.832  1.00  0.00    -0.215 N 
BRANCH  38  39
HETATM   39  C5  UNL     1     -21.603  10.135 -23.870  1.00  0.00     0.062 A 
HETATM   40  C6  UNL     1     -21.219  10.253 -25.183  1.00  0.00     0.071 A 
HETATM   41  C7  UNL     1     -22.125  10.067 -26.205  1.00  0.00     0.103 A 
HETATM   42  C8  UNL     1     -23.447   9.759 -25.963  1.00  0.00     0.132 A 
HETATM   43  C9  UNL     1     -23.851   9.636 -24.631  1.00  0.00     0.107 A 
HETATM   44  C12 UNL     1     -22.931   9.825 -23.624  1.00  0.00     0.071 A 
BRANCH  41  45
HETATM   45  O1  UNL     1     -21.689  10.198 -27.512  1.00  0.00    -0.358 OA
ATOM     46  H1  UNL     1     -21.950   9.541 -28.148  1.00  0.00     0.217 HD
ENDBRANCH  41  45
BRANCH  42  47
HETATM   47  O2  UNL     1     -24.347   9.576 -27.005  1.00  0.00    -0.356 OA
ATOM     48  H2  UNL     1     -24.454  10.231 -27.685  1.00  0.00     0.218 HD
ENDBRANCH  42  47
BRANCH  43  49
HETATM   49  O3  UNL     1     -25.157   9.330 -24.377  1.00  0.00    -0.341 OA
BRANCH  49  50
HETATM   50  C10 UNL     1     -26.053   9.983 -23.541  1.00  0.00     0.255 C 
BRANCH  50  51
HETATM   51  C11 UNL     1     -26.264   9.382 -22.224  1.00  0.00     0.137 A 
HETATM   52  N7  UNL     1     -27.414   8.815 -21.812  1.00  0.00    -0.270 N 
HETATM   53  N8  UNL     1     -27.258   8.385 -20.583  1.00  0.00    -0.227 N 
ATOM     54  H7  UNL     1     -28.267   8.733 -22.365  1.00  0.00     0.190 HD
HETATM   55  N9  UNL     1     -26.018   8.661 -20.178  1.00  0.00    -0.227 N 
ATOM     56  H8  UNL     1     -27.971   7.914 -20.027  1.00  0.00     0.210 HD
HETATM   57  N10 UNL     1     -25.435   9.260 -21.173  1.00  0.00    -0.270 N 
ATOM     58  H9  UNL     1     -25.610   8.446 -19.268  1.00  0.00     0.210 HD
ATOM     59  H10 UNL     1     -24.470   9.593 -21.158  1.00  0.00     0.190 HD
ENDBRANCH  50  51
ENDBRANCH  49  50
ENDBRANCH  43  49
ENDBRANCH  38  39
ENDBRANCH  31  32
ENDBRANCH   1  31
TORSDOF 17
ENDMDL
MODEL 5
REMARK VINA RESULT: -8.752411666      3.192      5.353
REMARK  17 active torsions:
REMARK  status: ('A' for Active; 'I' for Inactive)
REMARK    1  A    between atoms: N1_1  and  C1_4 
REMARK    2  A    between atoms: C2_7  and  C3_8 
REMARK    3  A    between atoms: C3_8  and  S1_9 
REMARK    4  A    between atoms: S1_9  and  C4_10 
REMARK    5  A    between atoms: N6_16  and  C5_17 
REMARK    6  A    between atoms: C7_19  and  O1_20 
REMARK    7  A    between atoms: C8_22  and  O2_23 
REMARK    8  A    between atoms: C9_25  and  O3_26 
REMARK    9  A    between atoms: O3_26  and  C10_27 
REMARK   10  A    between atoms: C10_27  and  C11_28 
REMARK   11  A    between atoms: C13_40  and  N12_41 
REMARK   12  A    between atoms: N12_41  and  C14_42 
REMARK   13  A    between atoms: C15_46  and  O4_47 
REMARK   14  A    between atoms: C15_46  and  O5_49 
REMARK   15  A    between atoms: C16_51  and  O6_52 
REMARK   16  A    between atoms: C16_51  and  C17_54 
REMARK   17  A    between atoms: C17_54  and  O7_55 
ROOT
HETATM    1  C3  UNL     1     -22.141  12.256 -20.363  1.00  0.00     0.159 C 
ENDROOT
BRANCH   1   2
HETATM    2  C2  UNL     1     -23.467  12.413 -20.953  1.00  0.00     0.110 A 
HETATM    3  N2  UNL     1     -24.360  11.412 -20.811  1.00  0.00    -0.180 N 
HETATM    4  C1  UNL     1     -25.607  11.503 -21.313  1.00  0.00     0.680 A 
ATOM      5  H2  UNL     1     -24.085  10.566 -20.312  1.00  0.00     0.185 HD
HETATM    6  N14 UNL     1     -26.005  12.582 -21.968  1.00  0.00    -0.149 N 
HETATM    7  C13 UNL     1     -25.138  13.640 -22.147  1.00  0.00     0.273 A 
ATOM      8  H14 UNL     1     -26.954  12.632 -22.340  1.00  0.00     0.188 HD
HETATM    9  N11 UNL     1     -23.885  13.488 -21.614  1.00  0.00    -0.304 N 
ATOM     10  H11 UNL     1     -23.224  14.256 -21.733  1.00  0.00     0.171 HD
BRANCH   4  11
HETATM   11  N1  UNL     1     -26.450  10.513 -21.159  1.00  0.00    -0.234 N 
ATOM     12  H12 UNL     1     -26.125   9.657 -20.710  1.00  0.00     0.174 HD
ATOM     13  H11 UNL     1     -27.413  10.607 -21.484  1.00  0.00     0.174 HD
ENDBRANCH   4  11
BRANCH   7  14
HETATM   14  N12 UNL     1     -25.497  14.596 -22.735  1.00  0.00    -0.354 NA
BRANCH  14  15
HETATM   15  C14 UNL     1     -25.912  15.676 -23.375  1.00  0.00     0.519 C 
HETATM   16  N13 UNL     1     -25.925  16.909 -22.568  1.00  0.00     0.045 N 
HETATM   17  C15 UNL     1     -26.009  17.978 -23.516  1.00  0.00     0.400 C 
ATOM     18 2H13 UNL     1     -26.658  16.929 -21.859  1.00  0.00     0.290 HD
ATOM     19 1H13 UNL     1     -25.136  16.990 -21.927  1.00  0.00     0.290 HD
HETATM   20  C16 UNL     1     -25.329  17.395 -24.713  1.00  0.00     0.275 C 
HETATM   21  O8  UNL     1     -25.207  16.046 -24.542  1.00  0.00    -0.287 OA
BRANCH  17  22
HETATM   22  O4  UNL     1     -25.302  19.091 -23.011  1.00  0.00    -0.339 OA
ATOM     23  H4  UNL     1     -25.327  19.788 -23.656  1.00  0.00     0.215 HD
ENDBRANCH  17  22
BRANCH  17  24
HETATM   24  O5  UNL     1     -27.295  18.392 -23.795  1.00  0.00    -0.339 OA
ATOM     25  H5  UNL     1     -27.468  19.302 -23.586  1.00  0.00     0.215 HD
ENDBRANCH  17  24
BRANCH  20  26
HETATM   26  O6  UNL     1     -24.030  17.940 -24.807  1.00  0.00    -0.358 OA
ATOM     27  H6  UNL     1     -23.554  17.479 -25.488  1.00  0.00     0.213 HD
ENDBRANCH  20  26
BRANCH  20  28
HETATM   28  C17 UNL     1     -26.028  17.764 -26.007  1.00  0.00     0.240 C 
BRANCH  28  29
HETATM   29  O7  UNL     1     -27.063  16.899 -26.322  1.00  0.00    -0.395 OA
ATOM     30  H7  UNL     1     -27.185  16.221 -25.668  1.00  0.00     0.209 HD
ENDBRANCH  28  29
ENDBRANCH  20  28
ENDBRANCH  14  15
ENDBRANCH   7  14
ENDBRANCH   1   2
BRANCH   1  31
HETATM   31  S1  UNL     1     -20.798  11.912 -21.479  1.00  0.00    -0.083 SA
BRANCH  31  32
HETATM   32  C4  UNL     1     -20.374  10.196 -21.565  1.00  0.00     0.180 A 
HETATM   33  N3  UNL     1     -19.643   9.457 -20.681  1.00  0.00    -0.266 N 
HETATM   34  N4  UNL     1     -19.570   8.214 -21.080  1.00  0.00    -0.224 N 
ATOM     35  H3  UNL     1     -19.215   9.822 -19.830  1.00  0.00     0.190 HD
HETATM   36  N5  UNL     1     -20.241   8.119 -22.214  1.00  0.00     0.003 NA
ATOM     37  H4  UNL     1     -19.084   7.455 -20.602  1.00  0.00     0.205 HD
HETATM   38  N6  UNL     1     -20.741   9.334 -22.523  1.00  0.00    -0.215 N 
BRANCH  38  39
HETATM   39  C5  UNL     1     -21.535   9.557 -23.681  1.00  0.00     0.062 A 
HETATM   40  C6  UNL     1     -22.851   9.927 -23.549  1.00  0.00     0.071 A 
HETATM   41  C7  UNL     1     -23.637  10.156 -24.658  1.00  0.00     0.103 A 
HETATM   42  C8  UNL     1     -23.147  10.027 -25.941  1.00  0.00     0.132 A 
HETATM   43  C9  UNL     1     -21.809   9.652 -26.090  1.00  0.00     0.107 A 
HETATM   44  C12 UNL     1     -21.041   9.427 -24.969  1.00  0.00     0.071 A 
BRANCH  41  45
HETATM   45  O1  UNL     1     -24.957  10.526 -24.471  1.00  0.00    -0.358 OA
ATOM     46  H1  UNL     1     -25.440  10.881 -25.209  1.00  0.00     0.217 HD
ENDBRANCH  41  45
BRANCH  42  47
HETATM   47  O2  UNL     1     -23.953  10.263 -27.047  1.00  0.00    -0.356 OA
ATOM     48  H2  UNL     1     -23.980   9.653 -27.776  1.00  0.00     0.218 HD
ENDBRANCH  42  47
BRANCH  43  49
HETATM   49  O3  UNL     1     -21.311   9.521 -27.353  1.00  0.00    -0.341 OA
BRANCH  49  50
HETATM   50  C10 UNL     1     -20.381  10.320 -28.005  1.00  0.00     0.255 C 
BRANCH  50  51
HETATM   51  C11 UNL     1     -20.492  10.387 -29.462  1.00  0.00     0.137 A 
HETATM   52  N7  UNL     1     -20.373   9.334 -30.292  1.00  0.00    -0.270 N 
HETATM   53  N8  UNL     1     -20.521   9.749 -31.527  1.00  0.00    -0.227 N 
ATOM     54  H7  UNL     1     -20.195   8.371 -30.007  1.00  0.00     0.190 HD
HETATM   55  N9  UNL     1     -20.736  11.064 -31.523  1.00  0.00    -0.227 N 
ATOM     56  H8  UNL     1     -20.478   9.159 -32.358  1.00  0.00     0.210 HD
HETATM   57  N10 UNL     1     -20.716  11.433 -30.277  1.00  0.00    -0.270 N 
ATOM     58  H9  UNL     1     -20.887  11.662 -32.336  1.00  0.00     0.210 HD
ATOM     59  H10 UNL     1     -20.853  12.392 -29.958  1.00  0.00     0.190 HD
ENDBRANCH  50  51
ENDBRANCH  49  50
ENDBRANCH  43  49
ENDBRANCH  38  39
ENDBRANCH  31  32
ENDBRANCH   1  31
TORSDOF 17
ENDMDL
