MODEL 1
REMARK VINA RESULT: -9.365582405      0.000      0.000
REMARK  17 active torsions:
REMARK  status: ('A' for Active; 'I' for Inactive)
REMARK    1  A    between atoms: C2_2  and  O2_4 
REMARK    2  A    between atoms: O2_4  and  C3_5 
REMARK    3  A    between atoms: C3_5  and  N1_6 
REMARK    4  A    between atoms: C4_7  and  C5_8 
REMARK    5  A    between atoms: C5_8  and  O3_9 
REMARK    6  A    between atoms: C5_8  and  N2_11 
REMARK    7  A    between atoms: N2_11  and  C6_13 
REMARK    8  A    between atoms: C6_13  and  C7_14 
REMARK    9  A    between atoms: C6_13  and  C8_17 
REMARK   10  A    between atoms: C7_14  and  O4_15 
REMARK   11  A    between atoms: C8_17  and  O5_18 
REMARK   12  A    between atoms: C8_17  and  O6_20 
REMARK   13  A    between atoms: C9_24  and  C10_25 
REMARK   14  A    between atoms: C12_27  and  N4_28 
REMARK   15  A    between atoms: N4_28  and  C13_30 
REMARK   16  A    between atoms: C14_33  and  N6_34 
REMARK   17  A    between atoms: C16_44  and  O7_45 
ROOT
HETATM    1  N1  UNL     1     -26.095  18.234 -24.288  1.00  0.00    -0.259 N 
HETATM    2  C4  UNL     1     -26.003  17.367 -25.284  1.00  0.00     0.166 A 
HETATM    3  N3  UNL     1     -25.732  16.040 -24.953  1.00  0.00    -0.324 N 
ATOM      4  H3  UNL     1     -25.656  15.349 -25.699  1.00  0.00     0.169 HD
HETATM    5  C9  UNL     1     -25.570  15.653 -23.703  1.00  0.00     0.121 A 
HETATM    6  N11 UNL     1     -25.670  16.567 -22.720  1.00  0.00    -0.293 N 
ATOM      7  H11 UNL     1     -25.544  16.266 -21.754  1.00  0.00     0.172 HD
HETATM    8  C20 UNL     1     -25.928  17.852 -22.962  1.00  0.00     0.331 A 
HETATM    9  O9  UNL     1     -26.024  18.720 -22.046  1.00  0.00    -0.246 OA
ENDROOT
BRANCH   5  10
HETATM   10  C10 UNL     1     -25.284  14.265 -23.322  1.00  0.00     0.014 C 
HETATM   11  C11 UNL     1     -23.958  13.893 -23.273  1.00  0.00     0.048 C 
HETATM   12  C12 UNL     1     -23.369  12.726 -22.806  1.00  0.00     0.085 C 
HETATM   13  C16 UNL     1     -23.966  11.770 -22.019  1.00  0.00     0.121 C 
HETATM   14  C17 UNL     1     -25.304  11.406 -21.978  1.00  0.00     0.131 C 
HETATM   15  N10 UNL     1     -25.583  10.169 -21.356  1.00  0.00    -0.095 NA
HETATM   16  C18 UNL     1     -26.357  12.145 -22.486  1.00  0.00     0.199 C 
HETATM   17  O8  UNL     1     -27.462  11.559 -22.429  1.00  0.00    -0.286 OA
HETATM   18  C19 UNL     1     -26.342  13.429 -23.039  1.00  0.00     0.072 C 
BRANCH  12  19
HETATM   19  N4  UNL     1     -22.034  12.471 -23.161  1.00  0.00    -0.189 N 
ATOM     20  H4  UNL     1     -21.317  13.131 -22.861  1.00  0.00     0.184 HD
BRANCH  19  21
HETATM   21  C13 UNL     1     -21.633  11.331 -23.921  1.00  0.00     0.684 A 
HETATM   22  N5  UNL     1     -21.965  11.241 -25.143  1.00  0.00    -0.179 N 
HETATM   23  C14 UNL     1     -21.613  10.131 -26.010  1.00  0.00     0.403 A 
ATOM     24  H5  UNL     1     -22.516  12.000 -25.544  1.00  0.00     0.181 HD
HETATM   25  N7  UNL     1     -20.834   9.120 -25.333  1.00  0.00    -0.320 N 
HETATM   26  C15 UNL     1     -20.477   9.166 -24.107  1.00  0.00     0.205 A 
ATOM     27  H7  UNL     1     -20.547   8.306 -25.876  1.00  0.00     0.166 HD
HETATM   28  N8  UNL     1     -19.714   8.115 -23.551  1.00  0.00    -0.063 NA
HETATM   29  N9  UNL     1     -20.864  10.284 -23.340  1.00  0.00    -0.164 N 
ATOM     30  H9  UNL     1     -20.588  10.343 -22.360  1.00  0.00     0.187 HD
BRANCH  23  31
HETATM   31  N6  UNL     1     -22.845   9.521 -26.460  1.00  0.00    -0.040 N 
ATOM     32  H63 UNL     1     -22.932   8.544 -26.177  1.00  0.00     0.279 HD
ATOM     33  H62 UNL     1     -23.666   9.875 -25.970  1.00  0.00     0.279 HD
ATOM     34  H61 UNL     1     -22.900   9.648 -27.471  1.00  0.00     0.279 HD
ENDBRANCH  23  31
ENDBRANCH  19  21
ENDBRANCH  12  19
BRANCH  13  35
HETATM   35  O7  UNL     1     -23.178  11.053 -21.139  1.00  0.00    -0.357 OA
ATOM     36  H7  UNL     1     -23.124  10.111 -21.243  1.00  0.00     0.218 HD
ENDBRANCH  13  35
ENDBRANCH   5  10
BRANCH   2  37
HETATM   37  C5  UNL     1     -26.135  17.696 -26.677  1.00  0.00     0.182 C 
BRANCH  37  38
HETATM   38  O3  UNL     1     -25.791  16.668 -27.455  1.00  0.00    -0.344 OA
ATOM     39  H3  UNL     1     -25.865  16.890 -28.375  1.00  0.00     0.219 HD
ENDBRANCH  37  38
BRANCH  37  40
HETATM   40  N2  UNL     1     -26.528  18.819 -27.377  1.00  0.00    -0.356 N 
ATOM     41  H2  UNL     1     -27.474  19.187 -27.285  1.00  0.00     0.162 HD
BRANCH  40  42
HETATM   42  C6  UNL     1     -25.536  19.478 -28.267  1.00  0.00     0.162 C 
BRANCH  42  43
HETATM   43  C7  UNL     1     -25.079  20.773 -27.673  1.00  0.00     0.194 C 
BRANCH  43  44
HETATM   44  O4  UNL     1     -23.887  20.661 -26.974  1.00  0.00    -0.399 OA
ATOM     45  H4  UNL     1     -23.838  21.241 -26.223  1.00  0.00     0.209 HD
ENDBRANCH  43  44
ENDBRANCH  42  43
BRANCH  42  46
HETATM   46  C8  UNL     1     -26.235  19.728 -29.580  1.00  0.00     0.278 C 
BRANCH  46  47
HETATM   47  O5  UNL     1     -27.404  18.976 -29.673  1.00  0.00    -0.369 OA
ATOM     48  H5  UNL     1     -27.522  18.639 -30.554  1.00  0.00     0.212 HD
ENDBRANCH  46  47
BRANCH  46  49
HETATM   49  O6  UNL     1     -25.360  19.408 -30.617  1.00  0.00    -0.369 OA
ATOM     50  H6  UNL     1     -25.646  18.593 -31.014  1.00  0.00     0.212 HD
ENDBRANCH  46  49
ENDBRANCH  42  46
ENDBRANCH  40  42
ENDBRANCH  37  40
ENDBRANCH   2  37
BRANCH   1  51
HETATM   51  C3  UNL     1     -26.374  19.629 -24.459  1.00  0.00     0.316 C 
BRANCH  51  52
HETATM   52  O2  UNL     1     -27.656  19.886 -25.028  1.00  0.00    -0.301 OA
BRANCH  52  53
HETATM   53  C2  UNL     1     -28.140  21.165 -25.165  1.00  0.00     0.256 C 
HETATM   54  C1  UNL     1     -27.318  22.344 -25.472  1.00  0.00     0.126 C 
HETATM   55  O1  UNL     1     -29.399  21.313 -25.009  1.00  0.00    -0.266 OA
ENDBRANCH  52  53
ENDBRANCH  51  52
ENDBRANCH   1  51
TORSDOF 17
ENDMDL
MODEL 2
REMARK VINA RESULT: -9.339577806      1.101      1.661
REMARK  17 active torsions:
REMARK  status: ('A' for Active; 'I' for Inactive)
REMARK    1  A    between atoms: C2_2  and  O2_4 
REMARK    2  A    between atoms: O2_4  and  C3_5 
REMARK    3  A    between atoms: C3_5  and  N1_6 
REMARK    4  A    between atoms: C4_7  and  C5_8 
REMARK    5  A    between atoms: C5_8  and  O3_9 
REMARK    6  A    between atoms: C5_8  and  N2_11 
REMARK    7  A    between atoms: N2_11  and  C6_13 
REMARK    8  A    between atoms: C6_13  and  C7_14 
REMARK    9  A    between atoms: C6_13  and  C8_17 
REMARK   10  A    between atoms: C7_14  and  O4_15 
REMARK   11  A    between atoms: C8_17  and  O5_18 
REMARK   12  A    between atoms: C8_17  and  O6_20 
REMARK   13  A    between atoms: C9_24  and  C10_25 
REMARK   14  A    between atoms: C12_27  and  N4_28 
REMARK   15  A    between atoms: N4_28  and  C13_30 
REMARK   16  A    between atoms: C14_33  and  N6_34 
REMARK   17  A    between atoms: C16_44  and  O7_45 
ROOT
HETATM    1  N1  UNL     1     -25.994  17.860 -23.861  1.00  0.00    -0.259 N 
HETATM    2  C4  UNL     1     -25.892  17.081 -24.926  1.00  0.00     0.166 A 
HETATM    3  N3  UNL     1     -25.672  15.722 -24.706  1.00  0.00    -0.324 N 
ATOM      4  H3  UNL     1     -25.589  15.098 -25.509  1.00  0.00     0.169 HD
HETATM    5  C9  UNL     1     -25.567  15.221 -23.491  1.00  0.00     0.121 A 
HETATM    6  N11 UNL     1     -25.676  16.048 -22.435  1.00  0.00    -0.293 N 
ATOM      7  H11 UNL     1     -25.594  15.659 -21.495  1.00  0.00     0.172 HD
HETATM    8  C20 UNL     1     -25.887  17.357 -22.570  1.00  0.00     0.331 A 
HETATM    9  O9  UNL     1     -25.991  18.144 -21.583  1.00  0.00    -0.246 OA
ENDROOT
BRANCH   5  10
HETATM   10  C10 UNL     1     -25.337  13.796 -23.226  1.00  0.00     0.014 C 
HETATM   11  C11 UNL     1     -24.049  13.333 -23.388  1.00  0.00     0.048 C 
HETATM   12  C12 UNL     1     -23.491  12.103 -23.070  1.00  0.00     0.085 C 
HETATM   13  C16 UNL     1     -24.042  11.143 -22.255  1.00  0.00     0.121 C 
HETATM   14  C17 UNL     1     -25.385  10.869 -22.040  1.00  0.00     0.131 C 
HETATM   15  N10 UNL     1     -25.667   9.618 -21.448  1.00  0.00    -0.095 NA
HETATM   16  C18 UNL     1     -26.440  11.707 -22.353  1.00  0.00     0.199 C 
HETATM   17  O8  UNL     1     -27.567  11.194 -22.167  1.00  0.00    -0.286 OA
HETATM   18  C19 UNL     1     -26.406  13.019 -22.837  1.00  0.00     0.072 C 
BRANCH  12  19
HETATM   19  N4  UNL     1     -22.242  11.779 -23.627  1.00  0.00    -0.189 N 
ATOM     20  H4  UNL     1     -21.405  12.185 -23.209  1.00  0.00     0.184 HD
BRANCH  19  21
HETATM   21  C13 UNL     1     -22.089  10.912 -24.749  1.00  0.00     0.684 A 
HETATM   22  N5  UNL     1     -23.012  10.837 -25.618  1.00  0.00    -0.179 N 
HETATM   23  C14 UNL     1     -22.964   9.990 -26.797  1.00  0.00     0.403 A 
ATOM     24  H5  UNL     1     -23.844  11.411 -25.479  1.00  0.00     0.181 HD
HETATM   25  N7  UNL     1     -21.741   9.227 -26.886  1.00  0.00    -0.320 N 
HETATM   26  C15 UNL     1     -20.786   9.268 -26.038  1.00  0.00     0.205 A 
ATOM     27  H7  UNL     1     -21.631   8.607 -27.688  1.00  0.00     0.166 HD
HETATM   28  N8  UNL     1     -19.633   8.475 -26.230  1.00  0.00    -0.063 NA
HETATM   29  N9  UNL     1     -20.919  10.120 -24.923  1.00  0.00    -0.164 N 
ATOM     30  H9  UNL     1     -20.168  10.170 -24.234  1.00  0.00     0.187 HD
BRANCH  23  31
HETATM   31  N6  UNL     1     -24.068   9.059 -26.711  1.00  0.00    -0.040 N 
ATOM     32  H63 UNL     1     -23.960   8.384 -25.954  1.00  0.00     0.279 HD
ATOM     33  H62 UNL     1     -24.929   9.494 -26.380  1.00  0.00     0.279 HD
ATOM     34  H61 UNL     1     -24.171   8.619 -27.626  1.00  0.00     0.279 HD
ENDBRANCH  23  31
ENDBRANCH  19  21
ENDBRANCH  12  19
BRANCH  13  35
HETATM   35  O7  UNL     1     -23.195  10.322 -21.536  1.00  0.00    -0.357 OA
ATOM     36  H7  UNL     1     -23.576   9.692 -20.936  1.00  0.00     0.218 HD
ENDBRANCH  13  35
ENDBRANCH   5  10
BRANCH   2  37
HETATM   37  C5  UNL     1     -25.963  17.536 -26.289  1.00  0.00     0.182 C 
BRANCH  37  38
HETATM   38  O3  UNL     1     -26.976  16.965 -26.941  1.00  0.00    -0.344 OA
ATOM     39  H3  UNL     1     -26.923  17.128 -27.875  1.00  0.00     0.219 HD
ENDBRANCH  37  38
BRANCH  37  40
HETATM   40  N2  UNL     1     -25.226  18.414 -27.059  1.00  0.00    -0.356 N 
ATOM     41  H2  UNL     1     -24.225  18.277 -27.194  1.00  0.00     0.162 HD
BRANCH  40  42
HETATM   42  C6  UNL     1     -25.930  19.564 -27.685  1.00  0.00     0.162 C 
BRANCH  42  43
HETATM   43  C7  UNL     1     -26.218  19.279 -29.126  1.00  0.00     0.194 C 
BRANCH  43  44
HETATM   44  O4  UNL     1     -25.430  20.017 -29.995  1.00  0.00    -0.399 OA
ATOM     45  H4  UNL     1     -25.839  20.828 -30.273  1.00  0.00     0.209 HD
ENDBRANCH  43  44
ENDBRANCH  42  43
BRANCH  42  46
HETATM   46  C8  UNL     1     -25.008  20.751 -27.566  1.00  0.00     0.278 C 
BRANCH  46  47
HETATM   47  O5  UNL     1     -24.253  20.680 -26.397  1.00  0.00    -0.369 OA
ATOM     48  H5  UNL     1     -23.417  21.118 -26.506  1.00  0.00     0.212 HD
ENDBRANCH  46  47
BRANCH  46  49
HETATM   49  O6  UNL     1     -25.777  21.915 -27.584  1.00  0.00    -0.369 OA
ATOM     50  H6  UNL     1     -25.998  22.145 -26.689  1.00  0.00     0.212 HD
ENDBRANCH  46  49
ENDBRANCH  42  46
ENDBRANCH  40  42
ENDBRANCH  37  40
ENDBRANCH   2  37
BRANCH   1  51
HETATM   51  C3  UNL     1     -26.225  19.273 -23.916  1.00  0.00     0.316 C 
BRANCH  51  52
HETATM   52  O2  UNL     1     -27.486  19.620 -24.483  1.00  0.00    -0.301 OA
BRANCH  52  53
HETATM   53  C2  UNL     1     -27.780  20.912 -24.851  1.00  0.00     0.256 C 
HETATM   54  C1  UNL     1     -29.131  21.413 -25.140  1.00  0.00     0.126 C 
HETATM   55  O1  UNL     1     -26.791  21.714 -24.939  1.00  0.00    -0.266 OA
ENDBRANCH  52  53
ENDBRANCH  51  52
ENDBRANCH   1  51
TORSDOF 17
ENDMDL
MODEL 3
REMARK VINA RESULT: -9.314398049      0.609      1.261
REMARK  17 active torsions:
REMARK  status: ('A' for Active; 'I' for Inactive)
REMARK    1  A    between atoms: C2_2  and  O2_4 
REMARK    2  A    between atoms: O2_4  and  C3_5 
REMARK    3  A    between atoms: C3_5  and  N1_6 
REMARK    4  A    between atoms: C4_7  and  C5_8 
REMARK    5  A    between atoms: C5_8  and  O3_9 
REMARK    6  A    between atoms: C5_8  and  N2_11 
REMARK    7  A    between atoms: N2_11  and  C6_13 
REMARK    8  A    between atoms: C6_13  and  C7_14 
REMARK    9  A    between atoms: C6_13  and  C8_17 
REMARK   10  A    between atoms: C7_14  and  O4_15 
REMARK   11  A    between atoms: C8_17  and  O5_18 
REMARK   12  A    between atoms: C8_17  and  O6_20 
REMARK   13  A    between atoms: C9_24  and  C10_25 
REMARK   14  A    between atoms: C12_27  and  N4_28 
REMARK   15  A    between atoms: N4_28  and  C13_30 
REMARK   16  A    between atoms: C14_33  and  N6_34 
REMARK   17  A    between atoms: C16_44  and  O7_45 
ROOT
HETATM    1  N1  UNL     1     -26.082  18.256 -24.304  1.00  0.00    -0.259 N 
HETATM    2  C4  UNL     1     -26.005  17.383 -25.296  1.00  0.00     0.166 A 
HETATM    3  N3  UNL     1     -25.747  16.055 -24.960  1.00  0.00    -0.324 N 
ATOM      4  H3  UNL     1     -25.682  15.359 -25.703  1.00  0.00     0.169 HD
HETATM    5  C9  UNL     1     -25.583  15.672 -23.708  1.00  0.00     0.121 A 
HETATM    6  N11 UNL     1     -25.668  16.592 -22.730  1.00  0.00    -0.293 N 
ATOM      7  H11 UNL     1     -25.541  16.294 -21.763  1.00  0.00     0.172 HD
HETATM    8  C20 UNL     1     -25.913  17.878 -22.977  1.00  0.00     0.331 A 
HETATM    9  O9  UNL     1     -25.995  18.752 -22.065  1.00  0.00    -0.246 OA
ENDROOT
BRANCH   5  10
HETATM   10  C10 UNL     1     -25.311  14.283 -23.322  1.00  0.00     0.014 C 
HETATM   11  C11 UNL     1     -23.989  13.896 -23.279  1.00  0.00     0.048 C 
HETATM   12  C12 UNL     1     -23.411  12.725 -22.809  1.00  0.00     0.085 C 
HETATM   13  C16 UNL     1     -24.014  11.779 -22.015  1.00  0.00     0.121 C 
HETATM   14  C17 UNL     1     -25.356  11.431 -21.964  1.00  0.00     0.131 C 
HETATM   15  N10 UNL     1     -25.646  10.200 -21.334  1.00  0.00    -0.095 NA
HETATM   16  C18 UNL     1     -26.404  12.180 -22.470  1.00  0.00     0.199 C 
HETATM   17  O8  UNL     1     -27.515  11.606 -22.403  1.00  0.00    -0.286 OA
HETATM   18  C19 UNL     1     -26.377  13.460 -23.029  1.00  0.00     0.072 C 
BRANCH  12  19
HETATM   19  N4  UNL     1     -22.081  12.452 -23.171  1.00  0.00    -0.189 N 
ATOM     20  H4  UNL     1     -21.337  12.987 -22.724  1.00  0.00     0.184 HD
BRANCH  19  21
HETATM   21  C13 UNL     1     -21.722  11.462 -24.134  1.00  0.00     0.684 A 
HETATM   22  N5  UNL     1     -20.536  11.008 -24.158  1.00  0.00    -0.179 N 
HETATM   23  C14 UNL     1     -20.060  10.002 -25.091  1.00  0.00     0.403 A 
ATOM     24  H5  UNL     1     -19.872  11.375 -23.475  1.00  0.00     0.181 HD
HETATM   25  N7  UNL     1     -21.086   9.560 -26.005  1.00  0.00    -0.320 N 
HETATM   26  C15 UNL     1     -22.290   9.986 -26.021  1.00  0.00     0.205 A 
ATOM     27  H7  UNL     1     -20.829   8.852 -26.693  1.00  0.00     0.166 HD
HETATM   28  N8  UNL     1     -23.210   9.479 -26.965  1.00  0.00    -0.063 NA
HETATM   29  N9  UNL     1     -22.665  10.964 -25.076  1.00  0.00    -0.164 N 
ATOM     30  H9  UNL     1     -23.622  11.317 -25.069  1.00  0.00     0.187 HD
BRANCH  23  31
HETATM   31  N6  UNL     1     -18.993  10.597 -25.867  1.00  0.00    -0.040 N 
ATOM     32  H63 UNL     1     -19.298  10.906 -26.790  1.00  0.00     0.279 HD
ATOM     33  H62 UNL     1     -18.702  11.507 -25.510  1.00  0.00     0.279 HD
ATOM     34  H61 UNL     1     -18.228   9.922 -25.906  1.00  0.00     0.279 HD
ENDBRANCH  23  31
ENDBRANCH  19  21
ENDBRANCH  12  19
BRANCH  13  35
HETATM   35  O7  UNL     1     -23.230  11.058 -21.136  1.00  0.00    -0.357 OA
ATOM     36  H7  UNL     1     -23.657  10.562 -20.448  1.00  0.00     0.218 HD
ENDBRANCH  13  35
ENDBRANCH   5  10
BRANCH   2  37
HETATM   37  C5  UNL     1     -26.139  17.706 -26.690  1.00  0.00     0.182 C 
BRANCH  37  38
HETATM   38  O3  UNL     1     -25.805  16.673 -27.464  1.00  0.00    -0.344 OA
ATOM     39  H3  UNL     1     -26.524  16.415 -28.028  1.00  0.00     0.219 HD
ENDBRANCH  37  38
BRANCH  37  40
HETATM   40  N2  UNL     1     -26.528  18.829 -27.393  1.00  0.00    -0.356 N 
ATOM     41  H2  UNL     1     -27.471  19.204 -27.299  1.00  0.00     0.162 HD
BRANCH  40  42
HETATM   42  C6  UNL     1     -25.536  19.478 -28.291  1.00  0.00     0.162 C 
BRANCH  42  43
HETATM   43  C7  UNL     1     -25.094  20.790 -27.723  1.00  0.00     0.194 C 
BRANCH  43  44
HETATM   44  O4  UNL     1     -23.917  20.700 -26.997  1.00  0.00    -0.399 OA
ATOM     45  H4  UNL     1     -23.476  21.536 -26.897  1.00  0.00     0.209 HD
ENDBRANCH  43  44
ENDBRANCH  42  43
BRANCH  42  46
HETATM   46  C8  UNL     1     -26.227  19.692 -29.614  1.00  0.00     0.278 C 
BRANCH  46  47
HETATM   47  O5  UNL     1     -27.406  18.952 -29.686  1.00  0.00    -0.369 OA
ATOM     48  H5  UNL     1     -27.224  18.042 -29.890  1.00  0.00     0.212 HD
ENDBRANCH  46  47
BRANCH  46  49
HETATM   49  O6  UNL     1     -25.353  19.325 -30.637  1.00  0.00    -0.369 OA
ATOM     50  H6  UNL     1     -25.852  18.891 -31.320  1.00  0.00     0.212 HD
ENDBRANCH  46  49
ENDBRANCH  42  46
ENDBRANCH  40  42
ENDBRANCH  37  40
ENDBRANCH   2  37
BRANCH   1  51
HETATM   51  C3  UNL     1     -26.347  19.653 -24.480  1.00  0.00     0.316 C 
BRANCH  51  52
HETATM   52  O2  UNL     1     -27.634  19.923 -25.030  1.00  0.00    -0.301 OA
BRANCH  52  53
HETATM   53  C2  UNL     1     -28.106  21.206 -25.164  1.00  0.00     0.256 C 
HETATM   54  C1  UNL     1     -27.277  22.373 -25.498  1.00  0.00     0.126 C 
HETATM   55  O1  UNL     1     -29.359  21.370 -24.980  1.00  0.00    -0.266 OA
ENDBRANCH  52  53
ENDBRANCH  51  52
ENDBRANCH   1  51
TORSDOF 17
ENDMDL
MODEL 4
REMARK VINA RESULT: -9.270453722      1.251      2.078
REMARK  17 active torsions:
REMARK  status: ('A' for Active; 'I' for Inactive)
REMARK    1  A    between atoms: C2_2  and  O2_4 
REMARK    2  A    between atoms: O2_4  and  C3_5 
REMARK    3  A    between atoms: C3_5  and  N1_6 
REMARK    4  A    between atoms: C4_7  and  C5_8 
REMARK    5  A    between atoms: C5_8  and  O3_9 
REMARK    6  A    between atoms: C5_8  and  N2_11 
REMARK    7  A    between atoms: N2_11  and  C6_13 
REMARK    8  A    between atoms: C6_13  and  C7_14 
REMARK    9  A    between atoms: C6_13  and  C8_17 
REMARK   10  A    between atoms: C7_14  and  O4_15 
REMARK   11  A    between atoms: C8_17  and  O5_18 
REMARK   12  A    between atoms: C8_17  and  O6_20 
REMARK   13  A    between atoms: C9_24  and  C10_25 
REMARK   14  A    between atoms: C12_27  and  N4_28 
REMARK   15  A    between atoms: N4_28  and  C13_30 
REMARK   16  A    between atoms: C14_33  and  N6_34 
REMARK   17  A    between atoms: C16_44  and  O7_45 
ROOT
HETATM    1  N1  UNL     1     -25.937  17.888 -23.888  1.00  0.00    -0.259 N 
HETATM    2  C4  UNL     1     -25.849  17.123 -24.964  1.00  0.00     0.166 A 
HETATM    3  N3  UNL     1     -25.650  15.758 -24.763  1.00  0.00    -0.324 N 
ATOM      4  H3  UNL     1     -25.579  15.143 -25.573  1.00  0.00     0.169 HD
HETATM    5  C9  UNL     1     -25.551  15.239 -23.554  1.00  0.00     0.121 A 
HETATM    6  N11 UNL     1     -25.644  16.053 -22.487  1.00  0.00    -0.293 N 
ATOM      7  H11 UNL     1     -25.567  15.650 -21.553  1.00  0.00     0.172 HD
HETATM    8  C20 UNL     1     -25.835  17.366 -22.604  1.00  0.00     0.331 A 
HETATM    9  O9  UNL     1     -25.925  18.142 -21.607  1.00  0.00    -0.246 OA
ENDROOT
BRANCH   5  10
HETATM   10  C10 UNL     1     -25.341  13.807 -23.309  1.00  0.00     0.014 C 
HETATM   11  C11 UNL     1     -24.093  13.301 -23.601  1.00  0.00     0.048 C 
HETATM   12  C12 UNL     1     -23.547  12.053 -23.339  1.00  0.00     0.085 C 
HETATM   13  C16 UNL     1     -24.042  11.113 -22.467  1.00  0.00     0.121 C 
HETATM   14  C17 UNL     1     -25.364  10.883 -22.113  1.00  0.00     0.131 C 
HETATM   15  N10 UNL     1     -25.625   9.643 -21.490  1.00  0.00    -0.095 NA
HETATM   16  C18 UNL     1     -26.417  11.757 -22.318  1.00  0.00     0.199 C 
HETATM   17  O8  UNL     1     -27.535  11.282 -22.014  1.00  0.00    -0.286 OA
HETATM   18  C19 UNL     1     -26.389  13.066 -22.808  1.00  0.00     0.072 C 
BRANCH  12  19
HETATM   19  N4  UNL     1     -22.374  11.687 -24.020  1.00  0.00    -0.189 N 
ATOM     20  H4  UNL     1     -21.488  12.087 -23.711  1.00  0.00     0.184 HD
BRANCH  19  21
HETATM   21  C13 UNL     1     -22.363  10.784 -25.125  1.00  0.00     0.684 A 
HETATM   22  N5  UNL     1     -21.274  10.552 -25.737  1.00  0.00    -0.179 N 
HETATM   23  C14 UNL     1     -21.145   9.654 -26.871  1.00  0.00     0.403 A 
ATOM     24  H5  UNL     1     -20.434  11.029 -25.411  1.00  0.00     0.181 HD
HETATM   25  N7  UNL     1     -22.398   9.039 -27.240  1.00  0.00    -0.320 N 
HETATM   26  C15 UNL     1     -23.517   9.240 -26.657  1.00  0.00     0.205 A 
ATOM     27  H7  UNL     1     -22.390   8.393 -28.030  1.00  0.00     0.166 HD
HETATM   28  N8  UNL     1     -24.681   8.581 -27.107  1.00  0.00    -0.063 NA
HETATM   29  N9  UNL     1     -23.548  10.129 -25.562  1.00  0.00    -0.164 N 
ATOM     30  H9  UNL     1     -24.430  10.304 -25.080  1.00  0.00     0.187 HD
BRANCH  23  31
HETATM   31  N6  UNL     1     -20.680  10.435 -27.996  1.00  0.00    -0.040 N 
ATOM     32  H63 UNL     1     -21.414  11.011 -28.411  1.00  0.00     0.279 HD
ATOM     33  H62 UNL     1     -20.055  11.193 -27.722  1.00  0.00     0.279 HD
ATOM     34  H61 UNL     1     -20.255   9.791 -28.664  1.00  0.00     0.279 HD
ENDBRANCH  23  31
ENDBRANCH  19  21
ENDBRANCH  12  19
BRANCH  13  35
HETATM   35  O7  UNL     1     -23.153  10.264 -21.836  1.00  0.00    -0.357 OA
ATOM     36  H7  UNL     1     -22.921  10.441 -20.932  1.00  0.00     0.218 HD
ENDBRANCH  13  35
ENDBRANCH   5  10
BRANCH   2  37
HETATM   37  C5  UNL     1     -25.916  17.596 -26.320  1.00  0.00     0.182 C 
BRANCH  37  38
HETATM   38  O3  UNL     1     -26.924  17.030 -26.985  1.00  0.00    -0.344 OA
ATOM     39  H3  UNL     1     -27.321  17.639 -27.596  1.00  0.00     0.219 HD
ENDBRANCH  37  38
BRANCH  37  40
HETATM   40  N2  UNL     1     -25.180  18.489 -27.074  1.00  0.00    -0.356 N 
ATOM     41  H2  UNL     1     -24.173  18.375 -27.181  1.00  0.00     0.162 HD
BRANCH  40  42
HETATM   42  C6  UNL     1     -25.894  19.619 -27.724  1.00  0.00     0.162 C 
BRANCH  42  43
HETATM   43  C7  UNL     1     -26.186  19.299 -29.157  1.00  0.00     0.194 C 
BRANCH  43  44
HETATM   44  O4  UNL     1     -25.411  20.027 -30.046  1.00  0.00    -0.399 OA
ATOM     45  H4  UNL     1     -25.799  20.862 -30.283  1.00  0.00     0.209 HD
ENDBRANCH  43  44
ENDBRANCH  42  43
BRANCH  42  46
HETATM   46  C8  UNL     1     -24.980  20.814 -27.636  1.00  0.00     0.278 C 
BRANCH  46  47
HETATM   47  O5  UNL     1     -24.162  20.735 -26.510  1.00  0.00    -0.369 OA
ATOM     48  H5  UNL     1     -24.100  21.577 -26.075  1.00  0.00     0.212 HD
ENDBRANCH  46  47
BRANCH  46  49
HETATM   49  O6  UNL     1     -25.760  21.970 -27.596  1.00  0.00    -0.369 OA
ATOM     50  H6  UNL     1     -25.188  22.724 -27.679  1.00  0.00     0.212 HD
ENDBRANCH  46  49
ENDBRANCH  42  46
ENDBRANCH  40  42
ENDBRANCH  37  40
ENDBRANCH   2  37
BRANCH   1  51
HETATM   51  C3  UNL     1     -26.147  19.305 -23.924  1.00  0.00     0.316 C 
BRANCH  51  52
HETATM   52  O2  UNL     1     -27.393  19.681 -24.505  1.00  0.00    -0.301 OA
BRANCH  52  53
HETATM   53  C2  UNL     1     -27.657  20.980 -24.867  1.00  0.00     0.256 C 
HETATM   54  C1  UNL     1     -28.988  21.498 -25.215  1.00  0.00     0.126 C 
HETATM   55  O1  UNL     1     -26.658  21.775 -24.895  1.00  0.00    -0.266 OA
ENDBRANCH  52  53
ENDBRANCH  51  52
ENDBRANCH   1  51
TORSDOF 17
ENDMDL
MODEL 5
REMARK VINA RESULT: -9.116789891      2.091      3.665
REMARK  17 active torsions:
REMARK  status: ('A' for Active; 'I' for Inactive)
REMARK    1  A    between atoms: C2_2  and  O2_4 
REMARK    2  A    between atoms: O2_4  and  C3_5 
REMARK    3  A    between atoms: C3_5  and  N1_6 
REMARK    4  A    between atoms: C4_7  and  C5_8 
REMARK    5  A    between atoms: C5_8  and  O3_9 
REMARK    6  A    between atoms: C5_8  and  N2_11 
REMARK    7  A    between atoms: N2_11  and  C6_13 
REMARK    8  A    between atoms: C6_13  and  C7_14 
REMARK    9  A    between atoms: C6_13  and  C8_17 
REMARK   10  A    between atoms: C7_14  and  O4_15 
REMARK   11  A    between atoms: C8_17  and  O5_18 
REMARK   12  A    between atoms: C8_17  and  O6_20 
REMARK   13  A    between atoms: C9_24  and  C10_25 
REMARK   14  A    between atoms: C12_27  and  N4_28 
REMARK   15  A    between atoms: N4_28  and  C13_30 
REMARK   16  A    between atoms: C14_33  and  N6_34 
REMARK   17  A    between atoms: C16_44  and  O7_45 
ROOT
HETATM    1  N1  UNL     1     -26.104  17.714 -24.061  1.00  0.00    -0.259 N 
HETATM    2  C4  UNL     1     -25.720  17.008 -25.112  1.00  0.00     0.166 A 
HETATM    3  N3  UNL     1     -24.978  15.853 -24.870  1.00  0.00    -0.324 N 
ATOM      4  H3  UNL     1     -24.668  15.288 -25.661  1.00  0.00     0.169 HD
HETATM    5  C9  UNL     1     -24.664  15.470 -23.647  1.00  0.00     0.121 A 
HETATM    6  N11 UNL     1     -25.073  16.218 -22.606  1.00  0.00    -0.293 N 
ATOM      7  H11 UNL     1     -24.829  15.920 -21.661  1.00  0.00     0.172 HD
HETATM    8  C20 UNL     1     -25.786  17.333 -22.763  1.00  0.00     0.331 A 
HETATM    9  O9  UNL     1     -26.177  18.044 -21.790  1.00  0.00    -0.246 OA
ENDROOT
BRANCH   5  10
HETATM   10  C10 UNL     1     -23.885  14.260 -23.359  1.00  0.00     0.014 C 
HETATM   11  C11 UNL     1     -24.196  13.131 -24.086  1.00  0.00     0.048 C 
HETATM   12  C12 UNL     1     -23.552  11.904 -24.157  1.00  0.00     0.085 C 
HETATM   13  C16 UNL     1     -22.279  11.624 -23.721  1.00  0.00     0.121 C 
HETATM   14  C17 UNL     1     -21.585  12.207 -22.670  1.00  0.00     0.131 C 
HETATM   15  N10 UNL     1     -20.453  11.496 -22.215  1.00  0.00    -0.095 NA
HETATM   16  C18 UNL     1     -21.909  13.402 -22.054  1.00  0.00     0.199 C 
HETATM   17  O8  UNL     1     -21.198  13.668 -21.057  1.00  0.00    -0.286 OA
HETATM   18  C19 UNL     1     -22.902  14.325 -22.395  1.00  0.00     0.072 C 
BRANCH  12  19
HETATM   19  N4  UNL     1     -24.249  10.823 -24.723  1.00  0.00    -0.189 N 
ATOM     20  H4  UNL     1     -24.063  10.582 -25.696  1.00  0.00     0.184 HD
BRANCH  19  21
HETATM   21  C13 UNL     1     -25.204  10.047 -24.001  1.00  0.00     0.684 A 
HETATM   22  N5  UNL     1     -25.573  10.419 -22.844  1.00  0.00    -0.179 N 
HETATM   23  C14 UNL     1     -26.537   9.709 -22.022  1.00  0.00     0.403 A 
ATOM     24  H5  UNL     1     -25.166  11.275 -22.468  1.00  0.00     0.181 HD
HETATM   25  N7  UNL     1     -27.043   8.517 -22.659  1.00  0.00    -0.320 N 
HETATM   26  C15 UNL     1     -26.702   8.102 -23.819  1.00  0.00     0.205 A 
ATOM     27  H7  UNL     1     -27.726   7.962 -22.144  1.00  0.00     0.166 HD
HETATM   28  N8  UNL     1     -27.265   6.917 -24.342  1.00  0.00    -0.063 NA
HETATM   29  N9  UNL     1     -25.760   8.856 -24.548  1.00  0.00    -0.164 N 
ATOM     30  H9  UNL     1     -25.474   8.545 -25.476  1.00  0.00     0.187 HD
BRANCH  23  31
HETATM   31  N6  UNL     1     -25.863   9.316 -20.803  1.00  0.00    -0.040 N 
ATOM     32  H63 UNL     1     -26.234   8.452 -20.406  1.00  0.00     0.279 HD
ATOM     33  H62 UNL     1     -24.910   8.991 -20.963  1.00  0.00     0.279 HD
ATOM     34  H61 UNL     1     -25.912  10.103 -20.156  1.00  0.00     0.279 HD
ENDBRANCH  23  31
ENDBRANCH  19  21
ENDBRANCH  12  19
BRANCH  13  35
HETATM   35  O7  UNL     1     -21.555  10.649 -24.378  1.00  0.00    -0.357 OA
ATOM     36  H7  UNL     1     -20.649  10.827 -24.600  1.00  0.00     0.218 HD
ENDBRANCH  13  35
ENDBRANCH   5  10
BRANCH   2  37
HETATM   37  C5  UNL     1     -25.987  17.357 -26.481  1.00  0.00     0.182 C 
BRANCH  37  38
HETATM   38  O3  UNL     1     -27.103  16.777 -26.923  1.00  0.00    -0.344 OA
ATOM     39  H3  UNL     1     -27.314  17.058 -27.805  1.00  0.00     0.219 HD
ENDBRANCH  37  38
BRANCH  37  40
HETATM   40  N2  UNL     1     -25.354  18.142 -27.424  1.00  0.00    -0.356 N 
ATOM     41  H2  UNL     1     -24.481  17.840 -27.855  1.00  0.00     0.162 HD
BRANCH  40  42
HETATM   42  C6  UNL     1     -25.977  19.442 -27.793  1.00  0.00     0.162 C 
BRANCH  42  43
HETATM   43  C7  UNL     1     -26.491  19.395 -29.197  1.00  0.00     0.194 C 
BRANCH  43  44
HETATM   44  O4  UNL     1     -25.530  19.725 -30.140  1.00  0.00    -0.399 OA
ATOM     45  H4  UNL     1     -25.723  19.382 -31.005  1.00  0.00     0.209 HD
ENDBRANCH  43  44
ENDBRANCH  42  43
BRANCH  42  46
HETATM   46  C8  UNL     1     -24.897  20.487 -27.670  1.00  0.00     0.278 C 
BRANCH  46  47
HETATM   47  O5  UNL     1     -24.229  20.374 -26.453  1.00  0.00    -0.369 OA
ATOM     48  H5  UNL     1     -23.935  21.224 -26.146  1.00  0.00     0.212 HD
ENDBRANCH  46  47
BRANCH  46  49
HETATM   49  O6  UNL     1     -25.482  21.747 -27.794  1.00  0.00    -0.369 OA
ATOM     50  H6  UNL     1     -24.851  22.337 -28.189  1.00  0.00     0.212 HD
ENDBRANCH  46  49
ENDBRANCH  42  46
ENDBRANCH  40  42
ENDBRANCH  37  40
ENDBRANCH   2  37
BRANCH   1  51
HETATM   51  C3  UNL     1     -26.876  18.919 -24.139  1.00  0.00     0.316 C 
BRANCH  51  52
HETATM   52  O2  UNL     1     -26.083  20.093 -24.299  1.00  0.00    -0.301 OA
BRANCH  52  53
HETATM   53  C2  UNL     1     -26.619  21.266 -24.773  1.00  0.00     0.256 C 
HETATM   54  C1  UNL     1     -27.992  21.416 -25.277  1.00  0.00     0.126 C 
HETATM   55  O1  UNL     1     -25.850  22.285 -24.763  1.00  0.00    -0.266 OA
ENDBRANCH  52  53
ENDBRANCH  51  52
ENDBRANCH   1  51
TORSDOF 17
ENDMDL
