MODEL 1
REMARK VINA RESULT: -9.748272380      0.000      0.000
REMARK  12 active torsions:
REMARK  status: ('A' for Active; 'I' for Inactive)
REMARK    1  A    between atoms: N4_10  and  N5_11 
REMARK    2  A    between atoms: N7_17  and  C4_18 
REMARK    3  A    between atoms: C6_20  and  N8_21 
REMARK    4  A    between atoms: C8_23  and  C9_24 
REMARK    5  A    between atoms: N10_27  and  C10_28 
REMARK    6  A    between atoms: C10_28  and  C11_29 
REMARK    7  A    between atoms: C11_29  and  O1_30 
REMARK    8  A    between atoms: C11_29  and  C12_32 
REMARK    9  A    between atoms: C12_32  and  O2_33 
REMARK   10  A    between atoms: C13_35  and  S1_36 
REMARK   11  A    between atoms: C14_40  and  O6_41 
REMARK   12  A    between atoms: N13_47  and  N14_48 
REMARK       I    between atoms: N14_48  and  C15_50 
ROOT
HETATM    1  C4  UNL     1     -26.794  21.993 -25.598  1.00  0.00     0.149 A 
HETATM    2  C5  UNL     1     -26.697  20.829 -24.893  1.00  0.00     0.106 A 
HETATM    3  C6  UNL     1     -26.592  19.799 -25.810  1.00  0.00     0.171 A 
HETATM    4  N13 UNL     1     -26.627  20.362 -27.050  1.00  0.00    -0.172 N 
HETATM    5  N16 UNL     1     -26.747  21.648 -26.887  1.00  0.00    -0.261 N 
ATOM      6  H16 UNL     1     -26.800  22.316 -27.656  1.00  0.00     0.191 HD
ENDROOT
BRANCH   3   7
HETATM    7  N8  UNL     1     -26.469  18.405 -25.578  1.00  0.00    -0.231 N 
HETATM    8  C7  UNL     1     -25.793  17.831 -24.539  1.00  0.00     0.153 A 
HETATM    9  C8  UNL     1     -25.889  16.476 -24.639  1.00  0.00     0.098 A 
HETATM   10  N11 UNL     1     -26.619  16.232 -25.735  1.00  0.00    -0.282 N 
HETATM   11  N12 UNL     1     -26.949  17.385 -26.271  1.00  0.00    -0.234 N 
ATOM     12  H11 UNL     1     -26.874  15.312 -26.091  1.00  0.00     0.188 HD
ATOM     13  H12 UNL     1     -27.508  17.483 -27.119  1.00  0.00     0.209 HD
BRANCH   9  14
HETATM   14  C9  UNL     1     -25.319  15.448 -23.746  1.00  0.00     0.114 A 
HETATM   15  N9  UNL     1     -25.974  14.439 -23.211  1.00  0.00    -0.292 N 
HETATM   16  N10 UNL     1     -25.126  13.699 -22.445  1.00  0.00    -0.274 N 
ATOM     17  H9  UNL     1     -26.965  14.241 -23.349  1.00  0.00     0.187 HD
HETATM   18  C13 UNL     1     -23.928  14.221 -22.483  1.00  0.00     0.203 A 
HETATM   19  C14 UNL     1     -24.020  15.355 -23.316  1.00  0.00     0.139 A 
BRANCH  16  20
HETATM   20  C10 UNL     1     -25.692  12.610 -21.679  1.00  0.00     0.184 C 
BRANCH  20  21
HETATM   21  C11 UNL     1     -25.935  11.405 -22.573  1.00  0.00     0.161 C 
BRANCH  21  22
HETATM   22  O1  UNL     1     -27.233  10.923 -22.207  1.00  0.00    -0.392 OA
ATOM     23  H1  UNL     1     -27.204  10.822 -21.262  1.00  0.00     0.210 HD
ENDBRANCH  21  22
BRANCH  21  24
HETATM   24  C12 UNL     1     -25.008  10.270 -22.456  1.00  0.00     0.197 C 
BRANCH  24  25
HETATM   25  O2  UNL     1     -23.994  10.453 -21.540  1.00  0.00    -0.398 OA
ATOM     26  H2  UNL     1     -23.418   9.705 -21.436  1.00  0.00     0.209 HD
ENDBRANCH  24  25
ENDBRANCH  21  24
ENDBRANCH  20  21
ENDBRANCH  16  20
BRANCH  18  27
HETATM   27  S1  UNL     1     -22.435  13.631 -21.808  1.00  0.00     0.159 S 
HETATM   28  O3  UNL     1     -22.592  13.060 -20.432  1.00  0.00    -0.590 OA
HETATM   29  O4  UNL     1     -21.292  14.561 -21.957  1.00  0.00    -0.590 OA
HETATM   30  O5  UNL     1     -22.049  12.246 -22.762  1.00  0.00    -0.590 OA
ENDBRANCH  18  27
BRANCH  19  31
HETATM   31  O6  UNL     1     -22.983  16.200 -23.625  1.00  0.00    -0.356 OA
ATOM     32  H6  UNL     1     -22.908  17.121 -23.404  1.00  0.00     0.218 HD
ENDBRANCH  19  31
ENDBRANCH   9  14
ENDBRANCH   3   7
BRANCH   4  33
HETATM   33  N14 UNL     1     -26.552  19.709 -28.279  1.00  0.00    -0.231 N 
HETATM   34  C15 UNL     1     -25.594  20.087 -29.235  1.00  0.00     0.348 C 
HETATM   35  N15 UNL     1     -25.524  19.420 -30.476  1.00  0.00    -0.038 NA
HETATM   36  O7  UNL     1     -24.795  21.016 -28.996  1.00  0.00    -0.249 OA
ATOM     37  H14 UNL     1     -27.199  18.948 -28.488  1.00  0.00     0.193 HD
ENDBRANCH   4  33
BRANCH   1  38
HETATM   38  N7  UNL     1     -26.921  23.343 -25.108  1.00  0.00    -0.218 N 
HETATM   39  C1  UNL     1     -28.074  24.022 -24.862  1.00  0.00     0.155 A 
HETATM   40  N1  UNL     1     -29.247  23.552 -25.036  1.00  0.00    -0.382 N 
HETATM   41  C2  UNL     1     -27.775  25.281 -24.403  1.00  0.00     0.144 A 
ATOM     42  H12 UNL     1     -30.112  24.061 -24.852  1.00  0.00     0.157 HD
ATOM     43  H11 UNL     1     -29.470  22.617 -25.377  1.00  0.00     0.157 HD
HETATM   44  N2  UNL     1     -28.217  26.495 -23.962  1.00  0.00    -0.278 N 
HETATM   45  C3  UNL     1     -26.407  25.361 -24.372  1.00  0.00     0.193 A 
HETATM   46  N3  UNL     1     -27.156  27.235 -23.690  1.00  0.00    -0.219 N 
ATOM     47  H2  UNL     1     -29.191  26.779 -23.859  1.00  0.00     0.189 HD
HETATM   48  N4  UNL     1     -26.040  26.586 -23.925  1.00  0.00    -0.168 N 
ATOM     49  H3  UNL     1     -27.199  28.193 -23.342  1.00  0.00     0.210 HD
HETATM   50  N6  UNL     1     -25.948  24.177 -24.803  1.00  0.00    -0.271 N 
ATOM     51  H6  UNL     1     -24.958  23.948 -24.884  1.00  0.00     0.189 HD
BRANCH  48  52
HETATM   52  N5  UNL     1     -24.745  27.065 -23.748  1.00  0.00    -0.321 N 
ATOM     53  H52 UNL     1     -24.142  26.931 -22.936  1.00  0.00     0.179 HD
ATOM     54  H51 UNL     1     -24.206  27.624 -24.409  1.00  0.00     0.179 HD
ENDBRANCH  48  52
ENDBRANCH   1  38
TORSDOF 12
ENDMDL
MODEL 2
REMARK VINA RESULT: -9.496526297      1.335      2.379
REMARK  12 active torsions:
REMARK  status: ('A' for Active; 'I' for Inactive)
REMARK    1  A    between atoms: N4_10  and  N5_11 
REMARK    2  A    between atoms: N7_17  and  C4_18 
REMARK    3  A    between atoms: C6_20  and  N8_21 
REMARK    4  A    between atoms: C8_23  and  C9_24 
REMARK    5  A    between atoms: N10_27  and  C10_28 
REMARK    6  A    between atoms: C10_28  and  C11_29 
REMARK    7  A    between atoms: C11_29  and  O1_30 
REMARK    8  A    between atoms: C11_29  and  C12_32 
REMARK    9  A    between atoms: C12_32  and  O2_33 
REMARK   10  A    between atoms: C13_35  and  S1_36 
REMARK   11  A    between atoms: C14_40  and  O6_41 
REMARK   12  A    between atoms: N13_47  and  N14_48 
REMARK       I    between atoms: N14_48  and  C15_50 
ROOT
HETATM    1  C4  UNL     1     -26.640  21.832 -25.523  1.00  0.00     0.149 A 
HETATM    2  C5  UNL     1     -26.556  20.687 -24.787  1.00  0.00     0.106 A 
HETATM    3  C6  UNL     1     -26.451  19.632 -25.676  1.00  0.00     0.171 A 
HETATM    4  N13 UNL     1     -26.473  20.163 -26.930  1.00  0.00    -0.172 N 
HETATM    5  N16 UNL     1     -26.586  21.454 -26.802  1.00  0.00    -0.261 N 
ATOM      6  H16 UNL     1     -26.628  22.102 -27.588  1.00  0.00     0.191 HD
ENDROOT
BRANCH   3   7
HETATM    7  N8  UNL     1     -26.339  18.244 -25.407  1.00  0.00    -0.231 N 
HETATM    8  C7  UNL     1     -25.499  17.680 -24.490  1.00  0.00     0.153 A 
HETATM    9  C8  UNL     1     -25.664  16.328 -24.508  1.00  0.00     0.098 A 
HETATM   10  N11 UNL     1     -26.599  16.076 -25.432  1.00  0.00    -0.282 N 
HETATM   11  N12 UNL     1     -26.982  17.222 -25.948  1.00  0.00    -0.234 N 
ATOM     12  H11 UNL     1     -26.953  15.155 -25.690  1.00  0.00     0.188 HD
ATOM     13  H12 UNL     1     -27.690  17.312 -26.678  1.00  0.00     0.209 HD
BRANCH   9  14
HETATM   14  C9  UNL     1     -24.972  15.309 -23.693  1.00  0.00     0.114 A 
HETATM   15  N9  UNL     1     -23.671  15.109 -23.647  1.00  0.00    -0.292 N 
HETATM   16  N10 UNL     1     -23.396  14.087 -22.791  1.00  0.00    -0.274 N 
ATOM     17  H9  UNL     1     -22.976  15.638 -24.172  1.00  0.00     0.187 HD
HETATM   18  C13 UNL     1     -24.509  13.628 -22.281  1.00  0.00     0.203 A 
HETATM   19  C14 UNL     1     -25.547  14.397 -22.847  1.00  0.00     0.139 A 
BRANCH  16  20
HETATM   20  C10 UNL     1     -22.023  13.642 -22.696  1.00  0.00     0.184 C 
BRANCH  20  21
HETATM   21  C11 UNL     1     -21.512  13.803 -21.274  1.00  0.00     0.161 C 
BRANCH  21  22
HETATM   22  O1  UNL     1     -20.560  14.871 -21.336  1.00  0.00    -0.392 OA
ATOM     23  H1  UNL     1     -20.780  15.443 -20.609  1.00  0.00     0.210 HD
ENDBRANCH  21  22
BRANCH  21  24
HETATM   24  C12 UNL     1     -20.828  12.655 -20.660  1.00  0.00     0.197 C 
BRANCH  24  25
HETATM   25  O2  UNL     1     -21.584  11.970 -19.732  1.00  0.00    -0.398 OA
ATOM     26  H2  UNL     1     -21.081  11.569 -19.034  1.00  0.00     0.209 HD
ENDBRANCH  24  25
ENDBRANCH  21  24
ENDBRANCH  20  21
ENDBRANCH  16  20
BRANCH  18  27
HETATM   27  S1  UNL     1     -24.755  12.426 -21.044  1.00  0.00     0.159 S 
HETATM   28  O3  UNL     1     -26.150  11.883 -21.014  1.00  0.00    -0.590 OA
HETATM   29  O4  UNL     1     -24.217  12.802 -19.717  1.00  0.00    -0.590 OA
HETATM   30  O5  UNL     1     -23.822  11.072 -21.570  1.00  0.00    -0.590 OA
ENDBRANCH  18  27
BRANCH  19  31
HETATM   31  O6  UNL     1     -26.886  14.241 -22.583  1.00  0.00    -0.356 OA
ATOM     32  H6  UNL     1     -27.495  14.911 -22.297  1.00  0.00     0.218 HD
ENDBRANCH  19  31
ENDBRANCH   9  14
ENDBRANCH   3   7
BRANCH   4  33
HETATM   33  N14 UNL     1     -26.392  19.479 -28.142  1.00  0.00    -0.231 N 
HETATM   34  C15 UNL     1     -25.594  19.966 -29.190  1.00  0.00     0.348 C 
HETATM   35  N15 UNL     1     -25.517  19.265 -30.412  1.00  0.00    -0.038 NA
HETATM   36  O7  UNL     1     -24.944  21.023 -29.050  1.00  0.00    -0.249 OA
ATOM     37  H14 UNL     1     -26.919  18.614 -28.270  1.00  0.00     0.193 HD
ENDBRANCH   4  33
BRANCH   1  38
HETATM   38  N7  UNL     1     -26.763  23.195 -25.069  1.00  0.00    -0.218 N 
HETATM   39  C1  UNL     1     -27.913  23.898 -24.882  1.00  0.00     0.155 A 
HETATM   40  N1  UNL     1     -29.086  23.444 -25.089  1.00  0.00    -0.382 N 
HETATM   41  C2  UNL     1     -27.609  25.163 -24.441  1.00  0.00     0.144 A 
ATOM     42  H12 UNL     1     -29.948  23.971 -24.949  1.00  0.00     0.157 HD
ATOM     43  H11 UNL     1     -29.312  22.505 -25.417  1.00  0.00     0.157 HD
HETATM   44  N2  UNL     1     -28.046  26.394 -24.044  1.00  0.00    -0.278 N 
HETATM   45  C3  UNL     1     -26.242  25.221 -24.360  1.00  0.00     0.193 A 
HETATM   46  N3  UNL     1     -26.983  27.123 -23.750  1.00  0.00    -0.219 N 
ATOM     47  H2  UNL     1     -29.018  26.696 -23.984  1.00  0.00     0.189 HD
HETATM   48  N4  UNL     1     -25.871  26.450 -23.927  1.00  0.00    -0.168 N 
ATOM     49  H3  UNL     1     -27.023  28.089 -23.425  1.00  0.00     0.210 HD
HETATM   50  N6  UNL     1     -25.787  24.020 -24.746  1.00  0.00    -0.271 N 
ATOM     51  H6  UNL     1     -24.799  23.773 -24.784  1.00  0.00     0.189 HD
BRANCH  48  52
HETATM   52  N5  UNL     1     -24.575  26.912 -23.712  1.00  0.00    -0.321 N 
ATOM     53  H52 UNL     1     -23.906  27.224 -24.416  1.00  0.00     0.179 HD
ATOM     54  H51 UNL     1     -24.102  27.007 -22.813  1.00  0.00     0.179 HD
ENDBRANCH  48  52
ENDBRANCH   1  38
TORSDOF 12
ENDMDL
MODEL 3
REMARK VINA RESULT: -9.387809017      0.484      1.321
REMARK  12 active torsions:
REMARK  status: ('A' for Active; 'I' for Inactive)
REMARK    1  A    between atoms: N4_10  and  N5_11 
REMARK    2  A    between atoms: N7_17  and  C4_18 
REMARK    3  A    between atoms: C6_20  and  N8_21 
REMARK    4  A    between atoms: C8_23  and  C9_24 
REMARK    5  A    between atoms: N10_27  and  C10_28 
REMARK    6  A    between atoms: C10_28  and  C11_29 
REMARK    7  A    between atoms: C11_29  and  O1_30 
REMARK    8  A    between atoms: C11_29  and  C12_32 
REMARK    9  A    between atoms: C12_32  and  O2_33 
REMARK   10  A    between atoms: C13_35  and  S1_36 
REMARK   11  A    between atoms: C14_40  and  O6_41 
REMARK   12  A    between atoms: N13_47  and  N14_48 
REMARK       I    between atoms: N14_48  and  C15_50 
ROOT
HETATM    1  C4  UNL     1     -26.550  22.081 -25.554  1.00  0.00     0.149 A 
HETATM    2  C5  UNL     1     -26.471  20.916 -24.848  1.00  0.00     0.106 A 
HETATM    3  C6  UNL     1     -26.459  19.880 -25.764  1.00  0.00     0.171 A 
HETATM    4  N13 UNL     1     -26.531  20.440 -27.003  1.00  0.00    -0.172 N 
HETATM    5  N16 UNL     1     -26.583  21.731 -26.841  1.00  0.00    -0.261 N 
ATOM      6  H16 UNL     1     -26.644  22.398 -27.610  1.00  0.00     0.191 HD
ENDROOT
BRANCH   3   7
HETATM    7  N8  UNL     1     -26.388  18.482 -25.531  1.00  0.00    -0.231 N 
HETATM    8  C7  UNL     1     -25.704  17.882 -24.513  1.00  0.00     0.153 A 
HETATM    9  C8  UNL     1     -25.861  16.532 -24.606  1.00  0.00     0.098 A 
HETATM   10  N11 UNL     1     -26.637  16.318 -25.676  1.00  0.00    -0.282 N 
HETATM   11  N12 UNL     1     -26.935  17.483 -26.205  1.00  0.00    -0.234 N 
ATOM     12  H11 UNL     1     -26.943  15.408 -26.021  1.00  0.00     0.188 HD
ATOM     13  H12 UNL     1     -27.516  17.602 -27.035  1.00  0.00     0.209 HD
BRANCH   9  14
HETATM   14  C9  UNL     1     -25.306  15.482 -23.729  1.00  0.00     0.114 A 
HETATM   15  N9  UNL     1     -25.975  14.472 -23.213  1.00  0.00    -0.292 N 
HETATM   16  N10 UNL     1     -25.139  13.709 -22.457  1.00  0.00    -0.274 N 
ATOM     17  H9  UNL     1     -26.967  14.288 -23.358  1.00  0.00     0.187 HD
HETATM   18  C13 UNL     1     -23.934  14.217 -22.482  1.00  0.00     0.203 A 
HETATM   19  C14 UNL     1     -24.010  15.366 -23.296  1.00  0.00     0.139 A 
BRANCH  16  20
HETATM   20  C10 UNL     1     -25.720  12.614 -21.712  1.00  0.00     0.184 C 
BRANCH  20  21
HETATM   21  C11 UNL     1     -25.963  11.423 -22.625  1.00  0.00     0.161 C 
BRANCH  21  22
HETATM   22  O1  UNL     1     -27.279  10.961 -22.295  1.00  0.00    -0.392 OA
ATOM     23  H1  UNL     1     -27.212  10.636 -21.404  1.00  0.00     0.210 HD
ENDBRANCH  21  22
BRANCH  21  24
HETATM   24  C12 UNL     1     -25.060  10.270 -22.499  1.00  0.00     0.197 C 
BRANCH  24  25
HETATM   25  O2  UNL     1     -24.040  10.441 -21.587  1.00  0.00    -0.398 OA
ATOM     26  H2  UNL     1     -23.691  11.323 -21.549  1.00  0.00     0.209 HD
ENDBRANCH  24  25
ENDBRANCH  21  24
ENDBRANCH  20  21
ENDBRANCH  16  20
BRANCH  18  27
HETATM   27  S1  UNL     1     -22.451  13.599 -21.812  1.00  0.00     0.159 S 
HETATM   28  O3  UNL     1     -22.620  12.998 -20.451  1.00  0.00    -0.590 OA
HETATM   29  O4  UNL     1     -21.298  14.520 -21.935  1.00  0.00    -0.590 OA
HETATM   30  O5  UNL     1     -22.073  12.231 -22.795  1.00  0.00    -0.590 OA
ENDBRANCH  18  27
BRANCH  19  31
HETATM   31  O6  UNL     1     -22.961  16.204 -23.587  1.00  0.00    -0.356 OA
ATOM     32  H6  UNL     1     -22.038  15.981 -23.608  1.00  0.00     0.218 HD
ENDBRANCH  19  31
ENDBRANCH   9  14
ENDBRANCH   3   7
BRANCH   4  33
HETATM   33  N14 UNL     1     -26.546  19.782 -28.232  1.00  0.00    -0.231 N 
HETATM   34  C15 UNL     1     -25.616  20.107 -29.233  1.00  0.00     0.348 C 
HETATM   35  N15 UNL     1     -25.638  19.434 -30.472  1.00  0.00    -0.038 NA
HETATM   36  O7  UNL     1     -24.759  20.994 -29.035  1.00  0.00    -0.249 OA
ATOM     37  H14 UNL     1     -27.241  19.055 -28.407  1.00  0.00     0.193 HD
ENDBRANCH   4  33
BRANCH   1  38
HETATM   38  N7  UNL     1     -26.591  23.437 -25.065  1.00  0.00    -0.218 N 
HETATM   39  C1  UNL     1     -25.547  24.175 -24.599  1.00  0.00     0.155 A 
HETATM   40  N1  UNL     1     -24.343  23.763 -24.521  1.00  0.00    -0.382 N 
HETATM   41  C2  UNL     1     -25.996  25.419 -24.229  1.00  0.00     0.144 A 
ATOM     42  H12 UNL     1     -23.560  24.316 -24.171  1.00  0.00     0.157 HD
ATOM     43  H11 UNL     1     -24.010  22.839 -24.795  1.00  0.00     0.157 HD
HETATM   44  N2  UNL     1     -25.713  26.656 -23.724  1.00  0.00    -0.278 N 
HETATM   45  C3  UNL     1     -27.343  25.430 -24.479  1.00  0.00     0.193 A 
HETATM   46  N3  UNL     1     -26.842  27.342 -23.686  1.00  0.00    -0.219 N 
ATOM     47  H2  UNL     1     -24.795  26.990 -23.430  1.00  0.00     0.189 HD
HETATM   48  N4  UNL     1     -27.853  26.637 -24.135  1.00  0.00    -0.168 N 
ATOM     49  H3  UNL     1     -26.918  28.302 -23.350  1.00  0.00     0.210 HD
HETATM   50  N6  UNL     1     -27.646  24.222 -24.977  1.00  0.00    -0.271 N 
ATOM     51  H6  UNL     1     -28.586  23.944 -25.257  1.00  0.00     0.189 HD
BRANCH  48  52
HETATM   52  N5  UNL     1     -29.179  27.051 -24.235  1.00  0.00    -0.321 N 
ATOM     53  H52 UNL     1     -29.779  27.008 -25.058  1.00  0.00     0.179 HD
ATOM     54  H51 UNL     1     -29.747  27.460 -23.493  1.00  0.00     0.179 HD
ENDBRANCH  48  52
ENDBRANCH   1  38
TORSDOF 12
ENDMDL
MODEL 4
REMARK VINA RESULT: -9.241109126      4.823     11.018
REMARK  12 active torsions:
REMARK  status: ('A' for Active; 'I' for Inactive)
REMARK    1  A    between atoms: N4_10  and  N5_11 
REMARK    2  A    between atoms: N7_17  and  C4_18 
REMARK    3  A    between atoms: C6_20  and  N8_21 
REMARK    4  A    between atoms: C8_23  and  C9_24 
REMARK    5  A    between atoms: N10_27  and  C10_28 
REMARK    6  A    between atoms: C10_28  and  C11_29 
REMARK    7  A    between atoms: C11_29  and  O1_30 
REMARK    8  A    between atoms: C11_29  and  C12_32 
REMARK    9  A    between atoms: C12_32  and  O2_33 
REMARK   10  A    between atoms: C13_35  and  S1_36 
REMARK   11  A    between atoms: C14_40  and  O6_41 
REMARK   12  A    between atoms: N13_47  and  N14_48 
REMARK       I    between atoms: N14_48  and  C15_50 
ROOT
HETATM    1  C4  UNL     1     -26.074  17.525 -24.553  1.00  0.00     0.149 A 
HETATM    2  C5  UNL     1     -26.625  18.679 -24.079  1.00  0.00     0.106 A 
HETATM    3  C6  UNL     1     -26.843  19.507 -25.166  1.00  0.00     0.171 A 
HETATM    4  N13 UNL     1     -26.420  18.835 -26.273  1.00  0.00    -0.172 N 
HETATM    5  N16 UNL     1     -25.975  17.678 -25.875  1.00  0.00    -0.261 N 
ATOM      6  H16 UNL     1     -25.594  16.970 -26.502  1.00  0.00     0.191 HD
ENDROOT
BRANCH   3   7
HETATM    7  N8  UNL     1     -27.395  20.814 -25.197  1.00  0.00    -0.231 N 
HETATM    8  C7  UNL     1     -26.684  21.977 -25.127  1.00  0.00     0.153 A 
HETATM    9  C8  UNL     1     -27.546  23.030 -25.186  1.00  0.00     0.098 A 
HETATM   10  N11 UNL     1     -28.773  22.505 -25.291  1.00  0.00    -0.282 N 
HETATM   11  N12 UNL     1     -28.658  21.196 -25.296  1.00  0.00    -0.234 N 
ATOM     12  H11 UNL     1     -29.645  23.029 -25.356  1.00  0.00     0.188 HD
ATOM     13  H12 UNL     1     -29.447  20.553 -25.366  1.00  0.00     0.209 HD
BRANCH   9  14
HETATM   14  C9  UNL     1     -27.235  24.473 -25.143  1.00  0.00     0.114 A 
HETATM   15  N9  UNL     1     -26.071  25.022 -25.423  1.00  0.00    -0.292 N 
HETATM   16  N10 UNL     1     -26.155  26.372 -25.276  1.00  0.00    -0.274 N 
ATOM     17  H9  UNL     1     -25.234  24.513 -25.707  1.00  0.00     0.187 HD
HETATM   18  C13 UNL     1     -27.366  26.701 -24.906  1.00  0.00     0.203 A 
HETATM   19  C14 UNL     1     -28.088  25.493 -24.809  1.00  0.00     0.139 A 
BRANCH  16  20
HETATM   20  C10 UNL     1     -24.939  27.141 -25.428  1.00  0.00     0.184 C 
BRANCH  20  21
HETATM   21  C11 UNL     1     -24.631  27.357 -26.900  1.00  0.00     0.161 C 
BRANCH  21  22
HETATM   22  O1  UNL     1     -25.890  27.224 -27.570  1.00  0.00    -0.392 OA
ATOM     23  H1  UNL     1     -25.705  27.402 -28.485  1.00  0.00     0.210 HD
ENDBRANCH  21  22
BRANCH  21  24
HETATM   24  C12 UNL     1     -23.701  26.421 -27.548  1.00  0.00     0.197 C 
BRANCH  24  25
HETATM   25  O2  UNL     1     -24.265  25.215 -27.908  1.00  0.00    -0.398 OA
ATOM     26  H2  UNL     1     -24.126  24.514 -27.283  1.00  0.00     0.209 HD
ENDBRANCH  24  25
ENDBRANCH  21  24
ENDBRANCH  20  21
ENDBRANCH  16  20
BRANCH  18  27
HETATM   27  S1  UNL     1     -28.077  28.276 -24.697  1.00  0.00     0.159 S 
HETATM   28  O3  UNL     1     -27.375  29.112 -23.672  1.00  0.00    -0.590 OA
HETATM   29  O4  UNL     1     -29.552  28.265 -24.570  1.00  0.00    -0.590 OA
HETATM   30  O5  UNL     1     -27.732  29.102 -26.173  1.00  0.00    -0.590 OA
ENDBRANCH  18  27
BRANCH  19  31
HETATM   31  O6  UNL     1     -29.407  25.384 -24.444  1.00  0.00    -0.356 OA
ATOM     32  H6  UNL     1     -30.164  25.394 -25.019  1.00  0.00     0.218 HD
ENDBRANCH  19  31
ENDBRANCH   9  14
ENDBRANCH   3   7
BRANCH   4  33
HETATM   33  N14 UNL     1     -26.446  19.277 -27.595  1.00  0.00    -0.231 N 
HETATM   34  C15 UNL     1     -25.417  20.088 -28.102  1.00  0.00     0.348 C 
HETATM   35  N15 UNL     1     -25.452  20.528 -29.441  1.00  0.00    -0.038 NA
HETATM   36  O7  UNL     1     -24.462  20.425 -27.373  1.00  0.00    -0.249 OA
ATOM     37  H14 UNL     1     -27.222  19.008 -28.201  1.00  0.00     0.193 HD
ENDBRANCH   4  33
BRANCH   1  38
HETATM   38  N7  UNL     1     -25.664  16.350 -23.824  1.00  0.00    -0.218 N 
HETATM   39  C1  UNL     1     -26.461  15.496 -23.126  1.00  0.00     0.155 A 
HETATM   40  N1  UNL     1     -27.725  15.614 -23.006  1.00  0.00    -0.382 N 
HETATM   41  C2  UNL     1     -25.692  14.500 -22.575  1.00  0.00     0.144 A 
ATOM     42  H12 UNL     1     -28.323  14.974 -22.483  1.00  0.00     0.157 HD
ATOM     43  H11 UNL     1     -28.295  16.354 -23.415  1.00  0.00     0.157 HD
HETATM   44  N2  UNL     1     -25.625  13.364 -21.822  1.00  0.00    -0.278 N 
HETATM   45  C3  UNL     1     -24.401  14.761 -22.953  1.00  0.00     0.193 A 
HETATM   46  N3  UNL     1     -24.358  12.990 -21.768  1.00  0.00    -0.219 N 
ATOM     47  H2  UNL     1     -26.412  12.888 -21.380  1.00  0.00     0.189 HD
HETATM   48  N4  UNL     1     -23.584  13.809 -22.441  1.00  0.00    -0.168 N 
ATOM     49  H3  UNL     1     -24.024  12.168 -21.267  1.00  0.00     0.210 HD
HETATM   50  N6  UNL     1     -24.441  15.875 -23.697  1.00  0.00    -0.271 N 
ATOM     51  H6  UNL     1     -23.618  16.307 -24.117  1.00  0.00     0.189 HD
BRANCH  48  52
HETATM   52  N5  UNL     1     -22.203  13.713 -22.593  1.00  0.00    -0.321 N 
ATOM     53  H52 UNL     1     -21.693  13.389 -23.415  1.00  0.00     0.179 HD
ATOM     54  H51 UNL     1     -21.495  13.954 -21.899  1.00  0.00     0.179 HD
ENDBRANCH  48  52
ENDBRANCH   1  38
TORSDOF 12
ENDMDL
MODEL 5
REMARK VINA RESULT: -9.200828994      1.471      2.752
REMARK  12 active torsions:
REMARK  status: ('A' for Active; 'I' for Inactive)
REMARK    1  A    between atoms: N4_10  and  N5_11 
REMARK    2  A    between atoms: N7_17  and  C4_18 
REMARK    3  A    between atoms: C6_20  and  N8_21 
REMARK    4  A    between atoms: C8_23  and  C9_24 
REMARK    5  A    between atoms: N10_27  and  C10_28 
REMARK    6  A    between atoms: C10_28  and  C11_29 
REMARK    7  A    between atoms: C11_29  and  O1_30 
REMARK    8  A    between atoms: C11_29  and  C12_32 
REMARK    9  A    between atoms: C12_32  and  O2_33 
REMARK   10  A    between atoms: C13_35  and  S1_36 
REMARK   11  A    between atoms: C14_40  and  O6_41 
REMARK   12  A    between atoms: N13_47  and  N14_48 
REMARK       I    between atoms: N14_48  and  C15_50 
ROOT
HETATM    1  C4  UNL     1     -26.176  21.949 -25.444  1.00  0.00     0.149 A 
HETATM    2  C5  UNL     1     -26.123  20.804 -24.704  1.00  0.00     0.106 A 
HETATM    3  C6  UNL     1     -26.181  19.740 -25.588  1.00  0.00     0.171 A 
HETATM    4  N13 UNL     1     -26.265  20.266 -26.841  1.00  0.00    -0.172 N 
HETATM    5  N16 UNL     1     -26.261  21.562 -26.718  1.00  0.00    -0.261 N 
ATOM      6  H16 UNL     1     -26.316  22.208 -27.505  1.00  0.00     0.191 HD
ENDROOT
BRANCH   3   7
HETATM    7  N8  UNL     1     -26.160  18.348 -25.313  1.00  0.00    -0.231 N 
HETATM    8  C7  UNL     1     -25.310  17.725 -24.445  1.00  0.00     0.153 A 
HETATM    9  C8  UNL     1     -25.580  16.390 -24.440  1.00  0.00     0.098 A 
HETATM   10  N11 UNL     1     -26.588  16.208 -25.302  1.00  0.00    -0.282 N 
HETATM   11  N12 UNL     1     -26.913  17.378 -25.804  1.00  0.00    -0.234 N 
ATOM     12  H11 UNL     1     -27.028  15.316 -25.529  1.00  0.00     0.188 HD
ATOM     13  H12 UNL     1     -27.655  17.520 -26.489  1.00  0.00     0.209 HD
BRANCH   9  14
HETATM   14  C9  UNL     1     -24.920  15.324 -23.660  1.00  0.00     0.114 A 
HETATM   15  N9  UNL     1     -23.623  15.107 -23.590  1.00  0.00    -0.292 N 
HETATM   16  N10 UNL     1     -23.381  14.041 -22.781  1.00  0.00    -0.274 N 
ATOM     17  H9  UNL     1     -22.909  15.655 -24.070  1.00  0.00     0.187 HD
HETATM   18  C13 UNL     1     -24.511  13.568 -22.323  1.00  0.00     0.203 A 
HETATM   19  C14 UNL     1     -25.526  14.376 -22.876  1.00  0.00     0.139 A 
BRANCH  16  20
HETATM   20  C10 UNL     1     -22.015  13.576 -22.672  1.00  0.00     0.184 C 
BRANCH  20  21
HETATM   21  C11 UNL     1     -21.510  13.743 -21.249  1.00  0.00     0.161 C 
BRANCH  21  22
HETATM   22  O1  UNL     1     -20.539  14.795 -21.316  1.00  0.00    -0.392 OA
ATOM     23  H1  UNL     1     -19.920  14.519 -21.982  1.00  0.00     0.210 HD
ENDBRANCH  21  22
BRANCH  21  24
HETATM   24  C12 UNL     1     -20.850  12.591 -20.618  1.00  0.00     0.197 C 
BRANCH  24  25
HETATM   25  O2  UNL     1     -21.645  11.891 -19.735  1.00  0.00    -0.398 OA
ATOM     26  H2  UNL     1     -22.561  12.139 -19.749  1.00  0.00     0.209 HD
ENDBRANCH  24  25
ENDBRANCH  21  24
ENDBRANCH  20  21
ENDBRANCH  16  20
BRANCH  18  27
HETATM   27  S1  UNL     1     -24.801  12.309 -21.156  1.00  0.00     0.159 S 
HETATM   28  O3  UNL     1     -26.187  11.746 -21.223  1.00  0.00    -0.590 OA
HETATM   29  O4  UNL     1     -24.338  12.631 -19.787  1.00  0.00    -0.590 OA
HETATM   30  O5  UNL     1     -23.821  10.993 -21.692  1.00  0.00    -0.590 OA
ENDBRANCH  18  27
BRANCH  19  31
HETATM   31  O6  UNL     1     -26.873  14.222 -22.655  1.00  0.00    -0.356 OA
ATOM     32  H6  UNL     1     -27.354  13.405 -22.595  1.00  0.00     0.218 HD
ENDBRANCH  19  31
ENDBRANCH   9  14
ENDBRANCH   3   7
BRANCH   4  33
HETATM   33  N14 UNL     1     -26.343  19.572 -28.048  1.00  0.00    -0.231 N 
HETATM   34  C15 UNL     1     -25.592  19.981 -29.162  1.00  0.00     0.348 C 
HETATM   35  N15 UNL     1     -25.676  19.272 -30.378  1.00  0.00    -0.038 NA
HETATM   36  O7  UNL     1     -24.842  20.976 -29.087  1.00  0.00    -0.249 OA
ATOM     37  H14 UNL     1     -26.953  18.757 -28.123  1.00  0.00     0.193 HD
ENDBRANCH   4  33
BRANCH   1  38
HETATM   38  N7  UNL     1     -26.148  23.319 -24.996  1.00  0.00    -0.218 N 
HETATM   39  C1  UNL     1     -25.079  24.002 -24.504  1.00  0.00     0.155 A 
HETATM   40  N1  UNL     1     -23.909  23.515 -24.359  1.00  0.00    -0.382 N 
HETATM   41  C2  UNL     1     -25.458  25.284 -24.191  1.00  0.00     0.144 A 
ATOM     42  H12 UNL     1     -23.107  24.026 -23.990  1.00  0.00     0.157 HD
ATOM     43  H11 UNL     1     -23.627  22.563 -24.591  1.00  0.00     0.157 HD
HETATM   44  N2  UNL     1     -25.116  26.515 -23.710  1.00  0.00    -0.278 N 
HETATM   45  C3  UNL     1     -26.789  25.375 -24.504  1.00  0.00     0.193 A 
HETATM   46  N3  UNL     1     -26.197  27.275 -23.744  1.00  0.00    -0.219 N 
ATOM     47  H2  UNL     1     -24.192  26.797 -23.384  1.00  0.00     0.189 HD
HETATM   48  N4  UNL     1     -27.232  26.623 -24.219  1.00  0.00    -0.168 N 
ATOM     49  H3  UNL     1     -26.223  28.248 -23.440  1.00  0.00     0.210 HD
HETATM   50  N6  UNL     1     -27.150  24.175 -24.981  1.00  0.00    -0.271 N 
ATOM     51  H6  UNL     1     -28.093  23.949 -25.295  1.00  0.00     0.189 HD
BRANCH  48  52
HETATM   52  N5  UNL     1     -28.522  27.120 -24.391  1.00  0.00    -0.321 N 
ATOM     53  H52 UNL     1     -29.338  26.937 -23.807  1.00  0.00     0.179 HD
ATOM     54  H51 UNL     1     -28.841  27.744 -25.132  1.00  0.00     0.179 HD
ENDBRANCH  48  52
ENDBRANCH   1  38
TORSDOF 12
ENDMDL
