MODEL 1
REMARK VINA RESULT: -9.310431265      0.000      0.000
REMARK  15 active torsions:
REMARK  status: ('A' for Active; 'I' for Inactive)
REMARK    1  A    between atoms: N1_2  and  C3_4 
REMARK    2  A    between atoms: C3_4  and  C4_5 
REMARK    3  A    between atoms: C3_4  and  C5_11 
REMARK    4  A    between atoms: N3_7  and  O1_9 
REMARK    5  A    between atoms: N6_16  and  C6_17 
REMARK    6  A    between atoms: C7_23  and  N9_24 
REMARK    7  A    between atoms: C8_27  and  C9_28 
REMARK    8  A    between atoms: C11_35  and  C12_36 
REMARK    9  A    between atoms: N13_38  and  C14_39 
REMARK   10  A    between atoms: C16_42  and  O4_43 
REMARK   11  A    between atoms: C16_42  and  C17_45 
REMARK   12  A    between atoms: C17_45  and  O5_46 
REMARK   13  A    between atoms: C17_45  and  C18_48 
REMARK   14  A    between atoms: C18_48  and  O6_49 
REMARK   15  A    between atoms: C19_51  and  O7_52 
ROOT
HETATM    1  C9  UNL     1     -22.478  10.391 -22.333  1.00  0.00     0.095 A 
HETATM    2  N10 UNL     1     -21.467   9.751 -21.669  1.00  0.00    -0.296 N 
ATOM      3  H10 UNL     1     -21.062   8.863 -21.965  1.00  0.00     0.187 HD
HETATM    4  N11 UNL     1     -21.086  10.409 -20.616  1.00  0.00    -0.286 N 
ATOM      5  H11 UNL     1     -20.351  10.133 -19.965  1.00  0.00     0.188 HD
HETATM    6  C10 UNL     1     -21.827  11.503 -20.545  1.00  0.00     0.145 A 
HETATM    7  N12 UNL     1     -21.763  12.521 -19.563  1.00  0.00    -0.080 NA
HETATM    8  C11 UNL     1     -22.720  11.539 -21.603  1.00  0.00     0.066 A 
ENDROOT
BRANCH   1   9
HETATM    9  C8  UNL     1     -23.160   9.965 -23.524  1.00  0.00     0.116 A 
HETATM   10  C5  UNL     1     -22.778   9.938 -24.814  1.00  0.00     0.099 A 
HETATM   11  N4  UNL     1     -23.870   9.466 -25.529  1.00  0.00    -0.285 N 
HETATM   12  N5  UNL     1     -24.846   9.225 -24.703  1.00  0.00    -0.234 N 
ATOM     13  H4  UNL     1     -23.902   9.331 -26.539  1.00  0.00     0.188 HD
HETATM   14  N6  UNL     1     -24.452   9.516 -23.476  1.00  0.00    -0.216 N 
ATOM     15  H5  UNL     1     -25.766   8.870 -24.962  1.00  0.00     0.209 HD
BRANCH  10  16
HETATM   16  C3  UNL     1     -21.484  10.276 -25.411  1.00  0.00     0.341 C 
BRANCH  16  17
HETATM   17  N1  UNL     1     -20.329   9.742 -24.723  1.00  0.00     0.097 N 
HETATM   18  C1  UNL     1     -19.357  10.813 -24.435  1.00  0.00     0.310 C 
HETATM   19  C2  UNL     1     -19.581   8.849 -25.631  1.00  0.00     0.310 C 
ENDBRANCH  16  17
BRANCH  16  20
HETATM   20  C4  UNL     1     -21.365   9.900 -26.842  1.00  0.00     0.152 C 
HETATM   21  N2  UNL     1     -21.800   8.627 -27.262  1.00  0.00    -0.083 NA
HETATM   22  N3  UNL     1     -20.873  10.703 -27.726  1.00  0.00    -0.257 N 
ATOM     23  H3  UNL     1     -20.554  11.628 -27.440  1.00  0.00     0.195 HD
BRANCH  22  24
HETATM   24  O1  UNL     1     -20.774  10.332 -29.038  1.00  0.00    -0.289 OA
ATOM     25  H1  UNL     1     -20.085  10.676 -29.594  1.00  0.00     0.244 HD
ENDBRANCH  22  24
ENDBRANCH  16  20
ENDBRANCH  10  16
BRANCH  14  26
HETATM   26  C6  UNL     1     -25.276   9.369 -22.327  1.00  0.00     0.196 A 
HETATM   27  N7  UNL     1     -25.112   8.518 -21.295  1.00  0.00    -0.220 N 
HETATM   28  O2  UNL     1     -26.088   8.715 -20.463  1.00  0.00    -0.153 OA
ATOM     29  H7  UNL     1     -24.358   7.840 -21.188  1.00  0.00     0.198 HD
HETATM   30  N8  UNL     1     -26.899   9.642 -20.861  1.00  0.00    -0.222 N 
HETATM   31  C7  UNL     1     -26.419  10.081 -22.038  1.00  0.00     0.169 A 
ATOM     32  H8  UNL     1     -27.735   9.973 -20.380  1.00  0.00     0.198 HD
BRANCH  31  33
HETATM   33  N9  UNL     1     -26.973  11.005 -22.729  1.00  0.00    -0.381 N 
ATOM     34  H92 UNL     1     -26.536  11.907 -22.919  1.00  0.00     0.157 HD
ATOM     35  H91 UNL     1     -27.889  10.996 -23.177  1.00  0.00     0.157 HD
ENDBRANCH  31  33
ENDBRANCH  14  26
ENDBRANCH   1   9
BRANCH   8  36
HETATM   36  C12 UNL     1     -23.716  12.589 -21.854  1.00  0.00     0.082 A 
HETATM   37  C13 UNL     1     -23.889  13.381 -22.971  1.00  0.00     0.144 A 
HETATM   38  N13 UNL     1     -24.924  14.218 -22.787  1.00  0.00    -0.277 N 
HETATM   39  N14 UNL     1     -25.384  13.955 -21.587  1.00  0.00    -0.240 N 
HETATM   40  N15 UNL     1     -24.686  12.989 -21.004  1.00  0.00    -0.284 N 
ATOM     41  H14 UNL     1     -26.176  14.433 -21.156  1.00  0.00     0.208 HD
ATOM     42  H15 UNL     1     -24.853  12.612 -20.072  1.00  0.00     0.188 HD
BRANCH  38  43
HETATM   43  C14 UNL     1     -25.386  15.192 -23.757  1.00  0.00     0.167 C 
HETATM   44  C15 UNL     1     -24.284  16.023 -24.314  1.00  0.00     0.201 C 
HETATM   45  O3  UNL     1     -24.563  17.350 -24.017  1.00  0.00    -0.349 OA
HETATM   46  C16 UNL     1     -25.948  17.449 -23.934  1.00  0.00     0.219 C 
HETATM   47  C19 UNL     1     -26.293  16.221 -23.127  1.00  0.00     0.210 C 
BRANCH  46  48
HETATM   48  O4  UNL     1     -26.583  17.347 -25.163  1.00  0.00    -0.361 OA
ATOM     49  H4  UNL     1     -27.386  16.841 -25.132  1.00  0.00     0.213 HD
ENDBRANCH  46  48
BRANCH  46  50
HETATM   50  C17 UNL     1     -26.366  18.721 -23.246  1.00  0.00     0.206 C 
BRANCH  50  51
HETATM   51  O5  UNL     1     -27.665  18.550 -22.770  1.00  0.00    -0.388 OA
ATOM     52  H5  UNL     1     -27.656  17.851 -22.127  1.00  0.00     0.210 HD
ENDBRANCH  50  51
BRANCH  50  53
HETATM   53  C18 UNL     1     -26.404  19.822 -24.283  1.00  0.00     0.201 C 
BRANCH  53  54
HETATM   54  O6  UNL     1     -27.672  19.939 -24.858  1.00  0.00    -0.398 OA
ATOM     55  H6  UNL     1     -28.354  19.933 -24.197  1.00  0.00     0.209 HD
ENDBRANCH  53  54
ENDBRANCH  50  53
ENDBRANCH  46  50
BRANCH  47  56
HETATM   56  O7  UNL     1     -27.635  15.863 -23.235  1.00  0.00    -0.388 OA
ATOM     57  H7  UNL     1     -28.181  16.361 -22.640  1.00  0.00     0.210 HD
ENDBRANCH  47  56
ENDBRANCH  38  43
ENDBRANCH   8  36
TORSDOF 15
ENDMDL
MODEL 2
REMARK VINA RESULT: -9.030559432      1.908      4.628
REMARK  15 active torsions:
REMARK  status: ('A' for Active; 'I' for Inactive)
REMARK    1  A    between atoms: N1_2  and  C3_4 
REMARK    2  A    between atoms: C3_4  and  C4_5 
REMARK    3  A    between atoms: C3_4  and  C5_11 
REMARK    4  A    between atoms: N3_7  and  O1_9 
REMARK    5  A    between atoms: N6_16  and  C6_17 
REMARK    6  A    between atoms: C7_23  and  N9_24 
REMARK    7  A    between atoms: C8_27  and  C9_28 
REMARK    8  A    between atoms: C11_35  and  C12_36 
REMARK    9  A    between atoms: N13_38  and  C14_39 
REMARK   10  A    between atoms: C16_42  and  O4_43 
REMARK   11  A    between atoms: C16_42  and  C17_45 
REMARK   12  A    between atoms: C17_45  and  O5_46 
REMARK   13  A    between atoms: C17_45  and  C18_48 
REMARK   14  A    between atoms: C18_48  and  O6_49 
REMARK   15  A    between atoms: C19_51  and  O7_52 
ROOT
HETATM    1  C9  UNL     1     -23.391  10.538 -22.226  1.00  0.00     0.095 A 
HETATM    2  N10 UNL     1     -23.651   9.233 -21.908  1.00  0.00    -0.296 N 
ATOM      3  H10 UNL     1     -22.942   8.501 -21.876  1.00  0.00     0.187 HD
HETATM    4  N11 UNL     1     -24.909   9.039 -21.650  1.00  0.00    -0.286 N 
ATOM      5  H11 UNL     1     -25.342   8.153 -21.390  1.00  0.00     0.188 HD
HETATM    6  C10 UNL     1     -25.525  10.202 -21.789  1.00  0.00     0.145 A 
HETATM    7  N12 UNL     1     -26.902  10.471 -21.607  1.00  0.00    -0.080 NA
HETATM    8  C11 UNL     1     -24.612  11.179 -22.151  1.00  0.00     0.066 A 
ENDROOT
BRANCH   1   9
HETATM    9  C8  UNL     1     -22.127  11.125 -22.579  1.00  0.00     0.116 A 
HETATM   10  C5  UNL     1     -21.200  11.765 -21.843  1.00  0.00     0.099 A 
HETATM   11  N4  UNL     1     -20.204  12.152 -22.730  1.00  0.00    -0.285 N 
HETATM   12  N5  UNL     1     -20.527  11.758 -23.927  1.00  0.00    -0.234 N 
ATOM     13  H4  UNL     1     -19.357  12.662 -22.483  1.00  0.00     0.188 HD
HETATM   14  N6  UNL     1     -21.688  11.130 -23.876  1.00  0.00    -0.216 N 
ATOM     15  H5  UNL     1     -19.972  11.910 -24.769  1.00  0.00     0.209 HD
BRANCH  10  16
HETATM   16  C3  UNL     1     -21.157  12.003 -20.399  1.00  0.00     0.341 C 
BRANCH  16  17
HETATM   17  N1  UNL     1     -20.145  11.259 -19.681  1.00  0.00     0.097 N 
HETATM   18  C1  UNL     1     -18.799  11.760 -20.014  1.00  0.00     0.310 C 
HETATM   19  C2  UNL     1     -20.114   9.866 -20.170  1.00  0.00     0.310 C 
ENDBRANCH  16  17
BRANCH  16  20
HETATM   20  C4  UNL     1     -21.006  13.433 -20.028  1.00  0.00     0.152 C 
HETATM   21  N2  UNL     1     -20.772  14.389 -21.038  1.00  0.00    -0.083 NA
HETATM   22  N3  UNL     1     -21.082  13.838 -18.805  1.00  0.00    -0.257 N 
ATOM     23  H3  UNL     1     -21.251  13.161 -18.062  1.00  0.00     0.195 HD
BRANCH  22  24
HETATM   24  O1  UNL     1     -20.940  15.161 -18.491  1.00  0.00    -0.289 OA
ATOM     25  H1  UNL     1     -20.514  15.431 -17.685  1.00  0.00     0.244 HD
ENDBRANCH  22  24
ENDBRANCH  16  20
ENDBRANCH  10  16
BRANCH  14  26
HETATM   26  C6  UNL     1     -22.335  10.572 -25.012  1.00  0.00     0.196 A 
HETATM   27  N7  UNL     1     -23.614  10.742 -25.401  1.00  0.00    -0.220 N 
HETATM   28  O2  UNL     1     -23.789  10.057 -26.489  1.00  0.00    -0.153 OA
ATOM     29  H7  UNL     1     -24.318  11.306 -24.926  1.00  0.00     0.198 HD
HETATM   30  N8  UNL     1     -22.715   9.436 -26.861  1.00  0.00    -0.222 N 
HETATM   31  C7  UNL     1     -21.772   9.738 -25.951  1.00  0.00     0.169 A 
ATOM     32  H8  UNL     1     -22.607   8.839 -27.680  1.00  0.00     0.198 HD
BRANCH  31  33
HETATM   33  N9  UNL     1     -20.572   9.294 -26.001  1.00  0.00    -0.381 N 
ATOM     34  H92 UNL     1     -19.748   9.895 -25.999  1.00  0.00     0.157 HD
ATOM     35  H91 UNL     1     -20.259   8.325 -26.049  1.00  0.00     0.157 HD
ENDBRANCH  31  33
ENDBRANCH  14  26
ENDBRANCH   1   9
BRANCH   8  36
HETATM   36  C12 UNL     1     -24.921  12.592 -22.411  1.00  0.00     0.082 A 
HETATM   37  C13 UNL     1     -24.545  13.387 -23.475  1.00  0.00     0.144 A 
HETATM   38  N13 UNL     1     -25.045  14.625 -23.324  1.00  0.00    -0.277 N 
HETATM   39  N14 UNL     1     -25.714  14.602 -22.196  1.00  0.00    -0.240 N 
HETATM   40  N15 UNL     1     -25.661  13.405 -21.628  1.00  0.00    -0.284 N 
ATOM     41  H14 UNL     1     -26.212  15.403 -21.805  1.00  0.00     0.208 HD
ATOM     42  H15 UNL     1     -26.103  13.143 -20.747  1.00  0.00     0.188 HD
BRANCH  38  43
HETATM   43  C14 UNL     1     -24.845  15.719 -24.254  1.00  0.00     0.167 C 
HETATM   44  C15 UNL     1     -23.662  16.558 -23.918  1.00  0.00     0.201 C 
HETATM   45  O3  UNL     1     -24.110  17.856 -23.706  1.00  0.00    -0.349 OA
HETATM   46  C16 UNL     1     -25.255  18.005 -24.481  1.00  0.00     0.219 C 
HETATM   47  C19 UNL     1     -25.982  16.711 -24.203  1.00  0.00     0.210 C 
BRANCH  46  48
HETATM   48  O4  UNL     1     -24.996  18.066 -25.842  1.00  0.00    -0.361 OA
ATOM     49  H4  UNL     1     -24.377  18.747 -26.078  1.00  0.00     0.213 HD
ENDBRANCH  46  48
BRANCH  46  50
HETATM   50  C17 UNL     1     -26.051  19.210 -24.057  1.00  0.00     0.206 C 
BRANCH  50  51
HETATM   51  O5  UNL     1     -27.238  18.765 -23.477  1.00  0.00    -0.388 OA
ATOM     52  H5  UNL     1     -27.356  19.225 -22.654  1.00  0.00     0.210 HD
ENDBRANCH  50  51
BRANCH  50  53
HETATM   53  C18 UNL     1     -26.417  19.989 -25.301  1.00  0.00     0.201 C 
BRANCH  53  54
HETATM   54  O6  UNL     1     -27.423  19.347 -26.028  1.00  0.00    -0.398 OA
ATOM     55  H6  UNL     1     -28.010  19.973 -26.436  1.00  0.00     0.209 HD
ENDBRANCH  53  54
ENDBRANCH  50  53
ENDBRANCH  46  50
BRANCH  47  56
HETATM   56  O7  UNL     1     -26.960  16.426 -25.152  1.00  0.00    -0.388 OA
ATOM     57  H7  UNL     1     -27.835  16.527 -24.797  1.00  0.00     0.210 HD
ENDBRANCH  47  56
ENDBRANCH  38  43
ENDBRANCH   8  36
TORSDOF 15
ENDMDL
MODEL 3
REMARK VINA RESULT: -8.989944009      1.989      4.476
REMARK  15 active torsions:
REMARK  status: ('A' for Active; 'I' for Inactive)
REMARK    1  A    between atoms: N1_2  and  C3_4 
REMARK    2  A    between atoms: C3_4  and  C4_5 
REMARK    3  A    between atoms: C3_4  and  C5_11 
REMARK    4  A    between atoms: N3_7  and  O1_9 
REMARK    5  A    between atoms: N6_16  and  C6_17 
REMARK    6  A    between atoms: C7_23  and  N9_24 
REMARK    7  A    between atoms: C8_27  and  C9_28 
REMARK    8  A    between atoms: C11_35  and  C12_36 
REMARK    9  A    between atoms: N13_38  and  C14_39 
REMARK   10  A    between atoms: C16_42  and  O4_43 
REMARK   11  A    between atoms: C16_42  and  C17_45 
REMARK   12  A    between atoms: C17_45  and  O5_46 
REMARK   13  A    between atoms: C17_45  and  C18_48 
REMARK   14  A    between atoms: C18_48  and  O6_49 
REMARK   15  A    between atoms: C19_51  and  O7_52 
ROOT
HETATM    1  C9  UNL     1     -23.730   9.944 -22.268  1.00  0.00     0.095 A 
HETATM    2  N10 UNL     1     -24.360   8.905 -21.638  1.00  0.00    -0.296 N 
ATOM      3  H10 UNL     1     -23.930   7.995 -21.471  1.00  0.00     0.187 HD
HETATM    4  N11 UNL     1     -25.568   9.216 -21.278  1.00  0.00    -0.286 N 
ATOM      5  H11 UNL     1     -26.229   8.610 -20.794  1.00  0.00     0.188 HD
HETATM    6  C10 UNL     1     -25.782  10.467 -21.655  1.00  0.00     0.145 A 
HETATM    7  N12 UNL     1     -26.960  11.229 -21.471  1.00  0.00    -0.080 NA
HETATM    8  C11 UNL     1     -24.655  10.971 -22.284  1.00  0.00     0.066 A 
ENDROOT
BRANCH   1   9
HETATM    9  C8  UNL     1     -22.401   9.970 -22.814  1.00  0.00     0.116 A 
HETATM   10  C5  UNL     1     -21.201  10.176 -22.240  1.00  0.00     0.099 A 
HETATM   11  N4  UNL     1     -20.270  10.130 -23.268  1.00  0.00    -0.285 N 
HETATM   12  N5  UNL     1     -20.888   9.908 -24.391  1.00  0.00    -0.234 N 
ATOM     13  H4  UNL     1     -19.263  10.252 -23.161  1.00  0.00     0.188 HD
HETATM   14  N6  UNL     1     -22.185   9.804 -24.155  1.00  0.00    -0.216 N 
ATOM     15  H5  UNL     1     -20.444   9.827 -25.305  1.00  0.00     0.209 HD
BRANCH  10  16
HETATM   16  C3  UNL     1     -20.863  10.368 -20.828  1.00  0.00     0.341 C 
BRANCH  16  17
HETATM   17  N1  UNL     1     -19.525   9.966 -20.454  1.00  0.00     0.097 N 
HETATM   18  C1  UNL     1     -19.308   8.540 -20.759  1.00  0.00     0.310 C 
HETATM   19  C2  UNL     1     -19.384  10.019 -18.984  1.00  0.00     0.310 C 
ENDBRANCH  16  17
BRANCH  16  20
HETATM   20  C4  UNL     1     -21.063  11.757 -20.344  1.00  0.00     0.152 C 
HETATM   21  N2  UNL     1     -20.068  12.726 -20.589  1.00  0.00    -0.083 NA
HETATM   22  N3  UNL     1     -22.124  12.116 -19.702  1.00  0.00    -0.257 N 
ATOM     23  H3  UNL     1     -22.854  11.429 -19.516  1.00  0.00     0.195 HD
BRANCH  22  24
HETATM   24  O1  UNL     1     -22.284  13.402 -19.267  1.00  0.00    -0.289 OA
ATOM     25  H1  UNL     1     -21.542  13.914 -18.969  1.00  0.00     0.244 HD
ENDBRANCH  22  24
ENDBRANCH  16  20
ENDBRANCH  10  16
BRANCH  14  26
HETATM   26  C6  UNL     1     -23.154   9.562 -25.166  1.00  0.00     0.196 A 
HETATM   27  N7  UNL     1     -24.403   9.077 -25.014  1.00  0.00    -0.220 N 
HETATM   28  O2  UNL     1     -24.946   9.015 -26.190  1.00  0.00    -0.153 OA
ATOM     29  H7  UNL     1     -24.841   8.807 -24.133  1.00  0.00     0.198 HD
HETATM   30  N8  UNL     1     -24.151   9.426 -27.126  1.00  0.00    -0.222 N 
HETATM   31  C7  UNL     1     -23.006   9.781 -26.516  1.00  0.00     0.169 A 
ATOM     32  H8  UNL     1     -24.353   9.471 -28.124  1.00  0.00     0.198 HD
BRANCH  31  33
HETATM   33  N9  UNL     1     -21.985  10.238 -27.139  1.00  0.00    -0.381 N 
ATOM     34  H92 UNL     1     -21.746  11.228 -27.182  1.00  0.00     0.157 HD
ATOM     35  H91 UNL     1     -21.282   9.719 -27.666  1.00  0.00     0.157 HD
ENDBRANCH  31  33
ENDBRANCH  14  26
ENDBRANCH   1   9
BRANCH   8  36
HETATM   36  C12 UNL     1     -24.516  12.318 -22.853  1.00  0.00     0.082 A 
HETATM   37  C13 UNL     1     -25.033  13.515 -22.401  1.00  0.00     0.144 A 
HETATM   38  N13 UNL     1     -24.664  14.515 -23.220  1.00  0.00    -0.277 N 
HETATM   39  N14 UNL     1     -23.937  13.955 -24.157  1.00  0.00    -0.240 N 
HETATM   40  N15 UNL     1     -23.830  12.647 -23.968  1.00  0.00    -0.284 N 
ATOM     41  H14 UNL     1     -23.510  14.461 -24.934  1.00  0.00     0.208 HD
ATOM     42  H15 UNL     1     -23.315  11.998 -24.563  1.00  0.00     0.188 HD
BRANCH  38  43
HETATM   43  C14 UNL     1     -25.031  15.906 -23.047  1.00  0.00     0.167 C 
HETATM   44  C15 UNL     1     -26.501  16.109 -22.930  1.00  0.00     0.201 C 
HETATM   45  O3  UNL     1     -26.897  16.947 -23.964  1.00  0.00    -0.349 OA
HETATM   46  C16 UNL     1     -25.797  17.744 -24.263  1.00  0.00     0.219 C 
HETATM   47  C19 UNL     1     -24.677  16.733 -24.259  1.00  0.00     0.210 C 
BRANCH  46  48
HETATM   48  O4  UNL     1     -25.522  18.691 -23.287  1.00  0.00    -0.361 OA
ATOM     49  H4  UNL     1     -24.677  18.570 -22.871  1.00  0.00     0.213 HD
ENDBRANCH  46  48
BRANCH  46  50
HETATM   50  C17 UNL     1     -25.955  18.418 -25.599  1.00  0.00     0.206 C 
BRANCH  50  51
HETATM   51  O5  UNL     1     -27.223  18.995 -25.648  1.00  0.00    -0.388 OA
ATOM     52  H5  UNL     1     -27.119  19.938 -25.677  1.00  0.00     0.210 HD
ENDBRANCH  50  51
BRANCH  50  53
HETATM   53  C18 UNL     1     -25.900  17.350 -26.670  1.00  0.00     0.201 C 
BRANCH  53  54
HETATM   54  O6  UNL     1     -27.127  16.694 -26.800  1.00  0.00    -0.398 OA
ATOM     55  H6  UNL     1     -27.270  16.083 -26.086  1.00  0.00     0.209 HD
ENDBRANCH  53  54
ENDBRANCH  50  53
ENDBRANCH  46  50
BRANCH  47  56
HETATM   56  O7  UNL     1     -23.420  17.319 -24.137  1.00  0.00    -0.388 OA
ATOM     57  H7  UNL     1     -23.062  17.566 -24.981  1.00  0.00     0.210 HD
ENDBRANCH  47  56
ENDBRANCH  38  43
ENDBRANCH   8  36
TORSDOF 15
ENDMDL
MODEL 4
REMARK VINA RESULT: -8.672773306      2.434      3.822
REMARK  15 active torsions:
REMARK  status: ('A' for Active; 'I' for Inactive)
REMARK    1  A    between atoms: N1_2  and  C3_4 
REMARK    2  A    between atoms: C3_4  and  C4_5 
REMARK    3  A    between atoms: C3_4  and  C5_11 
REMARK    4  A    between atoms: N3_7  and  O1_9 
REMARK    5  A    between atoms: N6_16  and  C6_17 
REMARK    6  A    between atoms: C7_23  and  N9_24 
REMARK    7  A    between atoms: C8_27  and  C9_28 
REMARK    8  A    between atoms: C11_35  and  C12_36 
REMARK    9  A    between atoms: N13_38  and  C14_39 
REMARK   10  A    between atoms: C16_42  and  O4_43 
REMARK   11  A    between atoms: C16_42  and  C17_45 
REMARK   12  A    between atoms: C17_45  and  O5_46 
REMARK   13  A    between atoms: C17_45  and  C18_48 
REMARK   14  A    between atoms: C18_48  and  O6_49 
REMARK   15  A    between atoms: C19_51  and  O7_52 
ROOT
HETATM    1  C9  UNL     1     -19.677  11.776 -22.008  1.00  0.00     0.095 A 
HETATM    2  N10 UNL     1     -18.369  12.147 -21.849  1.00  0.00    -0.296 N 
ATOM      3  H10 UNL     1     -17.579  11.512 -21.956  1.00  0.00     0.187 HD
HETATM    4  N11 UNL     1     -18.256  13.405 -21.548  1.00  0.00    -0.286 N 
ATOM      5  H11 UNL     1     -17.386  13.910 -21.383  1.00  0.00     0.188 HD
HETATM    6  C10 UNL     1     -19.478  13.910 -21.495  1.00  0.00     0.145 A 
HETATM    7  N12 UNL     1     -19.843  15.246 -21.203  1.00  0.00    -0.080 NA
HETATM    8  C11 UNL     1     -20.410  12.924 -21.777  1.00  0.00     0.066 A 
ENDROOT
BRANCH   1   9
HETATM    9  C8  UNL     1     -20.191  10.472 -22.329  1.00  0.00     0.116 A 
HETATM   10  C5  UNL     1     -20.752   9.983 -23.450  1.00  0.00     0.099 A 
HETATM   11  N4  UNL     1     -21.098   8.668 -23.164  1.00  0.00    -0.285 N 
HETATM   12  N5  UNL     1     -20.756   8.397 -21.939  1.00  0.00    -0.234 N 
ATOM     13  H4  UNL     1     -21.546   8.021 -23.811  1.00  0.00     0.188 HD
HETATM   14  N6  UNL     1     -20.202   9.468 -21.399  1.00  0.00    -0.216 N 
ATOM     15  H5  UNL     1     -20.894   7.502 -21.471  1.00  0.00     0.209 HD
BRANCH  10  16
HETATM   16  C3  UNL     1     -20.950  10.624 -24.751  1.00  0.00     0.341 C 
BRANCH  16  17
HETATM   17  N1  UNL     1     -19.970  10.288 -25.760  1.00  0.00     0.097 N 
HETATM   18  C1  UNL     1     -19.491   8.906 -25.577  1.00  0.00     0.310 C 
HETATM   19  C2  UNL     1     -18.750  11.095 -25.554  1.00  0.00     0.310 C 
ENDBRANCH  16  17
BRANCH  16  20
HETATM   20  C4  UNL     1     -22.294  10.391 -25.339  1.00  0.00     0.152 C 
HETATM   21  N2  UNL     1     -23.418  10.320 -24.491  1.00  0.00    -0.083 NA
HETATM   22  N3  UNL     1     -22.474  10.250 -26.610  1.00  0.00    -0.257 N 
ATOM     23  H3  UNL     1     -21.672  10.299 -27.238  1.00  0.00     0.195 HD
BRANCH  22  24
HETATM   24  O1  UNL     1     -23.722  10.036 -27.126  1.00  0.00    -0.289 OA
ATOM     25  H1  UNL     1     -24.135   9.183 -27.071  1.00  0.00     0.244 HD
ENDBRANCH  22  24
ENDBRANCH  16  20
ENDBRANCH  10  16
BRANCH  14  26
HETATM   26  C6  UNL     1     -19.714   9.518 -20.065  1.00  0.00     0.196 A 
HETATM   27  N7  UNL     1     -20.167  10.277 -19.047  1.00  0.00    -0.220 N 
HETATM   28  O2  UNL     1     -19.441  10.012 -18.005  1.00  0.00    -0.153 OA
ATOM     29  H7  UNL     1     -20.940  10.941 -19.089  1.00  0.00     0.198 HD
HETATM   30  N8  UNL     1     -18.530   9.125 -18.248  1.00  0.00    -0.222 N 
HETATM   31  C7  UNL     1     -18.671   8.787 -19.543  1.00  0.00     0.169 A 
ATOM     32  H8  UNL     1     -17.844   8.756 -17.591  1.00  0.00     0.198 HD
BRANCH  31  33
HETATM   33  N9  UNL     1     -17.930   7.927 -20.135  1.00  0.00    -0.381 N 
ATOM     34  H92 UNL     1     -17.741   6.996 -19.764  1.00  0.00     0.157 HD
ATOM     35  H91 UNL     1     -17.436   8.023 -21.021  1.00  0.00     0.157 HD
ENDBRANCH  31  33
ENDBRANCH  14  26
ENDBRANCH   1   9
BRANCH   8  36
HETATM   36  C12 UNL     1     -21.868  13.098 -21.798  1.00  0.00     0.082 A 
HETATM   37  C13 UNL     1     -22.648  13.832 -22.669  1.00  0.00     0.144 A 
HETATM   38  N13 UNL     1     -23.944  13.720 -22.332  1.00  0.00    -0.277 N 
HETATM   39  N14 UNL     1     -23.971  12.938 -21.280  1.00  0.00    -0.240 N 
HETATM   40  N15 UNL     1     -22.750  12.550 -20.936  1.00  0.00    -0.284 N 
ATOM     41  H14 UNL     1     -24.822  12.663 -20.788  1.00  0.00     0.208 HD
ATOM     42  H15 UNL     1     -22.517  11.940 -20.153  1.00  0.00     0.188 HD
BRANCH  38  43
HETATM   43  C14 UNL     1     -25.041  14.362 -23.031  1.00  0.00     0.167 C 
HETATM   44  C15 UNL     1     -24.611  15.043 -24.283  1.00  0.00     0.201 C 
HETATM   45  O3  UNL     1     -24.933  16.389 -24.164  1.00  0.00    -0.349 OA
HETATM   46  C16 UNL     1     -26.033  16.454 -23.315  1.00  0.00     0.219 C 
HETATM   47  C19 UNL     1     -25.633  15.491 -22.224  1.00  0.00     0.210 C 
BRANCH  46  48
HETATM   48  O4  UNL     1     -27.203  15.985 -23.893  1.00  0.00    -0.361 OA
ATOM     49  H4  UNL     1     -27.145  15.083 -24.184  1.00  0.00     0.213 HD
ENDBRANCH  46  48
BRANCH  46  50
HETATM   50  C17 UNL     1     -26.243  17.851 -22.796  1.00  0.00     0.206 C 
BRANCH  50  51
HETATM   51  O5  UNL     1     -27.603  18.022 -22.545  1.00  0.00    -0.388 OA
ATOM     52  H5  UNL     1     -27.838  18.912 -22.776  1.00  0.00     0.210 HD
ENDBRANCH  50  51
BRANCH  50  53
HETATM   53  C18 UNL     1     -25.859  18.820 -23.893  1.00  0.00     0.201 C 
BRANCH  53  54
HETATM   54  O6  UNL     1     -26.594  18.588 -25.059  1.00  0.00    -0.398 OA
ATOM     55  H6  UNL     1     -26.902  19.402 -25.442  1.00  0.00     0.209 HD
ENDBRANCH  53  54
ENDBRANCH  50  53
ENDBRANCH  46  50
BRANCH  47  56
HETATM   56  O7  UNL     1     -26.714  15.066 -21.455  1.00  0.00    -0.388 OA
ATOM     57  H7  UNL     1     -26.470  14.934 -20.547  1.00  0.00     0.210 HD
ENDBRANCH  47  56
ENDBRANCH  38  43
ENDBRANCH   8  36
TORSDOF 15
ENDMDL
MODEL 5
REMARK VINA RESULT: -8.552433230      1.126      1.725
REMARK  15 active torsions:
REMARK  status: ('A' for Active; 'I' for Inactive)
REMARK    1  A    between atoms: N1_2  and  C3_4 
REMARK    2  A    between atoms: C3_4  and  C4_5 
REMARK    3  A    between atoms: C3_4  and  C5_11 
REMARK    4  A    between atoms: N3_7  and  O1_9 
REMARK    5  A    between atoms: N6_16  and  C6_17 
REMARK    6  A    between atoms: C7_23  and  N9_24 
REMARK    7  A    between atoms: C8_27  and  C9_28 
REMARK    8  A    between atoms: C11_35  and  C12_36 
REMARK    9  A    between atoms: N13_38  and  C14_39 
REMARK   10  A    between atoms: C16_42  and  O4_43 
REMARK   11  A    between atoms: C16_42  and  C17_45 
REMARK   12  A    between atoms: C17_45  and  O5_46 
REMARK   13  A    between atoms: C17_45  and  C18_48 
REMARK   14  A    between atoms: C18_48  and  O6_49 
REMARK   15  A    between atoms: C19_51  and  O7_52 
ROOT
HETATM    1  C9  UNL     1     -22.683  10.452 -22.784  1.00  0.00     0.095 A 
HETATM    2  N10 UNL     1     -21.724   9.838 -22.025  1.00  0.00    -0.296 N 
ATOM      3  H10 UNL     1     -21.314   8.931 -22.247  1.00  0.00     0.187 HD
HETATM    4  N11 UNL     1     -21.398  10.548 -20.988  1.00  0.00    -0.286 N 
ATOM      5  H11 UNL     1     -20.709  10.301 -20.279  1.00  0.00     0.188 HD
HETATM    6  C10 UNL     1     -22.126  11.654 -21.023  1.00  0.00     0.145 A 
HETATM    7  N12 UNL     1     -22.107  12.723 -20.095  1.00  0.00    -0.080 NA
HETATM    8  C11 UNL     1     -22.952  11.641 -22.134  1.00  0.00     0.066 A 
ENDROOT
BRANCH   1   9
HETATM    9  C8  UNL     1     -23.297   9.968 -23.990  1.00  0.00     0.116 A 
HETATM   10  C5  UNL     1     -22.886   9.981 -25.272  1.00  0.00     0.099 A 
HETATM   11  N4  UNL     1     -23.914   9.413 -26.011  1.00  0.00    -0.285 N 
HETATM   12  N5  UNL     1     -24.881   9.080 -25.207  1.00  0.00    -0.234 N 
ATOM     13  H4  UNL     1     -23.912   9.278 -27.022  1.00  0.00     0.188 HD
HETATM   14  N6  UNL     1     -24.542   9.401 -23.971  1.00  0.00    -0.216 N 
ATOM     15  H5  UNL     1     -25.759   8.642 -25.486  1.00  0.00     0.209 HD
BRANCH  10  16
HETATM   16  C3  UNL     1     -21.616  10.439 -25.840  1.00  0.00     0.341 C 
BRANCH  16  17
HETATM   17  N1  UNL     1     -20.454  10.225 -25.006  1.00  0.00     0.097 N 
HETATM   18  C1  UNL     1     -19.338  11.085 -25.443  1.00  0.00     0.310 C 
HETATM   19  C2  UNL     1     -19.931   8.861 -25.225  1.00  0.00     0.310 C 
ENDBRANCH  16  17
BRANCH  16  20
HETATM   20  C4  UNL     1     -21.316   9.871 -27.179  1.00  0.00     0.152 C 
HETATM   21  N2  UNL     1     -21.551   8.501 -27.418  1.00  0.00    -0.083 NA
HETATM   22  N3  UNL     1     -20.844  10.590 -28.141  1.00  0.00    -0.257 N 
ATOM     23  H3  UNL     1     -20.668  11.582 -27.986  1.00  0.00     0.195 HD
BRANCH  22  24
HETATM   24  O1  UNL     1     -20.576  10.042 -29.365  1.00  0.00    -0.289 OA
ATOM     25  H1  UNL     1     -19.776  10.253 -29.832  1.00  0.00     0.244 HD
ENDBRANCH  22  24
ENDBRANCH  16  20
ENDBRANCH  10  16
BRANCH  14  26
HETATM   26  C6  UNL     1     -25.374   9.176 -22.840  1.00  0.00     0.196 A 
HETATM   27  N7  UNL     1     -25.076   9.378 -21.541  1.00  0.00    -0.220 N 
HETATM   28  O2  UNL     1     -26.117   9.046 -20.842  1.00  0.00    -0.153 OA
ATOM     29  H7  UNL     1     -24.192   9.729 -21.174  1.00  0.00     0.198 HD
HETATM   30  N8  UNL     1     -27.098   8.634 -21.580  1.00  0.00    -0.222 N 
HETATM   31  C7  UNL     1     -26.666   8.701 -22.851  1.00  0.00     0.169 A 
ATOM     32  H8  UNL     1     -28.015   8.321 -21.260  1.00  0.00     0.198 HD
BRANCH  31  33
HETATM   33  N9  UNL     1     -27.380   8.367 -23.860  1.00  0.00    -0.381 N 
ATOM     34  H92 UNL     1     -27.514   8.961 -24.678  1.00  0.00     0.157 HD
ATOM     35  H91 UNL     1     -27.902   7.503 -24.006  1.00  0.00     0.157 HD
ENDBRANCH  31  33
ENDBRANCH  14  26
ENDBRANCH   1   9
BRANCH   8  36
HETATM   36  C12 UNL     1     -23.915  12.687 -22.503  1.00  0.00     0.082 A 
HETATM   37  C13 UNL     1     -23.788  14.059 -22.423  1.00  0.00     0.144 A 
HETATM   38  N13 UNL     1     -24.910  14.652 -22.867  1.00  0.00    -0.277 N 
HETATM   39  N14 UNL     1     -25.714  13.675 -23.214  1.00  0.00    -0.240 N 
HETATM   40  N15 UNL     1     -25.151  12.492 -23.009  1.00  0.00    -0.284 N 
ATOM     41  H14 UNL     1     -26.653  13.808 -23.591  1.00  0.00     0.208 HD
ATOM     42  H15 UNL     1     -25.580  11.586 -23.202  1.00  0.00     0.188 HD
BRANCH  38  43
HETATM   43  C14 UNL     1     -25.125  16.084 -22.922  1.00  0.00     0.167 C 
HETATM   44  C15 UNL     1     -26.564  16.460 -22.854  1.00  0.00     0.201 C 
HETATM   45  O3  UNL     1     -26.874  17.159 -24.012  1.00  0.00    -0.349 OA
HETATM   46  C16 UNL     1     -25.698  17.776 -24.424  1.00  0.00     0.219 C 
HETATM   47  C19 UNL     1     -24.693  16.664 -24.248  1.00  0.00     0.210 C 
BRANCH  46  48
HETATM   48  O4  UNL     1     -25.315  18.832 -23.609  1.00  0.00    -0.361 OA
ATOM     49  H4  UNL     1     -24.379  18.864 -23.449  1.00  0.00     0.213 HD
ENDBRANCH  46  48
BRANCH  46  50
HETATM   50  C17 UNL     1     -25.793  18.240 -25.852  1.00  0.00     0.206 C 
BRANCH  50  51
HETATM   51  O5  UNL     1     -26.967  18.978 -25.993  1.00  0.00    -0.388 OA
ATOM     52  H5  UNL     1     -27.702  18.398 -25.833  1.00  0.00     0.210 HD
ENDBRANCH  50  51
BRANCH  50  53
HETATM   53  C18 UNL     1     -25.916  17.017 -26.734  1.00  0.00     0.201 C 
BRANCH  53  54
HETATM   54  O6  UNL     1     -27.240  16.575 -26.811  1.00  0.00    -0.398 OA
ATOM     55  H6  UNL     1     -27.470  16.323 -27.698  1.00  0.00     0.209 HD
ENDBRANCH  53  54
ENDBRANCH  50  53
ENDBRANCH  46  50
BRANCH  47  56
HETATM   56  O7  UNL     1     -23.379  17.123 -24.208  1.00  0.00    -0.388 OA
ATOM     57  H7  UNL     1     -23.140  17.576 -25.008  1.00  0.00     0.210 HD
ENDBRANCH  47  56
ENDBRANCH  38  43
ENDBRANCH   8  36
TORSDOF 15
ENDMDL
