MODEL 1
REMARK VINA RESULT: -11.344835191      0.000      0.000
REMARK  13 active torsions:
REMARK  status: ('A' for Active; 'I' for Inactive)
REMARK       I    between atoms: C2_2  and  N1_4 
REMARK    1  A    between atoms: N1_4  and  C3_6 
REMARK    2  A    between atoms: N5_15  and  C5_16 
REMARK    3  A    between atoms: C6_18  and  C7_19 
REMARK    4  A    between atoms: C7_19  and  O3_20 
REMARK    5  A    between atoms: C8_23  and  C9_24 
REMARK    6  A    between atoms: C8_23  and  O6_27 
REMARK    7  A    between atoms: C9_24  and  O5_25 
REMARK    8  A    between atoms: O6_27  and  C10_28 
REMARK    9  A    between atoms: N7_34  and  O8_35 
REMARK   10  A    between atoms: C14_38  and  N8_39 
REMARK   11  A    between atoms: N8_39  and  C16_41 
REMARK   12  A    between atoms: C17_44  and  N10_45 
REMARK   13  A    between atoms: C18_52  and  O11_53 
ROOT
HETATM    1  C5  UNL     1     -25.192  11.560 -22.470  1.00  0.00     0.300 C 
HETATM    2  O2  UNL     1     -23.914  11.535 -21.957  1.00  0.00    -0.329 OA
HETATM    3  C6  UNL     1     -23.548  12.739 -21.430  1.00  0.00     0.289 C 
HETATM    4  O4  UNL     1     -24.474  13.736 -21.407  1.00  0.00    -0.318 OA
HETATM    5  C8  UNL     1     -25.065  14.025 -22.640  1.00  0.00     0.227 C 
HETATM    6  C18 UNL     1     -25.228  12.742 -23.454  1.00  0.00     0.234 C 
ENDROOT
BRANCH   5   7
HETATM    7  C9  UNL     1     -26.483  14.488 -22.307  1.00  0.00     0.236 C 
BRANCH   7   8
HETATM    8  O5  UNL     1     -26.545  15.115 -21.084  1.00  0.00    -0.395 OA
ATOM      9  H5  UNL     1     -26.790  16.029 -21.167  1.00  0.00     0.209 HD
ENDBRANCH   7   8
ENDBRANCH   5   7
BRANCH   5  10
HETATM   10  O6  UNL     1     -24.312  15.007 -23.262  1.00  0.00    -0.273 OA
BRANCH  10  11
HETATM   11  C10 UNL     1     -24.750  16.092 -23.983  1.00  0.00     0.276 A 
HETATM   12  N6  UNL     1     -24.852  17.369 -23.575  1.00  0.00    -0.292 N 
HETATM   13  C11 UNL     1     -25.324  18.134 -24.584  1.00  0.00     0.203 A 
ATOM     14  H6  UNL     1     -24.611  17.709 -22.644  1.00  0.00     0.172 HD
HETATM   15  C12 UNL     1     -25.502  17.243 -25.634  1.00  0.00     0.225 A 
HETATM   16  O10 UNL     1     -25.628  19.474 -24.761  1.00  0.00    -0.304 OA
HETATM   17  O7  UNL     1     -25.149  16.050 -25.226  1.00  0.00    -0.250 OA
HETATM   18  N7  UNL     1     -25.997  17.769 -26.850  1.00  0.00    -0.231 N 
HETATM   19  C13 UNL     1     -25.788  19.186 -27.098  1.00  0.00     0.212 C 
HETATM   20  C14 UNL     1     -26.376  19.907 -25.885  1.00  0.00     0.254 C 
BRANCH  18  21
HETATM   21  O8  UNL     1     -26.628  16.977 -27.726  1.00  0.00    -0.285 OA
ATOM     22  H8  UNL     1     -27.036  17.345 -28.501  1.00  0.00     0.245 HD
ENDBRANCH  18  21
BRANCH  20  23
HETATM   23  N8  UNL     1     -26.373  21.326 -26.019  1.00  0.00    -0.321 N 
HETATM   24  C15 UNL     1     -25.241  21.996 -26.616  1.00  0.00     0.156 C 
BRANCH  23  25
HETATM   25  C16 UNL     1     -27.461  22.125 -25.579  1.00  0.00     0.262 A 
HETATM   26  N9  UNL     1     -27.450  23.473 -25.417  1.00  0.00    -0.152 N 
HETATM   27  C17 UNL     1     -28.658  23.876 -24.989  1.00  0.00     0.699 A 
ATOM     28  H9  UNL     1     -26.651  24.084 -25.592  1.00  0.00     0.188 HD
HETATM   29  N11 UNL     1     -29.399  22.760 -24.894  1.00  0.00    -0.088 N 
HETATM   30  O9  UNL     1     -28.673  21.734 -25.248  1.00  0.00    -0.185 OA
ATOM     31  H11 UNL     1     -30.373  22.721 -24.594  1.00  0.00     0.214 HD
BRANCH  27  32
HETATM   32  N10 UNL     1     -29.067  25.044 -24.717  1.00  0.00    -0.233 N 
ATOM     33 2H10 UNL     1     -28.602  25.907 -25.001  1.00  0.00     0.174 HD
ATOM     34 1H10 UNL     1     -29.892  25.336 -24.192  1.00  0.00     0.174 HD
ENDBRANCH  27  32
ENDBRANCH  23  25
ENDBRANCH  20  23
ENDBRANCH  10  11
ENDBRANCH   5  10
BRANCH   6  35
HETATM   35  O11 UNL     1     -24.264  12.578 -24.419  1.00  0.00    -0.385 OA
ATOM     36  H11 UNL     1     -23.496  13.093 -24.201  1.00  0.00     0.210 HD
ENDBRANCH   6  35
BRANCH   3  37
HETATM   37  C7  UNL     1     -23.042  12.579 -19.990  1.00  0.00     0.225 C 
BRANCH  37  38
HETATM   38  O3  UNL     1     -24.149  12.194 -19.234  1.00  0.00    -0.396 OA
ATOM     39  H3  UNL     1     -24.210  11.250 -19.320  1.00  0.00     0.209 HD
ENDBRANCH  37  38
ENDBRANCH   3  37
BRANCH   1  40
HETATM   40  N5  UNL     1     -25.516  10.315 -23.132  1.00  0.00    -0.076 N 
HETATM   41  C3  UNL     1     -24.732   9.592 -23.944  1.00  0.00     0.719 A 
HETATM   42  N2  UNL     1     -25.424   8.509 -24.344  1.00  0.00    -0.020 N 
HETATM   43  C4  UNL     1     -26.634   8.545 -23.794  1.00  0.00     0.705 A 
ATOM     44  H2  UNL     1     -25.077   7.781 -24.967  1.00  0.00     0.203 HD
HETATM   45  N3  UNL     1     -27.578   7.684 -23.942  1.00  0.00    -0.233 N 
HETATM   46  N4  UNL     1     -26.676   9.660 -23.052  1.00  0.00    -0.113 N 
ATOM     47  H32 UNL     1     -27.546   6.835 -24.507  1.00  0.00     0.174 HD
ATOM     48  H31 UNL     1     -28.507   7.711 -23.520  1.00  0.00     0.174 HD
ATOM     49  H4  UNL     1     -27.480   9.966 -22.504  1.00  0.00     0.206 HD
BRANCH  41  50
HETATM   50  N1  UNL     1     -23.380   9.920 -24.322  1.00  0.00    -0.158 N 
HETATM   51  C2  UNL     1     -23.022   9.899 -25.687  1.00  0.00     0.232 C 
HETATM   52  C1  UNL     1     -21.638  10.234 -26.077  1.00  0.00     0.118 C 
HETATM   53  O1  UNL     1     -23.854   9.606 -26.562  1.00  0.00    -0.273 OA
ATOM     54  H1  UNL     1     -22.691  10.165 -23.610  1.00  0.00     0.187 HD
ENDBRANCH  41  50
ENDBRANCH   1  40
TORSDOF 13
ENDMDL
MODEL 2
REMARK VINA RESULT: -11.320118761      1.192      2.119
REMARK  13 active torsions:
REMARK  status: ('A' for Active; 'I' for Inactive)
REMARK       I    between atoms: C2_2  and  N1_4 
REMARK    1  A    between atoms: N1_4  and  C3_6 
REMARK    2  A    between atoms: N5_15  and  C5_16 
REMARK    3  A    between atoms: C6_18  and  C7_19 
REMARK    4  A    between atoms: C7_19  and  O3_20 
REMARK    5  A    between atoms: C8_23  and  C9_24 
REMARK    6  A    between atoms: C8_23  and  O6_27 
REMARK    7  A    between atoms: C9_24  and  O5_25 
REMARK    8  A    between atoms: O6_27  and  C10_28 
REMARK    9  A    between atoms: N7_34  and  O8_35 
REMARK   10  A    between atoms: C14_38  and  N8_39 
REMARK   11  A    between atoms: N8_39  and  C16_41 
REMARK   12  A    between atoms: C17_44  and  N10_45 
REMARK   13  A    between atoms: C18_52  and  O11_53 
ROOT
HETATM    1  C5  UNL     1     -24.694  11.863 -22.803  1.00  0.00     0.300 C 
HETATM    2  O2  UNL     1     -23.480  11.935 -22.156  1.00  0.00    -0.329 OA
HETATM    3  C6  UNL     1     -23.367  13.065 -21.400  1.00  0.00     0.289 C 
HETATM    4  O4  UNL     1     -24.444  13.893 -21.320  1.00  0.00    -0.318 OA
HETATM    5  C8  UNL     1     -24.963  14.309 -22.549  1.00  0.00     0.227 C 
HETATM    6  C18 UNL     1     -24.837  13.185 -23.577  1.00  0.00     0.234 C 
ENDROOT
BRANCH   5   7
HETATM    7  C9  UNL     1     -26.463  14.489 -22.313  1.00  0.00     0.236 C 
BRANCH   7   8
HETATM    8  O5  UNL     1     -26.719  15.283 -21.219  1.00  0.00    -0.395 OA
ATOM      9  H5  UNL     1     -27.541  15.057 -20.801  1.00  0.00     0.209 HD
ENDBRANCH   7   8
ENDBRANCH   5   7
BRANCH   5  10
HETATM   10  O6  UNL     1     -24.332  15.488 -22.910  1.00  0.00    -0.273 OA
BRANCH  10  11
HETATM   11  C10 UNL     1     -24.792  16.487 -23.734  1.00  0.00     0.276 A 
HETATM   12  N6  UNL     1     -24.976  17.786 -23.435  1.00  0.00    -0.292 N 
HETATM   13  C11 UNL     1     -25.442  18.441 -24.522  1.00  0.00     0.203 A 
ATOM     14  H6  UNL     1     -24.791  18.211 -22.527  1.00  0.00     0.172 HD
HETATM   15  C12 UNL     1     -25.531  17.461 -25.501  1.00  0.00     0.225 A 
HETATM   16  O10 UNL     1     -25.805  19.745 -24.819  1.00  0.00    -0.304 OA
HETATM   17  O7  UNL     1     -25.136  16.325 -24.983  1.00  0.00    -0.250 OA
HETATM   18  N7  UNL     1     -25.999  17.861 -26.774  1.00  0.00    -0.231 N 
HETATM   19  C13 UNL     1     -25.851  19.264 -27.129  1.00  0.00     0.212 C 
HETATM   20  C14 UNL     1     -26.525  20.046 -26.002  1.00  0.00     0.254 C 
BRANCH  18  21
HETATM   21  O8  UNL     1     -26.553  16.970 -27.606  1.00  0.00    -0.285 OA
ATOM     22  H8  UNL     1     -27.494  16.843 -27.620  1.00  0.00     0.245 HD
ENDBRANCH  18  21
BRANCH  20  23
HETATM   23  N8  UNL     1     -26.587  21.449 -26.251  1.00  0.00    -0.321 N 
HETATM   24  C15 UNL     1     -25.602  22.079 -27.100  1.00  0.00     0.156 C 
BRANCH  23  25
HETATM   25  C16 UNL     1     -27.599  22.268 -25.688  1.00  0.00     0.262 A 
HETATM   26  N9  UNL     1     -27.512  23.604 -25.458  1.00  0.00    -0.152 N 
HETATM   27  C17 UNL     1     -28.663  24.034 -24.916  1.00  0.00     0.699 A 
ATOM     28  H9  UNL     1     -26.701  24.188 -25.663  1.00  0.00     0.188 HD
HETATM   29  N11 UNL     1     -29.447  22.948 -24.820  1.00  0.00    -0.088 N 
HETATM   30  O9  UNL     1     -28.800  21.913 -25.282  1.00  0.00    -0.185 OA
ATOM     31  H11 UNL     1     -30.396  22.935 -24.446  1.00  0.00     0.214 HD
BRANCH  27  32
HETATM   32  N10 UNL     1     -28.995  25.203 -24.553  1.00  0.00    -0.233 N 
ATOM     33 2H10 UNL     1     -28.341  25.938 -24.284  1.00  0.00     0.174 HD
ATOM     34 1H10 UNL     1     -29.925  25.614 -24.463  1.00  0.00     0.174 HD
ENDBRANCH  27  32
ENDBRANCH  23  25
ENDBRANCH  20  23
ENDBRANCH  10  11
ENDBRANCH   5  10
BRANCH   6  35
HETATM   35  O11 UNL     1     -23.778  13.342 -24.437  1.00  0.00    -0.385 OA
ATOM     36  H11 UNL     1     -23.854  14.169 -24.897  1.00  0.00     0.210 HD
ENDBRANCH   6  35
BRANCH   3  37
HETATM   37  C7  UNL     1     -22.972  12.725 -19.956  1.00  0.00     0.225 C 
BRANCH  37  38
HETATM   38  O3  UNL     1     -24.146  12.319 -19.321  1.00  0.00    -0.396 OA
ATOM     39  H3  UNL     1     -23.927  12.226 -18.401  1.00  0.00     0.209 HD
ENDBRANCH  37  38
ENDBRANCH   3  37
BRANCH   1  40
HETATM   40  N5  UNL     1     -24.746  10.723 -23.694  1.00  0.00    -0.076 N 
HETATM   41  C3  UNL     1     -24.968   9.442 -23.371  1.00  0.00     0.719 A 
HETATM   42  N2  UNL     1     -24.929   8.710 -24.500  1.00  0.00    -0.020 N 
HETATM   43  C4  UNL     1     -24.684   9.518 -25.528  1.00  0.00     0.705 A 
ATOM     44  H2  UNL     1     -25.065   7.701 -24.558  1.00  0.00     0.203 HD
HETATM   45  N3  UNL     1     -24.574   9.186 -26.766  1.00  0.00    -0.233 N 
HETATM   46  N4  UNL     1     -24.574  10.752 -25.016  1.00  0.00    -0.113 N 
ATOM     47  H32 UNL     1     -24.657   8.247 -27.154  1.00  0.00     0.174 HD
ATOM     48  H31 UNL     1     -24.387   9.805 -27.554  1.00  0.00     0.174 HD
ATOM     49  H4  UNL     1     -24.385  11.594 -25.561  1.00  0.00     0.206 HD
BRANCH  41  50
HETATM   50  N1  UNL     1     -25.206   8.936 -22.043  1.00  0.00    -0.158 N 
HETATM   51  C2  UNL     1     -26.493   9.067 -21.476  1.00  0.00     0.232 C 
HETATM   52  C1  UNL     1     -26.739   8.552 -20.115  1.00  0.00     0.118 C 
HETATM   53  O1  UNL     1     -27.417   9.607 -22.107  1.00  0.00    -0.273 OA
ATOM     54  H1  UNL     1     -24.454   8.489 -21.519  1.00  0.00     0.187 HD
ENDBRANCH  41  50
ENDBRANCH   1  40
TORSDOF 13
ENDMDL
MODEL 3
REMARK VINA RESULT: -10.681761891      1.207      1.741
REMARK  13 active torsions:
REMARK  status: ('A' for Active; 'I' for Inactive)
REMARK       I    between atoms: C2_2  and  N1_4 
REMARK    1  A    between atoms: N1_4  and  C3_6 
REMARK    2  A    between atoms: N5_15  and  C5_16 
REMARK    3  A    between atoms: C6_18  and  C7_19 
REMARK    4  A    between atoms: C7_19  and  O3_20 
REMARK    5  A    between atoms: C8_23  and  C9_24 
REMARK    6  A    between atoms: C8_23  and  O6_27 
REMARK    7  A    between atoms: C9_24  and  O5_25 
REMARK    8  A    between atoms: O6_27  and  C10_28 
REMARK    9  A    between atoms: N7_34  and  O8_35 
REMARK   10  A    between atoms: C14_38  and  N8_39 
REMARK   11  A    between atoms: N8_39  and  C16_41 
REMARK   12  A    between atoms: C17_44  and  N10_45 
REMARK   13  A    between atoms: C18_52  and  O11_53 
ROOT
HETATM    1  C5  UNL     1     -25.223  11.521 -22.469  1.00  0.00     0.300 C 
HETATM    2  O2  UNL     1     -23.934  11.532 -21.984  1.00  0.00    -0.329 OA
HETATM    3  C6  UNL     1     -23.595  12.742 -21.455  1.00  0.00     0.289 C 
HETATM    4  O4  UNL     1     -24.550  13.710 -21.403  1.00  0.00    -0.318 OA
HETATM    5  C8  UNL     1     -25.176  13.990 -22.621  1.00  0.00     0.227 C 
HETATM    6  C18 UNL     1     -25.316  12.709 -23.443  1.00  0.00     0.234 C 
ENDROOT
BRANCH   5   7
HETATM    7  C9  UNL     1     -26.600  14.406 -22.255  1.00  0.00     0.236 C 
BRANCH   7   8
HETATM    8  O5  UNL     1     -26.633  15.187 -21.123  1.00  0.00    -0.395 OA
ATOM      9  H5  UNL     1     -27.118  14.773 -20.420  1.00  0.00     0.209 HD
ENDBRANCH   7   8
ENDBRANCH   5   7
BRANCH   5  10
HETATM   10  O6  UNL     1     -24.467  15.000 -23.251  1.00  0.00    -0.273 OA
BRANCH  10  11
HETATM   11  C10 UNL     1     -24.951  16.128 -23.867  1.00  0.00     0.276 A 
HETATM   12  N6  UNL     1     -25.335  17.283 -23.294  1.00  0.00    -0.292 N 
HETATM   13  C11 UNL     1     -25.749  18.148 -24.246  1.00  0.00     0.203 A 
ATOM     14  H6  UNL     1     -25.317  17.476 -22.293  1.00  0.00     0.172 HD
HETATM   15  C12 UNL     1     -25.594  17.449 -25.436  1.00  0.00     0.225 A 
HETATM   16  O10 UNL     1     -26.240  19.444 -24.270  1.00  0.00    -0.304 OA
HETATM   17  O7  UNL     1     -25.120  16.261 -25.155  1.00  0.00    -0.250 OA
HETATM   18  N7  UNL     1     -25.955  18.116 -26.629  1.00  0.00    -0.231 N 
HETATM   19  C13 UNL     1     -25.948  19.571 -26.609  1.00  0.00     0.212 C 
HETATM   20  C14 UNL     1     -26.847  19.969 -25.438  1.00  0.00     0.254 C 
BRANCH  18  21
HETATM   21  O8  UNL     1     -26.285  17.420 -27.724  1.00  0.00    -0.285 OA
ATOM     22  H8  UNL     1     -26.995  17.712 -28.285  1.00  0.00     0.245 HD
ENDBRANCH  18  21
BRANCH  20  23
HETATM   23  N8  UNL     1     -27.060  21.376 -25.348  1.00  0.00    -0.321 N 
HETATM   24  C15 UNL     1     -28.398  21.899 -25.196  1.00  0.00     0.156 C 
BRANCH  23  25
HETATM   25  C16 UNL     1     -25.987  22.303 -25.401  1.00  0.00     0.262 A 
HETATM   26  N9  UNL     1     -24.958  22.388 -24.519  1.00  0.00    -0.152 N 
HETATM   27  C17 UNL     1     -24.137  23.384 -24.894  1.00  0.00     0.699 A 
ATOM     28  H9  UNL     1     -24.828  21.791 -23.702  1.00  0.00     0.188 HD
HETATM   29  N11 UNL     1     -24.679  23.900 -26.009  1.00  0.00    -0.088 N 
HETATM   30  O9  UNL     1     -25.773  23.247 -26.294  1.00  0.00    -0.185 OA
ATOM     31  H11 UNL     1     -24.296  24.677 -26.548  1.00  0.00     0.214 HD
BRANCH  27  32
HETATM   32  N10 UNL     1     -23.068  23.794 -24.350  1.00  0.00    -0.233 N 
ATOM     33 2H10 UNL     1     -23.025  24.400 -23.531  1.00  0.00     0.174 HD
ATOM     34 1H10 UNL     1     -22.098  23.609 -24.608  1.00  0.00     0.174 HD
ENDBRANCH  27  32
ENDBRANCH  23  25
ENDBRANCH  20  23
ENDBRANCH  10  11
ENDBRANCH   5  10
BRANCH   6  35
HETATM   35  O11 UNL     1     -24.368  12.582 -24.429  1.00  0.00    -0.385 OA
ATOM     36  H11 UNL     1     -23.935  13.416 -24.572  1.00  0.00     0.210 HD
ENDBRANCH   6  35
BRANCH   3  37
HETATM   37  C7  UNL     1     -23.054  12.587 -20.026  1.00  0.00     0.225 C 
BRANCH  37  38
HETATM   38  O3  UNL     1     -24.144  12.215 -19.240  1.00  0.00    -0.396 OA
ATOM     39  H3  UNL     1     -23.788  11.985 -18.390  1.00  0.00     0.209 HD
ENDBRANCH  37  38
ENDBRANCH   3  37
BRANCH   1  40
HETATM   40  N5  UNL     1     -25.522  10.271 -23.136  1.00  0.00    -0.076 N 
HETATM   41  C3  UNL     1     -24.727   9.572 -23.958  1.00  0.00     0.719 A 
HETATM   42  N2  UNL     1     -25.396   8.475 -24.358  1.00  0.00    -0.020 N 
HETATM   43  C4  UNL     1     -26.601   8.477 -23.796  1.00  0.00     0.705 A 
ATOM     44  H2  UNL     1     -25.037   7.758 -24.988  1.00  0.00     0.203 HD
HETATM   45  N3  UNL     1     -27.525   7.594 -23.940  1.00  0.00    -0.233 N 
HETATM   46  N4  UNL     1     -26.664   9.588 -23.048  1.00  0.00    -0.113 N 
ATOM     47  H32 UNL     1     -27.477   6.749 -24.509  1.00  0.00     0.174 HD
ATOM     48  H31 UNL     1     -28.450   7.595 -23.509  1.00  0.00     0.174 HD
ATOM     49  H4  UNL     1     -27.471   9.870 -22.491  1.00  0.00     0.206 HD
BRANCH  41  50
HETATM   50  N1  UNL     1     -23.388   9.936 -24.347  1.00  0.00    -0.158 N 
HETATM   51  C2  UNL     1     -23.035   9.910 -25.714  1.00  0.00     0.232 C 
HETATM   52  C1  UNL     1     -21.665  10.281 -26.115  1.00  0.00     0.118 C 
HETATM   53  O1  UNL     1     -23.863   9.582 -26.581  1.00  0.00    -0.273 OA
ATOM     54  H1  UNL     1     -22.703  10.209 -23.642  1.00  0.00     0.187 HD
ENDBRANCH  41  50
ENDBRANCH   1  40
TORSDOF 13
ENDMDL
MODEL 4
REMARK VINA RESULT: -10.679959435      1.769      2.769
REMARK  13 active torsions:
REMARK  status: ('A' for Active; 'I' for Inactive)
REMARK       I    between atoms: C2_2  and  N1_4 
REMARK    1  A    between atoms: N1_4  and  C3_6 
REMARK    2  A    between atoms: N5_15  and  C5_16 
REMARK    3  A    between atoms: C6_18  and  C7_19 
REMARK    4  A    between atoms: C7_19  and  O3_20 
REMARK    5  A    between atoms: C8_23  and  C9_24 
REMARK    6  A    between atoms: C8_23  and  O6_27 
REMARK    7  A    between atoms: C9_24  and  O5_25 
REMARK    8  A    between atoms: O6_27  and  C10_28 
REMARK    9  A    between atoms: N7_34  and  O8_35 
REMARK   10  A    between atoms: C14_38  and  N8_39 
REMARK   11  A    between atoms: N8_39  and  C16_41 
REMARK   12  A    between atoms: C17_44  and  N10_45 
REMARK   13  A    between atoms: C18_52  and  O11_53 
ROOT
HETATM    1  C5  UNL     1     -24.711  11.884 -22.795  1.00  0.00     0.300 C 
HETATM    2  O2  UNL     1     -23.507  11.961 -22.130  1.00  0.00    -0.329 OA
HETATM    3  C6  UNL     1     -23.394  13.109 -21.403  1.00  0.00     0.289 C 
HETATM    4  O4  UNL     1     -24.462  13.951 -21.365  1.00  0.00    -0.318 OA
HETATM    5  C8  UNL     1     -24.956  14.340 -22.613  1.00  0.00     0.227 C 
HETATM    6  C18 UNL     1     -24.826  13.186 -23.607  1.00  0.00     0.234 C 
ENDROOT
BRANCH   5   7
HETATM    7  C9  UNL     1     -26.456  14.543 -22.407  1.00  0.00     0.236 C 
BRANCH   7   8
HETATM    8  O5  UNL     1     -26.720  15.404 -21.366  1.00  0.00    -0.395 OA
ATOM      9  H5  UNL     1     -26.977  16.265 -21.675  1.00  0.00     0.209 HD
ENDBRANCH   7   8
ENDBRANCH   5   7
BRANCH   5  10
HETATM   10  O6  UNL     1     -24.304  15.501 -22.996  1.00  0.00    -0.273 OA
BRANCH  10  11
HETATM   11  C10 UNL     1     -24.821  16.598 -23.642  1.00  0.00     0.276 A 
HETATM   12  N6  UNL     1     -25.178  17.780 -23.109  1.00  0.00    -0.292 N 
HETATM   13  C11 UNL     1     -25.640  18.597 -24.082  1.00  0.00     0.203 A 
ATOM     14  H6  UNL     1     -25.110  18.022 -22.121  1.00  0.00     0.172 HD
HETATM   15  C12 UNL     1     -25.543  17.839 -25.241  1.00  0.00     0.225 A 
HETATM   16  O10 UNL     1     -26.134  19.890 -24.145  1.00  0.00    -0.304 OA
HETATM   17  O7  UNL     1     -25.054  16.666 -24.926  1.00  0.00    -0.250 OA
HETATM   18  N7  UNL     1     -25.964  18.446 -26.446  1.00  0.00    -0.231 N 
HETATM   19  C13 UNL     1     -25.959  19.900 -26.499  1.00  0.00     0.212 C 
HETATM   20  C14 UNL     1     -26.799  20.357 -25.306  1.00  0.00     0.254 C 
BRANCH  18  21
HETATM   21  O8  UNL     1     -26.348  17.697 -27.487  1.00  0.00    -0.285 OA
ATOM     22  H8  UNL     1     -27.231  17.350 -27.532  1.00  0.00     0.245 HD
ENDBRANCH  18  21
BRANCH  20  23
HETATM   23  N8  UNL     1     -27.010  21.767 -25.275  1.00  0.00    -0.321 N 
HETATM   24  C15 UNL     1     -28.351  22.299 -25.198  1.00  0.00     0.156 C 
BRANCH  23  25
HETATM   25  C16 UNL     1     -25.932  22.688 -25.318  1.00  0.00     0.262 A 
HETATM   26  N9  UNL     1     -24.884  22.735 -24.454  1.00  0.00    -0.152 N 
HETATM   27  C17 UNL     1     -24.064  23.738 -24.809  1.00  0.00     0.699 A 
ATOM     28  H9  UNL     1     -24.743  22.109 -23.661  1.00  0.00     0.188 HD
HETATM   29  N11 UNL     1     -24.624  24.297 -25.895  1.00  0.00    -0.088 N 
HETATM   30  O9  UNL     1     -25.728  23.662 -26.180  1.00  0.00    -0.185 OA
ATOM     31  H11 UNL     1     -24.247  25.091 -26.413  1.00  0.00     0.214 HD
BRANCH  27  32
HETATM   32  N10 UNL     1     -22.981  24.122 -24.273  1.00  0.00    -0.233 N 
ATOM     33 2H10 UNL     1     -22.449  23.588 -23.586  1.00  0.00     0.174 HD
ATOM     34 1H10 UNL     1     -22.460  24.988 -24.414  1.00  0.00     0.174 HD
ENDBRANCH  27  32
ENDBRANCH  23  25
ENDBRANCH  20  23
ENDBRANCH  10  11
ENDBRANCH   5  10
BRANCH   6  35
HETATM   35  O11 UNL     1     -23.751  13.307 -24.454  1.00  0.00    -0.385 OA
ATOM     36  H11 UNL     1     -23.224  14.056 -24.202  1.00  0.00     0.210 HD
ENDBRANCH   6  35
BRANCH   3  37
HETATM   37  C7  UNL     1     -23.026  12.805 -19.944  1.00  0.00     0.225 C 
BRANCH  37  38
HETATM   38  O3  UNL     1     -24.178  12.280 -19.359  1.00  0.00    -0.396 OA
ATOM     39  H3  UNL     1     -24.673  13.025 -19.039  1.00  0.00     0.209 HD
ENDBRANCH  37  38
ENDBRANCH   3  37
BRANCH   1  40
HETATM   40  N5  UNL     1     -24.763  10.721 -23.655  1.00  0.00    -0.076 N 
HETATM   41  C3  UNL     1     -24.962   9.446 -23.296  1.00  0.00     0.719 A 
HETATM   42  N2  UNL     1     -24.931   8.686 -24.405  1.00  0.00    -0.020 N 
HETATM   43  C4  UNL     1     -24.715   9.469 -25.458  1.00  0.00     0.705 A 
ATOM     44  H2  UNL     1     -25.054   7.674 -24.435  1.00  0.00     0.203 HD
HETATM   45  N3  UNL     1     -24.620   9.106 -26.688  1.00  0.00    -0.233 N 
HETATM   46  N4  UNL     1     -24.613  10.718 -24.981  1.00  0.00    -0.113 N 
ATOM     47  H32 UNL     1     -24.697   8.156 -27.051  1.00  0.00     0.174 HD
ATOM     48  H31 UNL     1     -24.454   9.707 -27.496  1.00  0.00     0.174 HD
ATOM     49  H4  UNL     1     -24.445  11.547 -25.550  1.00  0.00     0.206 HD
BRANCH  41  50
HETATM   50  N1  UNL     1     -25.171   8.972 -21.951  1.00  0.00    -0.158 N 
HETATM   51  C2  UNL     1     -26.474   8.998 -21.406  1.00  0.00     0.232 C 
HETATM   52  C1  UNL     1     -26.691   8.515 -20.028  1.00  0.00     0.118 C 
HETATM   53  O1  UNL     1     -27.436   9.419 -22.070  1.00  0.00    -0.273 OA
ATOM     54  H1  UNL     1     -24.388   8.623 -21.399  1.00  0.00     0.187 HD
ENDBRANCH  41  50
ENDBRANCH   1  40
TORSDOF 13
ENDMDL
MODEL 5
REMARK VINA RESULT: -10.570307134      1.124      2.211
REMARK  13 active torsions:
REMARK  status: ('A' for Active; 'I' for Inactive)
REMARK       I    between atoms: C2_2  and  N1_4 
REMARK    1  A    between atoms: N1_4  and  C3_6 
REMARK    2  A    between atoms: N5_15  and  C5_16 
REMARK    3  A    between atoms: C6_18  and  C7_19 
REMARK    4  A    between atoms: C7_19  and  O3_20 
REMARK    5  A    between atoms: C8_23  and  C9_24 
REMARK    6  A    between atoms: C8_23  and  O6_27 
REMARK    7  A    between atoms: C9_24  and  O5_25 
REMARK    8  A    between atoms: O6_27  and  C10_28 
REMARK    9  A    between atoms: N7_34  and  O8_35 
REMARK   10  A    between atoms: C14_38  and  N8_39 
REMARK   11  A    between atoms: N8_39  and  C16_41 
REMARK   12  A    between atoms: C17_44  and  N10_45 
REMARK   13  A    between atoms: C18_52  and  O11_53 
ROOT
HETATM    1  C5  UNL     1     -24.359  11.746 -23.310  1.00  0.00     0.300 C 
HETATM    2  O2  UNL     1     -23.330  11.907 -22.408  1.00  0.00    -0.329 OA
HETATM    3  C6  UNL     1     -23.649  12.786 -21.416  1.00  0.00     0.289 C 
HETATM    4  O4  UNL     1     -24.907  13.304 -21.398  1.00  0.00    -0.318 OA
HETATM    5  C8  UNL     1     -25.314  13.911 -22.589  1.00  0.00     0.227 C 
HETATM    6  C18 UNL     1     -24.727  13.163 -23.785  1.00  0.00     0.234 C 
ENDROOT
BRANCH   5   7
HETATM    7  C9  UNL     1     -26.824  13.686 -22.659  1.00  0.00     0.236 C 
BRANCH   7   8
HETATM    8  O5  UNL     1     -27.169  12.401 -22.310  1.00  0.00    -0.395 OA
ATOM      9  H5  UNL     1     -26.767  11.758 -22.882  1.00  0.00     0.209 HD
ENDBRANCH   7   8
ENDBRANCH   5   7
BRANCH   5  10
HETATM   10  O6  UNL     1     -24.974  15.253 -22.530  1.00  0.00    -0.273 OA
BRANCH  10  11
HETATM   11  C10 UNL     1     -25.308  16.259 -23.405  1.00  0.00     0.276 A 
HETATM   12  N6  UNL     1     -25.485  17.564 -23.134  1.00  0.00    -0.292 N 
HETATM   13  C11 UNL     1     -25.805  18.225 -24.269  1.00  0.00     0.203 A 
ATOM     14  H6  UNL     1     -25.392  17.991 -22.213  1.00  0.00     0.172 HD
HETATM   15  C12 UNL     1     -25.812  17.241 -25.248  1.00  0.00     0.225 A 
HETATM   16  O10 UNL     1     -26.093  19.537 -24.611  1.00  0.00    -0.304 OA
HETATM   17  O7  UNL     1     -25.513  16.098 -24.684  1.00  0.00    -0.250 OA
HETATM   18  N7  UNL     1     -26.121  17.645 -26.568  1.00  0.00    -0.231 N 
HETATM   19  C13 UNL     1     -25.892  19.040 -26.910  1.00  0.00     0.212 C 
HETATM   20  C14 UNL     1     -26.666  19.850 -25.870  1.00  0.00     0.254 C 
BRANCH  18  21
HETATM   21  O8  UNL     1     -26.603  16.764 -27.453  1.00  0.00    -0.285 OA
ATOM     22  H8  UNL     1     -26.702  17.003 -28.367  1.00  0.00     0.245 HD
ENDBRANCH  18  21
BRANCH  20  23
HETATM   23  N8  UNL     1     -26.657  21.252 -26.130  1.00  0.00    -0.321 N 
HETATM   24  C15 UNL     1     -25.598  21.836 -26.921  1.00  0.00     0.156 C 
BRANCH  23  25
HETATM   25  C16 UNL     1     -27.668  22.115 -25.633  1.00  0.00     0.262 A 
HETATM   26  N9  UNL     1     -27.571  23.462 -25.490  1.00  0.00    -0.152 N 
HETATM   27  C17 UNL     1     -28.725  23.936 -24.992  1.00  0.00     0.699 A 
ATOM     28  H9  UNL     1     -26.753  24.025 -25.724  1.00  0.00     0.188 HD
HETATM   29  N11 UNL     1     -29.520  22.865 -24.835  1.00  0.00    -0.088 N 
HETATM   30  O9  UNL     1     -28.876  21.796 -25.220  1.00  0.00    -0.185 OA
ATOM     31  H11 UNL     1     -30.473  22.884 -24.472  1.00  0.00     0.214 HD
BRANCH  27  32
HETATM   32  N10 UNL     1     -29.051  25.129 -24.710  1.00  0.00    -0.233 N 
ATOM     33 2H10 UNL     1     -29.891  25.399 -24.198  1.00  0.00     0.174 HD
ATOM     34 1H10 UNL     1     -28.566  26.001 -24.924  1.00  0.00     0.174 HD
ENDBRANCH  27  32
ENDBRANCH  23  25
ENDBRANCH  20  23
ENDBRANCH  10  11
ENDBRANCH   5  10
BRANCH   6  35
HETATM   35  O11 UNL     1     -23.625  13.775 -24.330  1.00  0.00    -0.385 OA
ATOM     36  H11 UNL     1     -23.492  13.470 -25.220  1.00  0.00     0.210 HD
ENDBRANCH   6  35
BRANCH   3  37
HETATM   37  C7  UNL     1     -23.413  12.165 -20.032  1.00  0.00     0.225 C 
BRANCH  37  38
HETATM   38  O3  UNL     1     -24.675  11.829 -19.541  1.00  0.00    -0.396 OA
ATOM     39  H3  UNL     1     -25.239  11.750 -20.302  1.00  0.00     0.209 HD
ENDBRANCH  37  38
ENDBRANCH   3  37
BRANCH   1  40
HETATM   40  N5  UNL     1     -23.959  10.907 -24.419  1.00  0.00    -0.076 N 
HETATM   41  C3  UNL     1     -24.492   9.735 -24.793  1.00  0.00     0.719 A 
HETATM   42  N2  UNL     1     -23.819   9.291 -25.870  1.00  0.00    -0.020 N 
HETATM   43  C4  UNL     1     -22.869  10.170 -26.177  1.00  0.00     0.705 A 
ATOM     44  H2  UNL     1     -24.007   8.423 -26.370  1.00  0.00     0.203 HD
HETATM   45  N3  UNL     1     -22.023  10.092 -27.143  1.00  0.00    -0.233 N 
HETATM   46  N4  UNL     1     -22.968  11.158 -25.276  1.00  0.00    -0.113 N 
ATOM     47  H32 UNL     1     -21.948   9.340 -27.828  1.00  0.00     0.174 HD
ATOM     48  H31 UNL     1     -21.295  10.766 -27.378  1.00  0.00     0.174 HD
ATOM     49  H4  UNL     1     -22.369  11.983 -25.249  1.00  0.00     0.206 HD
BRANCH  41  50
HETATM   50  N1  UNL     1     -25.595   9.068 -24.149  1.00  0.00    -0.158 N 
HETATM   51  C2  UNL     1     -26.314   8.082 -24.860  1.00  0.00     0.232 C 
HETATM   52  C1  UNL     1     -27.445   7.398 -24.204  1.00  0.00     0.118 C 
HETATM   53  O1  UNL     1     -26.005   7.782 -26.026  1.00  0.00    -0.273 OA
ATOM     54  H1  UNL     1     -25.854   9.306 -23.192  1.00  0.00     0.187 HD
ENDBRANCH  41  50
ENDBRANCH   1  40
TORSDOF 13
ENDMDL
