MODEL 1
REMARK VINA RESULT: -7.046545797      0.000      0.000
REMARK  19 active torsions:
REMARK  status: ('A' for Active; 'I' for Inactive)
REMARK    1  A    between atoms: N1_1  and  N2_4 
REMARK    2  A    between atoms: N2_4  and  N3_5 
REMARK    3  A    between atoms: N3_5  and  N4_7 
REMARK    4  A    between atoms: N4_7  and  C1_9 
REMARK    5  A    between atoms: C2_10  and  O1_11 
REMARK    6  A    between atoms: C6_16  and  C7_17 
REMARK    7  A    between atoms: C7_17  and  O2_18 
REMARK    8  A    between atoms: C7_17  and  O3_20 
REMARK    9  A    between atoms: C9_24  and  C10_25 
REMARK   10  A    between atoms: C10_25  and  O5_26 
REMARK   11  A    between atoms: C16_36  and  C17_37 
REMARK   12  A    between atoms: C17_37  and  O9_38 
REMARK   13  A    between atoms: C17_37  and  C18_40 
REMARK   14  A    between atoms: C18_40  and  O10_41 
REMARK   15  A    between atoms: C18_40  and  C19_43 
REMARK   16  A    between atoms: C19_43  and  O11_44 
REMARK   17  A    between atoms: C19_43  and  C20_46 
REMARK   18  A    between atoms: C20_46  and  O12_47 
REMARK   19  A    between atoms: C21_49  and  O13_50 
ROOT
HETATM    1  C1  UNL     1      -4.874 -13.692   7.114  1.00  0.00     0.120 A 
HETATM    2  C2  UNL     1      -3.919 -14.395   7.923  1.00  0.00     0.132 A 
HETATM    3  C3  UNL     1      -3.394 -15.602   7.522  1.00  0.00     0.121 A 
HETATM    4  C4  UNL     1      -2.435 -16.397   8.240  1.00  0.00     0.005 C 
HETATM    5  C5  UNL     1      -1.773 -17.370   7.511  1.00  0.00     0.029 C 
HETATM    6  C6  UNL     1      -0.533 -17.955   7.768  1.00  0.00     0.032 C 
HETATM    7  C8  UNL     1       0.287 -17.764   8.864  1.00  0.00     0.105 A 
HETATM    8  O4  UNL     1       1.405 -18.403   8.701  1.00  0.00    -0.311 OA
HETATM    9  C9  UNL     1       2.334 -18.356   9.630  1.00  0.00     0.081 A 
HETATM   10  C11 UNL     1       2.185 -17.647  10.804  1.00  0.00     0.090 A 
HETATM   11  C12 UNL     1       1.003 -16.961  10.997  1.00  0.00     0.191 A 
HETATM   12  O6  UNL     1       0.782 -16.292  12.030  1.00  0.00    -0.287 OA
HETATM   13  C13 UNL     1       0.037 -17.019  10.014  1.00  0.00     0.099 A 
HETATM   14  C14 UNL     1      -1.093 -16.288  10.340  1.00  0.00     0.189 C 
HETATM   15  O7  UNL     1      -1.005 -15.654  11.403  1.00  0.00    -0.287 OA
HETATM   16  C15 UNL     1      -2.264 -16.226   9.583  1.00  0.00     0.070 C 
HETATM   17  O8  UNL     1      -3.822 -16.079   6.332  1.00  0.00    -0.306 OA
HETATM   18  C16 UNL     1      -4.670 -15.497   5.570  1.00  0.00     0.120 A 
HETATM   19  C21 UNL     1      -5.238 -14.263   5.935  1.00  0.00     0.129 A 
ENDROOT
BRANCH   2  20
HETATM   20  O1  UNL     1      -3.593 -13.778   9.064  1.00  0.00    -0.356 OA
ATOM     21  H1  UNL     1      -2.867 -14.172   9.535  1.00  0.00     0.218 HD
ENDBRANCH   2  20
BRANCH   1  22
HETATM   22  N4  UNL     1      -5.273 -12.598   7.604  1.00  0.00    -0.282 N 
ATOM     23  H4  UNL     1      -6.126 -12.714   8.151  1.00  0.00     0.188 HD
BRANCH  22  24
HETATM   24  N3  UNL     1      -4.859 -11.325   7.587  1.00  0.00    -0.226 N 
ATOM     25  H3  UNL     1      -5.210 -10.707   6.855  1.00  0.00     0.205 HD
BRANCH  24  26
HETATM   26  N2  UNL     1      -3.966 -10.806   8.531  1.00  0.00    -0.014 NA
BRANCH  26  27
HETATM   27  N1  UNL     1      -3.312  -9.657   8.070  1.00  0.00    -0.327 N 
ATOM     28  H12 UNL     1      -3.588  -8.714   8.344  1.00  0.00     0.174 HD
ATOM     29  H11 UNL     1      -2.540  -9.875   7.440  1.00  0.00     0.174 HD
ENDBRANCH  26  27
ENDBRANCH  24  26
ENDBRANCH  22  24
ENDBRANCH   1  22
BRANCH  18  30
HETATM   30  C17 UNL     1      -5.131 -16.044   4.258  1.00  0.00     0.209 C 
BRANCH  30  31
HETATM   31  O9  UNL     1      -6.093 -17.035   4.441  1.00  0.00    -0.386 OA
ATOM     32  H9  UNL     1      -5.796 -17.866   4.090  1.00  0.00     0.210 HD
ENDBRANCH  30  31
BRANCH  30  33
HETATM   33  C18 UNL     1      -3.952 -16.559   3.470  1.00  0.00     0.184 C 
BRANCH  33  34
HETATM   34  O10 UNL     1      -3.060 -17.267   4.248  1.00  0.00    -0.390 OA
ATOM     35  H10 UNL     1      -2.213 -16.841   4.313  1.00  0.00     0.210 HD
ENDBRANCH  33  34
BRANCH  33  36
HETATM   36  C19 UNL     1      -3.314 -15.530   2.598  1.00  0.00     0.173 C 
BRANCH  36  37
HETATM   37  O11 UNL     1      -3.406 -16.030   1.276  1.00  0.00    -0.391 OA
ATOM     38  H11 UNL     1      -4.332 -16.034   1.062  1.00  0.00     0.210 HD
ENDBRANCH  36  37
BRANCH  36  39
HETATM   39  C20 UNL     1      -1.861 -15.296   2.846  1.00  0.00     0.198 C 
BRANCH  39  40
HETATM   40  O12 UNL     1      -0.999 -16.107   2.153  1.00  0.00    -0.398 OA
ATOM     41  H12 UNL     1      -0.231 -15.681   1.792  1.00  0.00     0.209 HD
ENDBRANCH  39  40
ENDBRANCH  36  39
ENDBRANCH  33  36
ENDBRANCH  30  33
ENDBRANCH  18  30
BRANCH  19  42
HETATM   42  O13 UNL     1      -6.143 -13.659   5.106  1.00  0.00    -0.356 OA
ATOM     43  H13 UNL     1      -5.981 -13.582   4.172  1.00  0.00     0.218 HD
ENDBRANCH  19  42
BRANCH   6  44
HETATM   44  C7  UNL     1      -0.027 -18.894   6.746  1.00  0.00     0.291 C 
BRANCH  44  45
HETATM   45  O2  UNL     1      -0.257 -20.225   7.096  1.00  0.00    -0.367 OA
ATOM     46  H2  UNL     1      -0.185 -20.809   6.350  1.00  0.00     0.213 HD
ENDBRANCH  44  45
BRANCH  44  47
HETATM   47  O3  UNL     1      -0.601 -18.648   5.499  1.00  0.00    -0.367 OA
ATOM     48  H3  UNL     1       0.005 -18.842   4.793  1.00  0.00     0.213 HD
ENDBRANCH  44  47
ENDBRANCH   6  44
BRANCH   9  49
HETATM   49  C10 UNL     1       3.594 -19.118   9.368  1.00  0.00     0.229 C 
BRANCH  49  50
HETATM   50  O5  UNL     1       4.624 -18.286   8.983  1.00  0.00    -0.394 OA
ATOM     51  H5  UNL     1       5.344 -18.772   8.600  1.00  0.00     0.209 HD
ENDBRANCH  49  50
ENDBRANCH   9  49
TORSDOF 19
ENDMDL
MODEL 2
REMARK VINA RESULT: -6.496403599      0.884      1.177
REMARK  19 active torsions:
REMARK  status: ('A' for Active; 'I' for Inactive)
REMARK    1  A    between atoms: N1_1  and  N2_4 
REMARK    2  A    between atoms: N2_4  and  N3_5 
REMARK    3  A    between atoms: N3_5  and  N4_7 
REMARK    4  A    between atoms: N4_7  and  C1_9 
REMARK    5  A    between atoms: C2_10  and  O1_11 
REMARK    6  A    between atoms: C6_16  and  C7_17 
REMARK    7  A    between atoms: C7_17  and  O2_18 
REMARK    8  A    between atoms: C7_17  and  O3_20 
REMARK    9  A    between atoms: C9_24  and  C10_25 
REMARK   10  A    between atoms: C10_25  and  O5_26 
REMARK   11  A    between atoms: C16_36  and  C17_37 
REMARK   12  A    between atoms: C17_37  and  O9_38 
REMARK   13  A    between atoms: C17_37  and  C18_40 
REMARK   14  A    between atoms: C18_40  and  O10_41 
REMARK   15  A    between atoms: C18_40  and  C19_43 
REMARK   16  A    between atoms: C19_43  and  O11_44 
REMARK   17  A    between atoms: C19_43  and  C20_46 
REMARK   18  A    between atoms: C20_46  and  O12_47 
REMARK   19  A    between atoms: C21_49  and  O13_50 
ROOT
HETATM    1  C1  UNL     1      -4.965 -13.688   7.324  1.00  0.00     0.120 A 
HETATM    2  C2  UNL     1      -3.986 -14.397   8.099  1.00  0.00     0.132 A 
HETATM    3  C3  UNL     1      -3.464 -15.595   7.665  1.00  0.00     0.121 A 
HETATM    4  C4  UNL     1      -2.484 -16.395   8.347  1.00  0.00     0.005 C 
HETATM    5  C5  UNL     1      -1.834 -17.353   7.587  1.00  0.00     0.029 C 
HETATM    6  C6  UNL     1      -0.585 -17.934   7.804  1.00  0.00     0.032 C 
HETATM    7  C8  UNL     1       0.261 -17.755   8.882  1.00  0.00     0.105 A 
HETATM    8  O4  UNL     1       1.379 -18.384   8.681  1.00  0.00    -0.311 OA
HETATM    9  C9  UNL     1       2.330 -18.346   9.587  1.00  0.00     0.081 A 
HETATM   10  C11 UNL     1       2.207 -17.656  10.776  1.00  0.00     0.090 A 
HETATM   11  C12 UNL     1       1.026 -16.980  11.009  1.00  0.00     0.191 A 
HETATM   12  O6  UNL     1       0.826 -16.329  12.057  1.00  0.00    -0.287 OA
HETATM   13  C13 UNL     1       0.036 -17.029  10.049  1.00  0.00     0.099 A 
HETATM   14  C14 UNL     1      -1.090 -16.310  10.415  1.00  0.00     0.189 C 
HETATM   15  O7  UNL     1      -0.979 -15.692  11.485  1.00  0.00    -0.287 OA
HETATM   16  C15 UNL     1      -2.279 -16.243   9.688  1.00  0.00     0.070 C 
HETATM   17  O8  UNL     1      -3.919 -16.056   6.480  1.00  0.00    -0.306 OA
HETATM   18  C16 UNL     1      -4.790 -15.467   5.748  1.00  0.00     0.120 A 
HETATM   19  C21 UNL     1      -5.355 -14.242   6.146  1.00  0.00     0.129 A 
ENDROOT
BRANCH   2  20
HETATM   20  O1  UNL     1      -3.635 -13.796   9.241  1.00  0.00    -0.356 OA
ATOM     21  H1  UNL     1      -4.220 -13.101   9.519  1.00  0.00     0.218 HD
ENDBRANCH   2  20
BRANCH   1  22
HETATM   22  N4  UNL     1      -5.358 -12.603   7.841  1.00  0.00    -0.282 N 
ATOM     23  H4  UNL     1      -6.188 -12.736   8.419  1.00  0.00     0.188 HD
BRANCH  22  24
HETATM   24  N3  UNL     1      -4.960 -11.325   7.822  1.00  0.00    -0.226 N 
ATOM     25  H3  UNL     1      -5.467 -10.665   7.233  1.00  0.00     0.205 HD
BRANCH  24  26
HETATM   26  N2  UNL     1      -3.878 -10.857   8.577  1.00  0.00    -0.014 NA
BRANCH  26  27
HETATM   27  N1  UNL     1      -3.329  -9.683   8.049  1.00  0.00    -0.327 N 
ATOM     28  H12 UNL     1      -3.898  -8.928   7.665  1.00  0.00     0.174 HD
ATOM     29  H11 UNL     1      -2.310  -9.676   8.096  1.00  0.00     0.174 HD
ENDBRANCH  26  27
ENDBRANCH  24  26
ENDBRANCH  22  24
ENDBRANCH   1  22
BRANCH  18  30
HETATM   30  C17 UNL     1      -5.280 -15.997   4.440  1.00  0.00     0.209 C 
BRANCH  30  31
HETATM   31  O9  UNL     1      -5.642 -17.337   4.548  1.00  0.00    -0.386 OA
ATOM     32  H9  UNL     1      -6.306 -17.458   5.218  1.00  0.00     0.210 HD
ENDBRANCH  30  31
BRANCH  30  33
HETATM   33  C18 UNL     1      -4.231 -15.794   3.374  1.00  0.00     0.184 C 
BRANCH  33  34
HETATM   34  O10 UNL     1      -3.165 -15.038   3.814  1.00  0.00    -0.390 OA
ATOM     35  H10 UNL     1      -3.273 -14.740   4.710  1.00  0.00     0.210 HD
ENDBRANCH  33  34
BRANCH  33  36
HETATM   36  C19 UNL     1      -4.785 -15.357   2.059  1.00  0.00     0.173 C 
BRANCH  36  37
HETATM   37  O11 UNL     1      -5.987 -14.668   2.353  1.00  0.00    -0.391 OA
ATOM     38  H11 UNL     1      -5.981 -13.890   1.808  1.00  0.00     0.210 HD
ENDBRANCH  36  37
BRANCH  36  39
HETATM   39  C20 UNL     1      -5.165 -16.461   1.129  1.00  0.00     0.198 C 
BRANCH  39  40
HETATM   40  O12 UNL     1      -4.935 -17.733   1.587  1.00  0.00    -0.398 OA
ATOM     41  H12 UNL     1      -5.345 -18.431   1.090  1.00  0.00     0.209 HD
ENDBRANCH  39  40
ENDBRANCH  36  39
ENDBRANCH  33  36
ENDBRANCH  30  33
ENDBRANCH  18  30
BRANCH  19  42
HETATM   42  O13 UNL     1      -6.284 -13.632   5.350  1.00  0.00    -0.356 OA
ATOM     43  H13 UNL     1      -7.092 -14.070   5.110  1.00  0.00     0.218 HD
ENDBRANCH  19  42
BRANCH   6  44
HETATM   44  C7  UNL     1      -0.099 -18.853   6.755  1.00  0.00     0.291 C 
BRANCH  44  45
HETATM   45  O2  UNL     1      -0.336 -20.191   7.079  1.00  0.00    -0.367 OA
ATOM     46  H2  UNL     1       0.438 -20.730   6.963  1.00  0.00     0.213 HD
ENDBRANCH  44  45
BRANCH  44  47
HETATM   47  O3  UNL     1      -0.685 -18.575   5.521  1.00  0.00    -0.367 OA
ATOM     48  H3  UNL     1      -0.184 -18.949   4.806  1.00  0.00     0.213 HD
ENDBRANCH  44  47
ENDBRANCH   6  44
BRANCH   9  49
HETATM   49  C10 UNL     1       3.587 -19.096   9.282  1.00  0.00     0.229 C 
BRANCH  49  50
HETATM   50  O5  UNL     1       4.616 -18.248   8.931  1.00  0.00    -0.394 OA
ATOM     51  H5  UNL     1       5.261 -18.170   9.624  1.00  0.00     0.209 HD
ENDBRANCH  49  50
ENDBRANCH   9  49
TORSDOF 19
ENDMDL
MODEL 3
REMARK VINA RESULT: -6.001328663      0.908      1.157
REMARK  19 active torsions:
REMARK  status: ('A' for Active; 'I' for Inactive)
REMARK    1  A    between atoms: N1_1  and  N2_4 
REMARK    2  A    between atoms: N2_4  and  N3_5 
REMARK    3  A    between atoms: N3_5  and  N4_7 
REMARK    4  A    between atoms: N4_7  and  C1_9 
REMARK    5  A    between atoms: C2_10  and  O1_11 
REMARK    6  A    between atoms: C6_16  and  C7_17 
REMARK    7  A    between atoms: C7_17  and  O2_18 
REMARK    8  A    between atoms: C7_17  and  O3_20 
REMARK    9  A    between atoms: C9_24  and  C10_25 
REMARK   10  A    between atoms: C10_25  and  O5_26 
REMARK   11  A    between atoms: C16_36  and  C17_37 
REMARK   12  A    between atoms: C17_37  and  O9_38 
REMARK   13  A    between atoms: C17_37  and  C18_40 
REMARK   14  A    between atoms: C18_40  and  O10_41 
REMARK   15  A    between atoms: C18_40  and  C19_43 
REMARK   16  A    between atoms: C19_43  and  O11_44 
REMARK   17  A    between atoms: C19_43  and  C20_46 
REMARK   18  A    between atoms: C20_46  and  O12_47 
REMARK   19  A    between atoms: C21_49  and  O13_50 
ROOT
HETATM    1  C1  UNL     1      -5.167 -14.073   6.418  1.00  0.00     0.120 A 
HETATM    2  C2  UNL     1      -4.253 -14.653   7.361  1.00  0.00     0.132 A 
HETATM    3  C3  UNL     1      -3.613 -15.842   7.096  1.00  0.00     0.121 A 
HETATM    4  C4  UNL     1      -2.682 -16.521   7.955  1.00  0.00     0.005 C 
HETATM    5  C5  UNL     1      -1.888 -17.487   7.362  1.00  0.00     0.029 C 
HETATM    6  C6  UNL     1      -0.644 -17.965   7.776  1.00  0.00     0.032 C 
HETATM    7  C8  UNL     1       0.048 -17.647   8.929  1.00  0.00     0.105 A 
HETATM    8  O4  UNL     1       1.217 -18.213   8.918  1.00  0.00    -0.311 OA
HETATM    9  C9  UNL     1       2.043 -18.041   9.926  1.00  0.00     0.081 A 
HETATM   10  C11 UNL     1       1.732 -17.273  11.028  1.00  0.00     0.090 A 
HETATM   11  C12 UNL     1       0.494 -16.662  11.060  1.00  0.00     0.191 A 
HETATM   12  O6  UNL     1       0.127 -15.948  12.019  1.00  0.00    -0.287 OA
HETATM   13  C13 UNL     1      -0.364 -16.851   9.995  1.00  0.00     0.099 A 
HETATM   14  C14 UNL     1      -1.566 -16.184  10.161  1.00  0.00     0.189 C 
HETATM   15  O7  UNL     1      -1.626 -15.480  11.182  1.00  0.00    -0.287 OA
HETATM   16  C15 UNL     1      -2.656 -16.253   9.293  1.00  0.00     0.070 C 
HETATM   17  O8  UNL     1      -3.889 -16.422   5.907  1.00  0.00    -0.306 OA
HETATM   18  C16 UNL     1      -4.693 -15.951   5.029  1.00  0.00     0.120 A 
HETATM   19  C21 UNL     1      -5.374 -14.740   5.252  1.00  0.00     0.129 A 
ENDROOT
BRANCH   2  20
HETATM   20  O1  UNL     1      -4.084 -13.944   8.482  1.00  0.00    -0.356 OA
ATOM     21  H1  UNL     1      -4.127 -13.002   8.366  1.00  0.00     0.218 HD
ENDBRANCH   2  20
BRANCH   1  22
HETATM   22  N4  UNL     1      -5.683 -12.981   6.790  1.00  0.00    -0.282 N 
ATOM     23  H4  UNL     1      -5.717 -12.904   7.807  1.00  0.00     0.188 HD
BRANCH  22  24
HETATM   24  N3  UNL     1      -6.196 -11.901   6.189  1.00  0.00    -0.226 N 
ATOM     25  H3  UNL     1      -6.979 -12.025   5.547  1.00  0.00     0.205 HD
BRANCH  24  26
HETATM   26  N2  UNL     1      -5.704 -10.609   6.405  1.00  0.00    -0.014 NA
BRANCH  26  27
HETATM   27  N1  UNL     1      -5.206 -10.437   7.701  1.00  0.00    -0.327 N 
ATOM     28  H12 UNL     1      -4.299 -10.797   7.999  1.00  0.00     0.174 HD
ATOM     29  H11 UNL     1      -5.849  -9.918   8.299  1.00  0.00     0.174 HD
ENDBRANCH  26  27
ENDBRANCH  24  26
ENDBRANCH  22  24
ENDBRANCH   1  22
BRANCH  18  30
HETATM   30  C17 UNL     1      -4.984 -16.611   3.721  1.00  0.00     0.209 C 
BRANCH  30  31
HETATM   31  O9  UNL     1      -4.601 -17.950   3.740  1.00  0.00    -0.386 OA
ATOM     32  H9  UNL     1      -4.749 -18.334   4.596  1.00  0.00     0.210 HD
ENDBRANCH  30  31
BRANCH  30  33
HETATM   33  C18 UNL     1      -4.306 -15.860   2.601  1.00  0.00     0.184 C 
BRANCH  33  34
HETATM   34  O10 UNL     1      -4.218 -16.600   1.441  1.00  0.00    -0.390 OA
ATOM     35  H10 UNL     1      -5.045 -16.653   0.976  1.00  0.00     0.210 HD
ENDBRANCH  33  34
BRANCH  33  36
HETATM   36  C19 UNL     1      -3.027 -15.204   3.002  1.00  0.00     0.173 C 
BRANCH  36  37
HETATM   37  O11 UNL     1      -2.797 -14.185   2.046  1.00  0.00    -0.391 OA
ATOM     38  H11 UNL     1      -3.335 -13.449   2.315  1.00  0.00     0.210 HD
ENDBRANCH  36  37
BRANCH  36  39
HETATM   39  C20 UNL     1      -1.821 -16.082   2.962  1.00  0.00     0.198 C 
BRANCH  39  40
HETATM   40  O12 UNL     1      -1.566 -16.800   4.102  1.00  0.00    -0.398 OA
ATOM     41  H12 UNL     1      -1.962 -17.662   4.145  1.00  0.00     0.209 HD
ENDBRANCH  39  40
ENDBRANCH  36  39
ENDBRANCH  33  36
ENDBRANCH  30  33
ENDBRANCH  18  30
BRANCH  19  42
HETATM   42  O13 UNL     1      -6.229 -14.256   4.301  1.00  0.00    -0.356 OA
ATOM     43  H13 UNL     1      -6.376 -13.323   4.200  1.00  0.00     0.218 HD
ENDBRANCH  19  42
BRANCH   6  44
HETATM   44  C7  UNL     1       0.022 -18.926   6.874  1.00  0.00     0.291 C 
BRANCH  44  45
HETATM   45  O2  UNL     1      -0.130 -20.245   7.309  1.00  0.00    -0.367 OA
ATOM     46  H2  UNL     1      -0.739 -20.732   6.766  1.00  0.00     0.213 HD
ENDBRANCH  44  45
BRANCH  44  47
HETATM   47  O3  UNL     1      -0.460 -18.821   5.570  1.00  0.00    -0.367 OA
ATOM     48  H3  UNL     1      -0.050 -18.101   5.105  1.00  0.00     0.213 HD
ENDBRANCH  44  47
ENDBRANCH   6  44
BRANCH   9  49
HETATM   49  C10 UNL     1       3.369 -18.726   9.838  1.00  0.00     0.229 C 
BRANCH  49  50
HETATM   50  O5  UNL     1       4.046 -18.384   8.687  1.00  0.00    -0.394 OA
ATOM     51  H5  UNL     1       4.486 -19.132   8.301  1.00  0.00     0.209 HD
ENDBRANCH  49  50
ENDBRANCH   9  49
TORSDOF 19
ENDMDL
MODEL 4
REMARK VINA RESULT: -5.999894836      1.051      1.751
REMARK  19 active torsions:
REMARK  status: ('A' for Active; 'I' for Inactive)
REMARK    1  A    between atoms: N1_1  and  N2_4 
REMARK    2  A    between atoms: N2_4  and  N3_5 
REMARK    3  A    between atoms: N3_5  and  N4_7 
REMARK    4  A    between atoms: N4_7  and  C1_9 
REMARK    5  A    between atoms: C2_10  and  O1_11 
REMARK    6  A    between atoms: C6_16  and  C7_17 
REMARK    7  A    between atoms: C7_17  and  O2_18 
REMARK    8  A    between atoms: C7_17  and  O3_20 
REMARK    9  A    between atoms: C9_24  and  C10_25 
REMARK   10  A    between atoms: C10_25  and  O5_26 
REMARK   11  A    between atoms: C16_36  and  C17_37 
REMARK   12  A    between atoms: C17_37  and  O9_38 
REMARK   13  A    between atoms: C17_37  and  C18_40 
REMARK   14  A    between atoms: C18_40  and  O10_41 
REMARK   15  A    between atoms: C18_40  and  C19_43 
REMARK   16  A    between atoms: C19_43  and  O11_44 
REMARK   17  A    between atoms: C19_43  and  C20_46 
REMARK   18  A    between atoms: C20_46  and  O12_47 
REMARK   19  A    between atoms: C21_49  and  O13_50 
ROOT
HETATM    1  C1  UNL     1      -4.904 -13.485   7.414  1.00  0.00     0.120 A 
HETATM    2  C2  UNL     1      -3.947 -14.237   8.175  1.00  0.00     0.132 A 
HETATM    3  C3  UNL     1      -3.438 -15.426   7.706  1.00  0.00     0.121 A 
HETATM    4  C4  UNL     1      -2.480 -16.267   8.371  1.00  0.00     0.005 C 
HETATM    5  C5  UNL     1      -1.836 -17.207   7.586  1.00  0.00     0.029 C 
HETATM    6  C6  UNL     1      -0.598 -17.816   7.797  1.00  0.00     0.032 C 
HETATM    7  C8  UNL     1       0.236 -17.688   8.892  1.00  0.00     0.105 A 
HETATM    8  O4  UNL     1       1.346 -18.328   8.682  1.00  0.00    -0.311 OA
HETATM    9  C9  UNL     1       2.287 -18.337   9.601  1.00  0.00     0.081 A 
HETATM   10  C11 UNL     1       2.159 -17.688  10.811  1.00  0.00     0.090 A 
HETATM   11  C12 UNL     1       0.985 -17.001  11.054  1.00  0.00     0.191 A 
HETATM   12  O6  UNL     1       0.783 -16.384  12.122  1.00  0.00    -0.287 OA
HETATM   13  C13 UNL     1       0.007 -17.000  10.081  1.00  0.00     0.099 A 
HETATM   14  C14 UNL     1      -1.112 -16.276  10.457  1.00  0.00     0.189 C 
HETATM   15  O7  UNL     1      -1.005 -15.698  11.551  1.00  0.00    -0.287 OA
HETATM   16  C15 UNL     1      -2.290 -16.165   9.719  1.00  0.00     0.070 C 
HETATM   17  O8  UNL     1      -3.885 -15.839   6.500  1.00  0.00    -0.306 OA
HETATM   18  C16 UNL     1      -4.737 -15.210   5.778  1.00  0.00     0.120 A 
HETATM   19  C21 UNL     1      -5.288 -13.991   6.212  1.00  0.00     0.129 A 
ENDROOT
BRANCH   2  20
HETATM   20  O1  UNL     1      -3.601 -13.682   9.342  1.00  0.00    -0.356 OA
ATOM     21  H1  UNL     1      -3.266 -14.293   9.988  1.00  0.00     0.218 HD
ENDBRANCH   2  20
BRANCH   1  22
HETATM   22  N4  UNL     1      -5.287 -12.413   7.964  1.00  0.00    -0.282 N 
ATOM     23  H4  UNL     1      -5.919 -12.590   8.745  1.00  0.00     0.188 HD
BRANCH  22  24
HETATM   24  N3  UNL     1      -5.072 -11.105   7.781  1.00  0.00    -0.226 N 
ATOM     25  H3  UNL     1      -4.568 -10.588   8.502  1.00  0.00     0.205 HD
BRANCH  24  26
HETATM   26  N2  UNL     1      -5.509 -10.416   6.644  1.00  0.00    -0.014 NA
BRANCH  26  27
HETATM   27  N1  UNL     1      -4.800  -9.228   6.435  1.00  0.00    -0.327 N 
ATOM     28  H12 UNL     1      -4.171  -8.827   7.131  1.00  0.00     0.174 HD
ATOM     29  H11 UNL     1      -4.988  -8.820   5.519  1.00  0.00     0.174 HD
ENDBRANCH  26  27
ENDBRANCH  24  26
ENDBRANCH  22  24
ENDBRANCH   1  22
BRANCH  18  30
HETATM   30  C17 UNL     1      -5.219 -15.686   4.446  1.00  0.00     0.209 C 
BRANCH  30  31
HETATM   31  O9  UNL     1      -6.567 -16.032   4.497  1.00  0.00    -0.386 OA
ATOM     32  H9  UNL     1      -7.049 -15.441   5.064  1.00  0.00     0.210 HD
ENDBRANCH  30  31
BRANCH  30  33
HETATM   33  C18 UNL     1      -4.371 -16.841   3.972  1.00  0.00     0.184 C 
BRANCH  33  34
HETATM   34  O10 UNL     1      -4.145 -16.812   2.613  1.00  0.00    -0.390 OA
ATOM     35  H10 UNL     1      -3.693 -17.586   2.300  1.00  0.00     0.210 HD
ENDBRANCH  33  34
BRANCH  33  36
HETATM   36  C19 UNL     1      -4.819 -18.168   4.486  1.00  0.00     0.173 C 
BRANCH  36  37
HETATM   37  O11 UNL     1      -3.668 -18.777   5.045  1.00  0.00    -0.391 OA
ATOM     38  H11 UNL     1      -3.557 -19.599   4.581  1.00  0.00     0.210 HD
ENDBRANCH  36  37
BRANCH  36  39
HETATM   39  C20 UNL     1      -5.319 -19.118   3.449  1.00  0.00     0.198 C 
BRANCH  39  40
HETATM   40  O12 UNL     1      -6.400 -18.690   2.720  1.00  0.00    -0.398 OA
ATOM     41  H12 UNL     1      -7.031 -19.359   2.487  1.00  0.00     0.209 HD
ENDBRANCH  39  40
ENDBRANCH  36  39
ENDBRANCH  33  36
ENDBRANCH  30  33
ENDBRANCH  18  30
BRANCH  19  42
HETATM   42  O13 UNL     1      -6.197 -13.338   5.426  1.00  0.00    -0.356 OA
ATOM     43  H13 UNL     1      -6.440 -13.675   4.571  1.00  0.00     0.218 HD
ENDBRANCH  19  42
BRANCH   6  44
HETATM   44  C7  UNL     1      -0.114 -18.706   6.723  1.00  0.00     0.291 C 
BRANCH  44  45
HETATM   45  O2  UNL     1      -0.270 -20.055   7.048  1.00  0.00    -0.367 OA
ATOM     46  H2  UNL     1       0.278 -20.617   6.513  1.00  0.00     0.213 HD
ENDBRANCH  44  45
BRANCH  44  47
HETATM   47  O3  UNL     1      -0.766 -18.452   5.517  1.00  0.00    -0.367 OA
ATOM     48  H3  UNL     1      -0.692 -19.187   4.920  1.00  0.00     0.213 HD
ENDBRANCH  44  47
ENDBRANCH   6  44
BRANCH   9  49
HETATM   49  C10 UNL     1       3.535 -19.096   9.285  1.00  0.00     0.229 C 
BRANCH  49  50
HETATM   50  O5  UNL     1       4.573 -18.255   8.944  1.00  0.00    -0.394 OA
ATOM     51  H5  UNL     1       4.406 -17.804   8.125  1.00  0.00     0.209 HD
ENDBRANCH  49  50
ENDBRANCH   9  49
TORSDOF 19
ENDMDL
MODEL 5
REMARK VINA RESULT: -5.784832151      1.050      1.371
REMARK  19 active torsions:
REMARK  status: ('A' for Active; 'I' for Inactive)
REMARK    1  A    between atoms: N1_1  and  N2_4 
REMARK    2  A    between atoms: N2_4  and  N3_5 
REMARK    3  A    between atoms: N3_5  and  N4_7 
REMARK    4  A    between atoms: N4_7  and  C1_9 
REMARK    5  A    between atoms: C2_10  and  O1_11 
REMARK    6  A    between atoms: C6_16  and  C7_17 
REMARK    7  A    between atoms: C7_17  and  O2_18 
REMARK    8  A    between atoms: C7_17  and  O3_20 
REMARK    9  A    between atoms: C9_24  and  C10_25 
REMARK   10  A    between atoms: C10_25  and  O5_26 
REMARK   11  A    between atoms: C16_36  and  C17_37 
REMARK   12  A    between atoms: C17_37  and  O9_38 
REMARK   13  A    between atoms: C17_37  and  C18_40 
REMARK   14  A    between atoms: C18_40  and  O10_41 
REMARK   15  A    between atoms: C18_40  and  C19_43 
REMARK   16  A    between atoms: C19_43  and  O11_44 
REMARK   17  A    between atoms: C19_43  and  C20_46 
REMARK   18  A    between atoms: C20_46  and  O12_47 
REMARK   19  A    between atoms: C21_49  and  O13_50 
ROOT
HETATM    1  C1  UNL     1      -4.952 -13.672   7.364  1.00  0.00     0.120 A 
HETATM    2  C2  UNL     1      -3.952 -14.380   8.114  1.00  0.00     0.132 A 
HETATM    3  C3  UNL     1      -3.459 -15.589   7.681  1.00  0.00     0.121 A 
HETATM    4  C4  UNL     1      -2.463 -16.390   8.340  1.00  0.00     0.005 C 
HETATM    5  C5  UNL     1      -1.851 -17.366   7.572  1.00  0.00     0.029 C 
HETATM    6  C6  UNL     1      -0.600 -17.957   7.752  1.00  0.00     0.032 C 
HETATM    7  C8  UNL     1       0.286 -17.770   8.796  1.00  0.00     0.105 A 
HETATM    8  O4  UNL     1       1.389 -18.414   8.565  1.00  0.00    -0.311 OA
HETATM    9  C9  UNL     1       2.373 -18.372   9.435  1.00  0.00     0.081 A 
HETATM   10  C11 UNL     1       2.300 -17.662  10.616  1.00  0.00     0.090 A 
HETATM   11  C12 UNL     1       1.135 -16.970  10.881  1.00  0.00     0.191 A 
HETATM   12  O6  UNL     1       0.981 -16.301  11.926  1.00  0.00    -0.287 OA
HETATM   13  C13 UNL     1       0.110 -17.023   9.959  1.00  0.00     0.099 A 
HETATM   14  C14 UNL     1      -0.994 -16.287  10.353  1.00  0.00     0.189 C 
HETATM   15  O7  UNL     1      -0.837 -15.653  11.409  1.00  0.00    -0.287 OA
HETATM   16  C15 UNL     1      -2.208 -16.219   9.669  1.00  0.00     0.070 C 
HETATM   17  O8  UNL     1      -3.962 -16.064   6.521  1.00  0.00    -0.306 OA
HETATM   18  C16 UNL     1      -4.853 -15.478   5.811  1.00  0.00     0.120 A 
HETATM   19  C21 UNL     1      -5.391 -14.241   6.210  1.00  0.00     0.129 A 
ENDROOT
BRANCH   2  20
HETATM   20  O1  UNL     1      -3.554 -13.764   9.232  1.00  0.00    -0.356 OA
ATOM     21  H1  UNL     1      -2.613 -13.667   9.318  1.00  0.00     0.218 HD
ENDBRANCH   2  20
BRANCH   1  22
HETATM   22  N4  UNL     1      -5.315 -12.576   7.877  1.00  0.00    -0.282 N 
ATOM     23  H4  UNL     1      -4.594 -11.859   7.793  1.00  0.00     0.188 HD
BRANCH  22  24
HETATM   24  N3  UNL     1      -6.405 -12.116   8.504  1.00  0.00    -0.226 N 
ATOM     25  H3  UNL     1      -6.814 -12.680   9.248  1.00  0.00     0.205 HD
BRANCH  24  26
HETATM   26  N2  UNL     1      -7.007 -10.896   8.179  1.00  0.00    -0.014 NA
BRANCH  26  27
HETATM   27  N1  UNL     1      -8.114 -10.615   8.989  1.00  0.00    -0.327 N 
ATOM     28  H12 UNL     1      -8.960 -11.184   8.989  1.00  0.00     0.174 HD
ATOM     29  H11 UNL     1      -7.971  -9.787   9.569  1.00  0.00     0.174 HD
ENDBRANCH  26  27
ENDBRANCH  24  26
ENDBRANCH  22  24
ENDBRANCH   1  22
BRANCH  18  30
HETATM   30  C17 UNL     1      -5.396 -16.023   4.531  1.00  0.00     0.209 C 
BRANCH  30  31
HETATM   31  O9  UNL     1      -5.748 -17.363   4.668  1.00  0.00    -0.386 OA
ATOM     32  H9  UNL     1      -5.950 -17.571   5.573  1.00  0.00     0.210 HD
ENDBRANCH  30  31
BRANCH  30  33
HETATM   33  C18 UNL     1      -4.393 -15.828   3.420  1.00  0.00     0.184 C 
BRANCH  33  34
HETATM   34  O10 UNL     1      -3.353 -14.999   3.781  1.00  0.00    -0.390 OA
ATOM     35  H10 UNL     1      -2.601 -15.477   4.112  1.00  0.00     0.210 HD
ENDBRANCH  33  34
BRANCH  33  36
HETATM   36  C19 UNL     1      -5.011 -15.490   2.104  1.00  0.00     0.173 C 
BRANCH  36  37
HETATM   37  O11 UNL     1      -6.202 -16.253   2.026  1.00  0.00    -0.391 OA
ATOM     38  H11 UNL     1      -6.660 -15.943   1.253  1.00  0.00     0.210 HD
ENDBRANCH  36  37
BRANCH  36  39
HETATM   39  C20 UNL     1      -4.205 -15.869   0.905  1.00  0.00     0.198 C 
BRANCH  39  40
HETATM   40  O12 UNL     1      -2.864 -16.058   1.123  1.00  0.00    -0.398 OA
ATOM     41  H12 UNL     1      -2.607 -16.185   2.028  1.00  0.00     0.209 HD
ENDBRANCH  39  40
ENDBRANCH  36  39
ENDBRANCH  33  36
ENDBRANCH  30  33
ENDBRANCH  18  30
BRANCH  19  42
HETATM   42  O13 UNL     1      -6.342 -13.633   5.438  1.00  0.00    -0.356 OA
ATOM     43  H13 UNL     1      -6.202 -12.764   5.078  1.00  0.00     0.218 HD
ENDBRANCH  19  42
BRANCH   6  44
HETATM   44  C7  UNL     1      -0.163 -18.898   6.702  1.00  0.00     0.291 C 
BRANCH  44  45
HETATM   45  O2  UNL     1      -0.452 -20.224   7.030  1.00  0.00    -0.367 OA
ATOM     46  H2  UNL     1      -0.809 -20.705   6.293  1.00  0.00     0.213 HD
ENDBRANCH  44  45
BRANCH  44  47
HETATM   47  O3  UNL     1      -0.748 -18.598   5.472  1.00  0.00    -0.367 OA
ATOM     48  H3  UNL     1      -1.370 -17.884   5.548  1.00  0.00     0.213 HD
ENDBRANCH  44  47
ENDBRANCH   6  44
BRANCH   9  49
HETATM   49  C10 UNL     1       3.611 -19.140   9.097  1.00  0.00     0.229 C 
BRANCH  49  50
HETATM   50  O5  UNL     1       4.696 -18.309   8.919  1.00  0.00    -0.394 OA
ATOM     51  H5  UNL     1       4.530 -17.436   9.253  1.00  0.00     0.209 HD
ENDBRANCH  49  50
ENDBRANCH   9  49
TORSDOF 19
ENDMDL
