MODEL 1
REMARK VINA RESULT: -6.164116286      0.000      0.000
REMARK  18 active torsions:
REMARK  status: ('A' for Active; 'I' for Inactive)
REMARK    1  A    between atoms: O1_1  and  C1_3 
REMARK    2  A    between atoms: C1_3  and  C2_4 
REMARK    3  A    between atoms: C2_4  and  C3_5 
REMARK    4  A    between atoms: C3_5  and  O2_6 
REMARK    5  A    between atoms: C5_9  and  O3_10 
REMARK    6  A    between atoms: C5_9  and  C6_12 
REMARK    7  A    between atoms: C6_12  and  O4_13 
REMARK    8  A    between atoms: C8_17  and  O6_18 
REMARK    9  A    between atoms: O6_18  and  C9_19 
REMARK   10  A    between atoms: C11_23  and  O8_24 
REMARK   11  A    between atoms: O8_24  and  C12_25 
REMARK   12  A    between atoms: C13_26  and  O9_27 
REMARK   13  A    between atoms: C14_29  and  O10_30 
REMARK   14  A    between atoms: C15_33  and  C16_34 
REMARK   15  A    between atoms: C16_34  and  O12_35 
REMARK   16  A    between atoms: C17_37  and  O13_38 
REMARK   17  A    between atoms: C18_40  and  O14_41 
REMARK   18  A    between atoms: C19_43  and  O15_44 
ROOT
HETATM    1  C9  UNL     1      -1.088 -17.800   7.949  1.00  0.00     0.196 C 
HETATM    2  C10 UNL     1      -2.579 -17.729   8.102  1.00  0.00     0.228 C 
HETATM    3  S1  UNL     1      -3.295 -19.277   8.723  1.00  0.00    -0.060 SA
HETATM    4  O7  UNL     1      -3.255 -17.378   6.962  1.00  0.00    -0.340 OA
HETATM    5  C11 UNL     1      -2.475 -17.263   5.832  1.00  0.00     0.293 C 
HETATM    6  C18 UNL     1      -1.582 -18.437   5.578  1.00  0.00     0.204 C 
HETATM    7  C19 UNL     1      -0.651 -18.597   6.751  1.00  0.00     0.184 C 
ENDROOT
BRANCH   1   8
HETATM    8  O6  UNL     1      -0.576 -18.315   9.137  1.00  0.00    -0.347 OA
BRANCH   8   9
HETATM    9  C8  UNL     1       0.656 -17.739   9.486  1.00  0.00     0.294 C 
HETATM   10  C3  UNL     1       1.535 -18.835   9.937  1.00  0.00     0.112 C 
HETATM   11  C4  UNL     1       1.096 -19.366  11.313  1.00  0.00     0.085 C 
HETATM   12  C5  UNL     1       0.520 -18.347  12.216  1.00  0.00     0.103 C 
HETATM   13  C7  UNL     1      -0.248 -17.266  11.544  1.00  0.00     0.211 C 
HETATM   14  O5  UNL     1       0.469 -16.766  10.481  1.00  0.00    -0.355 OA
BRANCH  10  15
HETATM   15  C2  UNL     1       2.979 -18.463   9.979  1.00  0.00     0.069 C 
BRANCH  15  16
HETATM   16  C1  UNL     1       3.868 -18.956   8.907  1.00  0.00     0.167 C 
BRANCH  16  17
HETATM   17  O1  UNL     1       5.159 -18.485   8.895  1.00  0.00    -0.401 OA
ATOM     18  H1  UNL     1       5.701 -18.721   8.152  1.00  0.00     0.209 HD
ENDBRANCH  16  17
ENDBRANCH  15  16
ENDBRANCH  10  15
BRANCH  10  19
HETATM   19  O2  UNL     1       1.415 -19.985   9.115  1.00  0.00    -0.385 OA
ATOM     20  H2  UNL     1       0.618 -20.435   9.369  1.00  0.00     0.210 HD
ENDBRANCH  10  19
BRANCH  12  21
HETATM   21  O3  UNL     1      -0.423 -19.040  13.036  1.00  0.00    -0.385 OA
ATOM     22  H3  UNL     1      -1.277 -18.852  12.666  1.00  0.00     0.210 HD
ENDBRANCH  12  21
BRANCH  12  23
HETATM   23  C6  UNL     1       1.521 -17.779  13.207  1.00  0.00     0.204 C 
BRANCH  23  24
HETATM   24  O4  UNL     1       1.876 -16.513  12.790  1.00  0.00    -0.398 OA
ATOM     25  H4  UNL     1       2.823 -16.470  12.736  1.00  0.00     0.209 HD
ENDBRANCH  23  24
ENDBRANCH  12  23
ENDBRANCH   8   9
ENDBRANCH   1   8
BRANCH   7  26
HETATM   26  O15 UNL     1      -0.568 -19.969   7.015  1.00  0.00    -0.390 OA
ATOM     27  H15 UNL     1       0.311 -20.311   6.906  1.00  0.00     0.210 HD
ENDBRANCH   7  26
BRANCH   6  28
HETATM   28  O14 UNL     1      -2.302 -19.607   5.320  1.00  0.00    -0.388 OA
ATOM     29  H14 UNL     1      -1.940 -20.361   5.771  1.00  0.00     0.210 HD
ENDBRANCH   6  28
BRANCH   5  30
HETATM   30  O8  UNL     1      -3.350 -17.169   4.737  1.00  0.00    -0.348 OA
BRANCH  30  31
HETATM   31  C12 UNL     1      -3.568 -15.841   4.369  1.00  0.00     0.189 C 
HETATM   32  C13 UNL     1      -2.284 -15.368   3.697  1.00  0.00     0.204 C 
HETATM   33  C14 UNL     1      -2.067 -16.248   2.509  1.00  0.00     0.288 C 
HETATM   34  O11 UNL     1      -3.052 -16.161   1.572  1.00  0.00    -0.349 OA
HETATM   35  C15 UNL     1      -4.207 -15.553   1.956  1.00  0.00     0.179 C 
HETATM   36  C17 UNL     1      -4.658 -15.819   3.346  1.00  0.00     0.181 C 
BRANCH  32  37
HETATM   37  O9  UNL     1      -2.332 -14.042   3.338  1.00  0.00    -0.388 OA
ATOM     38  H9  UNL     1      -1.523 -13.582   3.528  1.00  0.00     0.210 HD
ENDBRANCH  32  37
BRANCH  33  39
HETATM   39  O10 UNL     1      -0.826 -15.962   1.895  1.00  0.00    -0.369 OA
ATOM     40  H10 UNL     1      -0.804 -16.300   1.007  1.00  0.00     0.212 HD
ENDBRANCH  33  39
BRANCH  35  41
HETATM   41  C16 UNL     1      -5.310 -16.067   1.016  1.00  0.00     0.198 C 
BRANCH  41  42
HETATM   42  O12 UNL     1      -5.103 -17.393   0.690  1.00  0.00    -0.398 OA
ATOM     43  H12 UNL     1      -4.375 -17.486   0.087  1.00  0.00     0.209 HD
ENDBRANCH  41  42
ENDBRANCH  35  41
BRANCH  36  44
HETATM   44  O13 UNL     1      -5.416 -16.995   3.346  1.00  0.00    -0.390 OA
ATOM     45  H13 UNL     1      -5.107 -17.627   2.708  1.00  0.00     0.210 HD
ENDBRANCH  36  44
ENDBRANCH  30  31
ENDBRANCH   5  30
TORSDOF 18
ENDMDL
MODEL 2
REMARK VINA RESULT: -5.943780032      1.966      3.501
REMARK  18 active torsions:
REMARK  status: ('A' for Active; 'I' for Inactive)
REMARK    1  A    between atoms: O1_1  and  C1_3 
REMARK    2  A    between atoms: C1_3  and  C2_4 
REMARK    3  A    between atoms: C2_4  and  C3_5 
REMARK    4  A    between atoms: C3_5  and  O2_6 
REMARK    5  A    between atoms: C5_9  and  O3_10 
REMARK    6  A    between atoms: C5_9  and  C6_12 
REMARK    7  A    between atoms: C6_12  and  O4_13 
REMARK    8  A    between atoms: C8_17  and  O6_18 
REMARK    9  A    between atoms: O6_18  and  C9_19 
REMARK   10  A    between atoms: C11_23  and  O8_24 
REMARK   11  A    between atoms: O8_24  and  C12_25 
REMARK   12  A    between atoms: C13_26  and  O9_27 
REMARK   13  A    between atoms: C14_29  and  O10_30 
REMARK   14  A    between atoms: C15_33  and  C16_34 
REMARK   15  A    between atoms: C16_34  and  O12_35 
REMARK   16  A    between atoms: C17_37  and  O13_38 
REMARK   17  A    between atoms: C18_40  and  O14_41 
REMARK   18  A    between atoms: C19_43  and  O15_44 
ROOT
HETATM    1  C9  UNL     1      -0.877 -17.499   6.554  1.00  0.00     0.196 C 
HETATM    2  C10 UNL     1      -1.311 -16.077   6.761  1.00  0.00     0.228 C 
HETATM    3  S1  UNL     1      -2.215 -15.838   8.315  1.00  0.00    -0.060 SA
HETATM    4  O7  UNL     1      -2.072 -15.559   5.745  1.00  0.00    -0.340 OA
HETATM    5  C11 UNL     1      -2.417 -16.455   4.757  1.00  0.00     0.293 C 
HETATM    6  C18 UNL     1      -3.010 -17.733   5.265  1.00  0.00     0.204 C 
HETATM    7  C19 UNL     1      -2.003 -18.412   6.154  1.00  0.00     0.184 C 
ENDROOT
BRANCH   1   8
HETATM    8  O6  UNL     1      -0.257 -17.915   7.731  1.00  0.00    -0.347 OA
BRANCH   8   9
HETATM    9  C8  UNL     1       0.574 -19.030   7.535  1.00  0.00     0.294 C 
HETATM   10  C3  UNL     1       0.528 -19.827   8.776  1.00  0.00     0.112 C 
HETATM   11  C4  UNL     1       1.295 -19.127   9.912  1.00  0.00     0.085 C 
HETATM   12  C5  UNL     1       2.472 -18.346   9.477  1.00  0.00     0.103 C 
HETATM   13  C7  UNL     1       2.349 -17.704   8.141  1.00  0.00     0.211 C 
HETATM   14  O5  UNL     1       1.877 -18.612   7.220  1.00  0.00    -0.355 OA
BRANCH  10  15
HETATM   15  C2  UNL     1       1.037 -21.220   8.610  1.00  0.00     0.069 C 
BRANCH  15  16
HETATM   16  C1  UNL     1       0.068 -22.334   8.628  1.00  0.00     0.167 C 
BRANCH  16  17
HETATM   17  O1  UNL     1      -0.783 -22.444   7.553  1.00  0.00    -0.401 OA
ATOM     18  H1  UNL     1      -0.776 -21.736   6.920  1.00  0.00     0.209 HD
ENDBRANCH  16  17
ENDBRANCH  15  16
ENDBRANCH  10  15
BRANCH  10  19
HETATM   19  O2  UNL     1      -0.786 -19.914   9.305  1.00  0.00    -0.385 OA
ATOM     20  H2  UNL     1      -0.803 -19.410  10.109  1.00  0.00     0.210 HD
ENDBRANCH  10  19
BRANCH  12  21
HETATM   21  O3  UNL     1       2.597 -17.274  10.412  1.00  0.00    -0.385 OA
ATOM     22  H3  UNL     1       1.958 -16.623  10.148  1.00  0.00     0.210 HD
ENDBRANCH  12  21
BRANCH  12  23
HETATM   23  C6  UNL     1       3.783 -19.102   9.606  1.00  0.00     0.204 C 
BRANCH  23  24
HETATM   24  O4  UNL     1       4.733 -18.462   8.838  1.00  0.00    -0.398 OA
ATOM     25  H4  UNL     1       5.123 -19.099   8.251  1.00  0.00     0.209 HD
ENDBRANCH  23  24
ENDBRANCH  12  23
ENDBRANCH   8   9
ENDBRANCH   1   8
BRANCH   7  26
HETATM   26  O15 UNL     1      -2.709 -18.914   7.254  1.00  0.00    -0.390 OA
ATOM     27  H15 UNL     1      -3.502 -19.372   7.003  1.00  0.00     0.210 HD
ENDBRANCH   7  26
BRANCH   6  28
HETATM   28  O14 UNL     1      -4.229 -17.530   5.918  1.00  0.00    -0.388 OA
ATOM     29  H14 UNL     1      -4.737 -18.330   5.990  1.00  0.00     0.210 HD
ENDBRANCH   6  28
BRANCH   5  30
HETATM   30  O8  UNL     1      -3.397 -15.835   3.964  1.00  0.00    -0.348 OA
BRANCH  30  31
HETATM   31  C12 UNL     1      -3.503 -16.443   2.714  1.00  0.00     0.189 C 
HETATM   32  C13 UNL     1      -4.950 -16.907   2.585  1.00  0.00     0.204 C 
HETATM   33  C14 UNL     1      -5.807 -15.687   2.687  1.00  0.00     0.288 C 
HETATM   34  O11 UNL     1      -5.598 -14.782   1.690  1.00  0.00    -0.349 OA
HETATM   35  C15 UNL     1      -4.474 -14.949   0.942  1.00  0.00     0.179 C 
HETATM   36  C17 UNL     1      -3.261 -15.400   1.672  1.00  0.00     0.181 C 
BRANCH  32  37
HETATM   37  O9  UNL     1      -5.185 -17.590   1.416  1.00  0.00    -0.388 OA
ATOM     38  H9  UNL     1      -5.882 -18.230   1.501  1.00  0.00     0.210 HD
ENDBRANCH  32  37
BRANCH  33  39
HETATM   39  O10 UNL     1      -7.177 -16.038   2.706  1.00  0.00    -0.369 OA
ATOM     40  H10 UNL     1      -7.283 -16.972   2.844  1.00  0.00     0.212 HD
ENDBRANCH  33  39
BRANCH  35  41
HETATM   41  C16 UNL     1      -4.148 -13.579   0.325  1.00  0.00     0.198 C 
BRANCH  41  42
HETATM   42  O12 UNL     1      -5.034 -12.615   0.764  1.00  0.00    -0.398 OA
ATOM     43  H12 UNL     1      -5.145 -11.933   0.113  1.00  0.00     0.209 HD
ENDBRANCH  41  42
ENDBRANCH  35  41
BRANCH  36  44
HETATM   44  O13 UNL     1      -2.610 -14.272   2.183  1.00  0.00    -0.390 OA
ATOM     45  H13 UNL     1      -2.392 -14.364   3.103  1.00  0.00     0.210 HD
ENDBRANCH  36  44
ENDBRANCH  30  31
ENDBRANCH   5  30
TORSDOF 18
ENDMDL
MODEL 3
REMARK VINA RESULT: -5.929077291      2.611     10.142
REMARK  18 active torsions:
REMARK  status: ('A' for Active; 'I' for Inactive)
REMARK    1  A    between atoms: O1_1  and  C1_3 
REMARK    2  A    between atoms: C1_3  and  C2_4 
REMARK    3  A    between atoms: C2_4  and  C3_5 
REMARK    4  A    between atoms: C3_5  and  O2_6 
REMARK    5  A    between atoms: C5_9  and  O3_10 
REMARK    6  A    between atoms: C5_9  and  C6_12 
REMARK    7  A    between atoms: C6_12  and  O4_13 
REMARK    8  A    between atoms: C8_17  and  O6_18 
REMARK    9  A    between atoms: O6_18  and  C9_19 
REMARK   10  A    between atoms: C11_23  and  O8_24 
REMARK   11  A    between atoms: O8_24  and  C12_25 
REMARK   12  A    between atoms: C13_26  and  O9_27 
REMARK   13  A    between atoms: C14_29  and  O10_30 
REMARK   14  A    between atoms: C15_33  and  C16_34 
REMARK   15  A    between atoms: C16_34  and  O12_35 
REMARK   16  A    between atoms: C17_37  and  O13_38 
REMARK   17  A    between atoms: C18_40  and  O14_41 
REMARK   18  A    between atoms: C19_43  and  O15_44 
ROOT
HETATM    1  C9  UNL     1      -4.004 -16.144   2.608  1.00  0.00     0.196 C 
HETATM    2  C10 UNL     1      -4.640 -16.330   3.955  1.00  0.00     0.228 C 
HETATM    3  S1  UNL     1      -5.192 -14.767   4.693  1.00  0.00    -0.060 SA
HETATM    4  O7  UNL     1      -3.852 -16.975   4.874  1.00  0.00    -0.340 OA
HETATM    5  C11 UNL     1      -2.567 -17.243   4.457  1.00  0.00     0.293 C 
HETATM    6  C18 UNL     1      -1.848 -16.064   3.879  1.00  0.00     0.204 C 
HETATM    7  C19 UNL     1      -2.615 -15.572   2.680  1.00  0.00     0.184 C 
ENDROOT
BRANCH   1   8
HETATM    8  O6  UNL     1      -4.863 -15.345   1.856  1.00  0.00    -0.347 OA
BRANCH   8   9
HETATM    9  C8  UNL     1      -5.289 -15.977   0.676  1.00  0.00     0.294 C 
HETATM   10  C3  UNL     1      -4.965 -15.070  -0.442  1.00  0.00     0.112 C 
HETATM   11  C4  UNL     1      -5.898 -13.846  -0.450  1.00  0.00     0.085 C 
HETATM   12  C5  UNL     1      -7.272 -14.110   0.026  1.00  0.00     0.103 C 
HETATM   13  C7  UNL     1      -7.387 -15.141   1.092  1.00  0.00     0.211 C 
HETATM   14  O5  UNL     1      -6.662 -16.259   0.750  1.00  0.00    -0.355 OA
BRANCH  10  15
HETATM   15  C2  UNL     1      -4.997 -15.735  -1.777  1.00  0.00     0.069 C 
BRANCH  15  16
HETATM   16  C1  UNL     1      -4.244 -15.123  -2.891  1.00  0.00     0.167 C 
BRANCH  16  17
HETATM   17  O1  UNL     1      -2.894 -15.372  -2.947  1.00  0.00    -0.401 OA
ATOM     18  H1  UNL     1      -2.349 -14.717  -3.368  1.00  0.00     0.209 HD
ENDBRANCH  16  17
ENDBRANCH  15  16
ENDBRANCH  10  15
BRANCH  10  19
HETATM   19  O2  UNL     1      -3.685 -14.477  -0.292  1.00  0.00    -0.385 OA
ATOM     20  H2  UNL     1      -3.796 -13.688   0.225  1.00  0.00     0.210 HD
ENDBRANCH  10  19
BRANCH  12  21
HETATM   21  O3  UNL     1      -7.723 -12.890   0.616  1.00  0.00    -0.385 OA
ATOM     22  H3  UNL     1      -8.638 -13.027   0.829  1.00  0.00     0.210 HD
ENDBRANCH  12  21
BRANCH  12  23
HETATM   23  C6  UNL     1      -8.264 -14.365  -1.096  1.00  0.00     0.204 C 
BRANCH  23  24
HETATM   24  O4  UNL     1      -7.898 -13.599  -2.183  1.00  0.00    -0.398 OA
ATOM     25  H4  UNL     1      -8.501 -13.781  -2.894  1.00  0.00     0.209 HD
ENDBRANCH  23  24
ENDBRANCH  12  23
ENDBRANCH   8   9
ENDBRANCH   1   8
BRANCH   7  26
HETATM   26  O15 UNL     1      -2.608 -14.174   2.742  1.00  0.00    -0.390 OA
ATOM     27  H15 UNL     1      -1.735 -13.808   2.670  1.00  0.00     0.210 HD
ENDBRANCH   7  26
BRANCH   6  28
HETATM   28  O14 UNL     1      -1.647 -15.051   4.820  1.00  0.00    -0.388 OA
ATOM     29  H14 UNL     1      -2.402 -14.480   4.904  1.00  0.00     0.210 HD
ENDBRANCH   6  28
BRANCH   5  30
HETATM   30  O8  UNL     1      -1.843 -17.649   5.591  1.00  0.00    -0.348 OA
BRANCH  30  31
HETATM   31  C12 UNL     1      -2.692 -18.045   6.624  1.00  0.00     0.189 C 
HETATM   32  C13 UNL     1      -2.498 -19.549   6.783  1.00  0.00     0.204 C 
HETATM   33  C14 UNL     1      -1.061 -19.767   7.126  1.00  0.00     0.288 C 
HETATM   34  O11 UNL     1      -0.683 -19.199   8.307  1.00  0.00    -0.349 OA
HETATM   35  C15 UNL     1      -1.537 -18.286   8.843  1.00  0.00     0.179 C 
HETATM   36  C17 UNL     1      -2.225 -17.386   7.882  1.00  0.00     0.181 C 
BRANCH  32  37
HETATM   37  O9  UNL     1      -3.330 -20.093   7.733  1.00  0.00    -0.388 OA
ATOM     38  H9  UNL     1      -3.054 -20.959   8.008  1.00  0.00     0.210 HD
ENDBRANCH  32  37
BRANCH  33  39
HETATM   39  O10 UNL     1      -0.760 -21.149   7.168  1.00  0.00    -0.369 OA
ATOM     40  H10 UNL     1      -1.017 -21.523   8.002  1.00  0.00     0.212 HD
ENDBRANCH  33  39
BRANCH  35  41
HETATM   41  C16 UNL     1      -0.701 -17.396   9.777  1.00  0.00     0.198 C 
BRANCH  41  42
HETATM   42  O12 UNL     1       0.648 -17.535   9.516  1.00  0.00    -0.398 OA
ATOM     43  H12 UNL     1       0.981 -18.351   9.869  1.00  0.00     0.209 HD
ENDBRANCH  41  42
ENDBRANCH  35  41
BRANCH  36  44
HETATM   44  O13 UNL     1      -1.394 -16.288   7.635  1.00  0.00    -0.390 OA
ATOM     45  H13 UNL     1      -1.136 -15.841   8.432  1.00  0.00     0.210 HD
ENDBRANCH  36  44
ENDBRANCH  30  31
ENDBRANCH   5  30
TORSDOF 18
ENDMDL
MODEL 4
REMARK VINA RESULT: -5.906164508      1.632      2.023
REMARK  18 active torsions:
REMARK  status: ('A' for Active; 'I' for Inactive)
REMARK    1  A    between atoms: O1_1  and  C1_3 
REMARK    2  A    between atoms: C1_3  and  C2_4 
REMARK    3  A    between atoms: C2_4  and  C3_5 
REMARK    4  A    between atoms: C3_5  and  O2_6 
REMARK    5  A    between atoms: C5_9  and  O3_10 
REMARK    6  A    between atoms: C5_9  and  C6_12 
REMARK    7  A    between atoms: C6_12  and  O4_13 
REMARK    8  A    between atoms: C8_17  and  O6_18 
REMARK    9  A    between atoms: O6_18  and  C9_19 
REMARK   10  A    between atoms: C11_23  and  O8_24 
REMARK   11  A    between atoms: O8_24  and  C12_25 
REMARK   12  A    between atoms: C13_26  and  O9_27 
REMARK   13  A    between atoms: C14_29  and  O10_30 
REMARK   14  A    between atoms: C15_33  and  C16_34 
REMARK   15  A    between atoms: C16_34  and  O12_35 
REMARK   16  A    between atoms: C17_37  and  O13_38 
REMARK   17  A    between atoms: C18_40  and  O14_41 
REMARK   18  A    between atoms: C19_43  and  O15_44 
ROOT
HETATM    1  C9  UNL     1      -1.643 -17.058   8.739  1.00  0.00     0.196 C 
HETATM    2  C10 UNL     1      -3.068 -17.448   8.476  1.00  0.00     0.228 C 
HETATM    3  S1  UNL     1      -3.411 -19.178   8.901  1.00  0.00    -0.060 SA
HETATM    4  O7  UNL     1      -3.490 -17.238   7.189  1.00  0.00    -0.340 OA
HETATM    5  C11 UNL     1      -2.512 -16.816   6.315  1.00  0.00     0.293 C 
HETATM    6  C18 UNL     1      -1.267 -17.647   6.335  1.00  0.00     0.204 C 
HETATM    7  C19 UNL     1      -0.680 -17.602   7.721  1.00  0.00     0.184 C 
ENDROOT
BRANCH   1   8
HETATM    8  O6  UNL     1      -1.333 -17.477  10.031  1.00  0.00    -0.347 OA
BRANCH   8   9
HETATM    9  C8  UNL     1      -0.383 -16.649  10.651  1.00  0.00     0.294 C 
HETATM   10  C3  UNL     1       0.486 -17.522  11.465  1.00  0.00     0.112 C 
HETATM   11  C4  UNL     1      -0.259 -18.041  12.708  1.00  0.00     0.085 C 
HETATM   12  C5  UNL     1      -1.247 -17.100  13.277  1.00  0.00     0.103 C 
HETATM   13  C7  UNL     1      -1.941 -16.234  12.286  1.00  0.00     0.211 C 
HETATM   14  O5  UNL     1      -1.027 -15.671  11.425  1.00  0.00    -0.355 OA
BRANCH  10  15
HETATM   15  C2  UNL     1       1.764 -16.872  11.879  1.00  0.00     0.069 C 
BRANCH  15  16
HETATM   16  C1  UNL     1       1.952 -15.436  11.593  1.00  0.00     0.167 C 
BRANCH  16  17
HETATM   17  O1  UNL     1       1.747 -14.557  12.630  1.00  0.00    -0.401 OA
ATOM     18  H1  UNL     1       1.359 -13.716  12.416  1.00  0.00     0.209 HD
ENDBRANCH  16  17
ENDBRANCH  15  16
ENDBRANCH  10  15
BRANCH  10  19
HETATM   19  O2  UNL     1       0.819 -18.723  10.787  1.00  0.00    -0.385 OA
ATOM     20  H2  UNL     1       0.149 -19.363  10.995  1.00  0.00     0.210 HD
ENDBRANCH  10  19
BRANCH  12  21
HETATM   21  O3  UNL     1      -2.266 -17.911  13.864  1.00  0.00    -0.385 OA
ATOM     22  H3  UNL     1      -1.983 -18.079  14.755  1.00  0.00     0.210 HD
ENDBRANCH  12  21
BRANCH  12  23
HETATM   23  C6  UNL     1      -0.709 -16.285  14.440  1.00  0.00     0.204 C 
BRANCH  23  24
HETATM   24  O4  UNL     1      -0.690 -14.957  14.070  1.00  0.00    -0.398 OA
ATOM     25  H4  UNL     1      -1.283 -14.842  13.337  1.00  0.00     0.209 HD
ENDBRANCH  23  24
ENDBRANCH  12  23
ENDBRANCH   8   9
ENDBRANCH   1   8
BRANCH   7  26
HETATM   26  O15 UNL     1      -0.252 -18.900   8.020  1.00  0.00    -0.390 OA
ATOM     27  H15 UNL     1       0.212 -19.310   7.300  1.00  0.00     0.210 HD
ENDBRANCH   7  26
BRANCH   6  28
HETATM   28  O14 UNL     1      -1.497 -18.958   5.909  1.00  0.00    -0.388 OA
ATOM     29  H14 UNL     1      -1.129 -19.128   5.049  1.00  0.00     0.210 HD
ENDBRANCH   6  28
BRANCH   5  30
HETATM   30  O8  UNL     1      -3.049 -16.912   5.020  1.00  0.00    -0.348 OA
BRANCH  30  31
HETATM   31  C12 UNL     1      -3.375 -15.657   4.507  1.00  0.00     0.189 C 
HETATM   32  C13 UNL     1      -2.170 -15.203   3.691  1.00  0.00     0.204 C 
HETATM   33  C14 UNL     1      -1.973 -16.215   2.609  1.00  0.00     0.288 C 
HETATM   34  O11 UNL     1      -3.020 -16.305   1.741  1.00  0.00    -0.349 OA
HETATM   35  C15 UNL     1      -4.185 -15.717   2.128  1.00  0.00     0.179 C 
HETATM   36  C17 UNL     1      -4.527 -15.828   3.570  1.00  0.00     0.181 C 
BRANCH  32  37
HETATM   37  O9  UNL     1      -2.326 -13.940   3.174  1.00  0.00    -0.388 OA
ATOM     38  H9  UNL     1      -2.317 -13.267   3.844  1.00  0.00     0.210 HD
ENDBRANCH  32  37
BRANCH  33  39
HETATM   39  O10 UNL     1      -0.795 -15.942   1.876  1.00  0.00    -0.369 OA
ATOM     40  H10 UNL     1      -1.001 -15.504   1.059  1.00  0.00     0.212 HD
ENDBRANCH  33  39
BRANCH  35  41
HETATM   41  C16 UNL     1      -5.310 -16.409   1.342  1.00  0.00     0.198 C 
BRANCH  41  42
HETATM   42  O12 UNL     1      -5.002 -17.732   1.097  1.00  0.00    -0.398 OA
ATOM     43  H12 UNL     1      -4.608 -17.838   0.239  1.00  0.00     0.209 HD
ENDBRANCH  41  42
ENDBRANCH  35  41
BRANCH  36  44
HETATM   44  O13 UNL     1      -5.207 -17.034   3.770  1.00  0.00    -0.390 OA
ATOM     45  H13 UNL     1      -4.683 -17.791   3.536  1.00  0.00     0.210 HD
ENDBRANCH  36  44
ENDBRANCH  30  31
ENDBRANCH   5  30
TORSDOF 18
ENDMDL
MODEL 5
REMARK VINA RESULT: -5.733218928      1.607      2.406
REMARK  18 active torsions:
REMARK  status: ('A' for Active; 'I' for Inactive)
REMARK    1  A    between atoms: O1_1  and  C1_3 
REMARK    2  A    between atoms: C1_3  and  C2_4 
REMARK    3  A    between atoms: C2_4  and  C3_5 
REMARK    4  A    between atoms: C3_5  and  O2_6 
REMARK    5  A    between atoms: C5_9  and  O3_10 
REMARK    6  A    between atoms: C5_9  and  C6_12 
REMARK    7  A    between atoms: C6_12  and  O4_13 
REMARK    8  A    between atoms: C8_17  and  O6_18 
REMARK    9  A    between atoms: O6_18  and  C9_19 
REMARK   10  A    between atoms: C11_23  and  O8_24 
REMARK   11  A    between atoms: O8_24  and  C12_25 
REMARK   12  A    between atoms: C13_26  and  O9_27 
REMARK   13  A    between atoms: C14_29  and  O10_30 
REMARK   14  A    between atoms: C15_33  and  C16_34 
REMARK   15  A    between atoms: C16_34  and  O12_35 
REMARK   16  A    between atoms: C17_37  and  O13_38 
REMARK   17  A    between atoms: C18_40  and  O14_41 
REMARK   18  A    between atoms: C19_43  and  O15_44 
ROOT
HETATM    1  C9  UNL     1      -0.862 -18.196   6.893  1.00  0.00     0.196 C 
HETATM    2  C10 UNL     1      -1.795 -17.077   7.255  1.00  0.00     0.228 C 
HETATM    3  S1  UNL     1      -2.742 -17.415   8.766  1.00  0.00    -0.060 SA
HETATM    4  O7  UNL     1      -2.682 -16.730   6.269  1.00  0.00    -0.340 OA
HETATM    5  C11 UNL     1      -2.659 -17.536   5.152  1.00  0.00     0.293 C 
HETATM    6  C18 UNL     1      -2.741 -19.002   5.448  1.00  0.00     0.204 C 
HETATM    7  C19 UNL     1      -1.564 -19.388   6.304  1.00  0.00     0.184 C 
ENDROOT
BRANCH   1   8
HETATM    8  O6  UNL     1      -0.146 -18.523   8.042  1.00  0.00    -0.347 OA
BRANCH   8   9
HETATM    9  C8  UNL     1       0.866 -19.465   7.795  1.00  0.00     0.294 C 
HETATM   10  C3  UNL     1       1.053 -20.237   9.038  1.00  0.00     0.112 C 
HETATM   11  C4  UNL     1       1.745 -19.387  10.118  1.00  0.00     0.085 C 
HETATM   12  C5  UNL     1       2.723 -18.405   9.604  1.00  0.00     0.103 C 
HETATM   13  C7  UNL     1       2.393 -17.819   8.277  1.00  0.00     0.211 C 
HETATM   14  O5  UNL     1       2.043 -18.814   7.393  1.00  0.00    -0.355 OA
BRANCH  10  15
HETATM   15  C2  UNL     1       1.804 -21.511   8.842  1.00  0.00     0.069 C 
BRANCH  15  16
HETATM   16  C1  UNL     1       2.351 -22.199  10.029  1.00  0.00     0.167 C 
BRANCH  16  17
HETATM   17  O1  UNL     1       3.719 -22.291  10.126  1.00  0.00    -0.401 OA
ATOM     18  H1  UNL     1       4.069 -22.858  10.803  1.00  0.00     0.209 HD
ENDBRANCH  16  17
ENDBRANCH  15  16
ENDBRANCH  10  15
BRANCH  10  19
HETATM   19  O2  UNL     1      -0.184 -20.562   9.654  1.00  0.00    -0.385 OA
ATOM     20  H2  UNL     1      -0.154 -20.235  10.545  1.00  0.00     0.210 HD
ENDBRANCH  10  19
BRANCH  12  21
HETATM   21  O3  UNL     1       2.703 -17.314  10.525  1.00  0.00    -0.385 OA
ATOM     22  H3  UNL     1       3.355 -16.698  10.212  1.00  0.00     0.210 HD
ENDBRANCH  12  21
BRANCH  12  23
HETATM   23  C6  UNL     1       4.159 -18.899   9.647  1.00  0.00     0.204 C 
BRANCH  23  24
HETATM   24  O4  UNL     1       4.847 -18.330   8.596  1.00  0.00    -0.398 OA
ATOM     25  H4  UNL     1       4.961 -17.405   8.779  1.00  0.00     0.209 HD
ENDBRANCH  23  24
ENDBRANCH  12  23
ENDBRANCH   8   9
ENDBRANCH   1   8
BRANCH   7  26
HETATM   26  O15 UNL     1      -2.047 -20.268   7.279  1.00  0.00    -0.390 OA
ATOM     27  H15 UNL     1      -2.794 -19.920   7.751  1.00  0.00     0.210 HD
ENDBRANCH   7  26
BRANCH   6  28
HETATM   28  O14 UNL     1      -3.956 -19.356   6.041  1.00  0.00    -0.388 OA
ATOM     29  H14 UNL     1      -4.638 -18.715   5.878  1.00  0.00     0.210 HD
ENDBRANCH   6  28
BRANCH   5  30
HETATM   30  O8  UNL     1      -3.789 -17.209   4.385  1.00  0.00    -0.348 OA
BRANCH  30  31
HETATM   31  C12 UNL     1      -3.843 -15.842   4.111  1.00  0.00     0.189 C 
HETATM   32  C13 UNL     1      -2.453 -15.451   3.620  1.00  0.00     0.204 C 
HETATM   33  C14 UNL     1      -2.185 -16.257   2.390  1.00  0.00     0.288 C 
HETATM   34  O11 UNL     1      -3.047 -16.002   1.366  1.00  0.00    -0.349 OA
HETATM   35  C15 UNL     1      -4.178 -15.311   1.678  1.00  0.00     0.179 C 
HETATM   36  C17 UNL     1      -4.803 -15.635   2.986  1.00  0.00     0.181 C 
BRANCH  32  37
HETATM   37  O9  UNL     1      -2.339 -14.104   3.372  1.00  0.00    -0.388 OA
ATOM     38  H9  UNL     1      -1.631 -13.901   2.772  1.00  0.00     0.210 HD
ENDBRANCH  32  37
BRANCH  33  39
HETATM   39  O10 UNL     1      -0.862 -16.051   1.935  1.00  0.00    -0.369 OA
ATOM     40  H10 UNL     1      -0.432 -16.881   1.768  1.00  0.00     0.212 HD
ENDBRANCH  33  39
BRANCH  35  41
HETATM   41  C16 UNL     1      -5.210 -15.641   0.588  1.00  0.00     0.198 C 
BRANCH  41  42
HETATM   42  O12 UNL     1      -6.283 -14.773   0.644  1.00  0.00    -0.398 OA
ATOM     43  H12 UNL     1      -6.792 -14.808  -0.157  1.00  0.00     0.209 HD
ENDBRANCH  41  42
ENDBRANCH  35  41
BRANCH  36  44
HETATM   44  O13 UNL     1      -5.662 -16.725   2.806  1.00  0.00    -0.390 OA
ATOM     45  H13 UNL     1      -6.161 -16.666   2.000  1.00  0.00     0.210 HD
ENDBRANCH  36  44
ENDBRANCH  30  31
ENDBRANCH   5  30
TORSDOF 18
ENDMDL
