MODEL 1
REMARK VINA RESULT: -6.696275538      0.000      0.000
REMARK  16 active torsions:
REMARK  status: ('A' for Active; 'I' for Inactive)
REMARK    1  A    between atoms: N1_1  and  C1_4 
REMARK    2  A    between atoms: C3_9  and  C4_10 
REMARK    3  A    between atoms: C4_10  and  O1_11 
REMARK    4  A    between atoms: C4_10  and  C5_13 
REMARK    5  A    between atoms: C7_15  and  O2_16 
REMARK    6  A    between atoms: C9_19  and  N4_20 
REMARK    7  A    between atoms: C10_25  and  C11_26 
REMARK    8  A    between atoms: C11_26  and  O3_27 
REMARK    9  A    between atoms: O3_27  and  C12_28 
REMARK   10  A    between atoms: C12_28  and  C13_29 
REMARK       I    between atoms: C13_29  and  N7_31 
REMARK   11  A    between atoms: N7_31  and  N8_33 
REMARK   12  A    between atoms: N8_33  and  N9_34 
REMARK   13  A    between atoms: C14_37  and  O5_38 
REMARK   14  A    between atoms: C15_42  and  C16_43 
REMARK   15  A    between atoms: C16_43  and  O6_44 
REMARK   16  A    between atoms: C16_43  and  O7_46 
ROOT
HETATM    1  C5  UNL     1      -5.454 -17.878   4.455  1.00  0.00     0.053 A 
HETATM    2  C6  UNL     1      -5.660 -18.340   5.745  1.00  0.00     0.067 A 
HETATM    3  C7  UNL     1      -4.620 -17.937   6.558  1.00  0.00     0.098 A 
HETATM    4  C8  UNL     1      -3.765 -17.215   5.741  1.00  0.00     0.119 A 
HETATM    5  C9  UNL     1      -2.565 -16.583   6.048  1.00  0.00     0.162 A 
HETATM    6  N10 UNL     1      -1.948 -15.950   5.036  1.00  0.00    -0.337 N 
ATOM      7  H10 UNL     1      -1.065 -15.476   5.226  1.00  0.00     0.167 HD
HETATM    8  C15 UNL     1      -2.437 -15.912   3.790  1.00  0.00     0.082 A 
HETATM    9  C17 UNL     1      -3.628 -16.549   3.524  1.00  0.00     0.127 A 
HETATM   10  N11 UNL     1      -4.292 -17.203   4.508  1.00  0.00    -0.315 N 
ENDROOT
BRANCH   5  11
HETATM   11  N4  UNL     1      -2.028 -16.610   7.362  1.00  0.00    -0.199 N 
HETATM   12  N5  UNL     1      -2.517 -15.946   8.409  1.00  0.00    -0.232 N 
HETATM   13  N6  UNL     1      -1.806 -16.165   9.496  1.00  0.00    -0.283 N 
ATOM     14  H5  UNL     1      -3.339 -15.344   8.373  1.00  0.00     0.209 HD
HETATM   15  C10 UNL     1      -0.821 -17.000   9.144  1.00  0.00     0.103 A 
ATOM     16  H6  UNL     1      -1.973 -15.775  10.423  1.00  0.00     0.188 HD
HETATM   17  C14 UNL     1      -0.959 -17.276   7.820  1.00  0.00     0.191 A 
BRANCH  15  18
HETATM   18  C11 UNL     1       0.222 -17.505  10.091  1.00  0.00     0.231 C 
BRANCH  18  19
HETATM   19  O3  UNL     1       1.133 -18.293   9.421  1.00  0.00    -0.376 OA
BRANCH  19  20
HETATM   20  C12 UNL     1       2.385 -17.785   9.445  1.00  0.00     0.272 C 
BRANCH  20  21
HETATM   21  C13 UNL     1       3.428 -18.799   9.297  1.00  0.00     0.258 C 
HETATM   22  O4  UNL     1       4.601 -18.406   9.012  1.00  0.00    -0.270 OA
HETATM   23  N7  UNL     1       3.170 -20.174   9.466  1.00  0.00    -0.253 N 
ATOM     24  H7  UNL     1       2.229 -20.492   9.701  1.00  0.00     0.187 HD
BRANCH  23  25
HETATM   25  N8  UNL     1       4.211 -21.113   9.311  1.00  0.00    -0.027 NA
BRANCH  25  26
HETATM   26  N9  UNL     1       4.100 -22.025  10.349  1.00  0.00    -0.329 N 
ATOM     27  H92 UNL     1       3.226 -22.373  10.744  1.00  0.00     0.174 HD
ATOM     28  H91 UNL     1       5.047 -22.274  10.635  1.00  0.00     0.174 HD
ENDBRANCH  25  26
ENDBRANCH  23  25
ENDBRANCH  20  21
ENDBRANCH  19  20
ENDBRANCH  18  19
ENDBRANCH  15  18
BRANCH  17  29
HETATM   29  O5  UNL     1      -0.160 -18.093   7.050  1.00  0.00    -0.343 OA
ATOM     30  H5  UNL     1       0.698 -17.851   6.722  1.00  0.00     0.219 HD
ENDBRANCH  17  29
ENDBRANCH   5  11
BRANCH   3  31
HETATM   31  O2  UNL     1      -4.412 -18.166   7.899  1.00  0.00    -0.358 OA
ATOM     32  H2  UNL     1      -3.826 -17.729   8.507  1.00  0.00     0.217 HD
ENDBRANCH   3  31
BRANCH   8  33
HETATM   33  C16 UNL     1      -1.745 -15.210   2.681  1.00  0.00     0.306 C 
BRANCH  33  34
HETATM   34  O6  UNL     1      -0.955 -16.087   1.944  1.00  0.00    -0.366 OA
ATOM     35  H6  UNL     1      -0.038 -15.846   1.989  1.00  0.00     0.213 HD
ENDBRANCH  33  34
BRANCH  33  36
HETATM   36  O7  UNL     1      -2.664 -14.534   1.879  1.00  0.00    -0.366 OA
ATOM     37  H7  UNL     1      -2.215 -14.012   1.224  1.00  0.00     0.213 HD
ENDBRANCH  33  36
ENDBRANCH   8  33
BRANCH   1  38
HETATM   38  C4  UNL     1      -6.363 -18.109   3.289  1.00  0.00     0.210 C 
BRANCH  38  39
HETATM   39  C3  UNL     1      -6.489 -16.850   2.518  1.00  0.00     0.086 A 
HETATM   40  C2  UNL     1      -7.190 -15.775   2.997  1.00  0.00     0.146 A 
HETATM   41  N2  UNL     1      -7.255 -14.664   2.243  1.00  0.00    -0.178 N 
HETATM   42  N3  UNL     1      -7.852 -15.823   4.282  1.00  0.00    -0.081 NA
HETATM   43  C1  UNL     1      -6.655 -14.593   1.045  1.00  0.00     0.680 A 
ATOM     44  H2  UNL     1      -7.774 -13.856   2.589  1.00  0.00     0.185 HD
HETATM   45  N12 UNL     1      -5.972 -15.654   0.587  1.00  0.00    -0.156 N 
HETATM   46  C18 UNL     1      -5.873 -16.778   1.291  1.00  0.00     0.272 A 
ATOM     47  H12 UNL     1      -5.517 -15.597  -0.324  1.00  0.00     0.187 HD
HETATM   48  O8  UNL     1      -5.227 -17.793   0.866  1.00  0.00    -0.267 OA
BRANCH  43  49
HETATM   49  N1  UNL     1      -6.720 -13.535   0.333  1.00  0.00    -0.234 N 
ATOM     50  H12 UNL     1      -6.370 -12.655   0.712  1.00  0.00     0.174 HD
ATOM     51  H11 UNL     1      -7.117 -13.554  -0.607  1.00  0.00     0.174 HD
ENDBRANCH  43  49
ENDBRANCH  38  39
BRANCH  38  52
HETATM   52  O1  UNL     1      -7.607 -18.578   3.668  1.00  0.00    -0.384 OA
ATOM     53  H1  UNL     1      -7.633 -19.528   3.638  1.00  0.00     0.211 HD
ENDBRANCH  38  52
ENDBRANCH   1  38
TORSDOF 16
ENDMDL
MODEL 2
REMARK VINA RESULT: -6.676301697      2.170      9.735
REMARK  16 active torsions:
REMARK  status: ('A' for Active; 'I' for Inactive)
REMARK    1  A    between atoms: N1_1  and  C1_4 
REMARK    2  A    between atoms: C3_9  and  C4_10 
REMARK    3  A    between atoms: C4_10  and  O1_11 
REMARK    4  A    between atoms: C4_10  and  C5_13 
REMARK    5  A    between atoms: C7_15  and  O2_16 
REMARK    6  A    between atoms: C9_19  and  N4_20 
REMARK    7  A    between atoms: C10_25  and  C11_26 
REMARK    8  A    between atoms: C11_26  and  O3_27 
REMARK    9  A    between atoms: O3_27  and  C12_28 
REMARK   10  A    between atoms: C12_28  and  C13_29 
REMARK       I    between atoms: C13_29  and  N7_31 
REMARK   11  A    between atoms: N7_31  and  N8_33 
REMARK   12  A    between atoms: N8_33  and  N9_34 
REMARK   13  A    between atoms: C14_37  and  O5_38 
REMARK   14  A    between atoms: C15_42  and  C16_43 
REMARK   15  A    between atoms: C16_43  and  O6_44 
REMARK   16  A    between atoms: C16_43  and  O7_46 
ROOT
HETATM    1  C5  UNL     1      -0.119 -18.044   8.404  1.00  0.00     0.053 A 
HETATM    2  C6  UNL     1      -0.123 -19.133   7.548  1.00  0.00     0.067 A 
HETATM    3  C7  UNL     1      -1.261 -19.111   6.769  1.00  0.00     0.098 A 
HETATM    4  C8  UNL     1      -1.962 -17.982   7.162  1.00  0.00     0.119 A 
HETATM    5  C9  UNL     1      -3.176 -17.484   6.703  1.00  0.00     0.162 A 
HETATM    6  N10 UNL     1      -3.615 -16.353   7.280  1.00  0.00    -0.337 N 
ATOM      7  H10 UNL     1      -4.503 -15.960   6.967  1.00  0.00     0.167 HD
HETATM    8  C15 UNL     1      -2.943 -15.717   8.248  1.00  0.00     0.082 A 
HETATM    9  C17 UNL     1      -1.744 -16.240   8.678  1.00  0.00     0.127 A 
HETATM   10  N11 UNL     1      -1.256 -17.379   8.129  1.00  0.00    -0.315 N 
ENDROOT
BRANCH   5  11
HETATM   11  N4  UNL     1      -3.906 -18.141   5.677  1.00  0.00    -0.199 N 
HETATM   12  N5  UNL     1      -4.444 -19.357   5.770  1.00  0.00    -0.232 N 
HETATM   13  N6  UNL     1      -5.060 -19.701   4.658  1.00  0.00    -0.283 N 
ATOM     14  H5  UNL     1      -4.386 -19.948   6.600  1.00  0.00     0.209 HD
HETATM   15  C10 UNL     1      -4.919 -18.673   3.812  1.00  0.00     0.103 A 
ATOM     16  H6  UNL     1      -5.548 -20.578   4.477  1.00  0.00     0.188 HD
HETATM   17  C14 UNL     1      -4.203 -17.706   4.444  1.00  0.00     0.191 A 
BRANCH  15  18
HETATM   18  C11 UNL     1      -5.475 -18.655   2.423  1.00  0.00     0.231 C 
BRANCH  18  19
HETATM   19  O3  UNL     1      -4.739 -17.804   1.626  1.00  0.00    -0.376 OA
BRANCH  19  20
HETATM   20  C12 UNL     1      -5.511 -16.997   0.866  1.00  0.00     0.272 C 
BRANCH  20  21
HETATM   21  C13 UNL     1      -5.289 -15.573   1.118  1.00  0.00     0.258 C 
HETATM   22  O4  UNL     1      -5.718 -15.091   2.210  1.00  0.00    -0.270 OA
HETATM   23  N7  UNL     1      -4.617 -14.742   0.199  1.00  0.00    -0.253 N 
ATOM     24  H7  UNL     1      -4.265 -15.129  -0.677  1.00  0.00     0.187 HD
BRANCH  23  25
HETATM   25  N8  UNL     1      -4.429 -13.375   0.489  1.00  0.00    -0.027 NA
BRANCH  25  26
HETATM   26  N9  UNL     1      -5.675 -12.768   0.431  1.00  0.00    -0.329 N 
ATOM     27  H92 UNL     1      -6.434 -13.028  -0.199  1.00  0.00     0.174 HD
ATOM     28  H91 UNL     1      -5.682 -12.026   1.130  1.00  0.00     0.174 HD
ENDBRANCH  25  26
ENDBRANCH  23  25
ENDBRANCH  20  21
ENDBRANCH  19  20
ENDBRANCH  18  19
ENDBRANCH  15  18
BRANCH  17  29
HETATM   29  O5  UNL     1      -3.829 -16.479   3.940  1.00  0.00    -0.343 OA
ATOM     30  H5  UNL     1      -4.422 -15.747   3.813  1.00  0.00     0.219 HD
ENDBRANCH  17  29
ENDBRANCH   5  11
BRANCH   3  31
HETATM   31  O2  UNL     1      -1.677 -19.987   5.792  1.00  0.00    -0.358 OA
ATOM     32  H2  UNL     1      -2.159 -20.802   5.871  1.00  0.00     0.217 HD
ENDBRANCH   3  31
BRANCH   8  33
HETATM   33  C16 UNL     1      -3.439 -14.470   8.879  1.00  0.00     0.306 C 
BRANCH  33  34
HETATM   34  O6  UNL     1      -3.633 -14.638  10.247  1.00  0.00    -0.366 OA
ATOM     35  H6  UNL     1      -4.486 -15.013  10.430  1.00  0.00     0.213 HD
ENDBRANCH  33  34
BRANCH  33  36
HETATM   36  O7  UNL     1      -2.584 -13.405   8.599  1.00  0.00    -0.366 OA
ATOM     37  H7  UNL     1      -3.080 -12.631   8.362  1.00  0.00     0.213 HD
ENDBRANCH  33  36
ENDBRANCH   8  33
BRANCH   1  38
HETATM   38  C4  UNL     1       0.949 -17.721   9.402  1.00  0.00     0.210 C 
BRANCH  38  39
HETATM   39  C3  UNL     1       1.880 -18.869   9.504  1.00  0.00     0.086 A 
HETATM   40  C2  UNL     1       1.593 -19.967  10.270  1.00  0.00     0.146 A 
HETATM   41  N2  UNL     1       2.484 -20.974  10.308  1.00  0.00    -0.178 N 
HETATM   42  N3  UNL     1       0.365 -20.052  11.029  1.00  0.00    -0.081 NA
HETATM   43  C1  UNL     1       3.633 -20.919   9.617  1.00  0.00     0.680 A 
ATOM     44  H2  UNL     1       2.282 -21.797  10.875  1.00  0.00     0.185 HD
HETATM   45  N12 UNL     1       3.902 -19.837   8.870  1.00  0.00    -0.156 N 
HETATM   46  C18 UNL     1       3.056 -18.813   8.795  1.00  0.00     0.272 A 
ATOM     47  H12 UNL     1       4.776 -19.799   8.347  1.00  0.00     0.187 HD
HETATM   48  O8  UNL     1       3.301 -17.779   8.089  1.00  0.00    -0.267 OA
BRANCH  43  49
HETATM   49  N1  UNL     1       4.475 -21.878   9.657  1.00  0.00    -0.234 N 
ATOM     50  H12 UNL     1       4.348 -22.681   9.041  1.00  0.00     0.174 HD
ATOM     51  H11 UNL     1       5.273 -21.856  10.293  1.00  0.00     0.174 HD
ENDBRANCH  43  49
ENDBRANCH  38  39
BRANCH  38  52
HETATM   52  O1  UNL     1       0.437 -17.394  10.644  1.00  0.00    -0.384 OA
ATOM     53  H1  UNL     1       0.110 -16.502  10.651  1.00  0.00     0.211 HD
ENDBRANCH  38  52
ENDBRANCH   1  38
TORSDOF 16
ENDMDL
MODEL 3
REMARK VINA RESULT: -6.487759800      4.133      9.255
REMARK  16 active torsions:
REMARK  status: ('A' for Active; 'I' for Inactive)
REMARK    1  A    between atoms: N1_1  and  C1_4 
REMARK    2  A    between atoms: C3_9  and  C4_10 
REMARK    3  A    between atoms: C4_10  and  O1_11 
REMARK    4  A    between atoms: C4_10  and  C5_13 
REMARK    5  A    between atoms: C7_15  and  O2_16 
REMARK    6  A    between atoms: C9_19  and  N4_20 
REMARK    7  A    between atoms: C10_25  and  C11_26 
REMARK    8  A    between atoms: C11_26  and  O3_27 
REMARK    9  A    between atoms: O3_27  and  C12_28 
REMARK   10  A    between atoms: C12_28  and  C13_29 
REMARK       I    between atoms: C13_29  and  N7_31 
REMARK   11  A    between atoms: N7_31  and  N8_33 
REMARK   12  A    between atoms: N8_33  and  N9_34 
REMARK   13  A    between atoms: C14_37  and  O5_38 
REMARK   14  A    between atoms: C15_42  and  C16_43 
REMARK   15  A    between atoms: C16_43  and  O6_44 
REMARK   16  A    between atoms: C16_43  and  O7_46 
ROOT
HETATM    1  C5  UNL     1      -0.076 -17.613   8.255  1.00  0.00     0.053 A 
HETATM    2  C6  UNL     1      -0.408 -17.357   9.576  1.00  0.00     0.067 A 
HETATM    3  C7  UNL     1      -1.534 -16.562   9.629  1.00  0.00     0.098 A 
HETATM    4  C8  UNL     1      -1.893 -16.332   8.311  1.00  0.00     0.119 A 
HETATM    5  C9  UNL     1      -2.951 -15.595   7.793  1.00  0.00     0.162 A 
HETATM    6  N10 UNL     1      -3.049 -15.549   6.453  1.00  0.00    -0.337 N 
ATOM      7  H10 UNL     1      -3.815 -15.017   6.040  1.00  0.00     0.167 HD
HETATM    8  C15 UNL     1      -2.189 -16.169   5.636  1.00  0.00     0.082 A 
HETATM    9  C17 UNL     1      -1.152 -16.890   6.185  1.00  0.00     0.127 A 
HETATM   10  N11 UNL     1      -1.007 -16.968   7.530  1.00  0.00    -0.315 N 
ENDROOT
BRANCH   5  11
HETATM   11  N4  UNL     1      -3.876 -14.929   8.641  1.00  0.00    -0.199 N 
HETATM   12  N5  UNL     1      -4.885 -15.511   9.290  1.00  0.00    -0.232 N 
HETATM   13  N6  UNL     1      -5.572 -14.638   9.998  1.00  0.00    -0.283 N 
ATOM     14  H5  UNL     1      -5.097 -16.508   9.244  1.00  0.00     0.209 HD
HETATM   15  C10 UNL     1      -4.991 -13.449   9.803  1.00  0.00     0.103 A 
ATOM     16  H6  UNL     1      -6.387 -14.832  10.580  1.00  0.00     0.188 HD
HETATM   17  C14 UNL     1      -3.939 -13.629   8.961  1.00  0.00     0.191 A 
BRANCH  15  18
HETATM   18  C11 UNL     1      -5.467 -12.177  10.431  1.00  0.00     0.231 C 
BRANCH  18  19
HETATM   19  O3  UNL     1      -4.887 -11.092   9.808  1.00  0.00    -0.376 OA
BRANCH  19  20
HETATM   20  C12 UNL     1      -5.788 -10.301   9.183  1.00  0.00     0.272 C 
BRANCH  20  21
HETATM   21  C13 UNL     1      -5.475 -10.063   7.775  1.00  0.00     0.258 C 
HETATM   22  O4  UNL     1      -5.343 -11.073   7.018  1.00  0.00    -0.270 OA
HETATM   23  N7  UNL     1      -5.326  -8.765   7.246  1.00  0.00    -0.253 N 
ATOM     24  H7  UNL     1      -5.438  -7.951   7.851  1.00  0.00     0.187 HD
BRANCH  23  25
HETATM   25  N8  UNL     1      -5.023  -8.590   5.880  1.00  0.00    -0.027 NA
BRANCH  25  26
HETATM   26  N9  UNL     1      -3.649  -8.720   5.744  1.00  0.00    -0.329 N 
ATOM     27  H92 UNL     1      -3.089  -9.501   6.087  1.00  0.00     0.174 HD
ATOM     28  H91 UNL     1      -3.315  -7.897   5.244  1.00  0.00     0.174 HD
ENDBRANCH  25  26
ENDBRANCH  23  25
ENDBRANCH  20  21
ENDBRANCH  19  20
ENDBRANCH  18  19
ENDBRANCH  15  18
BRANCH  17  29
HETATM   29  O5  UNL     1      -3.067 -12.669   8.497  1.00  0.00    -0.343 OA
ATOM     30  H5  UNL     1      -2.170 -12.569   8.795  1.00  0.00     0.219 HD
ENDBRANCH  17  29
ENDBRANCH   5  11
BRANCH   3  31
HETATM   31  O2  UNL     1      -2.212 -16.067  10.721  1.00  0.00    -0.358 OA
ATOM     32  H2  UNL     1      -2.371 -15.167  10.981  1.00  0.00     0.217 HD
ENDBRANCH   3  31
BRANCH   8  33
HETATM   33  C16 UNL     1      -2.307 -16.110   4.158  1.00  0.00     0.306 C 
BRANCH  33  34
HETATM   34  O6  UNL     1      -3.638 -16.024   3.761  1.00  0.00    -0.366 OA
ATOM     35  H6  UNL     1      -3.745 -16.285   2.855  1.00  0.00     0.213 HD
ENDBRANCH  33  34
BRANCH  33  36
HETATM   36  O7  UNL     1      -1.540 -15.065   3.646  1.00  0.00    -0.366 OA
ATOM     37  H7  UNL     1      -2.095 -14.342   3.379  1.00  0.00     0.213 HD
ENDBRANCH  33  36
ENDBRANCH   8  33
BRANCH   1  38
HETATM   38  C4  UNL     1       1.083 -18.439   7.790  1.00  0.00     0.210 C 
BRANCH  38  39
HETATM   39  C3  UNL     1       1.307 -19.543   8.752  1.00  0.00     0.086 A 
HETATM   40  C2  UNL     1       2.182 -19.423   9.799  1.00  0.00     0.146 A 
HETATM   41  N2  UNL     1       2.328 -20.466  10.635  1.00  0.00    -0.178 N 
HETATM   42  N3  UNL     1       2.939 -18.210  10.009  1.00  0.00    -0.081 NA
HETATM   43  C1  UNL     1       1.641 -21.606  10.461  1.00  0.00     0.680 A 
ATOM     44  H2  UNL     1       2.976 -20.390  11.419  1.00  0.00     0.185 HD
HETATM   45  N12 UNL     1       0.788 -21.710   9.431  1.00  0.00    -0.156 N 
HETATM   46  C18 UNL     1       0.603 -20.710   8.574  1.00  0.00     0.272 A 
ATOM     47  H12 UNL     1       0.267 -22.577   9.301  1.00  0.00     0.187 HD
HETATM   48  O8  UNL     1      -0.206 -20.797   7.590  1.00  0.00    -0.267 OA
BRANCH  43  49
HETATM   49  N1  UNL     1       1.784 -22.593  11.258  1.00  0.00    -0.234 N 
ATOM     50  H12 UNL     1       2.587 -23.212  11.149  1.00  0.00     0.174 HD
ATOM     51  H11 UNL     1       1.110 -22.773  12.002  1.00  0.00     0.174 HD
ENDBRANCH  43  49
ENDBRANCH  38  39
BRANCH  38  52
HETATM   52  O1  UNL     1       2.235 -17.693   7.621  1.00  0.00    -0.384 OA
ATOM     53  H1  UNL     1       3.005 -18.212   7.822  1.00  0.00     0.211 HD
ENDBRANCH  38  52
ENDBRANCH   1  38
TORSDOF 16
ENDMDL
MODEL 4
REMARK VINA RESULT: -6.484836109      1.234      1.366
REMARK  16 active torsions:
REMARK  status: ('A' for Active; 'I' for Inactive)
REMARK    1  A    between atoms: N1_1  and  C1_4 
REMARK    2  A    between atoms: C3_9  and  C4_10 
REMARK    3  A    between atoms: C4_10  and  O1_11 
REMARK    4  A    between atoms: C4_10  and  C5_13 
REMARK    5  A    between atoms: C7_15  and  O2_16 
REMARK    6  A    between atoms: C9_19  and  N4_20 
REMARK    7  A    between atoms: C10_25  and  C11_26 
REMARK    8  A    between atoms: C11_26  and  O3_27 
REMARK    9  A    between atoms: O3_27  and  C12_28 
REMARK   10  A    between atoms: C12_28  and  C13_29 
REMARK       I    between atoms: C13_29  and  N7_31 
REMARK   11  A    between atoms: N7_31  and  N8_33 
REMARK   12  A    between atoms: N8_33  and  N9_34 
REMARK   13  A    between atoms: C14_37  and  O5_38 
REMARK   14  A    between atoms: C15_42  and  C16_43 
REMARK   15  A    between atoms: C16_43  and  O6_44 
REMARK   16  A    between atoms: C16_43  and  O7_46 
ROOT
HETATM    1  C5  UNL     1      -5.645 -17.552   4.247  1.00  0.00     0.053 A 
HETATM    2  C6  UNL     1      -6.075 -17.888   5.520  1.00  0.00     0.067 A 
HETATM    3  C7  UNL     1      -5.175 -17.422   6.456  1.00  0.00     0.098 A 
HETATM    4  C8  UNL     1      -4.177 -16.789   5.733  1.00  0.00     0.119 A 
HETATM    5  C9  UNL     1      -3.029 -16.145   6.178  1.00  0.00     0.162 A 
HETATM    6  N10 UNL     1      -2.235 -15.616   5.231  1.00  0.00    -0.337 N 
ATOM      7  H10 UNL     1      -1.384 -15.136   5.523  1.00  0.00     0.167 HD
HETATM    8  C15 UNL     1      -2.508 -15.690   3.922  1.00  0.00     0.082 A 
HETATM    9  C17 UNL     1      -3.654 -16.337   3.519  1.00  0.00     0.127 A 
HETATM   10  N11 UNL     1      -4.490 -16.888   4.433  1.00  0.00    -0.315 N 
ENDROOT
BRANCH   5  11
HETATM   11  N4  UNL     1      -2.719 -16.053   7.561  1.00  0.00    -0.199 N 
HETATM   12  N5  UNL     1      -3.387 -15.325   8.455  1.00  0.00    -0.232 N 
HETATM   13  N6  UNL     1      -2.865 -15.438   9.659  1.00  0.00    -0.283 N 
ATOM     14  H5  UNL     1      -4.202 -14.752   8.234  1.00  0.00     0.209 HD
HETATM   15  C10 UNL     1      -1.822 -16.268   9.545  1.00  0.00     0.103 A 
ATOM     16  H6  UNL     1      -3.191 -14.981  10.511  1.00  0.00     0.188 HD
HETATM   17  C14 UNL     1      -1.731 -16.650   8.243  1.00  0.00     0.191 A 
BRANCH  15  18
HETATM   18  C11 UNL     1      -0.945 -16.667  10.689  1.00  0.00     0.231 C 
BRANCH  18  19
HETATM   19  O3  UNL     1      -0.669 -18.017  10.631  1.00  0.00    -0.376 OA
BRANCH  19  20
HETATM   20  C12 UNL     1       0.526 -18.333  11.178  1.00  0.00     0.272 C 
BRANCH  20  21
HETATM   21  C13 UNL     1       1.663 -18.016  10.314  1.00  0.00     0.258 C 
HETATM   22  O4  UNL     1       2.544 -17.221  10.763  1.00  0.00    -0.270 OA
HETATM   23  N7  UNL     1       1.804 -18.566   9.024  1.00  0.00    -0.253 N 
ATOM     24  H7  UNL     1       1.099 -19.210   8.664  1.00  0.00     0.187 HD
BRANCH  23  25
HETATM   25  N8  UNL     1       2.919 -18.227   8.230  1.00  0.00    -0.027 NA
BRANCH  25  26
HETATM   26  N9  UNL     1       4.043 -18.737   8.861  1.00  0.00    -0.329 N 
ATOM     27  H92 UNL     1       4.152 -18.867   9.867  1.00  0.00     0.174 HD
ATOM     28  H91 UNL     1       4.726 -18.952   8.135  1.00  0.00     0.174 HD
ENDBRANCH  25  26
ENDBRANCH  23  25
ENDBRANCH  20  21
ENDBRANCH  19  20
ENDBRANCH  18  19
ENDBRANCH  15  18
BRANCH  17  29
HETATM   29  O5  UNL     1      -0.802 -17.501   7.685  1.00  0.00    -0.343 OA
ATOM     30  H5  UNL     1       0.135 -17.447   7.837  1.00  0.00     0.219 HD
ENDBRANCH  17  29
ENDBRANCH   5  11
BRANCH   3  31
HETATM   31  O2  UNL     1      -5.199 -17.526   7.829  1.00  0.00    -0.358 OA
ATOM     32  H2  UNL     1      -4.797 -16.971   8.487  1.00  0.00     0.217 HD
ENDBRANCH   3  31
BRANCH   8  33
HETATM   33  C16 UNL     1      -1.623 -15.104   2.887  1.00  0.00     0.306 C 
BRANCH  33  34
HETATM   34  O6  UNL     1      -1.120 -16.086   2.038  1.00  0.00    -0.366 OA
ATOM     35  H6  UNL     1      -1.807 -16.462   1.502  1.00  0.00     0.213 HD
ENDBRANCH  33  34
BRANCH  33  36
HETATM   36  O7  UNL     1      -2.286 -14.097   2.187  1.00  0.00    -0.366 OA
ATOM     37  H7  UNL     1      -3.181 -14.353   2.001  1.00  0.00     0.213 HD
ENDBRANCH  33  36
ENDBRANCH   8  33
BRANCH   1  38
HETATM   38  C4  UNL     1      -6.353 -17.882   2.970  1.00  0.00     0.210 C 
BRANCH  38  39
HETATM   39  C3  UNL     1      -6.616 -16.628   2.225  1.00  0.00     0.086 A 
HETATM   40  C2  UNL     1      -7.548 -15.718   2.647  1.00  0.00     0.146 A 
HETATM   41  N2  UNL     1      -7.728 -14.600   1.923  1.00  0.00    -0.178 N 
HETATM   42  N3  UNL     1      -8.332 -15.945   3.841  1.00  0.00    -0.081 NA
HETATM   43  C1  UNL     1      -7.018 -14.366   0.808  1.00  0.00     0.680 A 
ATOM     44  H2  UNL     1      -8.419 -13.914   2.227  1.00  0.00     0.185 HD
HETATM   45  N12 UNL     1      -6.108 -15.266   0.405  1.00  0.00    -0.156 N 
HETATM   46  C18 UNL     1      -5.889 -16.388   1.084  1.00  0.00     0.272 A 
ATOM     47  H12 UNL     1      -5.570 -15.085  -0.442  1.00  0.00     0.187 HD
HETATM   48  O8  UNL     1      -5.026 -17.252   0.711  1.00  0.00    -0.267 OA
BRANCH  43  49
HETATM   49  N1  UNL     1      -7.192 -13.302   0.124  1.00  0.00    -0.234 N 
ATOM     50  H12 UNL     1      -8.138 -12.949  -0.021  1.00  0.00     0.174 HD
ATOM     51  H11 UNL     1      -6.402 -12.798  -0.280  1.00  0.00     0.174 HD
ENDBRANCH  43  49
ENDBRANCH  38  39
BRANCH  38  52
HETATM   52  O1  UNL     1      -7.526 -18.584   3.177  1.00  0.00    -0.384 OA
ATOM     53  H1  UNL     1      -7.380 -19.519   3.087  1.00  0.00     0.211 HD
ENDBRANCH  38  52
ENDBRANCH   1  38
TORSDOF 16
ENDMDL
MODEL 5
REMARK VINA RESULT: -6.456754240      2.182     10.284
REMARK  16 active torsions:
REMARK  status: ('A' for Active; 'I' for Inactive)
REMARK    1  A    between atoms: N1_1  and  C1_4 
REMARK    2  A    between atoms: C3_9  and  C4_10 
REMARK    3  A    between atoms: C4_10  and  O1_11 
REMARK    4  A    between atoms: C4_10  and  C5_13 
REMARK    5  A    between atoms: C7_15  and  O2_16 
REMARK    6  A    between atoms: C9_19  and  N4_20 
REMARK    7  A    between atoms: C10_25  and  C11_26 
REMARK    8  A    between atoms: C11_26  and  O3_27 
REMARK    9  A    between atoms: O3_27  and  C12_28 
REMARK   10  A    between atoms: C12_28  and  C13_29 
REMARK       I    between atoms: C13_29  and  N7_31 
REMARK   11  A    between atoms: N7_31  and  N8_33 
REMARK   12  A    between atoms: N8_33  and  N9_34 
REMARK   13  A    between atoms: C14_37  and  O5_38 
REMARK   14  A    between atoms: C15_42  and  C16_43 
REMARK   15  A    between atoms: C16_43  and  O6_44 
REMARK   16  A    between atoms: C16_43  and  O7_46 
ROOT
HETATM    1  C5  UNL     1       0.915 -17.801   8.768  1.00  0.00     0.053 A 
HETATM    2  C6  UNL     1       0.993 -18.317   7.485  1.00  0.00     0.067 A 
HETATM    3  C7  UNL     1      -0.228 -18.191   6.855  1.00  0.00     0.098 A 
HETATM    4  C8  UNL     1      -1.064 -17.584   7.778  1.00  0.00     0.119 A 
HETATM    5  C9  UNL     1      -2.402 -17.224   7.663  1.00  0.00     0.162 A 
HETATM    6  N10 UNL     1      -2.958 -16.641   8.740  1.00  0.00    -0.337 N 
ATOM      7  H10 UNL     1      -3.939 -16.365   8.690  1.00  0.00     0.167 HD
HETATM    8  C15 UNL     1      -2.287 -16.408   9.874  1.00  0.00     0.082 A 
HETATM    9  C17 UNL     1      -0.963 -16.779   9.951  1.00  0.00     0.127 A 
HETATM   10  N11 UNL     1      -0.353 -17.370   8.894  1.00  0.00    -0.315 N 
ENDROOT
BRANCH   5  11
HETATM   11  N4  UNL     1      -3.135 -17.461   6.470  1.00  0.00    -0.199 N 
HETATM   12  N5  UNL     1      -3.663 -18.630   6.109  1.00  0.00    -0.232 N 
HETATM   13  N6  UNL     1      -4.284 -18.543   4.951  1.00  0.00    -0.283 N 
ATOM     14  H5  UNL     1      -3.596 -19.485   6.661  1.00  0.00     0.209 HD
HETATM   15  C10 UNL     1      -4.156 -17.275   4.545  1.00  0.00     0.103 A 
ATOM     16  H6  UNL     1      -4.767 -19.295   4.460  1.00  0.00     0.188 HD
HETATM   17  C14 UNL     1      -3.443 -16.603   5.487  1.00  0.00     0.191 A 
BRANCH  15  18
HETATM   18  C11 UNL     1      -4.721 -16.749   3.263  1.00  0.00     0.231 C 
BRANCH  18  19
HETATM   19  O3  UNL     1      -4.055 -15.602   2.883  1.00  0.00    -0.376 OA
BRANCH  19  20
HETATM   20  C12 UNL     1      -3.707 -15.606   1.577  1.00  0.00     0.272 C 
BRANCH  20  21
HETATM   21  C13 UNL     1      -4.449 -14.634   0.774  1.00  0.00     0.258 C 
HETATM   22  O4  UNL     1      -4.014 -13.443   0.733  1.00  0.00    -0.270 OA
HETATM   23  N7  UNL     1      -5.610 -14.984   0.054  1.00  0.00    -0.253 N 
ATOM     24  H7  UNL     1      -5.958 -15.942   0.081  1.00  0.00     0.187 HD
BRANCH  23  25
HETATM   25  N8  UNL     1      -6.290 -14.009  -0.704  1.00  0.00    -0.027 NA
BRANCH  25  26
HETATM   26  N9  UNL     1      -7.006 -13.222   0.186  1.00  0.00    -0.329 N 
ATOM     27  H92 UNL     1      -7.268 -12.247   0.041  1.00  0.00     0.174 HD
ATOM     28  H91 UNL     1      -7.215 -13.801   1.000  1.00  0.00     0.174 HD
ENDBRANCH  25  26
ENDBRANCH  23  25
ENDBRANCH  20  21
ENDBRANCH  19  20
ENDBRANCH  18  19
ENDBRANCH  15  18
BRANCH  17  29
HETATM   29  O5  UNL     1      -3.080 -15.274   5.471  1.00  0.00    -0.343 OA
ATOM     30  H5  UNL     1      -2.194 -14.957   5.604  1.00  0.00     0.219 HD
ENDBRANCH  17  29
ENDBRANCH   5  11
BRANCH   3  31
HETATM   31  O2  UNL     1      -0.606 -18.564   5.585  1.00  0.00    -0.358 OA
ATOM     32  H2  UNL     1      -1.433 -18.916   5.275  1.00  0.00     0.217 HD
ENDBRANCH   3  31
BRANCH   8  33
HETATM   33  C16 UNL     1      -2.912 -15.766  11.056  1.00  0.00     0.306 C 
BRANCH  33  34
HETATM   34  O6  UNL     1      -1.956 -15.405  12.000  1.00  0.00    -0.366 OA
ATOM     35  H6  UNL     1      -1.819 -16.098  12.635  1.00  0.00     0.213 HD
ENDBRANCH  33  34
BRANCH  33  36
HETATM   36  O7  UNL     1      -3.698 -14.682  10.667  1.00  0.00    -0.366 OA
ATOM     37  H7  UNL     1      -4.432 -14.571  11.260  1.00  0.00     0.213 HD
ENDBRANCH  33  36
ENDBRANCH   8  33
BRANCH   1  38
HETATM   38  C4  UNL     1       2.034 -17.755   9.761  1.00  0.00     0.210 C 
BRANCH  38  39
HETATM   39  C3  UNL     1       2.514 -19.134  10.013  1.00  0.00     0.086 A 
HETATM   40  C2  UNL     1       3.728 -19.572   9.556  1.00  0.00     0.146 A 
HETATM   41  N2  UNL     1       4.099 -20.836   9.829  1.00  0.00    -0.178 N 
HETATM   42  N3  UNL     1       4.600 -18.707   8.793  1.00  0.00    -0.081 NA
HETATM   43  C1  UNL     1       3.307 -21.662  10.531  1.00  0.00     0.680 A 
ATOM     44  H2  UNL     1       5.001 -21.174   9.495  1.00  0.00     0.185 HD
HETATM   45  N12 UNL     1       2.120 -21.220  10.972  1.00  0.00    -0.156 N 
HETATM   46  C18 UNL     1       1.704 -19.980  10.732  1.00  0.00     0.272 A 
ATOM     47  H12 UNL     1       1.521 -21.851  11.505  1.00  0.00     0.187 HD
HETATM   48  O8  UNL     1       0.576 -19.548  11.146  1.00  0.00    -0.267 OA
BRANCH  43  49
HETATM   49  N1  UNL     1       3.665 -22.861  10.787  1.00  0.00    -0.234 N 
ATOM     50  H12 UNL     1       3.130 -23.636  10.397  1.00  0.00     0.174 HD
ATOM     51  H11 UNL     1       4.475 -23.056  11.376  1.00  0.00     0.174 HD
ENDBRANCH  43  49
ENDBRANCH  38  39
BRANCH  38  52
HETATM   52  O1  UNL     1       1.671 -17.139  10.945  1.00  0.00    -0.384 OA
ATOM     53  H1  UNL     1       0.843 -17.478  11.262  1.00  0.00     0.211 HD
ENDBRANCH  38  52
ENDBRANCH   1  38
TORSDOF 16
ENDMDL
