MODEL 1
REMARK VINA RESULT: -5.529220255      0.000      0.000
REMARK  17 active torsions:
REMARK  status: ('A' for Active; 'I' for Inactive)
REMARK    1  A    between atoms: C3_6  and  O1_7 
REMARK    2  A    between atoms: O1_7  and  C4_8 
REMARK    3  A    between atoms: C5_10  and  O3_11 
REMARK    4  A    between atoms: C6_13  and  C7_14 
REMARK    5  A    between atoms: C7_14  and  O4_15 
REMARK    6  A    between atoms: C8_18  and  O5_19 
REMARK    7  A    between atoms: C8_18  and  C9_21 
REMARK    8  A    between atoms: C9_21  and  O6_22 
REMARK    9  A    between atoms: C10_24  and  O7_25 
REMARK   10  A    between atoms: C11_27  and  O8_28 
REMARK   11  A    between atoms: O8_28  and  C12_29 
REMARK   12  A    between atoms: C13_31  and  C14_32 
REMARK   13  A    between atoms: C14_32  and  O10_33 
REMARK   14  A    between atoms: C15_35  and  O11_37 
REMARK   15  A    between atoms: C17_39  and  O12_40 
REMARK   16  A    between atoms: C18_42  and  O13_43 
REMARK   17  A    between atoms: C19_45  and  O14_46 
ROOT
HETATM    1  C1  UNL     1      -4.657 -15.309  12.172  1.00  0.00     0.043 C 
HETATM    2  C2  UNL     1      -3.497 -15.796  11.340  1.00  0.00     0.216 C 
HETATM    3  N1  UNL     1      -3.430 -15.122  10.066  1.00  0.00    -0.040 N 
ATOM      4  H11 UNL     1      -2.543 -14.648   9.895  1.00  0.00     0.280 HD
ATOM      5  H12 UNL     1      -4.020 -14.292  10.006  1.00  0.00     0.280 HD
HETATM    6  C3  UNL     1      -3.754 -16.156   9.067  1.00  0.00     0.355 C 
HETATM    7  C11 UNL     1      -2.954 -17.302   9.649  1.00  0.00     0.212 C 
HETATM    8  C19 UNL     1      -3.600 -17.294  11.051  1.00  0.00     0.181 C 
ENDROOT
BRANCH   6   9
HETATM    9  O1  UNL     1      -3.450 -15.800   7.797  1.00  0.00    -0.323 OA
BRANCH   9  10
HETATM   10  C4  UNL     1      -3.435 -16.875   6.930  1.00  0.00     0.298 C 
HETATM   11  O2  UNL     1      -2.383 -16.766   6.065  1.00  0.00    -0.328 OA
HETATM   12  C5  UNL     1      -2.456 -15.774   5.122  1.00  0.00     0.275 C 
HETATM   13  C6  UNL     1      -2.570 -16.477   3.762  1.00  0.00     0.129 C 
HETATM   14  S1  UNL     1      -4.273 -17.018   3.584  1.00  0.00    -0.115 SA
HETATM   15  C8  UNL     1      -4.734 -17.947   5.063  1.00  0.00     0.158 C 
HETATM   16  C10 UNL     1      -4.782 -17.104   6.294  1.00  0.00     0.220 C 
BRANCH  12  17
HETATM   17  O3  UNL     1      -1.340 -14.939   5.122  1.00  0.00    -0.370 OA
ATOM     18  H3  UNL     1      -1.090 -14.653   4.252  1.00  0.00     0.212 HD
ENDBRANCH  12  17
BRANCH  13  19
HETATM   19  C7  UNL     1      -2.105 -15.615   2.634  1.00  0.00     0.184 C 
BRANCH  19  20
HETATM   20  O4  UNL     1      -0.881 -16.075   2.172  1.00  0.00    -0.400 OA
ATOM     21  H4  UNL     1      -0.498 -15.430   1.589  1.00  0.00     0.209 HD
ENDBRANCH  19  20
ENDBRANCH  13  19
BRANCH  15  22
HETATM   22  O5  UNL     1      -3.914 -19.029   5.293  1.00  0.00    -0.374 OA
ATOM     23  H5  UNL     1      -3.097 -18.791   5.716  1.00  0.00     0.211 HD
ENDBRANCH  15  22
BRANCH  15  24
HETATM   24  C9  UNL     1      -6.138 -18.492   4.829  1.00  0.00     0.216 C 
BRANCH  24  25
HETATM   25  O6  UNL     1      -6.937 -17.593   4.136  1.00  0.00    -0.397 OA
ATOM     26  H6  UNL     1      -6.877 -16.714   4.493  1.00  0.00     0.209 HD
ENDBRANCH  24  25
ENDBRANCH  15  24
BRANCH  16  27
HETATM   27  O7  UNL     1      -5.500 -15.913   6.112  1.00  0.00    -0.387 OA
ATOM     28  H7  UNL     1      -6.385 -15.966   6.453  1.00  0.00     0.210 HD
ENDBRANCH  16  27
ENDBRANCH   9  10
ENDBRANCH   6   9
BRANCH   7  29
HETATM   29  O8  UNL     1      -1.629 -16.944   9.875  1.00  0.00    -0.346 OA
BRANCH  29  30
HETATM   30  C12 UNL     1      -0.708 -17.887   9.427  1.00  0.00     0.292 C 
HETATM   31  O9  UNL     1      -0.320 -17.504   8.150  1.00  0.00    -0.348 OA
HETATM   32  C13 UNL     1       0.484 -18.407   7.497  1.00  0.00     0.184 C 
HETATM   33  C15 UNL     1       1.775 -18.610   8.236  1.00  0.00     0.111 C 
HETATM   34  C16 UNL     1       2.023 -20.035   8.641  1.00  0.00     0.051 C 
HETATM   35  C17 UNL     1       1.792 -17.742   9.469  1.00  0.00     0.188 C 
HETATM   36  C18 UNL     1       0.535 -17.903  10.293  1.00  0.00     0.205 C 
BRANCH  32  37
HETATM   37  C14 UNL     1      -0.223 -19.696   7.158  1.00  0.00     0.199 C 
BRANCH  37  38
HETATM   38  O10 UNL     1      -0.984 -19.548   6.008  1.00  0.00    -0.398 OA
ATOM     39  H10 UNL     1      -0.890 -20.308   5.445  1.00  0.00     0.209 HD
ENDBRANCH  37  38
ENDBRANCH  32  37
BRANCH  33  40
HETATM   40  O11 UNL     1       2.854 -18.213   7.446  1.00  0.00    -0.385 OA
ATOM     41  H11 UNL     1       3.393 -17.585   7.912  1.00  0.00     0.210 HD
ENDBRANCH  33  40
BRANCH  35  42
HETATM   42  O12 UNL     1       2.895 -18.104  10.236  1.00  0.00    -0.390 OA
ATOM     43  H12 UNL     1       2.723 -17.853  11.137  1.00  0.00     0.210 HD
ENDBRANCH  35  42
BRANCH  36  44
HETATM   44  O13 UNL     1       0.612 -19.122  10.944  1.00  0.00    -0.388 OA
ATOM     45  H13 UNL     1       0.736 -18.967  11.874  1.00  0.00     0.210 HD
ENDBRANCH  36  44
ENDBRANCH  29  30
ENDBRANCH   7  29
BRANCH   8  46
HETATM   46  O14 UNL     1      -4.944 -17.583  10.936  1.00  0.00    -0.391 OA
ATOM     47  H14 UNL     1      -5.006 -18.507  10.720  1.00  0.00     0.210 HD
ENDBRANCH   8  46
TORSDOF 17
ENDMDL
MODEL 2
REMARK VINA RESULT: -5.427224702      2.489      7.091
REMARK  17 active torsions:
REMARK  status: ('A' for Active; 'I' for Inactive)
REMARK    1  A    between atoms: C3_6  and  O1_7 
REMARK    2  A    between atoms: O1_7  and  C4_8 
REMARK    3  A    between atoms: C5_10  and  O3_11 
REMARK    4  A    between atoms: C6_13  and  C7_14 
REMARK    5  A    between atoms: C7_14  and  O4_15 
REMARK    6  A    between atoms: C8_18  and  O5_19 
REMARK    7  A    between atoms: C8_18  and  C9_21 
REMARK    8  A    between atoms: C9_21  and  O6_22 
REMARK    9  A    between atoms: C10_24  and  O7_25 
REMARK   10  A    between atoms: C11_27  and  O8_28 
REMARK   11  A    between atoms: O8_28  and  C12_29 
REMARK   12  A    between atoms: C13_31  and  C14_32 
REMARK   13  A    between atoms: C14_32  and  O10_33 
REMARK   14  A    between atoms: C15_35  and  O11_37 
REMARK   15  A    between atoms: C17_39  and  O12_40 
REMARK   16  A    between atoms: C18_42  and  O13_43 
REMARK   17  A    between atoms: C19_45  and  O14_46 
ROOT
HETATM    1  C1  UNL     1      -4.203 -14.741  10.114  1.00  0.00     0.043 C 
HETATM    2  C2  UNL     1      -3.826 -15.486   8.857  1.00  0.00     0.216 C 
HETATM    3  N1  UNL     1      -2.974 -16.616   9.139  1.00  0.00    -0.040 N 
ATOM      4  H11 UNL     1      -3.345 -17.506   8.806  1.00  0.00     0.280 HD
ATOM      5  H12 UNL     1      -2.934 -16.868  10.127  1.00  0.00     0.280 HD
HETATM    6  C3  UNL     1      -1.665 -16.264   8.561  1.00  0.00     0.355 C 
HETATM    7  C11 UNL     1      -2.140 -15.654   7.259  1.00  0.00     0.212 C 
HETATM    8  C19 UNL     1      -3.071 -14.588   7.876  1.00  0.00     0.181 C 
ENDROOT
BRANCH   6   9
HETATM    9  O1  UNL     1      -0.818 -17.315   8.453  1.00  0.00    -0.323 OA
BRANCH   9  10
HETATM   10  C4  UNL     1      -0.185 -17.615   9.644  1.00  0.00     0.298 C 
HETATM   11  O2  UNL     1       1.150 -17.341   9.549  1.00  0.00    -0.328 OA
HETATM   12  C5  UNL     1       1.894 -18.157   8.738  1.00  0.00     0.275 C 
HETATM   13  C6  UNL     1       2.852 -18.926   9.659  1.00  0.00     0.129 C 
HETATM   14  S1  UNL     1       1.907 -20.247  10.424  1.00  0.00    -0.115 SA
HETATM   15  C8  UNL     1       0.416 -19.535  11.153  1.00  0.00     0.158 C 
HETATM   16  C10 UNL     1      -0.534 -18.996  10.135  1.00  0.00     0.220 C 
BRANCH  12  17
HETATM   17  O3  UNL     1       2.629 -17.455   7.784  1.00  0.00    -0.370 OA
ATOM     18  H3  UNL     1       2.585 -17.846   6.919  1.00  0.00     0.212 HD
ENDBRANCH  12  17
BRANCH  13  19
HETATM   19  C7  UNL     1       4.068 -19.412   8.940  1.00  0.00     0.184 C 
BRANCH  19  20
HETATM   20  O4  UNL     1       5.026 -18.410   8.918  1.00  0.00    -0.400 OA
ATOM     21  H4  UNL     1       5.854 -18.754   9.235  1.00  0.00     0.209 HD
ENDBRANCH  19  20
ENDBRANCH  13  19
BRANCH  15  22
HETATM   22  O5  UNL     1       0.688 -18.549  12.076  1.00  0.00    -0.374 OA
ATOM     23  H5  UNL     1      -0.074 -18.300  12.587  1.00  0.00     0.211 HD
ENDBRANCH  15  22
BRANCH  15  24
HETATM   24  C9  UNL     1      -0.300 -20.657  11.896  1.00  0.00     0.216 C 
BRANCH  24  25
HETATM   25  O6  UNL     1      -0.266 -21.852  11.190  1.00  0.00    -0.397 OA
ATOM     26  H6  UNL     1      -0.617 -22.575  11.697  1.00  0.00     0.209 HD
ENDBRANCH  24  25
ENDBRANCH  15  24
BRANCH  16  27
HETATM   27  O7  UNL     1      -0.776 -19.894   9.085  1.00  0.00    -0.387 OA
ATOM     28  H7  UNL     1      -0.883 -20.788   9.388  1.00  0.00     0.210 HD
ENDBRANCH  16  27
ENDBRANCH   9  10
ENDBRANCH   6   9
BRANCH   7  29
HETATM   29  O8  UNL     1      -2.997 -16.508   6.572  1.00  0.00    -0.346 OA
BRANCH  29  30
HETATM   30  C12 UNL     1      -3.298 -16.082   5.282  1.00  0.00     0.292 C 
HETATM   31  O9  UNL     1      -2.833 -17.059   4.411  1.00  0.00    -0.348 OA
HETATM   32  C13 UNL     1      -2.920 -16.732   3.080  1.00  0.00     0.184 C 
HETATM   33  C15 UNL     1      -4.348 -16.516   2.671  1.00  0.00     0.111 C 
HETATM   34  C16 UNL     1      -4.615 -15.149   2.105  1.00  0.00     0.051 C 
HETATM   35  C17 UNL     1      -5.251 -16.738   3.857  1.00  0.00     0.188 C 
HETATM   36  C18 UNL     1      -4.794 -15.962   5.072  1.00  0.00     0.205 C 
BRANCH  32  37
HETATM   37  C14 UNL     1      -2.004 -15.601   2.683  1.00  0.00     0.199 C 
BRANCH  37  38
HETATM   38  O10 UNL     1      -0.871 -16.090   2.049  1.00  0.00    -0.398 OA
ATOM     39  H10 UNL     1      -0.181 -15.437   2.049  1.00  0.00     0.209 HD
ENDBRANCH  37  38
ENDBRANCH  32  37
BRANCH  33  40
HETATM   40  O11 UNL     1      -4.721 -17.443   1.698  1.00  0.00    -0.385 OA
ATOM     41  H11 UNL     1      -5.198 -17.014   0.997  1.00  0.00     0.210 HD
ENDBRANCH  33  40
BRANCH  35  42
HETATM   42  O12 UNL     1      -6.535 -16.329   3.506  1.00  0.00    -0.390 OA
ATOM     43  H12 UNL     1      -7.129 -17.052   3.668  1.00  0.00     0.210 HD
ENDBRANCH  35  42
BRANCH  36  44
HETATM   44  O13 UNL     1      -5.112 -14.631   4.865  1.00  0.00    -0.388 OA
ATOM     45  H13 UNL     1      -6.055 -14.550   4.781  1.00  0.00     0.210 HD
ENDBRANCH  36  44
ENDBRANCH  29  30
ENDBRANCH   7  29
BRANCH   8  46
HETATM   46  O14 UNL     1      -2.322 -13.713   8.636  1.00  0.00    -0.391 OA
ATOM     47  H14 UNL     1      -2.937 -13.206   9.153  1.00  0.00     0.210 HD
ENDBRANCH   8  46
TORSDOF 17
ENDMDL
MODEL 3
REMARK VINA RESULT: -5.396893641      1.589      1.739
REMARK  17 active torsions:
REMARK  status: ('A' for Active; 'I' for Inactive)
REMARK    1  A    between atoms: C3_6  and  O1_7 
REMARK    2  A    between atoms: O1_7  and  C4_8 
REMARK    3  A    between atoms: C5_10  and  O3_11 
REMARK    4  A    between atoms: C6_13  and  C7_14 
REMARK    5  A    between atoms: C7_14  and  O4_15 
REMARK    6  A    between atoms: C8_18  and  O5_19 
REMARK    7  A    between atoms: C8_18  and  C9_21 
REMARK    8  A    between atoms: C9_21  and  O6_22 
REMARK    9  A    between atoms: C10_24  and  O7_25 
REMARK   10  A    between atoms: C11_27  and  O8_28 
REMARK   11  A    between atoms: O8_28  and  C12_29 
REMARK   12  A    between atoms: C13_31  and  C14_32 
REMARK   13  A    between atoms: C14_32  and  O10_33 
REMARK   14  A    between atoms: C15_35  and  O11_37 
REMARK   15  A    between atoms: C17_39  and  O12_40 
REMARK   16  A    between atoms: C18_42  and  O13_43 
REMARK   17  A    between atoms: C19_45  and  O14_46 
ROOT
HETATM    1  C1  UNL     1      -5.752 -14.415  11.242  1.00  0.00     0.043 C 
HETATM    2  C2  UNL     1      -4.586 -14.952  10.448  1.00  0.00     0.216 C 
HETATM    3  N1  UNL     1      -4.420 -14.250   9.198  1.00  0.00    -0.040 N 
ATOM      4  H11 UNL     1      -3.499 -13.828   9.080  1.00  0.00     0.280 HD
ATOM      5  H12 UNL     1      -4.954 -13.384   9.136  1.00  0.00     0.280 HD
HETATM    6  C3  UNL     1      -4.760 -15.236   8.156  1.00  0.00     0.355 C 
HETATM    7  C11 UNL     1      -4.060 -16.444   8.740  1.00  0.00     0.212 C 
HETATM    8  C19 UNL     1      -4.767 -16.433  10.112  1.00  0.00     0.181 C 
ENDROOT
BRANCH   6   9
HETATM    9  O1  UNL     1      -4.377 -14.867   6.912  1.00  0.00    -0.323 OA
BRANCH   9  10
HETATM   10  C4  UNL     1      -4.650 -15.831   5.961  1.00  0.00     0.298 C 
HETATM   11  O2  UNL     1      -3.496 -16.222   5.344  1.00  0.00    -0.328 OA
HETATM   12  C5  UNL     1      -2.897 -15.312   4.513  1.00  0.00     0.275 C 
HETATM   13  C6  UNL     1      -3.002 -15.887   3.093  1.00  0.00     0.129 C 
HETATM   14  S1  UNL     1      -4.675 -15.582   2.518  1.00  0.00    -0.115 SA
HETATM   15  C8  UNL     1      -5.828 -16.189   3.769  1.00  0.00     0.158 C 
HETATM   16  C10 UNL     1      -5.771 -15.415   5.044  1.00  0.00     0.220 C 
BRANCH  12  17
HETATM   17  O3  UNL     1      -1.557 -15.086   4.826  1.00  0.00    -0.370 OA
ATOM     18  H3  UNL     1      -1.443 -14.575   5.618  1.00  0.00     0.212 HD
ENDBRANCH  12  17
BRANCH  13  19
HETATM   19  C7  UNL     1      -1.955 -15.341   2.178  1.00  0.00     0.184 C 
BRANCH  19  20
HETATM   20  O4  UNL     1      -0.864 -16.197   2.157  1.00  0.00    -0.400 OA
ATOM     21  H4  UNL     1      -0.532 -16.268   1.270  1.00  0.00     0.209 HD
ENDBRANCH  19  20
ENDBRANCH  13  19
BRANCH  15  22
HETATM   22  O5  UNL     1      -5.659 -17.527   4.050  1.00  0.00    -0.374 OA
ATOM     23  H5  UNL     1      -6.385 -18.062   3.750  1.00  0.00     0.211 HD
ENDBRANCH  15  22
BRANCH  15  24
HETATM   24  C9  UNL     1      -7.233 -16.027   3.199  1.00  0.00     0.216 C 
BRANCH  24  25
HETATM   25  O6  UNL     1      -7.370 -14.846   2.481  1.00  0.00    -0.397 OA
ATOM     26  H6  UNL     1      -7.445 -14.089   3.051  1.00  0.00     0.209 HD
ENDBRANCH  24  25
ENDBRANCH  15  24
BRANCH  16  27
HETATM   27  O7  UNL     1      -5.814 -14.027   4.842  1.00  0.00    -0.387 OA
ATOM     28  H7  UNL     1      -6.619 -13.746   4.425  1.00  0.00     0.210 HD
ENDBRANCH  16  27
ENDBRANCH   9  10
ENDBRANCH   6   9
BRANCH   7  29
HETATM   29  O8  UNL     1      -2.727 -16.176   9.034  1.00  0.00    -0.346 OA
BRANCH  29  30
HETATM   30  C12 UNL     1      -1.859 -17.213   8.705  1.00  0.00     0.292 C 
HETATM   31  O9  UNL     1      -0.976 -16.720   7.753  1.00  0.00    -0.348 OA
HETATM   32  C13 UNL     1      -0.134 -17.658   7.208  1.00  0.00     0.184 C 
HETATM   33  C15 UNL     1       0.750 -18.264   8.259  1.00  0.00     0.111 C 
HETATM   34  C16 UNL     1       0.615 -19.756   8.376  1.00  0.00     0.051 C 
HETATM   35  C17 UNL     1       0.443 -17.639   9.596  1.00  0.00     0.188 C 
HETATM   36  C18 UNL     1      -1.038 -17.650   9.901  1.00  0.00     0.205 C 
BRANCH  32  37
HETATM   37  C14 UNL     1      -0.852 -18.683   6.364  1.00  0.00     0.199 C 
BRANCH  37  38
HETATM   38  O10 UNL     1      -1.233 -18.133   5.148  1.00  0.00    -0.398 OA
ATOM     39  H10 UNL     1      -2.061 -18.499   4.860  1.00  0.00     0.209 HD
ENDBRANCH  37  38
ENDBRANCH  32  37
BRANCH  33  40
HETATM   40  O11 UNL     1       2.089 -17.993   7.982  1.00  0.00    -0.385 OA
ATOM     41  H11 UNL     1       2.614 -18.780   8.080  1.00  0.00     0.210 HD
ENDBRANCH  33  40
BRANCH  35  42
HETATM   42  O12 UNL     1       1.120 -18.361  10.575  1.00  0.00    -0.390 OA
ATOM     43  H12 UNL     1       0.679 -18.217  11.405  1.00  0.00     0.210 HD
ENDBRANCH  35  42
BRANCH  36  44
HETATM   44  O13 UNL     1      -1.389 -18.946  10.237  1.00  0.00    -0.388 OA
ATOM     45  H13 UNL     1      -1.292 -19.058  11.175  1.00  0.00     0.210 HD
ENDBRANCH  36  44
ENDBRANCH  29  30
ENDBRANCH   7  29
BRANCH   8  46
HETATM   46  O14 UNL     1      -6.120 -16.634   9.929  1.00  0.00    -0.391 OA
ATOM     47  H14 UNL     1      -6.476 -16.881  10.775  1.00  0.00     0.210 HD
ENDBRANCH   8  46
TORSDOF 17
ENDMDL
MODEL 4
REMARK VINA RESULT: -5.294323824      2.219      6.372
REMARK  17 active torsions:
REMARK  status: ('A' for Active; 'I' for Inactive)
REMARK    1  A    between atoms: C3_6  and  O1_7 
REMARK    2  A    between atoms: O1_7  and  C4_8 
REMARK    3  A    between atoms: C5_10  and  O3_11 
REMARK    4  A    between atoms: C6_13  and  C7_14 
REMARK    5  A    between atoms: C7_14  and  O4_15 
REMARK    6  A    between atoms: C8_18  and  O5_19 
REMARK    7  A    between atoms: C8_18  and  C9_21 
REMARK    8  A    between atoms: C9_21  and  O6_22 
REMARK    9  A    between atoms: C10_24  and  O7_25 
REMARK   10  A    between atoms: C11_27  and  O8_28 
REMARK   11  A    between atoms: O8_28  and  C12_29 
REMARK   12  A    between atoms: C13_31  and  C14_32 
REMARK   13  A    between atoms: C14_32  and  O10_33 
REMARK   14  A    between atoms: C15_35  and  O11_37 
REMARK   15  A    between atoms: C17_39  and  O12_40 
REMARK   16  A    between atoms: C18_42  and  O13_43 
REMARK   17  A    between atoms: C19_45  and  O14_46 
ROOT
HETATM    1  C1  UNL     1      -4.872 -14.327  10.565  1.00  0.00     0.043 C 
HETATM    2  C2  UNL     1      -4.565 -14.924   9.214  1.00  0.00     0.216 C 
HETATM    3  N1  UNL     1      -3.516 -15.913   9.290  1.00  0.00    -0.040 N 
ATOM      4  H11 UNL     1      -3.788 -16.831   8.938  1.00  0.00     0.280 HD
ATOM      5  H12 UNL     1      -3.300 -16.213  10.241  1.00  0.00     0.280 HD
HETATM    6  C3  UNL     1      -2.373 -15.317   8.577  1.00  0.00     0.355 C 
HETATM    7  C11 UNL     1      -3.116 -14.718   7.402  1.00  0.00     0.212 C 
HETATM    8  C19 UNL     1      -4.105 -13.858   8.219  1.00  0.00     0.181 C 
ENDROOT
BRANCH   6   9
HETATM    9  O1  UNL     1      -1.397 -16.205   8.276  1.00  0.00    -0.323 OA
BRANCH   9  10
HETATM   10  C4  UNL     1      -1.691 -17.487   8.702  1.00  0.00     0.298 C 
HETATM   11  O2  UNL     1      -0.826 -17.862   9.691  1.00  0.00    -0.328 OA
HETATM   12  C5  UNL     1       0.475 -18.087   9.326  1.00  0.00     0.275 C 
HETATM   13  C6  UNL     1       0.728 -19.588   9.525  1.00  0.00     0.129 C 
HETATM   14  S1  UNL     1      -0.002 -20.441   8.124  1.00  0.00    -0.115 SA
HETATM   15  C8  UNL     1      -1.710 -19.883   7.942  1.00  0.00     0.158 C 
HETATM   16  C10 UNL     1      -1.820 -18.448   7.549  1.00  0.00     0.220 C 
BRANCH  12  17
HETATM   17  O3  UNL     1       1.389 -17.356  10.084  1.00  0.00    -0.370 OA
ATOM     18  H3  UNL     1       2.121 -17.879  10.388  1.00  0.00     0.212 HD
ENDBRANCH  12  17
BRANCH  13  19
HETATM   19  C7  UNL     1       2.176 -19.902   9.717  1.00  0.00     0.184 C 
BRANCH  19  20
HETATM   20  O4  UNL     1       2.902 -19.424   8.636  1.00  0.00    -0.400 OA
ATOM     21  H4  UNL     1       3.185 -20.153   8.096  1.00  0.00     0.209 HD
ENDBRANCH  19  20
ENDBRANCH  13  19
BRANCH  15  22
HETATM   22  O5  UNL     1      -2.467 -20.096   9.074  1.00  0.00    -0.374 OA
ATOM     23  H5  UNL     1      -3.330 -19.703   9.020  1.00  0.00     0.211 HD
ENDBRANCH  15  22
BRANCH  15  24
HETATM   24  C9  UNL     1      -2.335 -20.711   6.825  1.00  0.00     0.216 C 
BRANCH  24  25
HETATM   25  O6  UNL     1      -1.492 -20.826   5.728  1.00  0.00    -0.397 OA
ATOM     26  H6  UNL     1      -1.725 -20.219   5.035  1.00  0.00     0.209 HD
ENDBRANCH  24  25
ENDBRANCH  15  24
BRANCH  16  27
HETATM   27  O7  UNL     1      -0.984 -18.111   6.473  1.00  0.00    -0.387 OA
ATOM     28  H7  UNL     1      -1.040 -18.736   5.760  1.00  0.00     0.210 HD
ENDBRANCH  16  27
ENDBRANCH   9  10
ENDBRANCH   6   9
BRANCH   7  29
HETATM   29  O8  UNL     1      -3.918 -15.659   6.765  1.00  0.00    -0.346 OA
BRANCH  29  30
HETATM   30  C12 UNL     1      -3.947 -15.528   5.380  1.00  0.00     0.292 C 
HETATM   31  O9  UNL     1      -3.322 -16.649   4.850  1.00  0.00    -0.348 OA
HETATM   32  C13 UNL     1      -3.134 -16.615   3.490  1.00  0.00     0.184 C 
HETATM   33  C15 UNL     1      -4.447 -16.542   2.767  1.00  0.00     0.111 C 
HETATM   34  C16 UNL     1      -4.582 -15.337   1.880  1.00  0.00     0.051 C 
HETATM   35  C17 UNL     1      -5.574 -16.541   3.768  1.00  0.00     0.188 C 
HETATM   36  C18 UNL     1      -5.367 -15.509   4.854  1.00  0.00     0.205 C 
BRANCH  32  37
HETATM   37  C14 UNL     1      -2.147 -15.561   3.052  1.00  0.00     0.199 C 
BRANCH  37  38
HETATM   38  O10 UNL     1      -1.169 -16.115   2.239  1.00  0.00    -0.398 OA
ATOM     39  H10 UNL     1      -0.409 -15.547   2.197  1.00  0.00     0.209 HD
ENDBRANCH  37  38
ENDBRANCH  32  37
BRANCH  33  40
HETATM   40  O11 UNL     1      -4.621 -17.667   1.961  1.00  0.00    -0.385 OA
ATOM     41  H11 UNL     1      -5.539 -17.778   1.740  1.00  0.00     0.210 HD
ENDBRANCH  33  40
BRANCH  35  42
HETATM   42  O12 UNL     1      -6.756 -16.262   3.087  1.00  0.00    -0.390 OA
ATOM     43  H12 UNL     1      -7.475 -16.645   3.576  1.00  0.00     0.210 HD
ENDBRANCH  35  42
BRANCH  36  44
HETATM   44  O13 UNL     1      -5.627 -14.264   4.307  1.00  0.00    -0.388 OA
ATOM     45  H13 UNL     1      -6.130 -14.377   3.509  1.00  0.00     0.210 HD
ENDBRANCH  36  44
ENDBRANCH  29  30
ENDBRANCH   7  29
BRANCH   8  46
HETATM   46  O14 UNL     1      -3.401 -12.918   8.943  1.00  0.00    -0.391 OA
ATOM     47  H14 UNL     1      -2.586 -12.769   8.476  1.00  0.00     0.210 HD
ENDBRANCH   8  46
TORSDOF 17
ENDMDL
MODEL 5
REMARK VINA RESULT: -5.288072569      2.497      7.070
REMARK  17 active torsions:
REMARK  status: ('A' for Active; 'I' for Inactive)
REMARK    1  A    between atoms: C3_6  and  O1_7 
REMARK    2  A    between atoms: O1_7  and  C4_8 
REMARK    3  A    between atoms: C5_10  and  O3_11 
REMARK    4  A    between atoms: C6_13  and  C7_14 
REMARK    5  A    between atoms: C7_14  and  O4_15 
REMARK    6  A    between atoms: C8_18  and  O5_19 
REMARK    7  A    between atoms: C8_18  and  C9_21 
REMARK    8  A    between atoms: C9_21  and  O6_22 
REMARK    9  A    between atoms: C10_24  and  O7_25 
REMARK   10  A    between atoms: C11_27  and  O8_28 
REMARK   11  A    between atoms: O8_28  and  C12_29 
REMARK   12  A    between atoms: C13_31  and  C14_32 
REMARK   13  A    between atoms: C14_32  and  O10_33 
REMARK   14  A    between atoms: C15_35  and  O11_37 
REMARK   15  A    between atoms: C17_39  and  O12_40 
REMARK   16  A    between atoms: C18_42  and  O13_43 
REMARK   17  A    between atoms: C19_45  and  O14_46 
ROOT
HETATM    1  C1  UNL     1      -5.052 -14.709  10.452  1.00  0.00     0.043 C 
HETATM    2  C2  UNL     1      -4.603 -15.266   9.124  1.00  0.00     0.216 C 
HETATM    3  N1  UNL     1      -3.493 -16.177   9.271  1.00  0.00    -0.040 N 
ATOM      4  H11 UNL     1      -3.670 -17.108   8.893  1.00  0.00     0.280 HD
ATOM      5  H12 UNL     1      -3.325 -16.471  10.233  1.00  0.00     0.280 HD
HETATM    6  C3  UNL     1      -2.347 -15.490   8.649  1.00  0.00     0.355 C 
HETATM    7  C11 UNL     1      -3.045 -14.933   7.426  1.00  0.00     0.212 C 
HETATM    8  C19 UNL     1      -4.151 -14.157   8.172  1.00  0.00     0.181 C 
ENDROOT
BRANCH   6   9
HETATM    9  O1  UNL     1      -1.289 -16.301   8.415  1.00  0.00    -0.323 OA
BRANCH   9  10
HETATM   10  C4  UNL     1      -1.253 -17.390   9.264  1.00  0.00     0.298 C 
HETATM   11  O2  UNL     1      -1.164 -16.972  10.561  1.00  0.00    -0.328 OA
HETATM   12  C5  UNL     1       0.020 -16.401  10.949  1.00  0.00     0.275 C 
HETATM   13  C6  UNL     1       0.649 -17.360  11.970  1.00  0.00     0.129 C 
HETATM   14  S1  UNL     1       1.394 -18.707  11.046  1.00  0.00    -0.115 SA
HETATM   15  C8  UNL     1       0.159 -19.370   9.907  1.00  0.00     0.158 C 
HETATM   16  C10 UNL     1      -0.226 -18.406   8.834  1.00  0.00     0.220 C 
BRANCH  12  17
HETATM   17  O3  UNL     1      -0.145 -15.145  11.530  1.00  0.00    -0.370 OA
ATOM     18  H3  UNL     1      -0.410 -14.480  10.907  1.00  0.00     0.212 HD
ENDBRANCH  12  17
BRANCH  13  19
HETATM   19  C7  UNL     1       1.610 -16.671  12.883  1.00  0.00     0.184 C 
BRANCH  19  20
HETATM   20  O4  UNL     1       2.457 -15.862  12.141  1.00  0.00    -0.400 OA
ATOM     21  H4  UNL     1       3.116 -16.397  11.714  1.00  0.00     0.209 HD
ENDBRANCH  19  20
ENDBRANCH  13  19
BRANCH  15  22
HETATM   22  O5  UNL     1      -0.981 -19.805  10.546  1.00  0.00    -0.374 OA
ATOM     23  H5  UNL     1      -1.415 -20.514  10.085  1.00  0.00     0.211 HD
ENDBRANCH  15  22
BRANCH  15  24
HETATM   24  C9  UNL     1       0.782 -20.584   9.227  1.00  0.00     0.216 C 
BRANCH  24  25
HETATM   25  O6  UNL     1       0.374 -20.707   7.906  1.00  0.00    -0.397 OA
ATOM     26  H6  UNL     1       0.718 -21.493   7.499  1.00  0.00     0.209 HD
ENDBRANCH  24  25
ENDBRANCH  15  24
BRANCH  16  27
HETATM   27  O7  UNL     1       0.882 -17.817   8.206  1.00  0.00    -0.387 OA
ATOM     28  H7  UNL     1       1.693 -17.978   8.673  1.00  0.00     0.210 HD
ENDBRANCH  16  27
ENDBRANCH   9  10
ENDBRANCH   6   9
BRANCH   7  29
HETATM   29  O8  UNL     1      -3.727 -15.923   6.725  1.00  0.00    -0.346 OA
BRANCH  29  30
HETATM   30  C12 UNL     1      -3.823 -15.679   5.358  1.00  0.00     0.292 C 
HETATM   31  O9  UNL     1      -3.247 -16.762   4.708  1.00  0.00    -0.348 OA
HETATM   32  C13 UNL     1      -3.127 -16.621   3.347  1.00  0.00     0.184 C 
HETATM   33  C15 UNL     1      -4.473 -16.470   2.701  1.00  0.00     0.111 C 
HETATM   34  C16 UNL     1      -4.631 -15.195   1.922  1.00  0.00     0.051 C 
HETATM   35  C17 UNL     1      -5.548 -16.534   3.756  1.00  0.00     0.188 C 
HETATM   36  C18 UNL     1      -5.267 -15.597   4.910  1.00  0.00     0.205 C 
BRANCH  32  37
HETATM   37  C14 UNL     1      -2.144 -15.548   2.945  1.00  0.00     0.199 C 
BRANCH  37  38
HETATM   38  O10 UNL     1      -1.094 -16.095   2.222  1.00  0.00    -0.398 OA
ATOM     39  H10 UNL     1      -0.632 -15.419   1.741  1.00  0.00     0.209 HD
ENDBRANCH  37  38
ENDBRANCH  32  37
BRANCH  33  40
HETATM   40  O11 UNL     1      -4.708 -17.524   1.818  1.00  0.00    -0.385 OA
ATOM     41  H11 UNL     1      -4.162 -18.269   2.038  1.00  0.00     0.210 HD
ENDBRANCH  33  40
BRANCH  35  42
HETATM   42  O12 UNL     1      -6.758 -16.183   3.163  1.00  0.00    -0.390 OA
ATOM     43  H12 UNL     1      -7.454 -16.638   3.622  1.00  0.00     0.210 HD
ENDBRANCH  35  42
BRANCH  36  44
HETATM   44  O13 UNL     1      -5.531 -14.308   4.479  1.00  0.00    -0.388 OA
ATOM     45  H13 UNL     1      -5.486 -14.286   3.530  1.00  0.00     0.210 HD
ENDBRANCH  36  44
ENDBRANCH  29  30
ENDBRANCH   7  29
BRANCH   8  46
HETATM   46  O14 UNL     1      -3.574 -13.177   8.952  1.00  0.00    -0.391 OA
ATOM     47  H14 UNL     1      -3.985 -13.232   9.807  1.00  0.00     0.210 HD
ENDBRANCH   8  46
TORSDOF 17
ENDMDL
