MODEL 1
REMARK VINA RESULT: -8.791074102      0.000      0.000
REMARK  14 active torsions:
REMARK  status: ('A' for Active; 'I' for Inactive)
REMARK    1  A    between atoms: C2_2  and  O1_3 
REMARK    2  A    between atoms: O1_3  and  C3_4 
REMARK       I    between atoms: C3_4  and  N1_6 
REMARK       I    between atoms: N2_9  and  C6_10 
REMARK    3  A    between atoms: C6_10  and  C7_12 
REMARK    4  A    between atoms: C7_12  and  C8_13 
REMARK    5  A    between atoms: C7_12  and  N3_17 
REMARK    6  A    between atoms: C8_13  and  C9_14 
REMARK    7  A    between atoms: C9_14  and  S1_15 
REMARK       I    between atoms: N3_17  and  C11_19 
REMARK    8  A    between atoms: C11_19  and  C12_21 
REMARK    9  A    between atoms: C12_21  and  C13_22 
REMARK   10  A    between atoms: C12_21  and  N4_29 
REMARK   11  A    between atoms: C13_22  and  C14_23 
REMARK   12  A    between atoms: C21_31  and  C22_32 
REMARK   13  A    between atoms: C22_32  and  N5_33 
REMARK       I    between atoms: N5_33  and  C23_35 
REMARK   14  A    between atoms: C23_35  and  C24_37 
ROOT
HETATM    1  C12 UNL     1      18.067  24.118  16.326  1.00  0.00     0.201 C 
ENDROOT
BRANCH   1   2
HETATM    2  C11 UNL     1      16.896  23.281  16.058  1.00  0.00     0.247 C 
HETATM    3  N3  UNL     1      15.543  23.664  16.305  1.00  0.00    -0.321 N 
ATOM      4  H3  UNL     1      15.341  24.590  16.682  1.00  0.00     0.169 HD
HETATM    5  O4  UNL     1      17.115  22.108  15.566  1.00  0.00    -0.271 OA
BRANCH   3   6
HETATM    6  C7  UNL     1      14.466  22.761  16.029  1.00  0.00     0.103 C 
BRANCH   6   7
HETATM    7  C6  UNL     1      14.164  21.846  17.152  1.00  0.00     0.270 C 
HETATM    8  N2  UNL     1      13.626  20.588  17.170  1.00  0.00    -0.344 N 
HETATM    9  C5  UNL     1      13.295  19.808  16.012  1.00  0.00     0.146 C 
HETATM   10  C27 UNL     1      13.312  19.912  18.451  1.00  0.00     0.146 C 
HETATM   11  C4  UNL     1      11.786  19.677  15.934  1.00  0.00     0.148 C 
HETATM   12  N1  UNL     1      11.331  19.178  17.217  1.00  0.00    -0.325 N 
HETATM   13  C3  UNL     1      10.446  18.057  17.265  1.00  0.00     0.362 C 
HETATM   14  C28 UNL     1      11.778  19.825  18.427  1.00  0.00     0.148 C 
HETATM   15  O2  UNL     1      10.032  17.592  18.341  1.00  0.00    -0.238 OA
HETATM   16  O3  UNL     1      14.476  22.355  18.305  1.00  0.00    -0.266 OA
BRANCH  13  17
HETATM   17  O1  UNL     1      10.022  17.452  16.081  1.00  0.00    -0.304 OA
BRANCH  17  18
HETATM   18  C2  UNL     1      10.470  16.149  15.773  1.00  0.00     0.176 C 
HETATM   19  C1  UNL     1      10.894  16.116  14.335  1.00  0.00     0.034 C 
ENDBRANCH  17  18
ENDBRANCH  13  17
ENDBRANCH   6   7
BRANCH   6  20
HETATM   20  C8  UNL     1      13.310  23.304  15.302  1.00  0.00     0.042 C 
BRANCH  20  21
HETATM   21  C9  UNL     1      12.890  22.871  13.979  1.00  0.00     0.047 C 
BRANCH  21  22
HETATM   22  S1  UNL     1      13.686  21.606  13.069  1.00  0.00    -0.146 SA
HETATM   23  C10 UNL     1      15.371  21.808  12.582  1.00  0.00     0.095 C 
ENDBRANCH  21  22
ENDBRANCH  20  21
ENDBRANCH   6  20
ENDBRANCH   3   6
ENDBRANCH   1   2
BRANCH   1  24
HETATM   24  C13 UNL     1      18.114  25.484  15.774  1.00  0.00     0.041 C 
BRANCH  24  25
HETATM   25  C14 UNL     1      19.435  26.101  15.471  1.00  0.00    -0.012 C 
HETATM   26  C15 UNL     1      20.146  26.666  16.635  1.00  0.00     0.005 C 
HETATM   27  C16 UNL     1      21.577  27.032  16.153  1.00  0.00     0.000 C 
HETATM   28  C17 UNL     1      21.327  28.280  15.297  1.00  0.00     0.000 C 
HETATM   29  C18 UNL     1      20.520  27.934  14.098  1.00  0.00     0.000 C 
HETATM   30  C19 UNL     1      19.414  26.984  14.257  1.00  0.00     0.005 C 
ENDBRANCH  24  25
ENDBRANCH   1  24
BRANCH   1  31
HETATM   31  N4  UNL     1      18.247  24.161  17.790  1.00  0.00    -0.273 N 
HETATM   32  C20 UNL     1      19.192  23.585  18.518  1.00  0.00     0.140 A 
HETATM   33  C21 UNL     1      18.979  23.902  19.864  1.00  0.00     0.062 A 
HETATM   34  N6  UNL     1      17.894  24.666  19.871  1.00  0.00    -0.287 N 
HETATM   35  N7  UNL     1      17.465  24.815  18.625  1.00  0.00    -0.240 N 
ATOM     36  H6  UNL     1      17.460  25.074  20.700  1.00  0.00     0.188 HD
ATOM     37  H7  UNL     1      16.646  25.359  18.352  1.00  0.00     0.208 HD
BRANCH  33  38
HETATM   38  C22 UNL     1      19.856  23.426  20.972  1.00  0.00     0.182 C 
BRANCH  38  39
HETATM   39  N5  UNL     1      21.205  23.268  20.478  1.00  0.00    -0.355 N 
HETATM   40  C23 UNL     1      22.146  24.317  20.687  1.00  0.00     0.222 C 
HETATM   41  O5  UNL     1      21.827  25.359  21.289  1.00  0.00    -0.273 OA
ATOM     42  H5  UNL     1      21.480  22.418  19.986  1.00  0.00     0.162 HD
BRANCH  40  43
HETATM   43  C24 UNL     1      23.543  24.193  20.185  1.00  0.00     0.078 A 
HETATM   44  C25 UNL     1      23.667  24.611  18.724  1.00  0.00     0.015 A 
HETATM   45  C26 UNL     1      23.881  23.207  19.136  1.00  0.00     0.015 A 
ENDBRANCH  40  43
ENDBRANCH  38  39
ENDBRANCH  33  38
ENDBRANCH   1  31
TORSDOF 14
ENDMDL
MODEL 2
REMARK VINA RESULT: -8.770788139      2.988     10.961
REMARK  14 active torsions:
REMARK  status: ('A' for Active; 'I' for Inactive)
REMARK    1  A    between atoms: C2_2  and  O1_3 
REMARK    2  A    between atoms: O1_3  and  C3_4 
REMARK       I    between atoms: C3_4  and  N1_6 
REMARK       I    between atoms: N2_9  and  C6_10 
REMARK    3  A    between atoms: C6_10  and  C7_12 
REMARK    4  A    between atoms: C7_12  and  C8_13 
REMARK    5  A    between atoms: C7_12  and  N3_17 
REMARK    6  A    between atoms: C8_13  and  C9_14 
REMARK    7  A    between atoms: C9_14  and  S1_15 
REMARK       I    between atoms: N3_17  and  C11_19 
REMARK    8  A    between atoms: C11_19  and  C12_21 
REMARK    9  A    between atoms: C12_21  and  C13_22 
REMARK   10  A    between atoms: C12_21  and  N4_29 
REMARK   11  A    between atoms: C13_22  and  C14_23 
REMARK   12  A    between atoms: C21_31  and  C22_32 
REMARK   13  A    between atoms: C22_32  and  N5_33 
REMARK       I    between atoms: N5_33  and  C23_35 
REMARK   14  A    between atoms: C23_35  and  C24_37 
ROOT
HETATM    1  C12 UNL     1      15.137  21.212  18.073  1.00  0.00     0.201 C 
ENDROOT
BRANCH   1   2
HETATM    2  C11 UNL     1      16.347  22.023  18.226  1.00  0.00     0.247 C 
HETATM    3  N3  UNL     1      16.440  23.212  19.011  1.00  0.00    -0.321 N 
ATOM      4  H3  UNL     1      15.625  23.540  19.530  1.00  0.00     0.169 HD
HETATM    5  O4  UNL     1      17.400  21.626  17.595  1.00  0.00    -0.271 OA
BRANCH   3   6
HETATM    6  C7  UNL     1      17.667  23.948  19.078  1.00  0.00     0.103 C 
BRANCH   6   7
HETATM    7  C6  UNL     1      17.900  24.809  17.896  1.00  0.00     0.270 C 
HETATM    8  N2  UNL     1      19.015  24.998  17.124  1.00  0.00    -0.344 N 
HETATM    9  C5  UNL     1      20.254  24.287  17.264  1.00  0.00     0.146 C 
HETATM   10  C27 UNL     1      19.031  26.015  16.047  1.00  0.00     0.146 C 
HETATM   11  C4  UNL     1      21.309  25.253  17.763  1.00  0.00     0.148 C 
HETATM   12  N1  UNL     1      21.303  26.396  16.872  1.00  0.00    -0.325 N 
HETATM   13  C3  UNL     1      22.533  26.868  16.318  1.00  0.00     0.362 C 
HETATM   14  C28 UNL     1      20.051  27.043  16.561  1.00  0.00     0.148 C 
HETATM   15  O2  UNL     1      22.576  27.841  15.547  1.00  0.00    -0.238 OA
HETATM   16  O3  UNL     1      16.846  25.487  17.559  1.00  0.00    -0.266 OA
BRANCH  13  17
HETATM   17  O1  UNL     1      23.732  26.230  16.639  1.00  0.00    -0.304 OA
BRANCH  17  18
HETATM   18  C2  UNL     1      24.893  27.006  16.843  1.00  0.00     0.176 C 
HETATM   19  C1  UNL     1      25.910  26.628  15.807  1.00  0.00     0.034 C 
ENDBRANCH  17  18
ENDBRANCH  13  17
ENDBRANCH   6   7
BRANCH   6  20
HETATM   20  C8  UNL     1      18.033  24.518  20.382  1.00  0.00     0.042 C 
BRANCH  20  21
HETATM   21  C9  UNL     1      19.267  24.227  21.093  1.00  0.00     0.047 C 
BRANCH  21  22
HETATM   22  S1  UNL     1      20.335  22.901  20.687  1.00  0.00    -0.146 SA
HETATM   23  C10 UNL     1      19.654  21.324  20.277  1.00  0.00     0.095 C 
ENDBRANCH  21  22
ENDBRANCH  20  21
ENDBRANCH   6  20
ENDBRANCH   3   6
ENDBRANCH   1   2
BRANCH   1  24
HETATM   24  C13 UNL     1      14.326  20.901  19.265  1.00  0.00     0.041 C 
BRANCH  24  25
HETATM   25  C14 UNL     1      13.986  19.482  19.562  1.00  0.00    -0.012 C 
HETATM   26  C15 UNL     1      13.312  18.754  18.468  1.00  0.00     0.005 C 
HETATM   27  C16 UNL     1      13.268  17.258  18.885  1.00  0.00     0.000 C 
HETATM   28  C17 UNL     1      12.192  17.254  19.979  1.00  0.00     0.000 C 
HETATM   29  C18 UNL     1      12.646  18.037  21.156  1.00  0.00     0.000 C 
HETATM   30  C19 UNL     1      13.370  19.290  20.918  1.00  0.00     0.005 C 
ENDBRANCH  24  25
ENDBRANCH   1  24
BRANCH   1  31
HETATM   31  N4  UNL     1      14.298  21.867  17.052  1.00  0.00    -0.273 N 
HETATM   32  C20 UNL     1      13.683  21.315  16.017  1.00  0.00     0.140 A 
HETATM   33  C21 UNL     1      12.990  22.312  15.320  1.00  0.00     0.062 A 
HETATM   34  N6  UNL     1      13.235  23.432  15.988  1.00  0.00    -0.287 N 
HETATM   35  N7  UNL     1      14.017  23.155  17.022  1.00  0.00    -0.240 N 
ATOM     36  H6  UNL     1      12.879  24.357  15.745  1.00  0.00     0.188 HD
ATOM     37  H7  UNL     1      14.353  23.840  17.698  1.00  0.00     0.208 HD
BRANCH  33  38
HETATM   38  C22 UNL     1      12.179  22.050  14.097  1.00  0.00     0.182 C 
BRANCH  38  39
HETATM   39  N5  UNL     1      11.197  21.029  14.385  1.00  0.00    -0.355 N 
HETATM   40  C23 UNL     1      11.447  19.691  13.967  1.00  0.00     0.222 C 
HETATM   41  O5  UNL     1      12.493  19.387  13.365  1.00  0.00    -0.273 OA
ATOM     42  H5  UNL     1      10.337  21.264  14.881  1.00  0.00     0.162 HD
BRANCH  40  43
HETATM   43  C24 UNL     1      10.454  18.614  14.240  1.00  0.00     0.078 A 
HETATM   44  C25 UNL     1      10.546  18.100  15.673  1.00  0.00     0.015 A 
HETATM   45  C26 UNL     1      10.901  17.234  14.528  1.00  0.00     0.015 A 
ENDBRANCH  40  43
ENDBRANCH  38  39
ENDBRANCH  33  38
ENDBRANCH   1  31
TORSDOF 14
ENDMDL
MODEL 3
REMARK VINA RESULT: -8.720540533      2.652     10.417
REMARK  14 active torsions:
REMARK  status: ('A' for Active; 'I' for Inactive)
REMARK    1  A    between atoms: C2_2  and  O1_3 
REMARK    2  A    between atoms: O1_3  and  C3_4 
REMARK       I    between atoms: C3_4  and  N1_6 
REMARK       I    between atoms: N2_9  and  C6_10 
REMARK    3  A    between atoms: C6_10  and  C7_12 
REMARK    4  A    between atoms: C7_12  and  C8_13 
REMARK    5  A    between atoms: C7_12  and  N3_17 
REMARK    6  A    between atoms: C8_13  and  C9_14 
REMARK    7  A    between atoms: C9_14  and  S1_15 
REMARK       I    between atoms: N3_17  and  C11_19 
REMARK    8  A    between atoms: C11_19  and  C12_21 
REMARK    9  A    between atoms: C12_21  and  C13_22 
REMARK   10  A    between atoms: C12_21  and  N4_29 
REMARK   11  A    between atoms: C13_22  and  C14_23 
REMARK   12  A    between atoms: C21_31  and  C22_32 
REMARK   13  A    between atoms: C22_32  and  N5_33 
REMARK       I    between atoms: N5_33  and  C23_35 
REMARK   14  A    between atoms: C23_35  and  C24_37 
ROOT
HETATM    1  C12 UNL     1      15.318  22.748  17.196  1.00  0.00     0.201 C 
ENDROOT
BRANCH   1   2
HETATM    2  C11 UNL     1      16.442  23.668  17.378  1.00  0.00     0.247 C 
HETATM    3  N3  UNL     1      17.766  23.447  16.893  1.00  0.00    -0.321 N 
ATOM      4  H3  UNL     1      17.975  22.601  16.361  1.00  0.00     0.169 HD
HETATM    5  O4  UNL     1      16.208  24.755  18.033  1.00  0.00    -0.271 OA
BRANCH   3   6
HETATM    6  C7  UNL     1      18.805  24.401  17.144  1.00  0.00     0.103 C 
BRANCH   6   7
HETATM    7  C6  UNL     1      19.696  24.017  18.263  1.00  0.00     0.270 C 
HETATM    8  N2  UNL     1      20.729  24.685  18.862  1.00  0.00    -0.344 N 
HETATM    9  C5  UNL     1      21.139  26.027  18.559  1.00  0.00     0.146 C 
HETATM   10  C27 UNL     1      21.555  24.033  19.905  1.00  0.00     0.146 C 
HETATM   11  C4  UNL     1      22.500  25.976  17.893  1.00  0.00     0.148 C 
HETATM   12  N1  UNL     1      23.371  25.200  18.753  1.00  0.00    -0.325 N 
HETATM   13  C3  UNL     1      24.653  25.718  19.115  1.00  0.00     0.362 C 
HETATM   14  C28 UNL     1      22.929  23.911  19.229  1.00  0.00     0.148 C 
HETATM   15  O2  UNL     1      25.432  25.091  19.852  1.00  0.00    -0.238 OA
HETATM   16  O3  UNL     1      19.422  22.839  18.734  1.00  0.00    -0.266 OA
BRANCH  13  17
HETATM   17  O1  UNL     1      25.061  26.964  18.637  1.00  0.00    -0.304 OA
BRANCH  17  18
HETATM   18  C2  UNL     1      26.226  27.051  17.844  1.00  0.00     0.176 C 
HETATM   19  C1  UNL     1      25.920  26.506  16.481  1.00  0.00     0.034 C 
ENDBRANCH  17  18
ENDBRANCH  13  17
ENDBRANCH   6   7
BRANCH   6  20
HETATM   20  C8  UNL     1      19.453  25.005  15.972  1.00  0.00     0.042 C 
BRANCH  20  21
HETATM   21  C9  UNL     1      18.959  26.178  15.269  1.00  0.00     0.047 C 
BRANCH  21  22
HETATM   22  S1  UNL     1      19.940  27.579  14.901  1.00  0.00    -0.146 SA
HETATM   23  C10 UNL     1      21.647  27.370  14.500  1.00  0.00     0.095 C 
ENDBRANCH  21  22
ENDBRANCH  20  21
ENDBRANCH   6  20
ENDBRANCH   3   6
ENDBRANCH   1   2
BRANCH   1  24
HETATM   24  C13 UNL     1      15.361  21.772  16.091  1.00  0.00     0.041 C 
BRANCH  24  25
HETATM   25  C14 UNL     1      14.239  21.732  15.113  1.00  0.00    -0.012 C 
HETATM   26  C15 UNL     1      13.369  22.926  15.104  1.00  0.00     0.005 C 
HETATM   27  C16 UNL     1      12.432  22.788  13.872  1.00  0.00     0.000 C 
HETATM   28  C17 UNL     1      11.459  21.690  14.321  1.00  0.00     0.000 C 
HETATM   29  C18 UNL     1      12.175  20.400  14.489  1.00  0.00     0.000 C 
HETATM   30  C19 UNL     1      13.507  20.420  15.102  1.00  0.00     0.005 C 
ENDBRANCH  24  25
ENDBRANCH   1  24
BRANCH   1  31
HETATM   31  N4  UNL     1      15.115  22.047  18.478  1.00  0.00    -0.273 N 
HETATM   32  C20 UNL     1      14.369  20.979  18.720  1.00  0.00     0.140 A 
HETATM   33  C21 UNL     1      14.481  20.650  20.076  1.00  0.00     0.062 A 
HETATM   34  N6  UNL     1      15.304  21.558  20.585  1.00  0.00    -0.287 N 
HETATM   35  N7  UNL     1      15.678  22.388  19.620  1.00  0.00    -0.240 N 
ATOM     36  H6  UNL     1      15.602  21.611  21.559  1.00  0.00     0.188 HD
ATOM     37  H7  UNL     1      16.311  23.178  19.744  1.00  0.00     0.208 HD
BRANCH  33  38
HETATM   38  C22 UNL     1      13.777  19.496  20.706  1.00  0.00     0.182 C 
BRANCH  38  39
HETATM   39  N5  UNL     1      13.379  18.562  19.677  1.00  0.00    -0.355 N 
HETATM   40  C23 UNL     1      12.016  18.157  19.598  1.00  0.00     0.222 C 
HETATM   41  O5  UNL     1      11.166  18.598  20.394  1.00  0.00    -0.273 OA
ATOM     42  H5  UNL     1      14.066  18.197  19.016  1.00  0.00     0.162 HD
BRANCH  40  43
HETATM   43  C24 UNL     1      11.571  17.191  18.555  1.00  0.00     0.078 A 
HETATM   44  C25 UNL     1      11.116  17.892  17.280  1.00  0.00     0.015 A 
HETATM   45  C26 UNL     1      10.157  17.148  18.124  1.00  0.00     0.015 A 
ENDBRANCH  40  43
ENDBRANCH  38  39
ENDBRANCH  33  38
ENDBRANCH   1  31
TORSDOF 14
ENDMDL
MODEL 4
REMARK VINA RESULT: -8.643058732      2.047      3.112
REMARK  14 active torsions:
REMARK  status: ('A' for Active; 'I' for Inactive)
REMARK    1  A    between atoms: C2_2  and  O1_3 
REMARK    2  A    between atoms: O1_3  and  C3_4 
REMARK       I    between atoms: C3_4  and  N1_6 
REMARK       I    between atoms: N2_9  and  C6_10 
REMARK    3  A    between atoms: C6_10  and  C7_12 
REMARK    4  A    between atoms: C7_12  and  C8_13 
REMARK    5  A    between atoms: C7_12  and  N3_17 
REMARK    6  A    between atoms: C8_13  and  C9_14 
REMARK    7  A    between atoms: C9_14  and  S1_15 
REMARK       I    between atoms: N3_17  and  C11_19 
REMARK    8  A    between atoms: C11_19  and  C12_21 
REMARK    9  A    between atoms: C12_21  and  C13_22 
REMARK   10  A    between atoms: C12_21  and  N4_29 
REMARK   11  A    between atoms: C13_22  and  C14_23 
REMARK   12  A    between atoms: C21_31  and  C22_32 
REMARK   13  A    between atoms: C22_32  and  N5_33 
REMARK       I    between atoms: N5_33  and  C23_35 
REMARK   14  A    between atoms: C23_35  and  C24_37 
ROOT
HETATM    1  C12 UNL     1      19.208  24.515  16.788  1.00  0.00     0.201 C 
ENDROOT
BRANCH   1   2
HETATM    2  C11 UNL     1      17.944  23.791  16.937  1.00  0.00     0.247 C 
HETATM    3  N3  UNL     1      17.563  22.646  16.175  1.00  0.00    -0.321 N 
ATOM      4  H3  UNL     1      18.203  22.269  15.476  1.00  0.00     0.169 HD
HETATM    5  O4  UNL     1      17.118  24.234  17.824  1.00  0.00    -0.271 OA
BRANCH   3   6
HETATM    6  C7  UNL     1      16.291  22.021  16.382  1.00  0.00     0.103 C 
BRANCH   6   7
HETATM    7  C6  UNL     1      15.474  21.929  15.151  1.00  0.00     0.270 C 
HETATM    8  N2  UNL     1      14.133  21.726  14.972  1.00  0.00    -0.344 N 
HETATM    9  C5  UNL     1      13.158  21.633  16.021  1.00  0.00     0.146 C 
HETATM   10  C27 UNL     1      13.563  21.557  13.614  1.00  0.00     0.146 C 
HETATM   11  C4  UNL     1      12.641  20.210  16.074  1.00  0.00     0.148 C 
HETATM   12  N1  UNL     1      12.204  19.860  14.737  1.00  0.00    -0.325 N 
HETATM   13  C3  UNL     1      10.910  19.285  14.543  1.00  0.00     0.362 C 
HETATM   14  C28 UNL     1      13.088  20.096  13.620  1.00  0.00     0.148 C 
HETATM   15  O2  UNL     1      10.492  18.972  13.416  1.00  0.00    -0.238 OA
HETATM   16  O3  UNL     1      16.184  22.071  14.073  1.00  0.00    -0.266 OA
BRANCH  13  17
HETATM   17  O1  UNL     1      10.077  19.060  15.640  1.00  0.00    -0.304 OA
BRANCH  17  18
HETATM   18  C2  UNL     1      10.056  17.781  16.239  1.00  0.00     0.176 C 
HETATM   19  C1  UNL     1      10.420  17.925  17.687  1.00  0.00     0.034 C 
ENDBRANCH  17  18
ENDBRANCH  13  17
ENDBRANCH   6   7
BRANCH   6  20
HETATM   20  C8  UNL     1      16.258  20.854  17.275  1.00  0.00     0.042 C 
BRANCH  20  21
HETATM   21  C9  UNL     1      16.131  20.925  18.721  1.00  0.00     0.047 C 
BRANCH  21  22
HETATM   22  S1  UNL     1      14.598  20.929  19.565  1.00  0.00    -0.146 SA
HETATM   23  C10 UNL     1      13.631  19.453  19.628  1.00  0.00     0.095 C 
ENDBRANCH  21  22
ENDBRANCH  20  21
ENDBRANCH   6  20
ENDBRANCH   3   6
ENDBRANCH   1   2
BRANCH   1  24
HETATM   24  C13 UNL     1      19.205  25.836  16.131  1.00  0.00     0.041 C 
BRANCH  24  25
HETATM   25  C14 UNL     1      20.456  26.335  15.496  1.00  0.00    -0.012 C 
HETATM   26  C15 UNL     1      21.449  26.908  16.427  1.00  0.00     0.005 C 
HETATM   27  C16 UNL     1      22.750  27.138  15.609  1.00  0.00     0.000 C 
HETATM   28  C17 UNL     1      22.385  28.355  14.748  1.00  0.00     0.000 C 
HETATM   29  C18 UNL     1      21.305  28.005  13.789  1.00  0.00     0.000 C 
HETATM   30  C19 UNL     1      20.210  27.151  14.259  1.00  0.00     0.005 C 
ENDBRANCH  24  25
ENDBRANCH   1  24
BRANCH   1  31
HETATM   31  N4  UNL     1      19.812  24.622  18.129  1.00  0.00    -0.273 N 
HETATM   32  C20 UNL     1      20.838  23.945  18.623  1.00  0.00     0.140 A 
HETATM   33  C21 UNL     1      21.075  24.379  19.933  1.00  0.00     0.062 A 
HETATM   34  N6  UNL     1      20.159  25.313  20.158  1.00  0.00    -0.287 N 
HETATM   35  N7  UNL     1      19.410  25.450  19.072  1.00  0.00    -0.240 N 
ATOM     36  H6  UNL     1      20.049  25.839  21.025  1.00  0.00     0.188 HD
ATOM     37  H7  UNL     1      18.633  26.104  18.980  1.00  0.00     0.208 HD
BRANCH  33  38
HETATM   38  C22 UNL     1      22.161  23.835  20.798  1.00  0.00     0.182 C 
BRANCH  38  39
HETATM   39  N5  UNL     1      23.335  23.590  19.991  1.00  0.00    -0.355 N 
HETATM   40  C23 UNL     1      24.433  24.494  20.071  1.00  0.00     0.222 C 
HETATM   41  O5  UNL     1      24.399  25.484  20.826  1.00  0.00    -0.273 OA
ATOM     42  H5  UNL     1      23.377  22.780  19.372  1.00  0.00     0.162 HD
BRANCH  40  43
HETATM   43  C24 UNL     1      25.656  24.276  19.249  1.00  0.00     0.078 A 
HETATM   44  C25 UNL     1      25.436  24.643  17.786  1.00  0.00     0.015 A 
HETATM   45  C26 UNL     1      25.678  23.242  18.192  1.00  0.00     0.015 A 
ENDBRANCH  40  43
ENDBRANCH  38  39
ENDBRANCH  33  38
ENDBRANCH   1  31
TORSDOF 14
ENDMDL
MODEL 5
REMARK VINA RESULT: -8.604915734      3.350      8.737
REMARK  14 active torsions:
REMARK  status: ('A' for Active; 'I' for Inactive)
REMARK    1  A    between atoms: C2_2  and  O1_3 
REMARK    2  A    between atoms: O1_3  and  C3_4 
REMARK       I    between atoms: C3_4  and  N1_6 
REMARK       I    between atoms: N2_9  and  C6_10 
REMARK    3  A    between atoms: C6_10  and  C7_12 
REMARK    4  A    between atoms: C7_12  and  C8_13 
REMARK    5  A    between atoms: C7_12  and  N3_17 
REMARK    6  A    between atoms: C8_13  and  C9_14 
REMARK    7  A    between atoms: C9_14  and  S1_15 
REMARK       I    between atoms: N3_17  and  C11_19 
REMARK    8  A    between atoms: C11_19  and  C12_21 
REMARK    9  A    between atoms: C12_21  and  C13_22 
REMARK   10  A    between atoms: C12_21  and  N4_29 
REMARK   11  A    between atoms: C13_22  and  C14_23 
REMARK   12  A    between atoms: C21_31  and  C22_32 
REMARK   13  A    between atoms: C22_32  and  N5_33 
REMARK       I    between atoms: N5_33  and  C23_35 
REMARK   14  A    between atoms: C23_35  and  C24_37 
ROOT
HETATM    1  C12 UNL     1      17.392  23.539  15.757  1.00  0.00     0.201 C 
ENDROOT
BRANCH   1   2
HETATM    2  C11 UNL     1      17.695  23.008  17.088  1.00  0.00     0.247 C 
HETATM    3  N3  UNL     1      17.496  23.711  18.314  1.00  0.00    -0.321 N 
ATOM      4  H3  UNL     1      17.100  24.651  18.298  1.00  0.00     0.169 HD
HETATM    5  O4  UNL     1      18.184  21.814  17.143  1.00  0.00    -0.271 OA
BRANCH   3   6
HETATM    6  C7  UNL     1      17.847  23.111  19.566  1.00  0.00     0.103 C 
BRANCH   6   7
HETATM    7  C6  UNL     1      18.721  23.964  20.402  1.00  0.00     0.270 C 
HETATM    8  N2  UNL     1      19.841  24.686  20.091  1.00  0.00    -0.344 N 
HETATM    9  C5  UNL     1      20.393  24.839  18.775  1.00  0.00     0.146 C 
HETATM   10  C27 UNL     1      20.616  25.381  21.145  1.00  0.00     0.146 C 
HETATM   11  C4  UNL     1      21.719  24.107  18.720  1.00  0.00     0.148 C 
HETATM   12  N1  UNL     1      22.520  24.585  19.830  1.00  0.00    -0.325 N 
HETATM   13  C3  UNL     1      23.863  25.016  19.599  1.00  0.00     0.362 C 
HETATM   14  C28 UNL     1      21.948  24.614  21.155  1.00  0.00     0.148 C 
HETATM   15  O2  UNL     1      24.586  25.436  20.518  1.00  0.00    -0.238 OA
HETATM   16  O3  UNL     1      18.328  24.017  21.638  1.00  0.00    -0.266 OA
BRANCH  13  17
HETATM   17  O1  UNL     1      24.397  24.972  18.310  1.00  0.00    -0.304 OA
BRANCH  17  18
HETATM   18  C2  UNL     1      25.534  24.174  18.062  1.00  0.00     0.176 C 
HETATM   19  C1  UNL     1      26.532  24.988  17.293  1.00  0.00     0.034 C 
ENDBRANCH  17  18
ENDBRANCH  13  17
ENDBRANCH   6   7
BRANCH   6  20
HETATM   20  C8  UNL     1      16.791  22.371  20.270  1.00  0.00     0.042 C 
BRANCH  20  21
HETATM   21  C9  UNL     1      15.914  21.391  19.649  1.00  0.00     0.047 C 
BRANCH  21  22
HETATM   22  S1  UNL     1      14.401  21.795  18.869  1.00  0.00    -0.146 SA
HETATM   23  C10 UNL     1      13.407  20.512  18.173  1.00  0.00     0.095 C 
ENDBRANCH  21  22
ENDBRANCH  20  21
ENDBRANCH   6  20
ENDBRANCH   3   6
ENDBRANCH   1   2
BRANCH   1  24
HETATM   24  C13 UNL     1      16.056  24.107  15.499  1.00  0.00     0.041 C 
BRANCH  24  25
HETATM   25  C14 UNL     1      15.057  23.301  14.745  1.00  0.00    -0.012 C 
HETATM   26  C15 UNL     1      13.724  23.203  15.375  1.00  0.00     0.005 C 
HETATM   27  C16 UNL     1      12.783  22.539  14.332  1.00  0.00     0.000 C 
HETATM   28  C17 UNL     1      13.250  21.078  14.350  1.00  0.00     0.000 C 
HETATM   29  C18 UNL     1      14.640  20.972  13.836  1.00  0.00     0.000 C 
HETATM   30  C19 UNL     1      15.607  22.001  14.232  1.00  0.00     0.005 C 
ENDBRANCH  24  25
ENDBRANCH   1  24
BRANCH   1  31
HETATM   31  N4  UNL     1      18.432  24.535  15.437  1.00  0.00    -0.273 N 
HETATM   32  C20 UNL     1      18.276  25.806  15.100  1.00  0.00     0.140 A 
HETATM   33  C21 UNL     1      19.537  26.377  14.896  1.00  0.00     0.062 A 
HETATM   34  N6  UNL     1      20.401  25.395  15.126  1.00  0.00    -0.287 N 
HETATM   35  N7  UNL     1      19.729  24.299  15.449  1.00  0.00    -0.240 N 
ATOM     36  H6  UNL     1      21.416  25.472  15.063  1.00  0.00     0.188 HD
ATOM     37  H7  UNL     1      20.156  23.400  15.676  1.00  0.00     0.208 HD
BRANCH  33  38
HETATM   38  C22 UNL     1      19.745  27.801  14.506  1.00  0.00     0.182 C 
BRANCH  38  39
HETATM   39  N5  UNL     1      21.163  28.074  14.434  1.00  0.00    -0.355 N 
HETATM   40  C23 UNL     1      21.895  28.256  15.642  1.00  0.00     0.222 C 
HETATM   41  O5  UNL     1      21.337  28.179  16.752  1.00  0.00    -0.273 OA
ATOM     42  H5  UNL     1      21.632  28.135  13.531  1.00  0.00     0.162 HD
BRANCH  40  43
HETATM   43  C24 UNL     1      23.356  28.546  15.607  1.00  0.00     0.078 A 
HETATM   44  C25 UNL     1      24.193  27.272  15.616  1.00  0.00     0.015 A 
HETATM   45  C26 UNL     1      24.218  28.209  16.760  1.00  0.00     0.015 A 
ENDBRANCH  40  43
ENDBRANCH  38  39
ENDBRANCH  33  38
ENDBRANCH   1  31
TORSDOF 14
ENDMDL
