MODEL 1
REMARK VINA RESULT: -8.139234044      0.000      0.000
REMARK  13 active torsions:
REMARK  status: ('A' for Active; 'I' for Inactive)
REMARK    1  A    between atoms: C1_2  and  C2_4 
REMARK    2  A    between atoms: C2_4  and  N1_5 
REMARK       I    between atoms: N1_5  and  C3_6 
REMARK    3  A    between atoms: N1_5  and  C14_19 
REMARK    4  A    between atoms: C3_6  and  C4_8 
REMARK    5  A    between atoms: C4_8  and  C5_9 
REMARK    6  A    between atoms: C5_9  and  C6_10 
REMARK    7  A    between atoms: C6_10  and  C7_11 
REMARK    8  A    between atoms: C7_11  and  C8_12 
REMARK    9  A    between atoms: C8_12  and  N2_13 
REMARK   10  A    between atoms: C16_21  and  C17_22 
REMARK   11  A    between atoms: C19_26  and  C20_27 
REMARK   12  A    between atoms: C23_33  and  C24_34 
REMARK   13  A    between atoms: C24_34  and  N4_35 
ROOT
HETATM    1  C14 UNL     1      23.798  24.176  19.417  1.00  0.00     0.051 A 
HETATM    2  C15 UNL     1      24.328  22.841  19.486  1.00  0.00     0.046 A 
HETATM    3  C16 UNL     1      25.341  22.441  18.692  1.00  0.00     0.018 A 
HETATM    4  C21 UNL     1      25.863  23.354  17.801  1.00  0.00     0.016 A 
HETATM    5  C22 UNL     1      25.365  24.642  17.723  1.00  0.00     0.012 A 
HETATM    6  C23 UNL     1      24.310  25.077  18.542  1.00  0.00    -0.003 A 
ENDROOT
BRANCH   1   7
HETATM    7  N1  UNL     1      22.694  24.416  20.268  1.00  0.00    -0.286 N 
HETATM    8  C3  UNL     1      21.411  24.087  19.682  1.00  0.00     0.228 C 
HETATM    9  O3  UNL     1      21.303  23.741  18.469  1.00  0.00    -0.273 OA
BRANCH   7  10
HETATM   10  C2  UNL     1      22.758  24.771  21.620  1.00  0.00     0.184 C 
BRANCH  10  11
HETATM   11  C1  UNL     1      24.037  24.882  22.311  1.00  0.00     0.215 C 
HETATM   12  O1  UNL     1      24.810  25.867  22.018  1.00  0.00    -0.643 OA
HETATM   13  O2  UNL     1      24.499  23.999  23.268  1.00  0.00    -0.643 OA
ENDBRANCH  10  11
ENDBRANCH   7  10
BRANCH   8  14
HETATM   14  C4  UNL     1      20.148  24.126  20.452  1.00  0.00     0.103 C 
BRANCH  14  15
HETATM   15  C5  UNL     1      18.944  24.193  19.523  1.00  0.00     0.009 C 
BRANCH  15  16
HETATM   16  C6  UNL     1      17.777  23.408  20.058  1.00  0.00     0.002 C 
BRANCH  16  17
HETATM   17  C7  UNL     1      17.823  22.045  19.359  1.00  0.00     0.020 C 
BRANCH  17  18
HETATM   18  C8  UNL     1      16.496  21.911  18.603  1.00  0.00     0.127 C 
BRANCH  18  19
HETATM   19  N2  UNL     1      16.678  21.671  17.224  1.00  0.00    -0.374 N 
HETATM   20  C9  UNL     1      15.569  21.705  16.365  1.00  0.00     0.063 C 
HETATM   21  C10 UNL     1      16.004  22.273  15.026  1.00  0.00     0.045 C 
HETATM   22  C11 UNL     1      16.874  23.509  15.214  1.00  0.00     0.010 C 
HETATM   23  C12 UNL     1      18.100  23.178  16.033  1.00  0.00     0.045 C 
HETATM   24  C13 UNL     1      17.968  21.798  16.680  1.00  0.00     0.063 C 
ENDBRANCH  18  19
ENDBRANCH  17  18
ENDBRANCH  16  17
ENDBRANCH  15  16
ENDBRANCH  14  15
ENDBRANCH   8  14
ENDBRANCH   1   7
BRANCH   6  25
HETATM   25  C24 UNL     1      23.941  26.473  18.440  1.00  0.00     0.313 C 
BRANCH  25  26
HETATM   26  N4  UNL     1      22.809  26.686  17.555  1.00  0.00     0.094 N 
HETATM   27  C25 UNL     1      21.645  27.204  18.248  1.00  0.00     0.287 C 
HETATM   28  C26 UNL     1      20.420  27.030  17.399  1.00  0.00     0.170 C 
HETATM   29  S1  UNL     1      20.729  27.141  15.689  1.00  0.00     0.147 S 
HETATM   30  O7  UNL     1      20.155  28.441  15.179  1.00  0.00    -0.228 OA
HETATM   31  O8  UNL     1      20.048  25.994  14.955  1.00  0.00    -0.228 OA
HETATM   32  C27 UNL     1      22.447  27.153  15.246  1.00  0.00     0.170 C 
HETATM   33  C28 UNL     1      23.197  27.605  16.479  1.00  0.00     0.287 C 
ENDBRANCH  25  26
ENDBRANCH   6  25
BRANCH   3  34
HETATM   34  C17 UNL     1      25.866  21.079  18.753  1.00  0.00     0.158 A 
HETATM   35  N3  UNL     1      26.971  20.673  19.424  1.00  0.00    -0.343 N 
HETATM   36  C18 UNL     1      27.157  19.359  19.260  1.00  0.00     0.134 A 
ATOM     37  H3  UNL     1      27.575  21.283  19.975  1.00  0.00     0.167 HD
HETATM   38  C19 UNL     1      26.122  18.944  18.456  1.00  0.00     0.169 A 
HETATM   39  O6  UNL     1      25.387  20.007  18.186  1.00  0.00    -0.285 OA
BRANCH  38  40
HETATM   40  C20 UNL     1      25.884  17.581  17.990  1.00  0.00     0.235 C 
HETATM   41  O4  UNL     1      26.770  16.952  17.367  1.00  0.00    -0.642 OA
HETATM   42  O5  UNL     1      24.677  16.958  18.228  1.00  0.00    -0.642 OA
ENDBRANCH  38  40
ENDBRANCH   3  34
TORSDOF 13
ENDMDL
MODEL 2
REMARK VINA RESULT: -8.110744422      6.001     10.263
REMARK  13 active torsions:
REMARK  status: ('A' for Active; 'I' for Inactive)
REMARK    1  A    between atoms: C1_2  and  C2_4 
REMARK    2  A    between atoms: C2_4  and  N1_5 
REMARK       I    between atoms: N1_5  and  C3_6 
REMARK    3  A    between atoms: N1_5  and  C14_19 
REMARK    4  A    between atoms: C3_6  and  C4_8 
REMARK    5  A    between atoms: C4_8  and  C5_9 
REMARK    6  A    between atoms: C5_9  and  C6_10 
REMARK    7  A    between atoms: C6_10  and  C7_11 
REMARK    8  A    between atoms: C7_11  and  C8_12 
REMARK    9  A    between atoms: C8_12  and  N2_13 
REMARK   10  A    between atoms: C16_21  and  C17_22 
REMARK   11  A    between atoms: C19_26  and  C20_27 
REMARK   12  A    between atoms: C23_33  and  C24_34 
REMARK   13  A    between atoms: C24_34  and  N4_35 
ROOT
HETATM    1  C14 UNL     1      14.435  21.413  16.874  1.00  0.00     0.051 A 
HETATM    2  C15 UNL     1      13.942  20.418  15.960  1.00  0.00     0.046 A 
HETATM    3  C16 UNL     1      13.217  20.754  14.875  1.00  0.00     0.018 A 
HETATM    4  C21 UNL     1      12.957  22.090  14.659  1.00  0.00     0.016 A 
HETATM    5  C22 UNL     1      13.425  23.058  15.528  1.00  0.00     0.012 A 
HETATM    6  C23 UNL     1      14.182  22.728  16.664  1.00  0.00    -0.003 A 
ENDROOT
BRANCH   1   7
HETATM    7  N1  UNL     1      15.120  20.893  17.997  1.00  0.00    -0.286 N 
HETATM    8  C3  UNL     1      14.370  20.964  19.234  1.00  0.00     0.228 C 
HETATM    9  O3  UNL     1      13.256  21.561  19.303  1.00  0.00    -0.273 OA
BRANCH   7  10
HETATM   10  C2  UNL     1      16.336  20.201  17.973  1.00  0.00     0.184 C 
BRANCH  10  11
HETATM   11  C1  UNL     1      17.571  20.861  17.566  1.00  0.00     0.215 C 
HETATM   12  O1  UNL     1      18.368  21.289  18.480  1.00  0.00    -0.643 OA
HETATM   13  O2  UNL     1      17.963  21.072  16.258  1.00  0.00    -0.643 OA
ENDBRANCH  10  11
ENDBRANCH   7  10
BRANCH   8  14
HETATM   14  C4  UNL     1      14.844  20.346  20.492  1.00  0.00     0.103 C 
BRANCH  14  15
HETATM   15  C5  UNL     1      13.769  19.459  21.104  1.00  0.00     0.009 C 
BRANCH  15  16
HETATM   16  C6  UNL     1      13.702  18.113  20.434  1.00  0.00     0.002 C 
BRANCH  16  17
HETATM   17  C7  UNL     1      12.338  17.521  20.803  1.00  0.00     0.020 C 
BRANCH  17  18
HETATM   18  C8  UNL     1      11.333  18.118  19.810  1.00  0.00     0.127 C 
BRANCH  18  19
HETATM   19  N2  UNL     1      11.594  17.735  18.477  1.00  0.00    -0.374 N 
HETATM   20  C9  UNL     1      11.488  16.383  18.115  1.00  0.00     0.063 C 
HETATM   21  C10 UNL     1      10.961  16.297  16.694  1.00  0.00     0.045 C 
HETATM   22  C11 UNL     1       9.788  17.247  16.488  1.00  0.00     0.010 C 
HETATM   23  C12 UNL     1      10.199  18.672  16.778  1.00  0.00     0.045 C 
HETATM   24  C13 UNL     1      11.562  18.716  17.471  1.00  0.00     0.063 C 
ENDBRANCH  18  19
ENDBRANCH  17  18
ENDBRANCH  16  17
ENDBRANCH  15  16
ENDBRANCH  14  15
ENDBRANCH   8  14
ENDBRANCH   1   7
BRANCH   6  25
HETATM   25  C24 UNL     1      14.700  23.833  17.443  1.00  0.00     0.313 C 
BRANCH  25  26
HETATM   26  N4  UNL     1      16.092  24.120  17.145  1.00  0.00     0.094 N 
HETATM   27  C25 UNL     1      16.282  24.638  15.804  1.00  0.00     0.287 C 
HETATM   28  C26 UNL     1      17.728  24.539  15.414  1.00  0.00     0.170 C 
HETATM   29  S1  UNL     1      18.830  24.722  16.749  1.00  0.00     0.147 S 
HETATM   30  O7  UNL     1      19.518  26.061  16.627  1.00  0.00    -0.228 OA
HETATM   31  O8  UNL     1      19.892  23.631  16.711  1.00  0.00    -0.228 OA
HETATM   32  C27 UNL     1      18.063  24.706  18.350  1.00  0.00     0.170 C 
HETATM   33  C28 UNL     1      16.615  25.077  18.126  1.00  0.00     0.287 C 
ENDBRANCH  25  26
ENDBRANCH   6  25
BRANCH   3  34
HETATM   34  C17 UNL     1      12.703  19.739  13.957  1.00  0.00     0.158 A 
HETATM   35  N3  UNL     1      13.441  18.900  13.192  1.00  0.00    -0.343 N 
HETATM   36  C18 UNL     1      12.643  18.104  12.472  1.00  0.00     0.134 A 
ATOM     37  H3  UNL     1      14.461  18.878  13.168  1.00  0.00     0.167 HD
HETATM   38  C19 UNL     1      11.363  18.472  12.813  1.00  0.00     0.169 A 
HETATM   39  O6  UNL     1      11.459  19.447  13.698  1.00  0.00    -0.285 OA
BRANCH  38  40
HETATM   40  C20 UNL     1      10.130  17.890  12.291  1.00  0.00     0.235 C 
HETATM   41  O4  UNL     1       9.991  17.675  11.064  1.00  0.00    -0.642 OA
HETATM   42  O5  UNL     1       9.092  17.564  13.138  1.00  0.00    -0.642 OA
ENDBRANCH  38  40
ENDBRANCH   3  34
TORSDOF 13
ENDMDL
MODEL 3
REMARK VINA RESULT: -8.103601602      3.050      7.574
REMARK  13 active torsions:
REMARK  status: ('A' for Active; 'I' for Inactive)
REMARK    1  A    between atoms: C1_2  and  C2_4 
REMARK    2  A    between atoms: C2_4  and  N1_5 
REMARK       I    between atoms: N1_5  and  C3_6 
REMARK    3  A    between atoms: N1_5  and  C14_19 
REMARK    4  A    between atoms: C3_6  and  C4_8 
REMARK    5  A    between atoms: C4_8  and  C5_9 
REMARK    6  A    between atoms: C5_9  and  C6_10 
REMARK    7  A    between atoms: C6_10  and  C7_11 
REMARK    8  A    between atoms: C7_11  and  C8_12 
REMARK    9  A    between atoms: C8_12  and  N2_13 
REMARK   10  A    between atoms: C16_21  and  C17_22 
REMARK   11  A    between atoms: C19_26  and  C20_27 
REMARK   12  A    between atoms: C23_33  and  C24_34 
REMARK   13  A    between atoms: C24_34  and  N4_35 
ROOT
HETATM    1  C14 UNL     1      18.952  23.994  17.995  1.00  0.00     0.051 A 
HETATM    2  C15 UNL     1      20.376  23.867  18.157  1.00  0.00     0.046 A 
HETATM    3  C16 UNL     1      20.934  23.673  19.368  1.00  0.00     0.018 A 
HETATM    4  C21 UNL     1      20.098  23.598  20.461  1.00  0.00     0.016 A 
HETATM    5  C22 UNL     1      18.728  23.717  20.322  1.00  0.00     0.012 A 
HETATM    6  C23 UNL     1      18.127  23.920  19.069  1.00  0.00    -0.003 A 
ENDROOT
BRANCH   1   7
HETATM    7  N1  UNL     1      18.532  24.261  16.671  1.00  0.00    -0.286 N 
HETATM    8  C3  UNL     1      18.682  25.644  16.269  1.00  0.00     0.228 C 
HETATM    9  O3  UNL     1      19.038  26.541  17.089  1.00  0.00    -0.273 OA
BRANCH   7  10
HETATM   10  C2  UNL     1      18.156  23.308  15.718  1.00  0.00     0.184 C 
BRANCH  10  11
HETATM   11  C1  UNL     1      16.756  23.113  15.357  1.00  0.00     0.215 C 
HETATM   12  O1  UNL     1      16.438  22.069  14.678  1.00  0.00    -0.643 OA
HETATM   13  O2  UNL     1      15.726  23.974  15.684  1.00  0.00    -0.643 OA
ENDBRANCH  10  11
ENDBRANCH   7  10
BRANCH   8  14
HETATM   14  C4  UNL     1      18.438  26.104  14.884  1.00  0.00     0.103 C 
BRANCH  14  15
HETATM   15  C5  UNL     1      19.456  27.156  14.470  1.00  0.00     0.009 C 
BRANCH  15  16
HETATM   16  C6  UNL     1      20.809  26.555  14.201  1.00  0.00     0.002 C 
BRANCH  16  17
HETATM   17  C7  UNL     1      21.803  27.721  14.208  1.00  0.00     0.020 C 
BRANCH  17  18
HETATM   18  C8  UNL     1      21.554  28.483  15.515  1.00  0.00     0.127 C 
BRANCH  18  19
HETATM   19  N2  UNL     1      22.560  28.250  16.479  1.00  0.00    -0.374 N 
HETATM   20  C9  UNL     1      22.354  27.279  17.470  1.00  0.00     0.063 C 
HETATM   21  C10 UNL     1      23.680  26.610  17.783  1.00  0.00     0.045 C 
HETATM   22  C11 UNL     1      24.431  26.262  16.504  1.00  0.00     0.010 C 
HETATM   23  C12 UNL     1      24.685  27.504  15.681  1.00  0.00     0.045 C 
HETATM   24  C13 UNL     1      23.869  28.685  16.209  1.00  0.00     0.063 C 
ENDBRANCH  18  19
ENDBRANCH  17  18
ENDBRANCH  16  17
ENDBRANCH  15  16
ENDBRANCH  14  15
ENDBRANCH   8  14
ENDBRANCH   1   7
BRANCH   6  25
HETATM   25  C24 UNL     1      16.680  23.930  19.035  1.00  0.00     0.313 C 
BRANCH  25  26
HETATM   26  N4  UNL     1      16.125  22.667  18.578  1.00  0.00     0.094 N 
HETATM   27  C25 UNL     1      17.066  21.570  18.686  1.00  0.00     0.287 C 
HETATM   28  C26 UNL     1      16.603  20.411  17.853  1.00  0.00     0.170 C 
HETATM   29  S1  UNL     1      14.871  20.269  17.749  1.00  0.00     0.147 S 
HETATM   30  O7  UNL     1      14.434  19.074  18.562  1.00  0.00    -0.228 OA
HETATM   31  O8  UNL     1      14.446  20.047  16.303  1.00  0.00    -0.228 OA
HETATM   32  C27 UNL     1      13.974  21.658  18.393  1.00  0.00     0.170 C 
HETATM   33  C28 UNL     1      14.913  22.360  19.347  1.00  0.00     0.287 C 
ENDBRANCH  25  26
ENDBRANCH   6  25
BRANCH   3  34
HETATM   34  C17 UNL     1      22.382  23.561  19.531  1.00  0.00     0.158 A 
HETATM   35  N3  UNL     1      23.146  24.242  20.419  1.00  0.00    -0.343 N 
HETATM   36  C18 UNL     1      24.431  23.893  20.290  1.00  0.00     0.134 A 
ATOM     37  H3  UNL     1      22.792  24.923  21.091  1.00  0.00     0.167 HD
HETATM   38  C19 UNL     1      24.453  22.960  19.281  1.00  0.00     0.169 A 
HETATM   39  O6  UNL     1      23.209  22.802  18.867  1.00  0.00    -0.285 OA
BRANCH  38  40
HETATM   40  C20 UNL     1      25.634  22.274  18.766  1.00  0.00     0.235 C 
HETATM   41  O4  UNL     1      26.783  22.726  18.979  1.00  0.00    -0.642 OA
HETATM   42  O5  UNL     1      25.509  21.112  18.034  1.00  0.00    -0.642 OA
ENDBRANCH  38  40
ENDBRANCH   3  34
TORSDOF 13
ENDMDL
MODEL 4
REMARK VINA RESULT: -8.045301217      2.965      7.580
REMARK  13 active torsions:
REMARK  status: ('A' for Active; 'I' for Inactive)
REMARK    1  A    between atoms: C1_2  and  C2_4 
REMARK    2  A    between atoms: C2_4  and  N1_5 
REMARK       I    between atoms: N1_5  and  C3_6 
REMARK    3  A    between atoms: N1_5  and  C14_19 
REMARK    4  A    between atoms: C3_6  and  C4_8 
REMARK    5  A    between atoms: C4_8  and  C5_9 
REMARK    6  A    between atoms: C5_9  and  C6_10 
REMARK    7  A    between atoms: C6_10  and  C7_11 
REMARK    8  A    between atoms: C7_11  and  C8_12 
REMARK    9  A    between atoms: C8_12  and  N2_13 
REMARK   10  A    between atoms: C16_21  and  C17_22 
REMARK   11  A    between atoms: C19_26  and  C20_27 
REMARK   12  A    between atoms: C23_33  and  C24_34 
REMARK   13  A    between atoms: C24_34  and  N4_35 
ROOT
HETATM    1  C14 UNL     1      19.412  24.510  17.880  1.00  0.00     0.051 A 
HETATM    2  C15 UNL     1      20.803  24.225  18.113  1.00  0.00     0.046 A 
HETATM    3  C16 UNL     1      21.264  23.917  19.342  1.00  0.00     0.018 A 
HETATM    4  C21 UNL     1      20.360  23.881  20.382  1.00  0.00     0.016 A 
HETATM    5  C22 UNL     1      19.020  24.151  20.173  1.00  0.00     0.012 A 
HETATM    6  C23 UNL     1      18.520  24.474  18.900  1.00  0.00    -0.003 A 
ENDROOT
BRANCH   1   7
HETATM    7  N1  UNL     1      19.102  24.881  16.551  1.00  0.00    -0.286 N 
HETATM    8  C3  UNL     1      19.453  26.246  16.219  1.00  0.00     0.228 C 
HETATM    9  O3  UNL     1      19.878  27.055  17.094  1.00  0.00    -0.273 OA
BRANCH   7  10
HETATM   10  C2  UNL     1      18.658  24.023  15.538  1.00  0.00     0.184 C 
BRANCH  10  11
HETATM   11  C1  UNL     1      17.236  23.857  15.259  1.00  0.00     0.215 C 
HETATM   12  O1  UNL     1      16.459  24.871  15.408  1.00  0.00    -0.643 OA
HETATM   13  O2  UNL     1      16.642  22.680  14.846  1.00  0.00    -0.643 OA
ENDBRANCH  10  11
ENDBRANCH   7  10
BRANCH   8  14
HETATM   14  C4  UNL     1      19.346  26.787  14.846  1.00  0.00     0.103 C 
BRANCH  14  15
HETATM   15  C5  UNL     1      20.133  28.082  14.706  1.00  0.00     0.009 C 
BRANCH  15  16
HETATM   16  C6  UNL     1      21.462  27.864  14.037  1.00  0.00     0.002 C 
BRANCH  16  17
HETATM   17  C7  UNL     1      22.527  28.147  15.101  1.00  0.00     0.020 C 
BRANCH  17  18
HETATM   18  C8  UNL     1      23.071  26.779  15.531  1.00  0.00     0.127 C 
BRANCH  18  19
HETATM   19  N2  UNL     1      24.208  26.884  16.363  1.00  0.00    -0.374 N 
HETATM   20  C9  UNL     1      24.581  25.792  17.161  1.00  0.00     0.063 C 
HETATM   21  C10 UNL     1      26.096  25.748  17.251  1.00  0.00     0.045 C 
HETATM   22  C11 UNL     1      26.730  25.958  15.882  1.00  0.00     0.010 C 
HETATM   23  C12 UNL     1      26.308  27.285  15.297  1.00  0.00     0.045 C 
HETATM   24  C13 UNL     1      25.152  27.890  16.096  1.00  0.00     0.063 C 
ENDBRANCH  18  19
ENDBRANCH  17  18
ENDBRANCH  16  17
ENDBRANCH  15  16
ENDBRANCH  14  15
ENDBRANCH   8  14
ENDBRANCH   1   7
BRANCH   6  25
HETATM   25  C24 UNL     1      17.086  24.639  18.788  1.00  0.00     0.313 C 
BRANCH  25  26
HETATM   26  N4  UNL     1      16.372  23.377  18.885  1.00  0.00     0.094 N 
HETATM   27  C25 UNL     1      15.126  23.381  18.143  1.00  0.00     0.287 C 
HETATM   28  C26 UNL     1      14.259  22.240  18.590  1.00  0.00     0.170 C 
HETATM   29  S1  UNL     1      15.152  20.831  19.087  1.00  0.00     0.147 S 
HETATM   30  O7  UNL     1      14.978  19.756  18.041  1.00  0.00    -0.228 OA
HETATM   31  O8  UNL     1      14.614  20.305  20.411  1.00  0.00    -0.228 OA
HETATM   32  C27 UNL     1      16.901  21.083  19.250  1.00  0.00     0.170 C 
HETATM   33  C28 UNL     1      17.233  22.291  18.405  1.00  0.00     0.287 C 
ENDBRANCH  25  26
ENDBRANCH   6  25
BRANCH   3  34
HETATM   34  C17 UNL     1      22.680  23.645  19.578  1.00  0.00     0.158 A 
HETATM   35  N3  UNL     1      23.457  24.208  20.535  1.00  0.00    -0.343 N 
HETATM   36  C18 UNL     1      24.704  23.729  20.461  1.00  0.00     0.134 A 
ATOM     37  H3  UNL     1      23.138  24.899  21.214  1.00  0.00     0.167 HD
HETATM   38  C19 UNL     1      24.687  22.835  19.417  1.00  0.00     0.169 A 
HETATM   39  O6  UNL     1      23.460  22.826  18.930  1.00  0.00    -0.285 OA
BRANCH  38  40
HETATM   40  C20 UNL     1      25.818  22.045  18.939  1.00  0.00     0.235 C 
HETATM   41  O4  UNL     1      25.639  21.062  18.182  1.00  0.00    -0.642 OA
HETATM   42  O5  UNL     1      27.107  22.365  19.309  1.00  0.00    -0.642 OA
ENDBRANCH  38  40
ENDBRANCH   3  34
TORSDOF 13
ENDMDL
MODEL 5
REMARK VINA RESULT: -7.973932355      2.917      7.482
REMARK  13 active torsions:
REMARK  status: ('A' for Active; 'I' for Inactive)
REMARK    1  A    between atoms: C1_2  and  C2_4 
REMARK    2  A    between atoms: C2_4  and  N1_5 
REMARK       I    between atoms: N1_5  and  C3_6 
REMARK    3  A    between atoms: N1_5  and  C14_19 
REMARK    4  A    between atoms: C3_6  and  C4_8 
REMARK    5  A    between atoms: C4_8  and  C5_9 
REMARK    6  A    between atoms: C5_9  and  C6_10 
REMARK    7  A    between atoms: C6_10  and  C7_11 
REMARK    8  A    between atoms: C7_11  and  C8_12 
REMARK    9  A    between atoms: C8_12  and  N2_13 
REMARK   10  A    between atoms: C16_21  and  C17_22 
REMARK   11  A    between atoms: C19_26  and  C20_27 
REMARK   12  A    between atoms: C23_33  and  C24_34 
REMARK   13  A    between atoms: C24_34  and  N4_35 
ROOT
HETATM    1  C14 UNL     1      19.504  24.539  17.886  1.00  0.00     0.051 A 
HETATM    2  C15 UNL     1      20.895  24.228  18.083  1.00  0.00     0.046 A 
HETATM    3  C16 UNL     1      21.379  23.897  19.296  1.00  0.00     0.018 A 
HETATM    4  C21 UNL     1      20.499  23.863  20.357  1.00  0.00     0.016 A 
HETATM    5  C22 UNL     1      19.160  24.158  20.183  1.00  0.00     0.012 A 
HETATM    6  C23 UNL     1      18.635  24.505  18.927  1.00  0.00    -0.003 A 
ENDROOT
BRANCH   1   7
HETATM    7  N1  UNL     1      19.169  24.932  16.569  1.00  0.00    -0.286 N 
HETATM    8  C3  UNL     1      19.509  26.304  16.255  1.00  0.00     0.228 C 
HETATM    9  O3  UNL     1      19.945  27.100  17.138  1.00  0.00    -0.273 OA
BRANCH   7  10
HETATM   10  C2  UNL     1      18.711  24.090  15.550  1.00  0.00     0.184 C 
BRANCH  10  11
HETATM   11  C1  UNL     1      17.288  23.971  15.252  1.00  0.00     0.215 C 
HETATM   12  O1  UNL     1      16.529  24.986  15.464  1.00  0.00    -0.643 OA
HETATM   13  O2  UNL     1      16.676  22.836  14.756  1.00  0.00    -0.643 OA
ENDBRANCH  10  11
ENDBRANCH   7  10
BRANCH   8  14
HETATM   14  C4  UNL     1      19.375  26.868  14.894  1.00  0.00     0.103 C 
BRANCH  14  15
HETATM   15  C5  UNL     1      20.226  28.121  14.736  1.00  0.00     0.009 C 
BRANCH  15  16
HETATM   16  C6  UNL     1      21.552  27.822  14.092  1.00  0.00     0.002 C 
BRANCH  16  17
HETATM   17  C7  UNL     1      22.618  28.120  15.152  1.00  0.00     0.020 C 
BRANCH  17  18
HETATM   18  C8  UNL     1      23.152  26.758  15.612  1.00  0.00     0.127 C 
BRANCH  18  19
HETATM   19  N2  UNL     1      24.324  26.869  16.392  1.00  0.00    -0.374 N 
HETATM   20  C9  UNL     1      24.773  25.759  17.123  1.00  0.00     0.063 C 
HETATM   21  C10 UNL     1      26.291  25.765  17.138  1.00  0.00     0.045 C 
HETATM   22  C11 UNL     1      26.849  26.054  15.750  1.00  0.00     0.010 C 
HETATM   23  C12 UNL     1      26.353  27.389  15.244  1.00  0.00     0.045 C 
HETATM   24  C13 UNL     1      25.219  27.919  16.123  1.00  0.00     0.063 C 
ENDBRANCH  18  19
ENDBRANCH  17  18
ENDBRANCH  16  17
ENDBRANCH  15  16
ENDBRANCH  14  15
ENDBRANCH   8  14
ENDBRANCH   1   7
BRANCH   6  25
HETATM   25  C24 UNL     1      17.203  24.695  18.850  1.00  0.00     0.313 C 
BRANCH  25  26
HETATM   26  N4  UNL     1      16.497  23.474  18.503  1.00  0.00     0.094 N 
HETATM   27  C25 UNL     1      16.772  22.388  19.423  1.00  0.00     0.287 C 
HETATM   28  C26 UNL     1      16.356  21.080  18.815  1.00  0.00     0.170 C 
HETATM   29  S1  UNL     1      14.979  21.204  17.757  1.00  0.00     0.147 S 
HETATM   30  O7  UNL     1      13.790  20.569  18.436  1.00  0.00    -0.228 OA
HETATM   31  O8  UNL     1      15.245  20.457  16.456  1.00  0.00    -0.228 OA
HETATM   32  C27 UNL     1      14.495  22.865  17.363  1.00  0.00     0.170 C 
HETATM   33  C28 UNL     1      15.054  23.739  18.462  1.00  0.00     0.287 C 
ENDBRANCH  25  26
ENDBRANCH   6  25
BRANCH   3  34
HETATM   34  C17 UNL     1      22.795  23.599  19.496  1.00  0.00     0.158 A 
HETATM   35  N3  UNL     1      23.638  24.233  20.346  1.00  0.00    -0.343 N 
HETATM   36  C18 UNL     1      24.863  23.701  20.270  1.00  0.00     0.134 A 
ATOM     37  H3  UNL     1      23.376  25.007  20.958  1.00  0.00     0.167 HD
HETATM   38  C19 UNL     1      24.764  22.699  19.334  1.00  0.00     0.169 A 
HETATM   39  O6  UNL     1      23.514  22.683  18.908  1.00  0.00    -0.285 OA
BRANCH  38  40
HETATM   40  C20 UNL     1      25.843  21.818  18.896  1.00  0.00     0.235 C 
HETATM   41  O4  UNL     1      27.019  22.000  19.287  1.00  0.00    -0.642 OA
HETATM   42  O5  UNL     1      25.588  20.765  18.042  1.00  0.00    -0.642 OA
ENDBRANCH  38  40
ENDBRANCH   3  34
TORSDOF 13
ENDMDL
