MODEL 1
REMARK VINA RESULT: -5.140408801      0.000      0.000
REMARK  3 active torsions:
REMARK  status: ('A' for Active; 'I' for Inactive)
REMARK    1  A    between atoms: O1_1  and  C1_3 
REMARK    2  A    between atoms: C6_9  and  O2_10 
REMARK    3  A    between atoms: C7_12  and  O3_13 
ROOT
HETATM    1  C1  UNL     1       2.742  -1.925  14.598  1.00  0.00     0.122 C 
HETATM    2  C2  UNL     1       2.627  -2.845  13.425  1.00  0.00     0.062 C 
HETATM    3  C3  UNL     1       1.596  -2.466  12.435  1.00  0.00     0.275 C 
HETATM    4  N1  UNL     1       1.623  -1.057  12.083  1.00  0.00     0.096 N 
HETATM    5  C4  UNL     1       0.559  -0.874  11.113  1.00  0.00     0.275 C 
HETATM    6  C5  UNL     1       0.035   0.516  11.049  1.00  0.00     0.064 C 
HETATM    7  C6  UNL     1       1.122   1.469  11.541  1.00  0.00     0.150 C 
HETATM    8  C7  UNL     1       1.313   1.190  13.001  1.00  0.00     0.180 C 
HETATM    9  C8  UNL     1       1.322  -0.317  13.270  1.00  0.00     0.256 C 
HETATM   10  C9  UNL     1       2.236  -0.559  14.409  1.00  0.00     0.070 C 
ENDROOT
BRANCH   1  11
HETATM   11  O1  UNL     1       2.122  -2.506  15.729  1.00  0.00    -0.395 OA
ATOM     12  H1  UNL     1       2.095  -1.878  16.441  1.00  0.00     0.210 HD
ENDBRANCH   1  11
BRANCH   8  13
HETATM   13  O3  UNL     1       0.295   1.736  13.760  1.00  0.00    -0.391 OA
ATOM     14  H3  UNL     1      -0.545   1.343  13.551  1.00  0.00     0.210 HD
ENDBRANCH   8  13
BRANCH   7  15
HETATM   15  O2  UNL     1       0.735   2.786  11.341  1.00  0.00    -0.393 OA
ATOM     16  H2  UNL     1       1.191   3.360  11.945  1.00  0.00     0.210 HD
ENDBRANCH   7  15
TORSDOF 3
ENDMDL
MODEL 2
REMARK VINA RESULT: -5.059899475      1.631      4.132
REMARK  3 active torsions:
REMARK  status: ('A' for Active; 'I' for Inactive)
REMARK    1  A    between atoms: O1_1  and  C1_3 
REMARK    2  A    between atoms: C6_9  and  O2_10 
REMARK    3  A    between atoms: C7_12  and  O3_13 
ROOT
HETATM    1  C1  UNL     1       0.614   1.378  10.934  1.00  0.00     0.122 C 
HETATM    2  C2  UNL     1       0.096  -0.020  10.822  1.00  0.00     0.062 C 
HETATM    3  C3  UNL     1       0.848  -1.026  11.602  1.00  0.00     0.275 C 
HETATM    4  N1  UNL     1       1.135  -0.606  12.963  1.00  0.00     0.096 N 
HETATM    5  C4  UNL     1       1.865  -1.706  13.568  1.00  0.00     0.275 C 
HETATM    6  C5  UNL     1       2.732  -1.300  14.705  1.00  0.00     0.064 C 
HETATM    7  C6  UNL     1       2.175  -0.012  15.307  1.00  0.00     0.150 C 
HETATM    8  C7  UNL     1       2.355   1.060  14.275  1.00  0.00     0.180 C 
HETATM    9  C8  UNL     1       1.982   0.544  12.883  1.00  0.00     0.256 C 
HETATM   10  C9  UNL     1       1.420   1.683  12.123  1.00  0.00     0.070 C 
ENDROOT
BRANCH   1  11
HETATM   11  O1  UNL     1       1.343   1.716   9.770  1.00  0.00    -0.395 OA
ATOM     12  H1  UNL     1       2.225   1.370   9.828  1.00  0.00     0.210 HD
ENDBRANCH   1  11
BRANCH   8  13
HETATM   13  O3  UNL     1       3.666   1.491  14.214  1.00  0.00    -0.391 OA
ATOM     14  H3  UNL     1       3.874   1.858  13.362  1.00  0.00     0.210 HD
ENDBRANCH   8  13
BRANCH   7  15
HETATM   15  O2  UNL     1       2.856   0.310  16.471  1.00  0.00    -0.393 OA
ATOM     16  H2  UNL     1       3.440   1.044  16.320  1.00  0.00     0.210 HD
ENDBRANCH   7  15
TORSDOF 3
ENDMDL
MODEL 3
REMARK VINA RESULT: -5.008995123      1.797      2.840
REMARK  3 active torsions:
REMARK  status: ('A' for Active; 'I' for Inactive)
REMARK    1  A    between atoms: O1_1  and  C1_3 
REMARK    2  A    between atoms: C6_9  and  O2_10 
REMARK    3  A    between atoms: C7_12  and  O3_13 
ROOT
HETATM    1  C1  UNL     1       1.490  -1.629  13.341  1.00  0.00     0.122 C 
HETATM    2  C2  UNL     1       2.315  -1.254  14.530  1.00  0.00     0.062 C 
HETATM    3  C3  UNL     1       3.006   0.050  14.421  1.00  0.00     0.275 C 
HETATM    4  N1  UNL     1       2.151   1.117  13.930  1.00  0.00     0.096 N 
HETATM    5  C4  UNL     1       2.987   2.304  13.893  1.00  0.00     0.275 C 
HETATM    6  C5  UNL     1       2.528   3.333  12.923  1.00  0.00     0.064 C 
HETATM    7  C6  UNL     1       1.030   3.152  12.692  1.00  0.00     0.150 C 
HETATM    8  C7  UNL     1       0.857   1.842  11.984  1.00  0.00     0.180 C 
HETATM    9  C8  UNL     1       1.756   0.767  12.600  1.00  0.00     0.256 C 
HETATM   10  C9  UNL     1       1.050  -0.527  12.477  1.00  0.00     0.070 C 
ENDROOT
BRANCH   1  11
HETATM   11  O1  UNL     1       2.175  -2.594  12.566  1.00  0.00    -0.395 OA
ATOM     12  H1  UNL     1       1.550  -3.131  12.093  1.00  0.00     0.210 HD
ENDBRANCH   1  11
BRANCH   8  13
HETATM   13  O3  UNL     1       1.193   1.940  10.647  1.00  0.00    -0.391 OA
ATOM     14  H3  UNL     1       0.674   1.350  10.112  1.00  0.00     0.210 HD
ENDBRANCH   8  13
BRANCH   7  15
HETATM   15  O2  UNL     1       0.531   4.193  11.925  1.00  0.00    -0.393 OA
ATOM     16  H2  UNL     1       1.090   4.957  12.000  1.00  0.00     0.210 HD
ENDBRANCH   7  15
TORSDOF 3
ENDMDL
MODEL 4
REMARK VINA RESULT: -4.970035611      1.254      1.484
REMARK  3 active torsions:
REMARK  status: ('A' for Active; 'I' for Inactive)
REMARK    1  A    between atoms: O1_1  and  C1_3 
REMARK    2  A    between atoms: C6_9  and  O2_10 
REMARK    3  A    between atoms: C7_12  and  O3_13 
ROOT
HETATM    1  C1  UNL     1       3.070  -0.021  14.953  1.00  0.00     0.122 C 
HETATM    2  C2  UNL     1       2.889  -1.441  14.519  1.00  0.00     0.062 C 
HETATM    3  C3  UNL     1       1.767  -1.667  13.583  1.00  0.00     0.275 C 
HETATM    4  N1  UNL     1       1.717  -0.703  12.497  1.00  0.00     0.096 N 
HETATM    5  C4  UNL     1       0.570  -1.079  11.691  1.00  0.00     0.275 C 
HETATM    6  C5  UNL     1      -0.004   0.042  10.901  1.00  0.00     0.064 C 
HETATM    7  C6  UNL     1       1.086   1.085  10.672  1.00  0.00     0.150 C 
HETATM    8  C7  UNL     1       1.408   1.675  12.011  1.00  0.00     0.180 C 
HETATM    9  C8  UNL     1       1.490   0.584  13.082  1.00  0.00     0.256 C 
HETATM   10  C9  UNL     1       2.504   1.008  14.073  1.00  0.00     0.070 C 
ENDROOT
BRANCH   1  11
HETATM   11  O1  UNL     1       2.566   0.149  16.264  1.00  0.00    -0.395 OA
ATOM     12  H1  UNL     1       1.990   0.904  16.294  1.00  0.00     0.210 HD
ENDBRANCH   1  11
BRANCH   8  13
HETATM   13  O3  UNL     1       0.439   2.573  12.417  1.00  0.00    -0.391 OA
ATOM     14  H3  UNL     1      -0.424   2.318  12.111  1.00  0.00     0.210 HD
ENDBRANCH   8  13
BRANCH   7  15
HETATM   15  O2  UNL     1       0.639   2.066   9.799  1.00  0.00    -0.393 OA
ATOM     16  H2  UNL     1      -0.105   1.751   9.300  1.00  0.00     0.210 HD
ENDBRANCH   7  15
TORSDOF 3
ENDMDL
MODEL 5
REMARK VINA RESULT: -4.908831315      2.020      4.305
REMARK  3 active torsions:
REMARK  status: ('A' for Active; 'I' for Inactive)
REMARK    1  A    between atoms: O1_1  and  C1_3 
REMARK    2  A    between atoms: C6_9  and  O2_10 
REMARK    3  A    between atoms: C7_12  and  O3_13 
ROOT
HETATM    1  C1  UNL     1       0.525  -0.214  11.350  1.00  0.00     0.122 C 
HETATM    2  C2  UNL     1       0.833   1.187  10.928  1.00  0.00     0.062 C 
HETATM    3  C3  UNL     1       1.283   2.080  12.017  1.00  0.00     0.275 C 
HETATM    4  N1  UNL     1       2.293   1.483  12.874  1.00  0.00     0.096 N 
HETATM    5  C4  UNL     1       2.610   2.492  13.869  1.00  0.00     0.275 C 
HETATM    6  C5  UNL     1       3.155   1.938  15.136  1.00  0.00     0.064 C 
HETATM    7  C6  UNL     1       3.792   0.582  14.841  1.00  0.00     0.150 C 
HETATM    8  C7  UNL     1       2.678  -0.344  14.455  1.00  0.00     0.180 C 
HETATM    9  C8  UNL     1       1.692   0.352  13.513  1.00  0.00     0.256 C 
HETATM   10  C9  UNL     1       1.155  -0.675  12.593  1.00  0.00     0.070 C 
ENDROOT
BRANCH   1  11
HETATM   11  O1  UNL     1      -0.875  -0.395  11.434  1.00  0.00    -0.395 OA
ATOM     12  H1  UNL     1      -1.188  -0.108  12.283  1.00  0.00     0.210 HD
ENDBRANCH   1  11
BRANCH   8  13
HETATM   13  O3  UNL     1       1.962  -0.765  15.560  1.00  0.00    -0.391 OA
ATOM     14  H3  UNL     1       1.287  -0.139  15.797  1.00  0.00     0.210 HD
ENDBRANCH   8  13
BRANCH   7  15
HETATM   15  O2  UNL     1       4.457   0.107  15.962  1.00  0.00    -0.393 OA
ATOM     16  H2  UNL     1       5.380   0.328  15.916  1.00  0.00     0.210 HD
ENDBRANCH   7  15
TORSDOF 3
ENDMDL
