MODEL 1
REMARK VINA RESULT: -5.369685911      0.000      0.000
REMARK  4 active torsions:
REMARK  status: ('A' for Active; 'I' for Inactive)
REMARK    1  A    between atoms: O1_1  and  C1_3 
REMARK    2  A    between atoms: C6_8  and  O2_9 
REMARK    3  A    between atoms: C7_11  and  O3_12 
REMARK    4  A    between atoms: C9_15  and  O4_16 
ROOT
HETATM    1  C1  UNL     1       0.547  -0.172  11.523  1.00  0.00     0.147 C 
HETATM    2  C2  UNL     1       1.086  -1.547  11.490  1.00  0.00     0.035 C 
HETATM    3  C3  UNL     1       1.680  -2.093  12.726  1.00  0.00     0.008 C 
HETATM    4  C4  UNL     1       1.831  -1.133  13.851  1.00  0.00    -0.003 C 
HETATM    5  C5  UNL     1       3.007  -1.391  14.746  1.00  0.00     0.039 C 
HETATM    6  C6  UNL     1       3.108  -0.077  15.510  1.00  0.00     0.147 C 
HETATM    7  C7  UNL     1       2.347   0.946  14.692  1.00  0.00     0.153 C 
HETATM    8  C8  UNL     1       2.211   0.266  13.348  1.00  0.00     0.052 C 
HETATM    9  C9  UNL     1       1.041   0.756  12.551  1.00  0.00     0.153 C 
ENDROOT
BRANCH   1  10
HETATM   10  O1  UNL     1      -0.860  -0.189  11.610  1.00  0.00    -0.393 OA
ATOM     11  H1  UNL     1      -1.155   0.280  12.381  1.00  0.00     0.210 HD
ENDBRANCH   1  10
BRANCH   9  12
HETATM   12  O4  UNL     1       0.033   1.093  13.486  1.00  0.00    -0.393 OA
ATOM     13  H4  UNL     1       0.332   0.990  14.381  1.00  0.00     0.210 HD
ENDBRANCH   9  12
BRANCH   7  14
HETATM   14  O3  UNL     1       3.030   2.150  14.602  1.00  0.00    -0.393 OA
ATOM     15  H3  UNL     1       3.482   2.241  13.771  1.00  0.00     0.210 HD
ENDBRANCH   7  14
BRANCH   6  16
HETATM   16  O2  UNL     1       4.417   0.335  15.674  1.00  0.00    -0.393 OA
ATOM     17  H2  UNL     1       4.921  -0.268  16.208  1.00  0.00     0.210 HD
ENDBRANCH   6  16
TORSDOF 4
ENDMDL
MODEL 2
REMARK VINA RESULT: -5.290205876      1.584      2.469
REMARK  4 active torsions:
REMARK  status: ('A' for Active; 'I' for Inactive)
REMARK    1  A    between atoms: O1_1  and  C1_3 
REMARK    2  A    between atoms: C6_8  and  O2_9 
REMARK    3  A    between atoms: C7_11  and  O3_12 
REMARK    4  A    between atoms: C9_15  and  O4_16 
ROOT
HETATM    1  C1  UNL     1       1.318   2.521  12.667  1.00  0.00     0.147 C 
HETATM    2  C2  UNL     1       1.051   1.701  11.469  1.00  0.00     0.035 C 
HETATM    3  C3  UNL     1       0.856   0.249  11.647  1.00  0.00     0.008 C 
HETATM    4  C4  UNL     1       1.118  -0.277  13.013  1.00  0.00    -0.003 C 
HETATM    5  C5  UNL     1       1.642  -1.682  13.058  1.00  0.00     0.039 C 
HETATM    6  C6  UNL     1       2.160  -1.773  14.488  1.00  0.00     0.147 C 
HETATM    7  C7  UNL     1       2.336  -0.345  14.964  1.00  0.00     0.153 C 
HETATM    8  C8  UNL     1       2.299   0.445  13.676  1.00  0.00     0.052 C 
HETATM    9  C9  UNL     1       1.868   1.867  13.864  1.00  0.00     0.153 C 
ENDROOT
BRANCH   1  10
HETATM   10  O1  UNL     1       0.161   3.221  13.062  1.00  0.00    -0.393 OA
ATOM     11  H1  UNL     1       0.386   3.961  13.614  1.00  0.00     0.210 HD
ENDBRANCH   1  10
BRANCH   9  12
HETATM   12  O4  UNL     1       0.944   1.866  14.936  1.00  0.00    -0.393 OA
ATOM     13  H4  UNL     1       1.164   2.514  15.594  1.00  0.00     0.210 HD
ENDBRANCH   9  12
BRANCH   7  14
HETATM   14  O3  UNL     1       3.529  -0.172  15.651  1.00  0.00    -0.393 OA
ATOM     15  H3  UNL     1       4.028  -0.978  15.704  1.00  0.00     0.210 HD
ENDBRANCH   7  14
BRANCH   6  16
HETATM   16  O2  UNL     1       3.365  -2.445  14.568  1.00  0.00    -0.393 OA
ATOM     17  H2  UNL     1       3.330  -3.298  14.152  1.00  0.00     0.210 HD
ENDBRANCH   6  16
TORSDOF 4
ENDMDL
MODEL 3
REMARK VINA RESULT: -5.090688039      0.903      3.945
REMARK  4 active torsions:
REMARK  status: ('A' for Active; 'I' for Inactive)
REMARK    1  A    between atoms: O1_1  and  C1_3 
REMARK    2  A    between atoms: C6_8  and  O2_9 
REMARK    3  A    between atoms: C7_11  and  O3_12 
REMARK    4  A    between atoms: C9_15  and  O4_16 
ROOT
HETATM    1  C1  UNL     1       2.764  -0.335  15.265  1.00  0.00     0.147 C 
HETATM    2  C2  UNL     1       2.430  -1.752  15.015  1.00  0.00     0.035 C 
HETATM    3  C3  UNL     1       2.049  -2.147  13.645  1.00  0.00     0.008 C 
HETATM    4  C4  UNL     1       1.874  -1.034  12.675  1.00  0.00    -0.003 C 
HETATM    5  C5  UNL     1       0.844  -1.281  11.612  1.00  0.00     0.039 C 
HETATM    6  C6  UNL     1       0.631   0.122  11.058  1.00  0.00     0.147 C 
HETATM    7  C7  UNL     1       1.149   1.076  12.114  1.00  0.00     0.153 C 
HETATM    8  C8  UNL     1       1.246   0.198  13.341  1.00  0.00     0.052 C 
HETATM    9  C9  UNL     1       2.247   0.686  14.343  1.00  0.00     0.153 C 
ENDROOT
BRANCH   1  10
HETATM   10  O1  UNL     1       4.160  -0.158  15.351  1.00  0.00    -0.393 OA
ATOM     11  H1  UNL     1       4.568  -0.282  14.502  1.00  0.00     0.210 HD
ENDBRANCH   1  10
BRANCH   9  12
HETATM   12  O4  UNL     1       3.284   1.304  13.604  1.00  0.00    -0.393 OA
ATOM     13  H4  UNL     1       3.705   0.696  13.009  1.00  0.00     0.210 HD
ENDBRANCH   9  12
BRANCH   7  14
HETATM   14  O3  UNL     1       0.293   2.151  12.307  1.00  0.00    -0.393 OA
ATOM     15  H3  UNL     1       0.767   2.966  12.422  1.00  0.00     0.210 HD
ENDBRANCH   7  14
BRANCH   6  16
HETATM   16  O2  UNL     1      -0.701   0.387  10.801  1.00  0.00    -0.393 OA
ATOM     17  H2  UNL     1      -1.278  -0.269  11.172  1.00  0.00     0.210 HD
ENDBRANCH   6  16
TORSDOF 4
ENDMDL
MODEL 4
REMARK VINA RESULT: -4.878260877      1.919      2.529
REMARK  4 active torsions:
REMARK  status: ('A' for Active; 'I' for Inactive)
REMARK    1  A    between atoms: O1_1  and  C1_3 
REMARK    2  A    between atoms: C6_8  and  O2_9 
REMARK    3  A    between atoms: C7_11  and  O3_12 
REMARK    4  A    between atoms: C9_15  and  O4_16 
ROOT
HETATM    1  C1  UNL     1       0.875   0.072  11.277  1.00  0.00     0.147 C 
HETATM    2  C2  UNL     1       1.130  -0.779  12.457  1.00  0.00     0.035 C 
HETATM    3  C3  UNL     1       1.512  -0.121  13.722  1.00  0.00     0.008 C 
HETATM    4  C4  UNL     1       1.770   1.341  13.640  1.00  0.00    -0.003 C 
HETATM    5  C5  UNL     1       2.803   1.853  14.599  1.00  0.00     0.039 C 
HETATM    6  C6  UNL     1       3.109   3.228  14.018  1.00  0.00     0.147 C 
HETATM    7  C7  UNL     1       2.629   3.195  12.581  1.00  0.00     0.153 C 
HETATM    8  C8  UNL     1       2.457   1.715  12.319  1.00  0.00     0.052 C 
HETATM    9  C9  UNL     1       1.469   1.416  11.234  1.00  0.00     0.153 C 
ENDROOT
BRANCH   1  10
HETATM   10  O1  UNL     1      -0.508   0.214  11.052  1.00  0.00    -0.393 OA
ATOM     11  H1  UNL     1      -0.710   0.122  10.129  1.00  0.00     0.210 HD
ENDBRANCH   1  10
BRANCH   9  12
HETATM   12  O4  UNL     1       0.484   2.430  11.299  1.00  0.00    -0.393 OA
ATOM     13  H4  UNL     1       0.843   3.286  11.098  1.00  0.00     0.210 HD
ENDBRANCH   9  12
BRANCH   7  14
HETATM   14  O3  UNL     1       3.543   3.777  11.716  1.00  0.00    -0.393 OA
ATOM     15  H3  UNL     1       3.214   4.587  11.344  1.00  0.00     0.210 HD
ENDBRANCH   7  14
BRANCH   6  16
HETATM   16  O2  UNL     1       4.459   3.524  14.054  1.00  0.00    -0.393 OA
ATOM     17  H2  UNL     1       4.639   4.419  13.793  1.00  0.00     0.210 HD
ENDBRANCH   6  16
TORSDOF 4
ENDMDL
MODEL 5
REMARK VINA RESULT: -4.748880100      1.703      4.426
REMARK  4 active torsions:
REMARK  status: ('A' for Active; 'I' for Inactive)
REMARK    1  A    between atoms: O1_1  and  C1_3 
REMARK    2  A    between atoms: C6_8  and  O2_9 
REMARK    3  A    between atoms: C7_11  and  O3_12 
REMARK    4  A    between atoms: C9_15  and  O4_16 
ROOT
HETATM    1  C1  UNL     1       2.026   0.297  14.782  1.00  0.00     0.147 C 
HETATM    2  C2  UNL     1       3.094   1.210  14.328  1.00  0.00     0.035 C 
HETATM    3  C3  UNL     1       2.885   1.959  13.073  1.00  0.00     0.008 C 
HETATM    4  C4  UNL     1       1.675   1.589  12.292  1.00  0.00    -0.003 C 
HETATM    5  C5  UNL     1       1.815   1.737  10.806  1.00  0.00     0.039 C 
HETATM    6  C6  UNL     1       0.617   0.941  10.303  1.00  0.00     0.147 C 
HETATM    7  C7  UNL     1       0.198   0.040  11.447  1.00  0.00     0.153 C 
HETATM    8  C8  UNL     1       1.401   0.080  12.363  1.00  0.00     0.052 C 
HETATM    9  C9  UNL     1       1.068  -0.218  13.793  1.00  0.00     0.153 C 
ENDROOT
BRANCH   1  10
HETATM   10  O1  UNL     1       1.282   0.879  15.827  1.00  0.00    -0.393 OA
ATOM     11  H1  UNL     1       0.813   0.214  16.317  1.00  0.00     0.210 HD
ENDBRANCH   1  10
BRANCH   9  12
HETATM   12  O4  UNL     1      -0.238   0.284  14.012  1.00  0.00    -0.393 OA
ATOM     13  H4  UNL     1      -0.829  -0.392  14.321  1.00  0.00     0.210 HD
ENDBRANCH   9  12
BRANCH   7  14
HETATM   14  O3  UNL     1      -0.088  -1.247  11.015  1.00  0.00    -0.393 OA
ATOM     15  H3  UNL     1      -1.020  -1.378  10.884  1.00  0.00     0.210 HD
ENDBRANCH   7  14
BRANCH   6  16
HETATM   16  O2  UNL     1       0.923   0.176   9.193  1.00  0.00    -0.393 OA
ATOM     17  H2  UNL     1       1.083  -0.734   9.415  1.00  0.00     0.210 HD
ENDBRANCH   6  16
TORSDOF 4
ENDMDL
