MODEL 1
REMARK VINA RESULT: -5.548922252      0.000      0.000
REMARK  4 active torsions:
REMARK  status: ('A' for Active; 'I' for Inactive)
REMARK    1  A    between atoms: O1_1  and  C1_3 
REMARK    2  A    between atoms: C4_6  and  O2_7 
REMARK    3  A    between atoms: C5_9  and  O3_10 
REMARK    4  A    between atoms: C9_15  and  O4_16 
ROOT
HETATM    1  C1  UNL     1       0.641   0.544  10.065  1.00  0.00     0.147 C 
HETATM    2  C2  UNL     1       1.405   1.665  10.667  1.00  0.00     0.037 C 
HETATM    3  C3  UNL     1       1.136   1.903  12.120  1.00  0.00     0.043 C 
HETATM    4  C4  UNL     1       1.103   0.705  12.969  1.00  0.00     0.090 C 
HETATM    5  C5  UNL     1       2.206   0.560  13.967  1.00  0.00     0.153 C 
HETATM    6  C6  UNL     1       2.094  -0.916  14.320  1.00  0.00     0.035 C 
HETATM    7  C7  UNL     1       1.444  -1.580  13.112  1.00  0.00     0.013 C 
HETATM    8  C8  UNL     1       1.422  -0.512  12.088  1.00  0.00     0.054 C 
HETATM    9  C9  UNL     1       0.371  -0.593  11.053  1.00  0.00     0.154 C 
ENDROOT
BRANCH   1  10
HETATM   10  O1  UNL     1      -0.515   0.967   9.438  1.00  0.00    -0.393 OA
ATOM     11  H1  UNL     1      -0.409   1.058   8.498  1.00  0.00     0.210 HD
ENDBRANCH   1  10
BRANCH   9  12
HETATM   12  O4  UNL     1      -0.897  -0.351  11.578  1.00  0.00    -0.393 OA
ATOM     13  H4  UNL     1      -1.354   0.167  10.926  1.00  0.00     0.210 HD
ENDBRANCH   9  12
BRANCH   4  14
HETATM   14  O2  UNL     1      -0.102   0.510  13.650  1.00  0.00    -0.387 OA
ATOM     15  H2  UNL     1      -0.871   0.501  13.093  1.00  0.00     0.210 HD
ENDBRANCH   4  14
BRANCH   5  16
HETATM   16  O3  UNL     1       2.029   1.361  15.098  1.00  0.00    -0.393 OA
ATOM     17  H3  UNL     1       2.829   1.484  15.595  1.00  0.00     0.210 HD
ENDBRANCH   5  16
TORSDOF 4
ENDMDL
MODEL 2
REMARK VINA RESULT: -5.235206862      1.288      4.165
REMARK  4 active torsions:
REMARK  status: ('A' for Active; 'I' for Inactive)
REMARK    1  A    between atoms: O1_1  and  C1_3 
REMARK    2  A    between atoms: C4_6  and  O2_7 
REMARK    3  A    between atoms: C5_9  and  O3_10 
REMARK    4  A    between atoms: C9_15  and  O4_16 
ROOT
HETATM    1  C1  UNL     1       2.128  -0.527  15.230  1.00  0.00     0.147 C 
HETATM    2  C2  UNL     1       2.492  -1.409  14.093  1.00  0.00     0.037 C 
HETATM    3  C3  UNL     1       1.482  -1.468  12.991  1.00  0.00     0.043 C 
HETATM    4  C4  UNL     1       0.925  -0.177  12.564  1.00  0.00     0.090 C 
HETATM    5  C5  UNL     1       1.289   0.289  11.192  1.00  0.00     0.153 C 
HETATM    6  C6  UNL     1       0.924   1.764  11.274  1.00  0.00     0.035 C 
HETATM    7  C7  UNL     1       1.011   2.129  12.751  1.00  0.00     0.013 C 
HETATM    8  C8  UNL     1       1.612   0.930  13.378  1.00  0.00     0.054 C 
HETATM    9  C9  UNL     1       1.301   0.688  14.802  1.00  0.00     0.154 C 
ENDROOT
BRANCH   1  10
HETATM   10  O1  UNL     1       1.531  -1.217  16.267  1.00  0.00    -0.393 OA
ATOM     11  H1  UNL     1       1.612  -0.767  17.099  1.00  0.00     0.210 HD
ENDBRANCH   1  10
BRANCH   9  12
HETATM   12  O4  UNL     1      -0.032   0.328  14.989  1.00  0.00    -0.393 OA
ATOM     13  H4  UNL     1      -0.297  -0.116  14.192  1.00  0.00     0.210 HD
ENDBRANCH   9  12
BRANCH   4  14
HETATM   14  O2  UNL     1      -0.464  -0.077  12.683  1.00  0.00    -0.387 OA
ATOM     15  H2  UNL     1      -0.858   0.596  12.142  1.00  0.00     0.210 HD
ENDBRANCH   4  14
BRANCH   5  16
HETATM   16  O3  UNL     1       0.560  -0.352  10.186  1.00  0.00    -0.393 OA
ATOM     17  H3  UNL     1      -0.216   0.129   9.926  1.00  0.00     0.210 HD
ENDBRANCH   5  16
TORSDOF 4
ENDMDL
MODEL 3
REMARK VINA RESULT: -5.047719646      1.163      1.335
REMARK  4 active torsions:
REMARK  status: ('A' for Active; 'I' for Inactive)
REMARK    1  A    between atoms: O1_1  and  C1_3 
REMARK    2  A    between atoms: C4_6  and  O2_7 
REMARK    3  A    between atoms: C5_9  and  O3_10 
REMARK    4  A    between atoms: C9_15  and  O4_16 
ROOT
HETATM    1  C1  UNL     1       1.417   1.316  11.141  1.00  0.00     0.147 C 
HETATM    2  C2  UNL     1       2.310   1.998  12.111  1.00  0.00     0.037 C 
HETATM    3  C3  UNL     1       1.999   1.731  13.550  1.00  0.00     0.043 C 
HETATM    4  C4  UNL     1       1.734   0.329  13.899  1.00  0.00     0.090 C 
HETATM    5  C5  UNL     1       2.744  -0.348  14.767  1.00  0.00     0.153 C 
HETATM    6  C6  UNL     1       2.385  -1.812  14.552  1.00  0.00     0.035 C 
HETATM    7  C7  UNL     1       1.709  -1.874  13.188  1.00  0.00     0.013 C 
HETATM    8  C8  UNL     1       1.910  -0.518  12.629  1.00  0.00     0.054 C 
HETATM    9  C9  UNL     1       0.920  -0.043  11.642  1.00  0.00     0.154 C 
ENDROOT
BRANCH   1  10
HETATM   10  O1  UNL     1       0.377   2.122  10.720  1.00  0.00    -0.393 OA
ATOM     11  H1  UNL     1       0.488   2.422   9.825  1.00  0.00     0.210 HD
ENDBRANCH   1  10
BRANCH   9  12
HETATM   12  O4  UNL     1      -0.323   0.196  12.225  1.00  0.00    -0.393 OA
ATOM     13  H4  UNL     1      -0.947  -0.326  11.734  1.00  0.00     0.210 HD
ENDBRANCH   9  12
BRANCH   4  14
HETATM   14  O2  UNL     1       0.477   0.100  14.465  1.00  0.00    -0.387 OA
ATOM     15  H2  UNL     1       0.318  -0.801  14.720  1.00  0.00     0.210 HD
ENDBRANCH   4  14
BRANCH   5  16
HETATM   16  O3  UNL     1       2.628   0.003  16.115  1.00  0.00    -0.393 OA
ATOM     17  H3  UNL     1       3.423   0.383  16.469  1.00  0.00     0.210 HD
ENDBRANCH   5  16
TORSDOF 4
ENDMDL
MODEL 4
REMARK VINA RESULT: -4.811331187      1.186      4.390
REMARK  4 active torsions:
REMARK  status: ('A' for Active; 'I' for Inactive)
REMARK    1  A    between atoms: O1_1  and  C1_3 
REMARK    2  A    between atoms: C4_6  and  O2_7 
REMARK    3  A    between atoms: C5_9  and  O3_10 
REMARK    4  A    between atoms: C9_15  and  O4_16 
ROOT
HETATM    1  C1  UNL     1       3.392   0.388  15.165  1.00  0.00     0.147 C 
HETATM    2  C2  UNL     1       2.834  -0.854  14.574  1.00  0.00     0.037 C 
HETATM    3  C3  UNL     1       1.420  -0.745  14.096  1.00  0.00     0.043 C 
HETATM    4  C4  UNL     1       1.099   0.459  13.318  1.00  0.00     0.090 C 
HETATM    5  C5  UNL     1       0.781   0.258  11.872  1.00  0.00     0.153 C 
HETATM    6  C6  UNL     1       0.936   1.674  11.336  1.00  0.00     0.035 C 
HETATM    7  C7  UNL     1       1.897   2.373  12.290  1.00  0.00     0.013 C 
HETATM    8  C8  UNL     1       2.386   1.284  13.164  1.00  0.00     0.054 C 
HETATM    9  C9  UNL     1       2.833   1.659  14.521  1.00  0.00     0.154 C 
ENDROOT
BRANCH   1  10
HETATM   10  O1  UNL     1       3.282   0.416  16.542  1.00  0.00    -0.393 OA
ATOM     11  H1  UNL     1       3.986   0.904  16.954  1.00  0.00     0.210 HD
ENDBRANCH   1  10
BRANCH   9  12
HETATM   12  O4  UNL     1       1.770   2.060  15.328  1.00  0.00    -0.393 OA
ATOM     13  H4  UNL     1       1.161   1.331  15.339  1.00  0.00     0.210 HD
ENDBRANCH   9  12
BRANCH   4  14
HETATM   14  O2  UNL     1       0.079   1.246  13.863  1.00  0.00    -0.387 OA
ATOM     15  H2  UNL     1      -0.612   1.472  13.252  1.00  0.00     0.210 HD
ENDBRANCH   4  14
BRANCH   5  16
HETATM   16  O3  UNL     1      -0.514  -0.220  11.658  1.00  0.00    -0.393 OA
ATOM     17  H3  UNL     1      -0.737  -0.289  10.737  1.00  0.00     0.210 HD
ENDBRANCH   5  16
TORSDOF 4
ENDMDL
MODEL 5
REMARK VINA RESULT: -4.778512032      2.175      3.355
REMARK  4 active torsions:
REMARK  status: ('A' for Active; 'I' for Inactive)
REMARK    1  A    between atoms: O1_1  and  C1_3 
REMARK    2  A    between atoms: C4_6  and  O2_7 
REMARK    3  A    between atoms: C5_9  and  O3_10 
REMARK    4  A    between atoms: C9_15  and  O4_16 
ROOT
HETATM    1  C1  UNL     1       2.080   2.675  13.867  1.00  0.00     0.147 C 
HETATM    2  C2  UNL     1       3.146   2.030  14.673  1.00  0.00     0.037 C 
HETATM    3  C3  UNL     1       2.735   0.774  15.374  1.00  0.00     0.043 C 
HETATM    4  C4  UNL     1       1.961  -0.183  14.571  1.00  0.00     0.090 C 
HETATM    5  C5  UNL     1       2.631  -1.476  14.239  1.00  0.00     0.153 C 
HETATM    6  C6  UNL     1       1.756  -1.978  13.099  1.00  0.00     0.035 C 
HETATM    7  C7  UNL     1       1.128  -0.734  12.483  1.00  0.00     0.013 C 
HETATM    8  C8  UNL     1       1.830   0.386  13.150  1.00  0.00     0.054 C 
HETATM    9  C9  UNL     1       1.104   1.668  13.254  1.00  0.00     0.154 C 
ENDROOT
BRANCH   1  10
HETATM   10  O1  UNL     1       1.422   3.674  14.560  1.00  0.00    -0.393 OA
ATOM     11  H1  UNL     1       1.639   3.679  15.485  1.00  0.00     0.210 HD
ENDBRANCH   1  10
BRANCH   9  12
HETATM   12  O4  UNL     1       0.030   1.588  14.139  1.00  0.00    -0.393 OA
ATOM     13  H4  UNL     1       0.346   1.099  14.889  1.00  0.00     0.210 HD
ENDBRANCH   9  12
BRANCH   4  14
HETATM   14  O2  UNL     1       0.700  -0.488  15.091  1.00  0.00    -0.387 OA
ATOM     15  H2  UNL     1       0.011   0.112  14.831  1.00  0.00     0.210 HD
ENDBRANCH   4  14
BRANCH   5  16
HETATM   16  O3  UNL     1       2.632  -2.380  15.305  1.00  0.00    -0.393 OA
ATOM     17  H3  UNL     1       2.811  -1.968  16.142  1.00  0.00     0.210 HD
ENDBRANCH   5  16
TORSDOF 4
ENDMDL
