MODEL 1
REMARK VINA RESULT: -4.961067613      0.000      0.000
REMARK  3 active torsions:
REMARK  status: ('A' for Active; 'I' for Inactive)
REMARK    1  A    between atoms: C3_3  and  O1_4 
REMARK    2  A    between atoms: C7_10  and  O3_11 
REMARK    3  A    between atoms: C8_13  and  O4_14 
ROOT
HETATM    1  C1  UNL     1       2.161  -1.930  14.187  1.00  0.00     0.016 C 
HETATM    2  C2  UNL     1       2.314  -0.622  13.444  1.00  0.00     0.050 C 
HETATM    3  C3  UNL     1       2.478   0.449  14.534  1.00  0.00     0.148 C 
HETATM    4  C4  UNL     1       1.036   0.631  14.948  1.00  0.00     0.201 C 
HETATM    5  O2  UNL     1       0.237   0.167  13.945  1.00  0.00    -0.374 OA
HETATM    6  C5  UNL     1       1.005  -0.142  12.858  1.00  0.00     0.097 C 
HETATM    7  C6  UNL     1       1.240   0.996  11.895  1.00  0.00     0.075 C 
HETATM    8  C7  UNL     1       0.290   0.283  10.928  1.00  0.00     0.152 C 
HETATM    9  C8  UNL     1       0.399  -0.975  11.801  1.00  0.00     0.182 C 
ENDROOT
BRANCH   9  10
HETATM   10  O4  UNL     1       1.196  -1.958  11.223  1.00  0.00    -0.390 OA
ATOM     11  H4  UNL     1       1.075  -2.851  11.523  1.00  0.00     0.210 HD
ENDBRANCH   9  10
BRANCH   3  12
HETATM   12  O1  UNL     1       3.284   0.024  15.560  1.00  0.00    -0.393 OA
ATOM     13  H1  UNL     1       3.144   0.523  16.356  1.00  0.00     0.210 HD
ENDBRANCH   3  12
BRANCH   8  14
HETATM   14  O3  UNL     1       0.804   0.150   9.660  1.00  0.00    -0.393 OA
ATOM     15  H3  UNL     1       0.136   0.129   8.984  1.00  0.00     0.210 HD
ENDBRANCH   8  14
TORSDOF 3
ENDMDL
MODEL 2
REMARK VINA RESULT: -4.550478947      1.140      1.212
REMARK  3 active torsions:
REMARK  status: ('A' for Active; 'I' for Inactive)
REMARK    1  A    between atoms: C3_3  and  O1_4 
REMARK    2  A    between atoms: C7_10  and  O3_11 
REMARK    3  A    between atoms: C8_13  and  O4_14 
ROOT
HETATM    1  C1  UNL     1       1.494  -0.884  13.908  1.00  0.00     0.016 C 
HETATM    2  C2  UNL     1       2.010   0.061  12.846  1.00  0.00     0.050 C 
HETATM    3  C3  UNL     1       2.525   1.291  13.611  1.00  0.00     0.148 C 
HETATM    4  C4  UNL     1       1.220   2.002  13.883  1.00  0.00     0.201 C 
HETATM    5  O2  UNL     1       0.285   1.540  13.003  1.00  0.00    -0.374 OA
HETATM    6  C5  UNL     1       0.887   0.729  12.083  1.00  0.00     0.097 C 
HETATM    7  C6  UNL     1       1.422   1.434  10.861  1.00  0.00     0.075 C 
HETATM    8  C7  UNL     1       0.270   0.801  10.076  1.00  0.00     0.152 C 
HETATM    9  C8  UNL     1       0.023  -0.142  11.262  1.00  0.00     0.182 C 
ENDROOT
BRANCH   9  10
HETATM   10  O4  UNL     1       0.467  -1.437  11.017  1.00  0.00    -0.390 OA
ATOM     11  H4  UNL     1       1.259  -1.537  10.501  1.00  0.00     0.210 HD
ENDBRANCH   9  10
BRANCH   3  12
HETATM   12  O1  UNL     1       3.199   0.944  14.754  1.00  0.00    -0.393 OA
ATOM     13  H1  UNL     1       4.029   0.522  14.567  1.00  0.00     0.210 HD
ENDBRANCH   3  12
BRANCH   8  14
HETATM   14  O3  UNL     1       0.677   0.177   8.920  1.00  0.00    -0.393 OA
ATOM     15  H3  UNL     1       0.736   0.765   8.177  1.00  0.00     0.210 HD
ENDBRANCH   8  14
TORSDOF 3
ENDMDL
MODEL 3
REMARK VINA RESULT: -4.472322793      1.634      4.056
REMARK  3 active torsions:
REMARK  status: ('A' for Active; 'I' for Inactive)
REMARK    1  A    between atoms: C3_3  and  O1_4 
REMARK    2  A    between atoms: C7_10  and  O3_11 
REMARK    3  A    between atoms: C8_13  and  O4_14 
ROOT
HETATM    1  C1  UNL     1       1.494  -1.580  12.376  1.00  0.00     0.016 C 
HETATM    2  C2  UNL     1       0.942  -0.550  13.336  1.00  0.00     0.050 C 
HETATM    3  C3  UNL     1       0.184   0.460  12.459  1.00  0.00     0.148 C 
HETATM    4  C4  UNL     1       1.341   1.282  11.939  1.00  0.00     0.201 C 
HETATM    5  O2  UNL     1       2.408   1.097  12.767  1.00  0.00    -0.374 OA
HETATM    6  C5  UNL     1       2.017   0.376  13.860  1.00  0.00     0.097 C 
HETATM    7  C6  UNL     1       1.496   1.195  15.015  1.00  0.00     0.075 C 
HETATM    8  C7  UNL     1       2.795   0.856  15.752  1.00  0.00     0.152 C 
HETATM    9  C8  UNL     1       3.071  -0.227  14.700  1.00  0.00     0.182 C 
ENDROOT
BRANCH   9  10
HETATM   10  O4  UNL     1       2.846  -1.512  15.184  1.00  0.00    -0.390 OA
ATOM     11  H4  UNL     1       3.510  -2.168  15.008  1.00  0.00     0.210 HD
ENDBRANCH   9  10
BRANCH   3  12
HETATM   12  O1  UNL     1      -0.531  -0.155  11.463  1.00  0.00    -0.393 OA
ATOM     13  H1  UNL     1      -1.443  -0.279  11.700  1.00  0.00     0.210 HD
ENDBRANCH   3  12
BRANCH   8  14
HETATM   14  O3  UNL     1       2.589   0.381  17.026  1.00  0.00    -0.393 OA
ATOM     15  H3  UNL     1       3.352   0.467  17.586  1.00  0.00     0.210 HD
ENDBRANCH   8  14
TORSDOF 3
ENDMDL
MODEL 4
REMARK VINA RESULT: -4.454023518      1.851      2.286
REMARK  3 active torsions:
REMARK  status: ('A' for Active; 'I' for Inactive)
REMARK    1  A    between atoms: C3_3  and  O1_4 
REMARK    2  A    between atoms: C7_10  and  O3_11 
REMARK    3  A    between atoms: C8_13  and  O4_14 
ROOT
HETATM    1  C1  UNL     1       1.502  -1.614  12.816  1.00  0.00     0.016 C 
HETATM    2  C2  UNL     1       2.236  -0.438  13.421  1.00  0.00     0.050 C 
HETATM    3  C3  UNL     1       2.437  -0.801  14.901  1.00  0.00     0.148 C 
HETATM    4  C4  UNL     1       1.067  -0.472  15.445  1.00  0.00     0.201 C 
HETATM    5  O2  UNL     1       0.448   0.375  14.574  1.00  0.00    -0.374 OA
HETATM    6  C5  UNL     1       1.335   0.762  13.608  1.00  0.00     0.097 C 
HETATM    7  C6  UNL     1       2.147   1.990  13.940  1.00  0.00     0.075 C 
HETATM    8  C7  UNL     1       1.304   2.742  12.906  1.00  0.00     0.152 C 
HETATM    9  C8  UNL     1       0.792   1.391  12.388  1.00  0.00     0.182 C 
ENDROOT
BRANCH   9  10
HETATM   10  O4  UNL     1       1.368   1.032  11.173  1.00  0.00    -0.390 OA
ATOM     11  H4  UNL     1       1.520   1.725  10.540  1.00  0.00     0.210 HD
ENDBRANCH   9  10
BRANCH   3  12
HETATM   12  O1  UNL     1       2.783  -2.118  15.068  1.00  0.00    -0.393 OA
ATOM     13  H1  UNL     1       3.682  -2.219  15.357  1.00  0.00     0.210 HD
ENDBRANCH   3  12
BRANCH   8  14
HETATM   14  O3  UNL     1       2.059   3.456  12.005  1.00  0.00    -0.393 OA
ATOM     15  H3  UNL     1       1.565   3.744  11.246  1.00  0.00     0.210 HD
ENDBRANCH   8  14
TORSDOF 3
ENDMDL
MODEL 5
REMARK VINA RESULT: -4.385755384      1.236      4.079
REMARK  3 active torsions:
REMARK  status: ('A' for Active; 'I' for Inactive)
REMARK    1  A    between atoms: C3_3  and  O1_4 
REMARK    2  A    between atoms: C7_10  and  O3_11 
REMARK    3  A    between atoms: C8_13  and  O4_14 
ROOT
HETATM    1  C1  UNL     1       0.922   2.198  12.020  1.00  0.00     0.016 C 
HETATM    2  C2  UNL     1       1.519   0.815  11.888  1.00  0.00     0.050 C 
HETATM    3  C3  UNL     1       0.828   0.187  10.667  1.00  0.00     0.148 C 
HETATM    4  C4  UNL     1      -0.485  -0.229  11.289  1.00  0.00     0.201 C 
HETATM    5  O2  UNL     1      -0.320  -0.298  12.641  1.00  0.00    -0.374 OA
HETATM    6  C5  UNL     1       1.002  -0.133  12.947  1.00  0.00     0.097 C 
HETATM    7  C6  UNL     1       1.818  -1.402  12.967  1.00  0.00     0.075 C 
HETATM    8  C7  UNL     1       1.858  -1.271  14.492  1.00  0.00     0.152 C 
HETATM    9  C8  UNL     1       1.352   0.171  14.349  1.00  0.00     0.182 C 
ENDROOT
BRANCH   9  10
HETATM   10  O4  UNL     1       2.352   1.113  14.568  1.00  0.00    -0.390 OA
ATOM     11  H4  UNL     1       3.248   0.846  14.401  1.00  0.00     0.210 HD
ENDBRANCH   9  10
BRANCH   3  12
HETATM   12  O1  UNL     1       0.678   1.084   9.640  1.00  0.00    -0.393 OA
ATOM     13  H1  UNL     1       1.458   1.146   9.102  1.00  0.00     0.210 HD
ENDBRANCH   3  12
BRANCH   8  14
HETATM   14  O3  UNL     1       3.125  -1.386  15.015  1.00  0.00    -0.393 OA
ATOM     15  H3  UNL     1       3.457  -0.574  15.378  1.00  0.00     0.210 HD
ENDBRANCH   8  14
TORSDOF 3
ENDMDL
