MODEL 1
REMARK VINA RESULT: -9.219407396      0.000      0.000
REMARK  5 active torsions:
REMARK  status: ('A' for Active; 'I' for Inactive)
REMARK    1  A    between atoms: C2_5  and  N3_6 
REMARK    2  A    between atoms: C2_5  and  C10_18 
REMARK    3  A    between atoms: N3_6  and  O1_8 
REMARK    4  A    between atoms: O1_8  and  C3_9 
REMARK    5  A    between atoms: C3_9  and  C4_11 
ROOT
HETATM    1  N1  UNL     1       2.018  34.967  27.650  1.00  0.00    -0.172 NA
HETATM    2  C1  UNL     1       0.994  35.097  27.103  1.00  0.00     0.183 C 
HETATM    3  N2  UNL     1      -0.256  35.266  26.462  1.00  0.00    -0.276 N 
ATOM      4  H2  UNL     1      -1.066  35.565  27.005  1.00  0.00     0.179 HD
HETATM    5  C2  UNL     1      -0.378  35.047  25.214  1.00  0.00     0.164 C 
ENDROOT
BRANCH   5   6
HETATM    6  N3  UNL     1      -1.658  35.234  24.628  1.00  0.00    -0.238 N 
ATOM      7  H3  UNL     1      -1.772  36.038  24.010  1.00  0.00     0.196 HD
BRANCH   6   8
HETATM    8  O1  UNL     1      -2.738  34.446  24.812  1.00  0.00    -0.193 OA
BRANCH   8   9
HETATM    9  C3  UNL     1      -3.116  33.434  23.970  1.00  0.00     0.316 C 
HETATM   10  O2  UNL     1      -2.746  33.521  22.752  1.00  0.00    -0.257 OA
BRANCH   9  11
HETATM   11  C4  UNL     1      -3.909  32.284  24.399  1.00  0.00     0.063 A 
HETATM   12  C5  UNL     1      -3.209  31.173  24.829  1.00  0.00     0.019 A 
HETATM   13  C6  UNL     1      -3.873  30.029  25.266  1.00  0.00     0.001 A 
HETATM   14  C7  UNL     1      -5.254  29.976  25.279  1.00  0.00     0.002 A 
HETATM   15  C8  UNL     1      -5.938  31.100  24.845  1.00  0.00     0.025 A 
HETATM   16  C9  UNL     1      -5.278  32.242  24.410  1.00  0.00     0.050 A 
HETATM   17 CL1  UNL     1      -6.123  33.668  23.855  1.00  0.00    -0.083 Cl
ENDBRANCH   9  11
ENDBRANCH   8   9
ENDBRANCH   6   8
ENDBRANCH   5   6
BRANCH   5  18
HETATM   18  C10 UNL     1       0.728  34.618  24.371  1.00  0.00     0.104 A 
HETATM   19  C11 UNL     1       0.641  33.615  23.402  1.00  0.00     0.086 A 
HETATM   20  C12 UNL     1       1.849  33.457  22.791  1.00  0.00     0.180 A 
HETATM   21  C13 UNL     1       2.206  32.546  21.750  1.00  0.00     0.127 C 
HETATM   22  O3  UNL     1       2.635  34.338  23.382  1.00  0.00    -0.226 OA
HETATM   23  N4  UNL     1       2.476  31.822  20.902  1.00  0.00    -0.189 NA
HETATM   24  N5  UNL     1       2.009  35.018  24.296  1.00  0.00    -0.256 N 
ATOM     25  H5  UNL     1       2.429  35.748  24.872  1.00  0.00     0.195 HD
ENDBRANCH   5  18
TORSDOF 5
ENDMDL
MODEL 2
REMARK VINA RESULT: -9.160321484      1.446      1.836
REMARK  5 active torsions:
REMARK  status: ('A' for Active; 'I' for Inactive)
REMARK    1  A    between atoms: C2_5  and  N3_6 
REMARK    2  A    between atoms: C2_5  and  C10_18 
REMARK    3  A    between atoms: N3_6  and  O1_8 
REMARK    4  A    between atoms: O1_8  and  C3_9 
REMARK    5  A    between atoms: C3_9  and  C4_11 
ROOT
HETATM    1  N1  UNL     1       0.356  38.747  25.127  1.00  0.00    -0.172 NA
HETATM    2  C1  UNL     1      -0.577  38.064  25.292  1.00  0.00     0.183 C 
HETATM    3  N2  UNL     1      -1.724  37.260  25.492  1.00  0.00    -0.276 N 
ATOM      4  H2  UNL     1      -2.624  37.701  25.686  1.00  0.00     0.179 HD
HETATM    5  C2  UNL     1      -1.642  35.991  25.432  1.00  0.00     0.164 C 
ENDROOT
BRANCH   5   6
HETATM    6  N3  UNL     1      -2.828  35.237  25.641  1.00  0.00    -0.238 N 
ATOM      7  H3  UNL     1      -3.021  34.935  26.596  1.00  0.00     0.196 HD
BRANCH   6   8
HETATM    8  O1  UNL     1      -3.721  34.883  24.694  1.00  0.00    -0.193 OA
BRANCH   8   9
HETATM    9  C3  UNL     1      -3.655  33.735  23.950  1.00  0.00     0.316 C 
HETATM   10  O2  UNL     1      -3.052  33.803  22.828  1.00  0.00    -0.257 OA
BRANCH   9  11
HETATM   11  C4  UNL     1      -4.233  32.464  24.380  1.00  0.00     0.063 A 
HETATM   12  C5  UNL     1      -3.346  31.486  24.788  1.00  0.00     0.019 A 
HETATM   13  C6  UNL     1      -3.798  30.242  25.222  1.00  0.00     0.001 A 
HETATM   14  C7  UNL     1      -5.150  29.953  25.255  1.00  0.00     0.002 A 
HETATM   15  C8  UNL     1      -6.022  30.948  24.843  1.00  0.00     0.025 A 
HETATM   16  C9  UNL     1      -5.574  32.189  24.410  1.00  0.00     0.050 A 
HETATM   17 CL1  UNL     1      -6.659  33.454  23.882  1.00  0.00    -0.083 Cl
ENDBRANCH   9  11
ENDBRANCH   8   9
ENDBRANCH   6   8
ENDBRANCH   5   6
BRANCH   5  18
HETATM   18  C10 UNL     1      -0.398  35.287  25.160  1.00  0.00     0.104 A 
HETATM   19  C11 UNL     1      -0.030  34.783  23.910  1.00  0.00     0.086 A 
HETATM   20  C12 UNL     1       1.190  34.183  23.994  1.00  0.00     0.180 A 
HETATM   21  C13 UNL     1       1.936  33.538  22.960  1.00  0.00     0.127 C 
HETATM   22  O3  UNL     1       1.539  34.322  25.260  1.00  0.00    -0.226 OA
HETATM   23  N4  UNL     1       2.534  33.038  22.118  1.00  0.00    -0.189 NA
HETATM   24  N5  UNL     1       0.639  34.956  25.950  1.00  0.00    -0.256 N 
ATOM     25  H5  UNL     1       0.708  35.170  26.945  1.00  0.00     0.195 HD
ENDBRANCH   5  18
TORSDOF 5
ENDMDL
MODEL 3
REMARK VINA RESULT: -9.048643423      1.806      2.368
REMARK  5 active torsions:
REMARK  status: ('A' for Active; 'I' for Inactive)
REMARK    1  A    between atoms: C2_5  and  N3_6 
REMARK    2  A    between atoms: C2_5  and  C10_18 
REMARK    3  A    between atoms: N3_6  and  O1_8 
REMARK    4  A    between atoms: O1_8  and  C3_9 
REMARK    5  A    between atoms: C3_9  and  C4_11 
ROOT
HETATM    1  N1  UNL     1       0.401  38.736  25.160  1.00  0.00    -0.172 NA
HETATM    2  C1  UNL     1      -0.556  38.081  25.291  1.00  0.00     0.183 C 
HETATM    3  N2  UNL     1      -1.732  37.310  25.449  1.00  0.00    -0.276 N 
ATOM      4  H2  UNL     1      -2.626  37.776  25.606  1.00  0.00     0.179 HD
HETATM    5  C2  UNL     1      -1.683  36.038  25.397  1.00  0.00     0.164 C 
ENDROOT
BRANCH   5   6
HETATM    6  N3  UNL     1      -2.896  35.319  25.562  1.00  0.00    -0.238 N 
ATOM      7  H3  UNL     1      -3.162  35.073  26.516  1.00  0.00     0.196 HD
BRANCH   6   8
HETATM    8  O1  UNL     1      -3.730  34.930  24.575  1.00  0.00    -0.193 OA
BRANCH   8   9
HETATM    9  C3  UNL     1      -3.606  33.765  23.864  1.00  0.00     0.316 C 
HETATM   10  O2  UNL     1      -3.020  33.833  22.733  1.00  0.00    -0.257 OA
BRANCH   9  11
HETATM   11  C4  UNL     1      -4.107  32.477  24.338  1.00  0.00     0.063 A 
HETATM   12  C5  UNL     1      -5.477  32.352  24.465  1.00  0.00     0.019 A 
HETATM   13  C6  UNL     1      -6.053  31.162  24.901  1.00  0.00     0.001 A 
HETATM   14  C7  UNL     1      -5.266  30.071  25.221  1.00  0.00     0.002 A 
HETATM   15  C8  UNL     1      -3.894  30.216  25.086  1.00  0.00     0.025 A 
HETATM   16  C9  UNL     1      -3.318  31.401  24.650  1.00  0.00     0.050 A 
HETATM   17 CL1  UNL     1      -1.590  31.605  24.478  1.00  0.00    -0.083 Cl
ENDBRANCH   9  11
ENDBRANCH   8   9
ENDBRANCH   6   8
ENDBRANCH   5   6
BRANCH   5  18
HETATM   18  C10 UNL     1      -0.449  35.299  25.176  1.00  0.00     0.104 A 
HETATM   19  C11 UNL     1      -0.034  34.802  23.938  1.00  0.00     0.086 A 
HETATM   20  C12 UNL     1       1.160  34.162  24.073  1.00  0.00     0.180 A 
HETATM   21  C13 UNL     1       1.937  33.508  23.067  1.00  0.00     0.127 C 
HETATM   22  O3  UNL     1       1.449  34.270  25.357  1.00  0.00    -0.226 OA
HETATM   23  N4  UNL     1       2.561  33.002  22.248  1.00  0.00    -0.189 NA
HETATM   24  N5  UNL     1       0.535  34.922  26.011  1.00  0.00    -0.256 N 
ATOM     25  H5  UNL     1       0.560  35.119  27.012  1.00  0.00     0.195 HD
ENDBRANCH   5  18
TORSDOF 5
ENDMDL
MODEL 4
REMARK VINA RESULT: -8.915675975      3.088      4.948
REMARK  5 active torsions:
REMARK  status: ('A' for Active; 'I' for Inactive)
REMARK    1  A    between atoms: C2_5  and  N3_6 
REMARK    2  A    between atoms: C2_5  and  C10_18 
REMARK    3  A    between atoms: N3_6  and  O1_8 
REMARK    4  A    between atoms: O1_8  and  C3_9 
REMARK    5  A    between atoms: C3_9  and  C4_11 
ROOT
HETATM    1  N1  UNL     1      -4.363  36.874  19.529  1.00  0.00    -0.172 NA
HETATM    2  C1  UNL     1      -4.934  36.531  20.488  1.00  0.00     0.183 C 
HETATM    3  N2  UNL     1      -5.648  36.107  21.634  1.00  0.00    -0.276 N 
ATOM      4  H2  UNL     1      -6.612  35.786  21.539  1.00  0.00     0.179 HD
HETATM    5  C2  UNL     1      -5.097  36.124  22.781  1.00  0.00     0.164 C 
ENDROOT
BRANCH   5   6
HETATM    6  N3  UNL     1      -5.864  35.686  23.894  1.00  0.00    -0.238 N 
ATOM      7  H3  UNL     1      -6.596  36.314  24.227  1.00  0.00     0.196 HD
BRANCH   6   8
HETATM    8  O1  UNL     1      -5.713  34.518  24.552  1.00  0.00    -0.193 OA
BRANCH   8   9
HETATM    9  C3  UNL     1      -5.962  33.283  24.013  1.00  0.00     0.316 C 
HETATM   10  O2  UNL     1      -6.776  33.229  23.033  1.00  0.00    -0.257 OA
BRANCH   9  11
HETATM   11  C4  UNL     1      -5.346  32.052  24.504  1.00  0.00     0.063 A 
HETATM   12  C5  UNL     1      -3.971  31.964  24.403  1.00  0.00     0.019 A 
HETATM   13  C6  UNL     1      -3.289  30.834  24.850  1.00  0.00     0.001 A 
HETATM   14  C7  UNL     1      -3.973  29.770  25.407  1.00  0.00     0.002 A 
HETATM   15  C8  UNL     1      -5.351  29.879  25.500  1.00  0.00     0.025 A 
HETATM   16  C9  UNL     1      -6.033  31.004  25.056  1.00  0.00     0.050 A 
HETATM   17 CL1  UNL     1      -7.771  31.158  25.161  1.00  0.00    -0.083 Cl
ENDBRANCH   9  11
ENDBRANCH   8   9
ENDBRANCH   6   8
ENDBRANCH   5   6
BRANCH   5  18
HETATM   18  C10 UNL     1      -3.728  36.568  22.999  1.00  0.00     0.104 A 
HETATM   19  C11 UNL     1      -2.756  35.831  23.680  1.00  0.00     0.086 A 
HETATM   20  C12 UNL     1      -1.584  36.525  23.708  1.00  0.00     0.180 A 
HETATM   21  C13 UNL     1      -0.340  36.146  24.300  1.00  0.00     0.127 C 
HETATM   22  O3  UNL     1      -1.851  37.647  23.065  1.00  0.00    -0.226 OA
HETATM   23  N4  UNL     1       0.658  35.823  24.764  1.00  0.00    -0.189 NA
HETATM   24  N5  UNL     1      -3.081  37.692  22.648  1.00  0.00    -0.256 N 
ATOM     25  H5  UNL     1      -3.495  38.468  22.129  1.00  0.00     0.195 HD
ENDBRANCH   5  18
TORSDOF 5
ENDMDL
MODEL 5
REMARK VINA RESULT: -8.753614941      4.122      5.431
REMARK  5 active torsions:
REMARK  status: ('A' for Active; 'I' for Inactive)
REMARK    1  A    between atoms: C2_5  and  N3_6 
REMARK    2  A    between atoms: C2_5  and  C10_18 
REMARK    3  A    between atoms: N3_6  and  O1_8 
REMARK    4  A    between atoms: O1_8  and  C3_9 
REMARK    5  A    between atoms: C3_9  and  C4_11 
ROOT
HETATM    1  N1  UNL     1      -4.312  37.202  19.295  1.00  0.00    -0.172 NA
HETATM    2  C1  UNL     1      -4.716  36.769  20.301  1.00  0.00     0.183 C 
HETATM    3  N2  UNL     1      -5.224  36.228  21.506  1.00  0.00    -0.276 N 
ATOM      4  H2  UNL     1      -6.020  35.591  21.479  1.00  0.00     0.179 HD
HETATM    5  C2  UNL     1      -4.694  36.530  22.624  1.00  0.00     0.164 C 
ENDROOT
BRANCH   5   6
HETATM    6  N3  UNL     1      -5.247  35.956  23.799  1.00  0.00    -0.238 N 
ATOM      7  H3  UNL     1      -5.917  36.522  24.320  1.00  0.00     0.196 HD
BRANCH   6   8
HETATM    8  O1  UNL     1      -4.969  34.730  24.290  1.00  0.00    -0.193 OA
BRANCH   8   9
HETATM    9  C3  UNL     1      -5.575  33.571  23.883  1.00  0.00     0.316 C 
HETATM   10  O2  UNL     1      -6.484  33.672  22.993  1.00  0.00    -0.257 OA
BRANCH   9  11
HETATM   11  C4  UNL     1      -5.233  32.254  24.413  1.00  0.00     0.063 A 
HETATM   12  C5  UNL     1      -6.285  31.451  24.807  1.00  0.00     0.019 A 
HETATM   13  C6  UNL     1      -6.063  30.175  25.319  1.00  0.00     0.001 A 
HETATM   14  C7  UNL     1      -4.780  29.678  25.448  1.00  0.00     0.002 A 
HETATM   15  C8  UNL     1      -3.738  30.499  25.046  1.00  0.00     0.025 A 
HETATM   16  C9  UNL     1      -3.956  31.771  24.535  1.00  0.00     0.050 A 
HETATM   17 CL1  UNL     1      -2.655  32.823  24.028  1.00  0.00    -0.083 Cl
ENDBRANCH   9  11
ENDBRANCH   8   9
ENDBRANCH   6   8
ENDBRANCH   5   6
BRANCH   5  18
HETATM   18  C10 UNL     1      -3.557  37.430  22.746  1.00  0.00     0.104 A 
HETATM   19  C11 UNL     1      -2.576  37.335  23.737  1.00  0.00     0.086 A 
HETATM   20  C12 UNL     1      -1.654  38.325  23.571  1.00  0.00     0.180 A 
HETATM   21  C13 UNL     1      -0.492  38.598  24.357  1.00  0.00     0.127 C 
HETATM   22  O3  UNL     1      -2.076  38.994  22.514  1.00  0.00    -0.226 OA
HETATM   23  N4  UNL     1       0.447  38.797  24.985  1.00  0.00    -0.189 NA
HETATM   24  N5  UNL     1      -3.171  38.495  22.023  1.00  0.00    -0.256 N 
ATOM     25  H5  UNL     1      -3.665  38.858  21.207  1.00  0.00     0.195 HD
ENDBRANCH   5  18
TORSDOF 5
ENDMDL
