MODEL 1
REMARK VINA RESULT: -8.088275299      0.000      0.000
REMARK  3 active torsions:
REMARK  status: ('A' for Active; 'I' for Inactive)
REMARK    1  A    between atoms: N1_2  and  C1_4 
REMARK    2  A    between atoms: N4_9  and  C2_10 
REMARK    3  A    between atoms: C8_16  and  N5_17 
ROOT
HETATM    1  C1  UNL     1       0.222  33.559  23.735  1.00  0.00     0.235 A 
HETATM    2  N2  UNL     1      -0.051  32.271  23.382  1.00  0.00    -0.263 N 
ATOM      3  H2  UNL     1       0.611  31.591  23.008  1.00  0.00     0.190 HD
HETATM    4  N3  UNL     1      -1.300  32.076  23.610  1.00  0.00    -0.237 N 
ATOM      5  H3  UNL     1      -1.780  31.193  23.437  1.00  0.00     0.208 HD
HETATM    6  N4  UNL     1      -1.894  33.162  24.099  1.00  0.00    -0.254 N 
HETATM    7  C8  UNL     1      -0.941  34.135  24.192  1.00  0.00     0.176 A 
ENDROOT
BRANCH   7   8
HETATM    8  N5  UNL     1      -1.188  35.433  24.646  1.00  0.00    -0.342 N 
HETATM    9  C9  UNL     1      -0.952  35.770  26.064  1.00  0.00     0.145 C 
HETATM   10  C10 UNL     1      -0.407  37.162  26.201  1.00  0.00     0.133 C 
HETATM   11  N6  UNL     1       0.234  37.634  24.997  1.00  0.00    -0.417 N 
HETATM   12  C11 UNL     1      -0.579  37.635  23.824  1.00  0.00     0.155 C 
ATOM     13  H6  UNL     1       1.205  37.947  24.986  1.00  0.00     0.153 HD
HETATM   14  C12 UNL     1      -1.669  36.574  23.876  1.00  0.00     0.200 C 
HETATM   15 CL1  UNL     1      -3.037  37.405  24.672  1.00  0.00    -0.101 Cl
ENDBRANCH   7   8
BRANCH   1  16
HETATM   16  N1  UNL     1       1.498  34.141  23.618  1.00  0.00    -0.092 N 
HETATM   17  O1  UNL     1       1.935  34.975  24.404  1.00  0.00    -0.530 OA
HETATM   18  O2  UNL     1       2.306  33.741  22.582  1.00  0.00    -0.530 OA
ENDBRANCH   1  16
BRANCH   6  19
HETATM   19  C2  UNL     1      -3.281  33.225  24.427  1.00  0.00     0.111 C 
HETATM   20  C3  UNL     1      -3.954  34.113  23.366  1.00  0.00     0.027 C 
HETATM   21  C4  UNL     1      -5.399  34.329  23.619  1.00  0.00     0.002 C 
HETATM   22  C5  UNL     1      -6.137  33.009  23.782  1.00  0.00     0.000 C 
HETATM   23  C6  UNL     1      -5.453  32.263  24.892  1.00  0.00     0.002 C 
HETATM   24  C7  UNL     1      -4.032  31.935  24.394  1.00  0.00     0.027 C 
ENDBRANCH   6  19
TORSDOF 3
ENDMDL
MODEL 2
REMARK VINA RESULT: -7.753102084      1.097      1.620
REMARK  3 active torsions:
REMARK  status: ('A' for Active; 'I' for Inactive)
REMARK    1  A    between atoms: N1_2  and  C1_4 
REMARK    2  A    between atoms: N4_9  and  C2_10 
REMARK    3  A    between atoms: C8_16  and  N5_17 
ROOT
HETATM    1  C1  UNL     1       0.384  33.569  23.682  1.00  0.00     0.235 A 
HETATM    2  N2  UNL     1       0.029  32.340  23.211  1.00  0.00    -0.263 N 
ATOM      3  H2  UNL     1       0.647  31.654  22.776  1.00  0.00     0.190 HD
HETATM    4  N3  UNL     1      -1.232  32.210  23.416  1.00  0.00    -0.237 N 
ATOM      5  H3  UNL     1      -1.769  31.381  23.161  1.00  0.00     0.208 HD
HETATM    6  N4  UNL     1      -1.757  33.284  24.002  1.00  0.00    -0.254 N 
HETATM    7  C8  UNL     1      -0.742  34.178  24.187  1.00  0.00     0.176 A 
ENDROOT
BRANCH   7   8
HETATM    8  N5  UNL     1      -0.906  35.442  24.758  1.00  0.00    -0.342 N 
HETATM    9  C9  UNL     1      -1.035  36.627  23.886  1.00  0.00     0.145 C 
HETATM   10  C10 UNL     1      -2.011  37.611  24.461  1.00  0.00     0.133 C 
HETATM   11  N6  UNL     1      -2.947  37.004  25.377  1.00  0.00    -0.417 N 
HETATM   12  C11 UNL     1      -2.369  36.318  26.487  1.00  0.00     0.155 C 
ATOM     13  H6  UNL     1      -3.956  37.063  25.239  1.00  0.00     0.153 HD
HETATM   14  C12 UNL     1      -0.978  35.783  26.173  1.00  0.00     0.200 C 
HETATM   15 CL1  UNL     1       0.108  37.136  26.605  1.00  0.00    -0.101 Cl
ENDBRANCH   7   8
BRANCH   1  16
HETATM   16  N1  UNL     1       1.697  34.072  23.622  1.00  0.00    -0.092 N 
HETATM   17  O1  UNL     1       2.198  34.758  24.507  1.00  0.00    -0.530 OA
HETATM   18  O2  UNL     1       2.467  33.762  22.528  1.00  0.00    -0.530 OA
ENDBRANCH   1  16
BRANCH   6  19
HETATM   19  C2  UNL     1      -3.139  33.410  24.330  1.00  0.00     0.111 C 
HETATM   20  C3  UNL     1      -3.780  34.296  23.250  1.00  0.00     0.027 C 
HETATM   21  C4  UNL     1      -5.214  34.575  23.499  1.00  0.00     0.002 C 
HETATM   22  C5  UNL     1      -6.004  33.290  23.696  1.00  0.00     0.000 C 
HETATM   23  C6  UNL     1      -5.347  32.545  24.823  1.00  0.00     0.002 C 
HETATM   24  C7  UNL     1      -3.941  32.150  24.331  1.00  0.00     0.027 C 
ENDBRANCH   6  19
TORSDOF 3
ENDMDL
MODEL 3
REMARK VINA RESULT: -7.449711146      4.292      5.541
REMARK  3 active torsions:
REMARK  status: ('A' for Active; 'I' for Inactive)
REMARK    1  A    between atoms: N1_2  and  C1_4 
REMARK    2  A    between atoms: N4_9  and  C2_10 
REMARK    3  A    between atoms: C8_16  and  N5_17 
ROOT
HETATM    1  C1  UNL     1      -6.712  34.964  23.509  1.00  0.00     0.235 A 
HETATM    2  N2  UNL     1      -7.220  33.727  23.772  1.00  0.00    -0.263 N 
ATOM      3  H2  UNL     1      -8.200  33.448  23.715  1.00  0.00     0.190 HD
HETATM    4  N3  UNL     1      -6.231  32.979  24.106  1.00  0.00    -0.237 N 
ATOM      5  H3  UNL     1      -6.320  31.994  24.358  1.00  0.00     0.208 HD
HETATM    6  N4  UNL     1      -5.075  33.639  24.087  1.00  0.00    -0.254 N 
HETATM    7  C8  UNL     1      -5.351  34.921  23.705  1.00  0.00     0.176 A 
ENDROOT
BRANCH   7   8
HETATM    8  N5  UNL     1      -4.389  35.927  23.589  1.00  0.00    -0.342 N 
HETATM    9  C9  UNL     1      -4.039  36.454  22.254  1.00  0.00     0.145 C 
HETATM   10  C10 UNL     1      -3.774  37.930  22.313  1.00  0.00     0.133 C 
HETATM   11  N6  UNL     1      -4.398  38.567  23.448  1.00  0.00    -0.417 N 
HETATM   12  C11 UNL     1      -4.038  38.044  24.726  1.00  0.00     0.155 C 
ATOM     13  H6  UNL     1      -5.054  39.342  23.343  1.00  0.00     0.153 HD
HETATM   14  C12 UNL     1      -3.639  36.576  24.657  1.00  0.00     0.200 C 
HETATM   15 CL1  UNL     1      -1.882  36.627  24.323  1.00  0.00    -0.101 Cl
ENDBRANCH   7   8
BRANCH   1  16
HETATM   16  N1  UNL     1      -7.504  36.060  23.116  1.00  0.00    -0.092 N 
HETATM   17  O1  UNL     1      -8.298  36.019  22.183  1.00  0.00    -0.530 OA
HETATM   18  O2  UNL     1      -7.398  37.230  23.827  1.00  0.00    -0.530 OA
ENDBRANCH   1  16
BRANCH   6  19
HETATM   19  C2  UNL     1      -3.822  33.051  24.430  1.00  0.00     0.111 C 
HETATM   20  C3  UNL     1      -4.053  31.535  24.546  1.00  0.00     0.027 C 
HETATM   21  C4  UNL     1      -2.842  30.792  24.970  1.00  0.00     0.002 C 
HETATM   22  C5  UNL     1      -1.656  31.101  24.067  1.00  0.00     0.000 C 
HETATM   23  C6  UNL     1      -1.469  32.591  24.093  1.00  0.00     0.002 C 
HETATM   24  C7  UNL     1      -2.719  33.205  23.435  1.00  0.00     0.027 C 
ENDBRANCH   6  19
TORSDOF 3
ENDMDL
MODEL 4
REMARK VINA RESULT: -7.413525269      2.648      3.778
REMARK  3 active torsions:
REMARK  status: ('A' for Active; 'I' for Inactive)
REMARK    1  A    between atoms: N1_2  and  C1_4 
REMARK    2  A    between atoms: N4_9  and  C2_10 
REMARK    3  A    between atoms: C8_16  and  N5_17 
ROOT
HETATM    1  C1  UNL     1      -0.561  37.171  24.119  1.00  0.00     0.235 A 
HETATM    2  N2  UNL     1       0.476  36.308  24.311  1.00  0.00    -0.263 N 
ATOM      3  H2  UNL     1       1.448  36.558  24.492  1.00  0.00     0.190 HD
HETATM    4  N3  UNL     1      -0.003  35.120  24.219  1.00  0.00    -0.237 N 
ATOM      5  H3  UNL     1       0.553  34.271  24.322  1.00  0.00     0.208 HD
HETATM    6  N4  UNL     1      -1.311  35.125  23.973  1.00  0.00    -0.254 N 
HETATM    7  C8  UNL     1      -1.702  36.432  23.904  1.00  0.00     0.176 A 
ENDROOT
BRANCH   7   8
HETATM    8  N5  UNL     1      -3.009  36.845  23.637  1.00  0.00    -0.342 N 
HETATM    9  C9  UNL     1      -3.813  37.466  24.710  1.00  0.00     0.145 C 
HETATM   10  C10 UNL     1      -4.681  38.561  24.162  1.00  0.00     0.133 C 
HETATM   11  N6  UNL     1      -4.188  39.099  22.917  1.00  0.00    -0.417 N 
HETATM   12  C11 UNL     1      -4.019  38.156  21.860  1.00  0.00     0.155 C 
ATOM     13  H6  UNL     1      -3.974  40.090  22.801  1.00  0.00     0.153 HD
HETATM   14  C12 UNL     1      -3.739  36.752  22.379  1.00  0.00     0.200 C 
HETATM   15 CL1  UNL     1      -5.366  36.040  22.585  1.00  0.00    -0.101 Cl
ENDBRANCH   7   8
BRANCH   1  16
HETATM   16  N1  UNL     1      -0.419  38.571  24.140  1.00  0.00    -0.092 N 
HETATM   17  O1  UNL     1      -1.054  39.325  23.411  1.00  0.00    -0.530 OA
HETATM   18  O2  UNL     1       0.460  39.125  25.038  1.00  0.00    -0.530 OA
ENDBRANCH   1  16
BRANCH   6  19
HETATM   19  C2  UNL     1      -2.091  33.942  23.810  1.00  0.00     0.111 C 
HETATM   20  C3  UNL     1      -1.204  32.757  24.230  1.00  0.00     0.027 C 
HETATM   21  C4  UNL     1      -1.863  31.442  24.045  1.00  0.00     0.002 C 
HETATM   22  C5  UNL     1      -3.214  31.395  24.745  1.00  0.00     0.000 C 
HETATM   23  C6  UNL     1      -4.023  32.538  24.203  1.00  0.00     0.002 C 
HETATM   24  C7  UNL     1      -3.318  33.832  24.653  1.00  0.00     0.027 C 
ENDBRANCH   6  19
TORSDOF 3
ENDMDL
MODEL 5
REMARK VINA RESULT: -7.315774804      3.594      4.976
REMARK  3 active torsions:
REMARK  status: ('A' for Active; 'I' for Inactive)
REMARK    1  A    between atoms: N1_2  and  C1_4 
REMARK    2  A    between atoms: N4_9  and  C2_10 
REMARK    3  A    between atoms: C8_16  and  N5_17 
ROOT
HETATM    1  C1  UNL     1      -0.230  36.899  27.632  1.00  0.00     0.235 A 
HETATM    2  N2  UNL     1       0.685  35.966  28.018  1.00  0.00    -0.263 N 
ATOM      3  H2  UNL     1       1.112  35.880  28.941  1.00  0.00     0.190 HD
HETATM    4  N3  UNL     1       0.908  35.216  27.000  1.00  0.00    -0.237 N 
ATOM      5  H3  UNL     1       1.556  34.428  27.003  1.00  0.00     0.208 HD
HETATM    6  N4  UNL     1       0.196  35.587  25.939  1.00  0.00    -0.254 N 
HETATM    7  C8  UNL     1      -0.549  36.669  26.313  1.00  0.00     0.176 A 
ENDROOT
BRANCH   7   8
HETATM    8  N5  UNL     1      -1.413  37.358  25.459  1.00  0.00    -0.342 N 
HETATM    9  C9  UNL     1      -0.873  38.387  24.547  1.00  0.00     0.145 C 
HETATM   10  C10 UNL     1      -1.593  38.367  23.230  1.00  0.00     0.133 C 
HETATM   11  N6  UNL     1      -2.229  37.100  22.957  1.00  0.00    -0.417 N 
HETATM   12  C11 UNL     1      -3.169  36.656  23.936  1.00  0.00     0.155 C 
ATOM     13  H6  UNL     1      -2.019  36.558  22.119  1.00  0.00     0.153 HD
HETATM   14  C12 UNL     1      -2.855  37.197  25.324  1.00  0.00     0.200 C 
HETATM   15 CL1  UNL     1      -3.724  38.759  25.380  1.00  0.00    -0.101 Cl
ENDBRANCH   7   8
BRANCH   1  16
HETATM   16  N1  UNL     1      -0.718  37.907  28.485  1.00  0.00    -0.092 N 
HETATM   17  O1  UNL     1      -0.541  39.104  28.287  1.00  0.00    -0.530 OA
HETATM   18  O2  UNL     1      -1.449  37.534  29.586  1.00  0.00    -0.530 OA
ENDBRANCH   1  16
BRANCH   6  19
HETATM   19  C2  UNL     1       0.264  34.935  24.672  1.00  0.00     0.111 C 
HETATM   20  C3  UNL     1       1.694  34.389  24.523  1.00  0.00     0.027 C 
HETATM   21  C4  UNL     1       1.936  33.739  23.212  1.00  0.00     0.002 C 
HETATM   22  C5  UNL     1       0.901  32.661  22.928  1.00  0.00     0.000 C 
HETATM   23  C6  UNL     1      -0.447  33.318  23.017  1.00  0.00     0.002 C 
HETATM   24  C7  UNL     1      -0.630  33.754  24.483  1.00  0.00     0.027 C 
ENDBRANCH   6  19
TORSDOF 3
ENDMDL
