MODEL 1
REMARK VINA RESULT: -7.785321365      0.000      0.000
REMARK  4 active torsions:
REMARK  status: ('A' for Active; 'I' for Inactive)
REMARK    1  A    between atoms: C1_2  and  C2_4 
REMARK    2  A    between atoms: S1_9  and  N1_10 
REMARK    3  A    between atoms: N1_10  and  C5_12 
REMARK    4  A    between atoms: C7_14  and  N2_15 
ROOT
HETATM    1  N1  UNL     1      -1.340  32.386  24.039  1.00  0.00    -0.329 N 
ATOM      2  H1  UNL     1      -1.134  31.387  24.071  1.00  0.00     0.174 HD
ENDROOT
BRANCH   1   3
HETATM    3  S1  UNL     1      -0.126  33.449  24.083  1.00  0.00    -0.010 SA
HETATM    4  C2  UNL     1       0.450  34.530  25.482  1.00  0.00     0.192 C 
HETATM    5  C3  UNL     1       1.950  34.335  25.205  1.00  0.00     0.207 C 
HETATM    6  O3  UNL     1       2.159  34.367  23.832  1.00  0.00    -0.310 OA
HETATM    7  C4  UNL     1       1.413  33.440  23.125  1.00  0.00     0.332 C 
HETATM    8  O4  UNL     1       1.649  32.747  22.106  1.00  0.00    -0.251 OA
BRANCH   4   9
HETATM    9  C1  UNL     1       0.031  35.913  25.236  1.00  0.00     0.190 C 
HETATM   10  O1  UNL     1       0.140  36.754  26.177  1.00  0.00    -0.647 OA
HETATM   11  O2  UNL     1      -0.481  36.383  24.048  1.00  0.00    -0.647 OA
ENDBRANCH   4   9
ENDBRANCH   1   3
BRANCH   1  12
HETATM   12  C5  UNL     1      -2.672  32.813  23.959  1.00  0.00     0.062 A 
HETATM   13  C6  UNL     1      -2.998  34.041  23.433  1.00  0.00     0.067 A 
HETATM   14  C7  UNL     1      -4.329  34.395  23.385  1.00  0.00     0.105 A 
HETATM   15  C8  UNL     1      -5.328  33.558  23.846  1.00  0.00     0.038 A 
HETATM   16  C9  UNL     1      -4.969  32.322  24.373  1.00  0.00     0.029 A 
HETATM   17  C10 UNL     1      -3.648  31.940  24.434  1.00  0.00     0.061 A 
HETATM   18 CL1  UNL     1      -3.206  30.369  25.104  1.00  0.00    -0.082 Cl
BRANCH  14  19
HETATM   19  N2  UNL     1      -4.690  35.673  22.840  1.00  0.00    -0.116 N 
HETATM   20  O5  UNL     1      -5.451  36.433  23.471  1.00  0.00    -0.532 OA
HETATM   21  O6  UNL     1      -4.229  36.106  21.635  1.00  0.00    -0.532 OA
ENDBRANCH  14  19
ENDBRANCH   1  12
TORSDOF 4
ENDMDL
MODEL 2
REMARK VINA RESULT: -7.665359980      3.366      5.169
REMARK  4 active torsions:
REMARK  status: ('A' for Active; 'I' for Inactive)
REMARK    1  A    between atoms: C1_2  and  C2_4 
REMARK    2  A    between atoms: S1_9  and  N1_10 
REMARK    3  A    between atoms: N1_10  and  C5_12 
REMARK    4  A    between atoms: C7_14  and  N2_15 
ROOT
HETATM    1  N1  UNL     1      -2.841  33.698  23.316  1.00  0.00    -0.329 N 
ATOM      2  H1  UNL     1      -1.965  33.570  22.810  1.00  0.00     0.174 HD
ENDROOT
BRANCH   1   3
HETATM    3  S1  UNL     1      -3.535  35.156  23.348  1.00  0.00    -0.010 SA
HETATM    4  C2  UNL     1      -5.024  35.777  22.425  1.00  0.00     0.192 C 
HETATM    5  C3  UNL     1      -5.602  36.575  23.606  1.00  0.00     0.207 C 
HETATM    6  O3  UNL     1      -4.559  37.213  24.265  1.00  0.00    -0.310 OA
HETATM    7  C4  UNL     1      -3.560  36.361  24.702  1.00  0.00     0.332 C 
HETATM    8  O4  UNL     1      -2.829  36.348  25.721  1.00  0.00    -0.251 OA
BRANCH   4   9
HETATM    9  C1  UNL     1      -4.593  36.658  21.336  1.00  0.00     0.190 C 
HETATM   10  O1  UNL     1      -4.716  36.250  20.143  1.00  0.00    -0.647 OA
HETATM   11  O2  UNL     1      -4.056  37.914  21.503  1.00  0.00    -0.647 OA
ENDBRANCH   4   9
ENDBRANCH   1   3
BRANCH   1  12
HETATM   12  C5  UNL     1      -3.423  32.607  23.975  1.00  0.00     0.062 A 
HETATM   13  C6  UNL     1      -4.779  32.547  24.198  1.00  0.00     0.067 A 
HETATM   14  C7  UNL     1      -5.281  31.443  24.852  1.00  0.00     0.105 A 
HETATM   15  C8  UNL     1      -4.469  30.411  25.281  1.00  0.00     0.038 A 
HETATM   16  C9  UNL     1      -3.102  30.497  25.041  1.00  0.00     0.029 A 
HETATM   17  C10 UNL     1      -2.569  31.588  24.390  1.00  0.00     0.061 A 
HETATM   18 CL1  UNL     1      -0.833  31.686  24.092  1.00  0.00    -0.082 Cl
BRANCH  14  19
HETATM   19  N2  UNL     1      -6.694  31.363  25.095  1.00  0.00    -0.116 N 
HETATM   20  O5  UNL     1      -7.177  30.365  25.667  1.00  0.00    -0.532 OA
HETATM   21  O6  UNL     1      -7.554  32.348  24.721  1.00  0.00    -0.532 OA
ENDBRANCH  14  19
ENDBRANCH   1  12
TORSDOF 4
ENDMDL
MODEL 3
REMARK VINA RESULT: -7.645547572      3.470      5.275
REMARK  4 active torsions:
REMARK  status: ('A' for Active; 'I' for Inactive)
REMARK    1  A    between atoms: C1_2  and  C2_4 
REMARK    2  A    between atoms: S1_9  and  N1_10 
REMARK    3  A    between atoms: N1_10  and  C5_12 
REMARK    4  A    between atoms: C7_14  and  N2_15 
ROOT
HETATM    1  N1  UNL     1      -3.799  33.058  23.653  1.00  0.00    -0.329 N 
ATOM      2  H1  UNL     1      -3.125  32.916  22.901  1.00  0.00     0.174 HD
ENDROOT
BRANCH   1   3
HETATM    3  S1  UNL     1      -4.295  34.554  24.003  1.00  0.00    -0.010 SA
HETATM    4  C2  UNL     1      -3.368  36.161  23.904  1.00  0.00     0.192 C 
HETATM    5  C3  UNL     1      -4.546  36.973  23.340  1.00  0.00     0.207 C 
HETATM    6  O3  UNL     1      -5.708  36.585  23.995  1.00  0.00    -0.310 OA
HETATM    7  C4  UNL     1      -5.975  35.230  23.919  1.00  0.00     0.332 C 
HETATM    8  O4  UNL     1      -7.037  34.569  23.821  1.00  0.00    -0.251 OA
BRANCH   4   9
HETATM    9  C1  UNL     1      -3.006  36.601  25.255  1.00  0.00     0.190 C 
HETATM   10  O1  UNL     1      -2.643  35.728  26.098  1.00  0.00    -0.647 OA
HETATM   11  O2  UNL     1      -3.028  37.906  25.693  1.00  0.00    -0.647 OA
ENDBRANCH   4   9
ENDBRANCH   1   3
BRANCH   1  12
HETATM   12  C5  UNL     1      -4.279  31.952  24.367  1.00  0.00     0.062 A 
HETATM   13  C6  UNL     1      -5.618  31.808  24.645  1.00  0.00     0.067 A 
HETATM   14  C7  UNL     1      -6.018  30.694  25.352  1.00  0.00     0.105 A 
HETATM   15  C8  UNL     1      -5.121  29.735  25.781  1.00  0.00     0.038 A 
HETATM   16  C9  UNL     1      -3.773  29.906  25.485  1.00  0.00     0.029 A 
HETATM   17  C10 UNL     1      -3.342  31.007  24.780  1.00  0.00     0.061 A 
HETATM   18 CL1  UNL     1      -1.629  31.213  24.410  1.00  0.00    -0.082 Cl
BRANCH  14  19
HETATM   19  N2  UNL     1      -7.412  30.526  25.653  1.00  0.00    -0.116 N 
HETATM   20  O5  UNL     1      -7.793  30.441  26.838  1.00  0.00    -0.532 OA
HETATM   21  O6  UNL     1      -8.363  30.451  24.682  1.00  0.00    -0.532 OA
ENDBRANCH  14  19
ENDBRANCH   1  12
TORSDOF 4
ENDMDL
MODEL 4
REMARK VINA RESULT: -7.611366101      1.995      2.696
REMARK  4 active torsions:
REMARK  status: ('A' for Active; 'I' for Inactive)
REMARK    1  A    between atoms: C1_2  and  C2_4 
REMARK    2  A    between atoms: S1_9  and  N1_10 
REMARK    3  A    between atoms: N1_10  and  C5_12 
REMARK    4  A    between atoms: C7_14  and  N2_15 
ROOT
HETATM    1  N1  UNL     1      -1.432  34.408  23.430  1.00  0.00    -0.329 N 
ATOM      2  H1  UNL     1      -1.027  34.292  22.502  1.00  0.00     0.174 HD
ENDROOT
BRANCH   1   3
HETATM    3  S1  UNL     1      -0.709  35.381  24.496  1.00  0.00    -0.010 SA
HETATM    4  C2  UNL     1      -1.262  37.028  25.159  1.00  0.00     0.192 C 
HETATM    5  C3  UNL     1      -0.816  36.757  26.606  1.00  0.00     0.207 C 
HETATM    6  O3  UNL     1       0.411  36.107  26.580  1.00  0.00    -0.310 OA
HETATM    7  C4  UNL     1       0.415  34.934  25.846  1.00  0.00     0.332 C 
HETATM    8  O4  UNL     1       0.997  33.832  25.994  1.00  0.00    -0.251 OA
BRANCH   4   9
HETATM    9  C1  UNL     1      -0.470  38.095  24.540  1.00  0.00     0.190 C 
HETATM   10  O1  UNL     1      -0.589  38.291  23.294  1.00  0.00    -0.647 OA
HETATM   11  O2  UNL     1       0.407  38.918  25.210  1.00  0.00    -0.647 OA
ENDBRANCH   4   9
ENDBRANCH   1   3
BRANCH   1  12
HETATM   12  C5  UNL     1      -2.607  33.719  23.762  1.00  0.00     0.062 A 
HETATM   13  C6  UNL     1      -3.834  34.337  23.717  1.00  0.00     0.067 A 
HETATM   14  C7  UNL     1      -4.946  33.598  24.056  1.00  0.00     0.105 A 
HETATM   15  C8  UNL     1      -4.859  32.272  24.435  1.00  0.00     0.038 A 
HETATM   16  C9  UNL     1      -3.605  31.672  24.471  1.00  0.00     0.029 A 
HETATM   17  C10 UNL     1      -2.475  32.384  24.137  1.00  0.00     0.061 A 
HETATM   18 CL1  UNL     1      -0.889  31.612  24.186  1.00  0.00    -0.082 Cl
BRANCH  14  19
HETATM   19  N2  UNL     1      -6.237  34.226  24.017  1.00  0.00    -0.116 N 
HETATM   20  O5  UNL     1      -7.272  33.531  23.974  1.00  0.00    -0.532 OA
HETATM   21  O6  UNL     1      -6.389  35.578  24.022  1.00  0.00    -0.532 OA
ENDBRANCH  14  19
ENDBRANCH   1  12
TORSDOF 4
ENDMDL
MODEL 5
REMARK VINA RESULT: -7.587842357      1.846      2.338
REMARK  4 active torsions:
REMARK  status: ('A' for Active; 'I' for Inactive)
REMARK    1  A    between atoms: C1_2  and  C2_4 
REMARK    2  A    between atoms: S1_9  and  N1_10 
REMARK    3  A    between atoms: N1_10  and  C5_12 
REMARK    4  A    between atoms: C7_14  and  N2_15 
ROOT
HETATM    1  N1  UNL     1      -2.839  32.178  24.297  1.00  0.00    -0.329 N 
ATOM      2  H1  UNL     1      -2.368  31.276  24.368  1.00  0.00     0.174 HD
ENDROOT
BRANCH   1   3
HETATM    3  S1  UNL     1      -1.961  33.521  24.124  1.00  0.00    -0.010 SA
HETATM    4  C2  UNL     1      -2.065  35.130  25.050  1.00  0.00     0.192 C 
HETATM    5  C3  UNL     1      -0.545  35.340  25.143  1.00  0.00     0.207 C 
HETATM    6  O3  UNL     1       0.031  34.977  23.932  1.00  0.00    -0.310 OA
HETATM    7  C4  UNL     1      -0.254  33.682  23.536  1.00  0.00     0.332 C 
HETATM    8  O4  UNL     1       0.411  32.802  22.938  1.00  0.00    -0.251 OA
BRANCH   4   9
HETATM    9  C1  UNL     1      -2.700  36.143  24.202  1.00  0.00     0.190 C 
HETATM   10  O1  UNL     1      -3.053  37.239  24.729  1.00  0.00    -0.647 OA
HETATM   11  O2  UNL     1      -2.951  36.001  22.856  1.00  0.00    -0.647 OA
ENDBRANCH   4   9
ENDBRANCH   1   3
BRANCH   1  12
HETATM   12  C5  UNL     1      -4.239  32.231  24.353  1.00  0.00     0.062 A 
HETATM   13  C6  UNL     1      -4.930  33.332  23.905  1.00  0.00     0.067 A 
HETATM   14  C7  UNL     1      -6.305  33.314  23.990  1.00  0.00     0.105 A 
HETATM   15  C8  UNL     1      -6.995  32.234  24.507  1.00  0.00     0.038 A 
HETATM   16  C9  UNL     1      -6.271  31.134  24.952  1.00  0.00     0.029 A 
HETATM   17  C10 UNL     1      -4.895  31.121  24.880  1.00  0.00     0.061 A 
HETATM   18 CL1  UNL     1      -3.987  29.719  25.448  1.00  0.00    -0.082 Cl
BRANCH  14  19
HETATM   19  N2  UNL     1      -7.046  34.455  23.528  1.00  0.00    -0.116 N 
HETATM   20  O5  UNL     1      -8.252  34.580  23.817  1.00  0.00    -0.532 OA
HETATM   21  O6  UNL     1      -6.478  35.431  22.768  1.00  0.00    -0.532 OA
ENDBRANCH  14  19
ENDBRANCH   1  12
TORSDOF 4
ENDMDL
