MODEL 1
REMARK VINA RESULT: -7.298449137      0.000      0.000
REMARK  5 active torsions:
REMARK  status: ('A' for Active; 'I' for Inactive)
REMARK    1  A    between atoms: N1_2  and  C1_4 
REMARK    2  A    between atoms: C2_10  and  C3_11 
REMARK    3  A    between atoms: C3_11  and  N4_13 
REMARK    4  A    between atoms: N4_13  and  N5_15 
REMARK    5  A    between atoms: C4_17  and  C5_18 
ROOT
HETATM    1  C3  UNL     1      -0.801  33.864  24.415  1.00  0.00     0.146 C 
HETATM    2  S2  UNL     1      -0.048  33.095  23.204  1.00  0.00    -0.056 SA
ENDROOT
BRANCH   1   3
HETATM    3  C2  UNL     1      -0.051  34.469  25.540  1.00  0.00     0.129 A 
HETATM    4  C1  UNL     1      -0.521  35.600  26.155  1.00  0.00     0.192 A 
HETATM    5  S1  UNL     1       0.678  35.868  27.341  1.00  0.00     0.029 SA
HETATM    6  N2  UNL     1       1.670  34.559  26.988  1.00  0.00    -0.267 N 
HETATM    7  N3  UNL     1       1.072  33.974  26.000  1.00  0.00    -0.289 N 
ATOM      8  H2  UNL     1       2.542  34.289  27.444  1.00  0.00     0.195 HD
ATOM      9  H3  UNL     1       1.472  33.134  25.583  1.00  0.00     0.188 HD
BRANCH   4  10
HETATM   10  N1  UNL     1      -1.718  36.357  25.866  1.00  0.00    -0.104 N 
HETATM   11  O1  UNL     1      -2.707  36.205  26.585  1.00  0.00    -0.531 OA
HETATM   12  O2  UNL     1      -1.673  37.198  24.809  1.00  0.00    -0.531 OA
ENDBRANCH   4  10
ENDBRANCH   1   3
BRANCH   1  13
HETATM   13  N4  UNL     1      -2.206  33.967  24.410  1.00  0.00    -0.289 N 
ATOM     14  H4  UNL     1      -2.648  34.866  24.603  1.00  0.00     0.188 HD
BRANCH  13  15
HETATM   15  N5  UNL     1      -2.984  32.871  24.147  1.00  0.00    -0.314 N 
HETATM   16  C4  UNL     1      -4.033  32.565  24.797  1.00  0.00     0.087 C 
ATOM     17  H5  UNL     1      -2.703  32.259  23.381  1.00  0.00     0.185 HD
BRANCH  16  18
HETATM   18  C5  UNL     1      -4.839  31.361  24.467  1.00  0.00     0.059 C 
HETATM   19  C6  UNL     1      -6.220  31.808  24.126  1.00  0.00     0.013 C 
HETATM   20  C7  UNL     1      -7.140  31.943  25.300  1.00  0.00     0.001 C 
HETATM   21  C8  UNL     1      -7.161  30.591  25.994  1.00  0.00     0.003 C 
HETATM   22  C9  UNL     1      -5.791  30.439  26.609  1.00  0.00     0.038 C 
HETATM   23  C10 UNL     1      -4.738  30.340  25.548  1.00  0.00     0.179 C 
HETATM   24  F1  UNL     1      -4.759  29.044  25.060  1.00  0.00    -0.249 F 
ENDBRANCH  16  18
ENDBRANCH  13  15
ENDBRANCH   1  13
TORSDOF 5
ENDMDL
MODEL 2
REMARK VINA RESULT: -7.275014792      2.391      2.852
REMARK  5 active torsions:
REMARK  status: ('A' for Active; 'I' for Inactive)
REMARK    1  A    between atoms: N1_2  and  C1_4 
REMARK    2  A    between atoms: C2_10  and  C3_11 
REMARK    3  A    between atoms: C3_11  and  N4_13 
REMARK    4  A    between atoms: N4_13  and  N5_15 
REMARK    5  A    between atoms: C4_17  and  C5_18 
ROOT
HETATM    1  C3  UNL     1      -1.787  35.138  24.170  1.00  0.00     0.146 C 
HETATM    2  S2  UNL     1      -2.502  36.283  23.274  1.00  0.00    -0.056 SA
ENDROOT
BRANCH   1   3
HETATM    3  C2  UNL     1      -0.335  34.863  24.070  1.00  0.00     0.129 A 
HETATM    4  C1  UNL     1       0.111  33.733  23.434  1.00  0.00     0.192 A 
HETATM    5  S1  UNL     1       1.804  33.895  23.597  1.00  0.00     0.029 SA
HETATM    6  N2  UNL     1       1.831  35.349  24.438  1.00  0.00    -0.267 N 
HETATM    7  N3  UNL     1       0.580  35.657  24.567  1.00  0.00    -0.289 N 
ATOM      8  H2  UNL     1       2.644  35.868  24.771  1.00  0.00     0.195 HD
ATOM      9  H3  UNL     1       0.310  36.512  25.051  1.00  0.00     0.188 HD
BRANCH   4  10
HETATM   10  N1  UNL     1      -0.658  32.688  22.797  1.00  0.00    -0.104 N 
HETATM   11  O1  UNL     1      -0.855  32.749  21.583  1.00  0.00    -0.531 OA
HETATM   12  O2  UNL     1      -1.118  31.695  23.589  1.00  0.00    -0.531 OA
ENDBRANCH   4  10
ENDBRANCH   1   3
BRANCH   1  13
HETATM   13  N4  UNL     1      -2.556  34.377  25.073  1.00  0.00    -0.289 N 
ATOM     14  H4  UNL     1      -2.635  34.674  26.045  1.00  0.00     0.188 HD
BRANCH  13  15
HETATM   15  N5  UNL     1      -3.198  33.241  24.655  1.00  0.00    -0.314 N 
HETATM   16  C4  UNL     1      -4.411  32.967  24.918  1.00  0.00     0.087 C 
ATOM     17  H5  UNL     1      -2.668  32.572  24.096  1.00  0.00     0.185 HD
BRANCH  16  18
HETATM   18  C5  UNL     1      -5.055  31.717  24.437  1.00  0.00     0.059 C 
HETATM   19  C6  UNL     1      -6.472  32.032  24.090  1.00  0.00     0.013 C 
HETATM   20  C7  UNL     1      -7.432  31.934  25.235  1.00  0.00     0.001 C 
HETATM   21  C8  UNL     1      -7.306  30.523  25.788  1.00  0.00     0.003 C 
HETATM   22  C9  UNL     1      -5.945  30.470  26.437  1.00  0.00     0.038 C 
HETATM   23  C10 UNL     1      -4.860  30.608  25.412  1.00  0.00     0.179 C 
HETATM   24  F1  UNL     1      -4.711  29.376  24.796  1.00  0.00    -0.249 F 
ENDBRANCH  16  18
ENDBRANCH  13  15
ENDBRANCH   1  13
TORSDOF 5
ENDMDL
MODEL 3
REMARK VINA RESULT: -7.253493463      3.617      4.194
REMARK  5 active torsions:
REMARK  status: ('A' for Active; 'I' for Inactive)
REMARK    1  A    between atoms: N1_2  and  C1_4 
REMARK    2  A    between atoms: C2_10  and  C3_11 
REMARK    3  A    between atoms: C3_11  and  N4_13 
REMARK    4  A    between atoms: N4_13  and  N5_15 
REMARK    5  A    between atoms: C4_17  and  C5_18 
ROOT
HETATM    1  C3  UNL     1      -3.914  34.796  23.398  1.00  0.00     0.146 C 
HETATM    2  S2  UNL     1      -2.690  33.739  23.292  1.00  0.00    -0.056 SA
ENDROOT
BRANCH   1   3
HETATM    3  C2  UNL     1      -3.703  36.252  23.231  1.00  0.00     0.129 A 
HETATM    4  C1  UNL     1      -4.217  36.904  22.141  1.00  0.00     0.192 A 
HETATM    5  S1  UNL     1      -3.702  38.508  22.426  1.00  0.00     0.029 SA
HETATM    6  N2  UNL     1      -2.890  38.250  23.874  1.00  0.00    -0.267 N 
HETATM    7  N3  UNL     1      -3.033  36.982  24.089  1.00  0.00    -0.289 N 
ATOM      8  H2  UNL     1      -2.399  38.935  24.451  1.00  0.00     0.195 HD
ATOM      9  H3  UNL     1      -2.626  36.553  24.920  1.00  0.00     0.188 HD
BRANCH   4  10
HETATM   10  N1  UNL     1      -4.989  36.365  21.044  1.00  0.00    -0.104 N 
HETATM   11  O1  UNL     1      -4.560  36.489  19.896  1.00  0.00    -0.531 OA
HETATM   12  O2  UNL     1      -6.152  35.750  21.355  1.00  0.00    -0.531 OA
ENDBRANCH   4  10
ENDBRANCH   1   3
BRANCH   1  13
HETATM   13  N4  UNL     1      -5.218  34.330  23.657  1.00  0.00    -0.289 N 
ATOM     14  H4  UNL     1      -6.009  34.968  23.574  1.00  0.00     0.188 HD
BRANCH  13  15
HETATM   15  N5  UNL     1      -5.432  33.026  24.018  1.00  0.00    -0.314 N 
HETATM   16  C4  UNL     1      -6.580  32.521  24.228  1.00  0.00     0.087 C 
ATOM     17  H5  UNL     1      -4.618  32.420  24.125  1.00  0.00     0.185 HD
BRANCH  16  18
HETATM   18  C5  UNL     1      -6.752  31.097  24.618  1.00  0.00     0.059 C 
HETATM   19  C6  UNL     1      -7.932  31.006  25.526  1.00  0.00     0.013 C 
HETATM   20  C7  UNL     1      -7.625  31.232  26.974  1.00  0.00     0.001 C 
HETATM   21  C8  UNL     1      -6.563  30.214  27.357  1.00  0.00     0.003 C 
HETATM   22  C9  UNL     1      -5.312  30.655  26.637  1.00  0.00     0.038 C 
HETATM   23  C10 UNL     1      -5.481  30.535  25.153  1.00  0.00     0.179 C 
HETATM   24  F1  UNL     1      -5.306  29.201  24.821  1.00  0.00    -0.249 F 
ENDBRANCH  16  18
ENDBRANCH  13  15
ENDBRANCH   1  13
TORSDOF 5
ENDMDL
MODEL 4
REMARK VINA RESULT: -7.226922455      2.052      2.362
REMARK  5 active torsions:
REMARK  status: ('A' for Active; 'I' for Inactive)
REMARK    1  A    between atoms: N1_2  and  C1_4 
REMARK    2  A    between atoms: C2_10  and  C3_11 
REMARK    3  A    between atoms: C3_11  and  N4_13 
REMARK    4  A    between atoms: N4_13  and  N5_15 
REMARK    5  A    between atoms: C4_17  and  C5_18 
ROOT
HETATM    1  C3  UNL     1      -1.794  36.222  25.043  1.00  0.00     0.146 C 
HETATM    2  S2  UNL     1      -1.524  37.191  23.772  1.00  0.00    -0.056 SA
ENDROOT
BRANCH   1   3
HETATM    3  C2  UNL     1      -0.746  35.955  26.055  1.00  0.00     0.129 A 
HETATM    4  C1  UNL     1       0.181  34.967  25.846  1.00  0.00     0.192 A 
HETATM    5  S1  UNL     1       1.122  35.073  27.266  1.00  0.00     0.029 SA
HETATM    6  N2  UNL     1       0.300  36.334  28.012  1.00  0.00    -0.267 N 
HETATM    7  N3  UNL     1      -0.645  36.626  27.176  1.00  0.00    -0.289 N 
ATOM      8  H2  UNL     1       0.498  36.768  28.914  1.00  0.00     0.195 HD
ATOM      9  H3  UNL     1      -1.305  37.373  27.388  1.00  0.00     0.188 HD
BRANCH   4  10
HETATM   10  N1  UNL     1       0.314  34.075  24.716  1.00  0.00    -0.104 N 
HETATM   11  O1  UNL     1      -0.448  33.112  24.624  1.00  0.00    -0.531 OA
HETATM   12  O2  UNL     1       1.283  34.361  23.818  1.00  0.00    -0.531 OA
ENDBRANCH   4  10
ENDBRANCH   1   3
BRANCH   1  13
HETATM   13  N4  UNL     1      -3.053  35.612  25.201  1.00  0.00    -0.289 N 
ATOM     14  H4  UNL     1      -3.782  36.085  25.735  1.00  0.00     0.188 HD
BRANCH  13  15
HETATM   15  N5  UNL     1      -3.309  34.388  24.641  1.00  0.00    -0.314 N 
HETATM   16  C4  UNL     1      -4.303  33.655  24.945  1.00  0.00     0.087 C 
ATOM     17  H5  UNL     1      -2.659  34.041  23.936  1.00  0.00     0.185 HD
BRANCH  16  18
HETATM   18  C5  UNL     1      -4.529  32.334  24.304  1.00  0.00     0.059 C 
HETATM   19  C6  UNL     1      -5.968  32.246  23.922  1.00  0.00     0.013 C 
HETATM   20  C7  UNL     1      -6.871  31.733  25.001  1.00  0.00     0.001 C 
HETATM   21  C8  UNL     1      -6.331  30.372  25.408  1.00  0.00     0.003 C 
HETATM   22  C9  UNL     1      -5.028  30.656  26.116  1.00  0.00     0.038 C 
HETATM   23  C10 UNL     1      -4.021  31.230  25.167  1.00  0.00     0.179 C 
HETATM   24  F1  UNL     1      -3.494  30.179  24.433  1.00  0.00    -0.249 F 
ENDBRANCH  16  18
ENDBRANCH  13  15
ENDBRANCH   1  13
TORSDOF 5
ENDMDL
MODEL 5
REMARK VINA RESULT: -7.214155611      2.309      2.690
REMARK  5 active torsions:
REMARK  status: ('A' for Active; 'I' for Inactive)
REMARK    1  A    between atoms: N1_2  and  C1_4 
REMARK    2  A    between atoms: C2_10  and  C3_11 
REMARK    3  A    between atoms: C3_11  and  N4_13 
REMARK    4  A    between atoms: N4_13  and  N5_15 
REMARK    5  A    between atoms: C4_17  and  C5_18 
ROOT
HETATM    1  C3  UNL     1      -1.411  34.887  24.106  1.00  0.00     0.146 C 
HETATM    2  S2  UNL     1      -0.284  33.822  23.636  1.00  0.00    -0.056 SA
ENDROOT
BRANCH   1   3
HETATM    3  C2  UNL     1      -1.282  36.335  23.820  1.00  0.00     0.129 A 
HETATM    4  C1  UNL     1      -2.336  37.032  23.289  1.00  0.00     0.192 A 
HETATM    5  S1  UNL     1      -1.679  38.603  23.161  1.00  0.00     0.029 SA
HETATM    6  N2  UNL     1      -0.149  38.280  23.775  1.00  0.00    -0.267 N 
HETATM    7  N3  UNL     1      -0.186  37.016  24.051  1.00  0.00    -0.289 N 
ATOM      8  H2  UNL     1       0.628  38.929  23.900  1.00  0.00     0.195 HD
ATOM      9  H3  UNL     1       0.633  36.552  24.444  1.00  0.00     0.188 HD
BRANCH   4  10
HETATM   10  N1  UNL     1      -3.653  36.551  22.936  1.00  0.00    -0.104 N 
HETATM   11  O1  UNL     1      -3.920  36.365  21.748  1.00  0.00    -0.531 OA
HETATM   12  O2  UNL     1      -4.520  36.332  23.949  1.00  0.00    -0.531 OA
ENDBRANCH   4  10
ENDBRANCH   1   3
BRANCH   1  13
HETATM   13  N4  UNL     1      -2.548  34.438  24.805  1.00  0.00    -0.289 N 
ATOM     14  H4  UNL     1      -2.885  34.962  25.613  1.00  0.00     0.188 HD
BRANCH  13  15
HETATM   15  N5  UNL     1      -3.205  33.303  24.410  1.00  0.00    -0.314 N 
HETATM   16  C4  UNL     1      -4.293  32.890  24.923  1.00  0.00     0.087 C 
ATOM     17  H5  UNL     1      -2.795  32.753  23.655  1.00  0.00     0.185 HD
BRANCH  16  18
HETATM   18  C5  UNL     1      -4.962  31.650  24.452  1.00  0.00     0.059 C 
HETATM   19  C6  UNL     1      -6.370  31.991  24.096  1.00  0.00     0.013 C 
HETATM   20  C7  UNL     1      -7.336  31.925  25.237  1.00  0.00     0.001 C 
HETATM   21  C8  UNL     1      -7.244  30.519  25.805  1.00  0.00     0.003 C 
HETATM   22  C9  UNL     1      -5.887  30.443  26.461  1.00  0.00     0.038 C 
HETATM   23  C10 UNL     1      -4.795  30.547  25.440  1.00  0.00     0.179 C 
HETATM   24  F1  UNL     1      -4.669  29.306  24.838  1.00  0.00    -0.249 F 
ENDBRANCH  16  18
ENDBRANCH  13  15
ENDBRANCH   1  13
TORSDOF 5
ENDMDL
