MODEL 1
REMARK VINA RESULT: -6.105824977      0.000      0.000
REMARK  2 active torsions:
REMARK  status: ('A' for Active; 'I' for Inactive)
REMARK    1  A    between atoms: C1_2  and  N1_3 
REMARK    2  A    between atoms: N1_3  and  C2_5 
ROOT
HETATM    1  C2  UNL     1      13.517  43.873  83.431  1.00  0.00     0.692 A 
HETATM    2  N2  UNL     1      12.579  44.703  82.957  1.00  0.00    -0.141 N 
ATOM      3  H2  UNL     1      11.964  45.180  83.615  1.00  0.00     0.189 HD
HETATM    4  C3  UNL     1      12.420  44.929  81.629  1.00  0.00     0.342 A 
HETATM    5  O2  UNL     1      11.535  45.710  81.197  1.00  0.00    -0.246 OA
HETATM    6  N3  UNL     1      13.248  44.284  80.781  1.00  0.00    -0.260 N 
ATOM      7  H3  UNL     1      13.145  44.440  79.779  1.00  0.00     0.175 HD
HETATM    8  C4  UNL     1      14.196  43.449  81.212  1.00  0.00     0.342 A 
HETATM    9  O3  UNL     1      14.987  42.828  80.462  1.00  0.00    -0.246 OA
HETATM   10  N4  UNL     1      14.312  43.260  82.544  1.00  0.00    -0.141 N 
ATOM     11  H4  UNL     1      15.032  42.624  82.888  1.00  0.00     0.189 HD
ENDROOT
BRANCH   1  12
HETATM   12  N1  UNL     1      13.646  43.677  84.700  1.00  0.00    -0.167 N 
ATOM     13  H1  UNL     1      14.483  44.008  85.180  1.00  0.00     0.186 HD
BRANCH  12  14
HETATM   14  C1  UNL     1      12.640  43.010  85.430  1.00  0.00     0.368 C 
HETATM   15  O1  UNL     1      11.494  43.466  85.648  1.00  0.00    -0.283 OA
ENDBRANCH  12  14
ENDBRANCH   1  12
TORSDOF 2
ENDMDL
MODEL 2
REMARK VINA RESULT: -6.077580907      2.011      4.135
REMARK  2 active torsions:
REMARK  status: ('A' for Active; 'I' for Inactive)
REMARK    1  A    between atoms: C1_2  and  N1_3 
REMARK    2  A    between atoms: N1_3  and  C2_5 
ROOT
HETATM    1  C2  UNL     1      12.887  42.719  83.240  1.00  0.00     0.692 A 
HETATM    2  N2  UNL     1      12.728  43.847  83.945  1.00  0.00    -0.141 N 
ATOM      3  H2  UNL     1      13.306  44.656  83.719  1.00  0.00     0.189 HD
HETATM    4  C3  UNL     1      11.824  43.948  84.952  1.00  0.00     0.342 A 
HETATM    5  O2  UNL     1      11.685  45.012  85.606  1.00  0.00    -0.246 OA
HETATM    6  N3  UNL     1      11.073  42.862  85.229  1.00  0.00    -0.260 N 
ATOM      7  H3  UNL     1      10.387  42.917  85.982  1.00  0.00     0.175 HD
HETATM    8  C4  UNL     1      11.199  41.719  84.551  1.00  0.00     0.342 A 
HETATM    9  O3  UNL     1      10.525  40.685  84.774  1.00  0.00    -0.246 OA
HETATM   10  N4  UNL     1      12.114  41.672  83.559  1.00  0.00    -0.141 N 
ATOM     11  H4  UNL     1      12.222  40.805  83.032  1.00  0.00     0.189 HD
ENDROOT
BRANCH   1  12
HETATM   12  N1  UNL     1      13.755  42.652  82.288  1.00  0.00    -0.167 N 
ATOM     13  H1  UNL     1      13.996  41.745  81.887  1.00  0.00     0.186 HD
BRANCH  12  14
HETATM   14  C1  UNL     1      14.375  43.819  81.796  1.00  0.00     0.368 C 
HETATM   15  O1  UNL     1      15.403  44.342  82.284  1.00  0.00    -0.283 OA
ENDBRANCH  12  14
ENDBRANCH   1  12
TORSDOF 2
ENDMDL
MODEL 3
REMARK VINA RESULT: -6.074033863      0.035      2.395
REMARK  2 active torsions:
REMARK  status: ('A' for Active; 'I' for Inactive)
REMARK    1  A    between atoms: C1_2  and  N1_3 
REMARK    2  A    between atoms: N1_3  and  C2_5 
ROOT
HETATM    1  C2  UNL     1      13.523  43.868  83.447  1.00  0.00     0.692 A 
HETATM    2  N2  UNL     1      14.325  43.238  82.579  1.00  0.00    -0.141 N 
ATOM      3  H2  UNL     1      15.040  42.605  82.938  1.00  0.00     0.189 HD
HETATM    4  C3  UNL     1      14.218  43.412  81.238  1.00  0.00     0.342 A 
HETATM    5  O2  UNL     1      14.977  42.815  80.435  1.00  0.00    -0.246 OA
HETATM    6  N3  UNL     1      13.264  44.255  80.792  1.00  0.00    -0.260 N 
ATOM      7  H3  UNL     1      13.166  44.401  79.787  1.00  0.00     0.175 HD
HETATM    8  C4  UNL     1      12.444  44.905  81.622  1.00  0.00     0.342 A 
HETATM    9  O3  UNL     1      11.544  45.697  81.254  1.00  0.00    -0.246 OA
HETATM   10  N4  UNL     1      12.593  44.694  82.947  1.00  0.00    -0.141 N 
ATOM     11  H4  UNL     1      11.974  45.183  83.594  1.00  0.00     0.189 HD
ENDROOT
BRANCH   1  12
HETATM   12  N1  UNL     1      13.648  43.682  84.717  1.00  0.00    -0.167 N 
ATOM     13  H1  UNL     1      14.484  44.016  85.197  1.00  0.00     0.186 HD
BRANCH  12  14
HETATM   14  C1  UNL     1      12.640  43.023  85.450  1.00  0.00     0.368 C 
HETATM   15  O1  UNL     1      11.483  43.467  85.632  1.00  0.00    -0.283 OA
ENDBRANCH  12  14
ENDBRANCH   1  12
TORSDOF 2
ENDMDL
MODEL 4
REMARK VINA RESULT: -6.047228922      2.023      4.431
REMARK  2 active torsions:
REMARK  status: ('A' for Active; 'I' for Inactive)
REMARK    1  A    between atoms: C1_2  and  N1_3 
REMARK    2  A    between atoms: N1_3  and  C2_5 
ROOT
HETATM    1  C2  UNL     1      12.902  42.706  83.295  1.00  0.00     0.692 A 
HETATM    2  N2  UNL     1      12.127  41.653  83.581  1.00  0.00    -0.141 N 
ATOM      3  H2  UNL     1      12.247  40.792  83.047  1.00  0.00     0.189 HD
HETATM    4  C3  UNL     1      11.185  41.691  84.557  1.00  0.00     0.342 A 
HETATM    5  O2  UNL     1      10.464  40.695  84.814  1.00  0.00    -0.246 OA
HETATM    6  N3  UNL     1      11.048  42.843  85.247  1.00  0.00    -0.260 N 
ATOM      7  H3  UNL     1      10.346  42.894  85.985  1.00  0.00     0.175 HD
HETATM    8  C4  UNL     1      11.800  43.917  84.994  1.00  0.00     0.342 A 
HETATM    9  O3  UNL     1      11.707  45.007  85.608  1.00  0.00    -0.246 OA
HETATM   10  N4  UNL     1      12.722  43.824  84.012  1.00  0.00    -0.141 N 
ATOM     11  H4  UNL     1      13.304  44.636  83.808  1.00  0.00     0.189 HD
ENDROOT
BRANCH   1  12
HETATM   12  N1  UNL     1      13.789  42.640  82.361  1.00  0.00    -0.167 N 
ATOM     13  H1  UNL     1      14.066  41.731  81.990  1.00  0.00     0.186 HD
BRANCH  12  14
HETATM   14  C1  UNL     1      14.380  43.812  81.846  1.00  0.00     0.368 C 
HETATM   15  O1  UNL     1      15.403  44.362  82.316  1.00  0.00    -0.283 OA
ENDBRANCH  12  14
ENDBRANCH   1  12
TORSDOF 2
ENDMDL
MODEL 5
REMARK VINA RESULT: -5.994482450      1.760      4.391
REMARK  2 active torsions:
REMARK  status: ('A' for Active; 'I' for Inactive)
REMARK    1  A    between atoms: C1_2  and  N1_3 
REMARK    2  A    between atoms: N1_3  and  C2_5 
ROOT
HETATM    1  C2  UNL     1      13.114  43.773  82.648  1.00  0.00     0.692 A 
HETATM    2  N2  UNL     1      14.172  43.821  83.466  1.00  0.00    -0.141 N 
ATOM      3  H2  UNL     1      15.056  44.183  83.110  1.00  0.00     0.189 HD
HETATM    4  C3  UNL     1      14.108  43.402  84.755  1.00  0.00     0.342 A 
HETATM    5  O2  UNL     1      15.109  43.452  85.513  1.00  0.00    -0.246 OA
HETATM    6  N3  UNL     1      12.926  42.927  85.200  1.00  0.00    -0.260 N 
ATOM      7  H3  UNL     1      12.856  42.608  86.166  1.00  0.00     0.175 HD
HETATM    8  C4  UNL     1      11.846  42.862  84.417  1.00  0.00     0.342 A 
HETATM    9  O3  UNL     1      10.729  42.428  84.786  1.00  0.00    -0.246 OA
HETATM   10  N4  UNL     1      11.965  43.292  83.143  1.00  0.00    -0.141 N 
ATOM     11  H4  UNL     1      11.149  43.248  82.532  1.00  0.00     0.189 HD
ENDROOT
BRANCH   1  12
HETATM   12  N1  UNL     1      13.204  44.178  81.426  1.00  0.00    -0.167 N 
ATOM     13  H1  UNL     1      12.773  45.061  81.153  1.00  0.00     0.186 HD
BRANCH  12  14
HETATM   14  C1  UNL     1      13.895  43.413  80.464  1.00  0.00     0.368 C 
HETATM   15  O1  UNL     1      15.047  42.946  80.615  1.00  0.00    -0.283 OA
ENDBRANCH  12  14
ENDBRANCH   1  12
TORSDOF 2
ENDMDL
