MODEL 1
REMARK VINA RESULT: -6.196315021      0.000      0.000
REMARK  3 active torsions:
REMARK  status: ('A' for Active; 'I' for Inactive)
REMARK       I    between atoms: N1_2  and  C2_4 
REMARK       I    between atoms: C2_4  and  N2_5 
REMARK    1  A    between atoms: N3_7  and  N4_9 
REMARK    2  A    between atoms: N5_12  and  N6_14 
REMARK    3  A    between atoms: C3_16  and  O1_18 
ROOT
HETATM    1  C1  UNL     1      11.022  45.992  84.894  1.00  0.00     0.165 C 
HETATM    2  N1  UNL     1      11.690  44.765  85.249  1.00  0.00    -0.228 N 
ATOM      3  H1  UNL     1      11.899  44.545  86.223  1.00  0.00     0.177 HD
HETATM    4  C2  UNL     1      12.049  43.871  84.210  1.00  0.00     0.708 C 
HETATM    5  N2  UNL     1      11.708  42.515  84.155  1.00  0.00    -0.117 N 
ATOM      6  H2  UNL     1      12.268  41.920  83.544  1.00  0.00     0.207 HD
HETATM    7  N3  UNL     1      10.774  41.963  84.791  1.00  0.00    -0.235 N 
ATOM      8  H3  UNL     1      10.174  42.497  85.420  1.00  0.00     0.208 HD
HETATM    9  N5  UNL     1      12.758  44.385  83.239  1.00  0.00    -0.128 N 
ATOM     10  H5  UNL     1      13.009  45.373  83.274  1.00  0.00     0.205 HD
ENDROOT
BRANCH   9  11
HETATM   11  N6  UNL     1      13.173  43.620  82.167  1.00  0.00    -0.253 N 
HETATM   12  C3  UNL     1      14.371  43.589  81.698  1.00  0.00     0.244 C 
HETATM   13  N7  UNL     1      14.624  42.744  80.586  1.00  0.00    -0.055 NA
ATOM     14  H6  UNL     1      12.475  43.034  81.710  1.00  0.00     0.190 HD
BRANCH  12  15
HETATM   15  O1  UNL     1      15.329  44.376  82.301  1.00  0.00    -0.334 OA
ATOM     16  H1  UNL     1      16.110  44.594  81.806  1.00  0.00     0.220 HD
ENDBRANCH  12  15
ENDBRANCH   9  11
BRANCH   7  17
HETATM   17  N4  UNL     1      10.588  40.590  84.605  1.00  0.00    -0.330 N 
ATOM     18  H42 UNL     1      11.359  39.941  84.761  1.00  0.00     0.178 HD
ATOM     19  H41 UNL     1       9.664  40.274  84.312  1.00  0.00     0.178 HD
ENDBRANCH   7  17
TORSDOF 3
ENDMDL
MODEL 2
REMARK VINA RESULT: -6.190510221      3.470      4.541
REMARK  3 active torsions:
REMARK  status: ('A' for Active; 'I' for Inactive)
REMARK       I    between atoms: N1_2  and  C2_4 
REMARK       I    between atoms: C2_4  and  N2_5 
REMARK    1  A    between atoms: N3_7  and  N4_9 
REMARK    2  A    between atoms: N5_12  and  N6_14 
REMARK    3  A    between atoms: C3_16  and  O1_18 
ROOT
HETATM    1  C1  UNL     1      12.079  44.424  84.670  1.00  0.00     0.165 C 
HETATM    2  N1  UNL     1      11.787  43.225  83.924  1.00  0.00    -0.228 N 
ATOM      3  H1  UNL     1      12.535  42.681  83.494  1.00  0.00     0.177 HD
HETATM    4  C2  UNL     1      10.435  42.822  83.803  1.00  0.00     0.708 C 
HETATM    5  N2  UNL     1       9.934  41.557  84.132  1.00  0.00    -0.117 N 
ATOM      6  H2  UNL     1       9.039  41.292  83.721  1.00  0.00     0.207 HD
HETATM    7  N3  UNL     1      10.488  40.718  84.888  1.00  0.00    -0.235 N 
ATOM      8  H3  UNL     1      11.384  40.918  85.333  1.00  0.00     0.208 HD
HETATM    9  N5  UNL     1       9.612  43.728  83.343  1.00  0.00    -0.128 N 
ATOM     10  H5  UNL     1       9.971  44.652  83.102  1.00  0.00     0.205 HD
ENDROOT
BRANCH   9  11
HETATM   11  N6  UNL     1       8.267  43.462  83.177  1.00  0.00    -0.253 N 
HETATM   12  C3  UNL     1       7.580  43.742  82.125  1.00  0.00     0.244 C 
HETATM   13  N7  UNL     1       6.203  43.398  82.124  1.00  0.00    -0.055 NA
ATOM     14  H6  UNL     1       7.779  43.009  83.949  1.00  0.00     0.190 HD
BRANCH  12  15
HETATM   15  O1  UNL     1       8.222  44.356  81.071  1.00  0.00    -0.334 OA
ATOM     16  H1  UNL     1       8.317  45.301  81.091  1.00  0.00     0.220 HD
ENDBRANCH  12  15
ENDBRANCH   9  11
BRANCH   7  17
HETATM   17  N4  UNL     1       9.831  39.503  85.095  1.00  0.00    -0.330 N 
ATOM     18  H42 UNL     1      10.022  38.951  85.931  1.00  0.00     0.178 HD
ATOM     19  H41 UNL     1       9.165  39.200  84.385  1.00  0.00     0.178 HD
ENDBRANCH   7  17
TORSDOF 3
ENDMDL
MODEL 3
REMARK VINA RESULT: -6.184497162      1.878      2.226
REMARK  3 active torsions:
REMARK  status: ('A' for Active; 'I' for Inactive)
REMARK       I    between atoms: N1_2  and  C2_4 
REMARK       I    between atoms: C2_4  and  N2_5 
REMARK    1  A    between atoms: N3_7  and  N4_9 
REMARK    2  A    between atoms: N5_12  and  N6_14 
REMARK    3  A    between atoms: C3_16  and  O1_18 
ROOT
HETATM    1  C1  UNL     1      12.868  42.937  85.781  1.00  0.00     0.165 C 
HETATM    2  N1  UNL     1      11.996  42.180  84.918  1.00  0.00    -0.228 N 
ATOM      3  H1  UNL     1      11.560  41.316  85.242  1.00  0.00     0.177 HD
HETATM    4  C2  UNL     1      11.759  42.666  83.609  1.00  0.00     0.708 C 
HETATM    5  N2  UNL     1      10.498  42.891  83.044  1.00  0.00    -0.117 N 
ATOM      6  H2  UNL     1      10.447  42.938  82.027  1.00  0.00     0.207 HD
HETATM    7  N3  UNL     1       9.422  43.039  83.678  1.00  0.00    -0.235 N 
ATOM      8  H3  UNL     1       9.399  43.004  84.698  1.00  0.00     0.208 HD
HETATM    9  N5  UNL     1      12.825  42.915  82.894  1.00  0.00    -0.128 N 
ATOM     10  H5  UNL     1      13.747  42.754  83.301  1.00  0.00     0.205 HD
ENDROOT
BRANCH   9  11
HETATM   11  N6  UNL     1      12.731  43.393  81.602  1.00  0.00    -0.253 N 
HETATM   12  C3  UNL     1      13.710  43.870  80.915  1.00  0.00     0.244 C 
HETATM   13  N7  UNL     1      13.435  44.318  79.597  1.00  0.00    -0.055 NA
ATOM     14  H6  UNL     1      11.815  43.366  81.157  1.00  0.00     0.190 HD
BRANCH  12  15
HETATM   15  O1  UNL     1      14.957  43.916  81.501  1.00  0.00    -0.334 OA
ATOM     16  H1  UNL     1      15.103  44.542  82.200  1.00  0.00     0.220 HD
ENDBRANCH  12  15
ENDBRANCH   9  11
BRANCH   7  17
HETATM   17  N4  UNL     1       8.258  43.253  82.935  1.00  0.00    -0.330 N 
ATOM     18  H42 UNL     1       7.411  43.590  83.391  1.00  0.00     0.178 HD
ATOM     19  H41 UNL     1       8.296  43.062  81.934  1.00  0.00     0.178 HD
ENDBRANCH   7  17
TORSDOF 3
ENDMDL
MODEL 4
REMARK VINA RESULT: -6.138163451      1.882      3.165
REMARK  3 active torsions:
REMARK  status: ('A' for Active; 'I' for Inactive)
REMARK       I    between atoms: N1_2  and  C2_4 
REMARK       I    between atoms: C2_4  and  N2_5 
REMARK    1  A    between atoms: N3_7  and  N4_9 
REMARK    2  A    between atoms: N5_12  and  N6_14 
REMARK    3  A    between atoms: C3_16  and  O1_18 
ROOT
HETATM    1  C1  UNL     1      10.030  41.848  84.368  1.00  0.00     0.165 C 
HETATM    2  N1  UNL     1       9.888  43.195  83.875  1.00  0.00    -0.228 N 
ATOM      3  H1  UNL     1       8.967  43.587  83.681  1.00  0.00     0.177 HD
HETATM    4  C2  UNL     1      11.061  43.961  83.667  1.00  0.00     0.708 C 
HETATM    5  N2  UNL     1      11.303  45.233  84.199  1.00  0.00    -0.117 N 
ATOM      6  H2  UNL     1      12.018  45.799  83.742  1.00  0.00     0.207 HD
HETATM    7  N3  UNL     1      10.718  45.741  85.190  1.00  0.00    -0.235 N 
ATOM      8  H3  UNL     1       9.994  45.231  85.696  1.00  0.00     0.208 HD
HETATM    9  N5  UNL     1      11.973  43.408  82.911  1.00  0.00    -0.128 N 
ATOM     10  H5  UNL     1      11.803  42.481  82.520  1.00  0.00     0.205 HD
ENDROOT
BRANCH   9  11
HETATM   11  N6  UNL     1      13.163  44.051  82.630  1.00  0.00    -0.253 N 
HETATM   12  C3  UNL     1      14.325  43.671  83.033  1.00  0.00     0.244 C 
HETATM   13  N7  UNL     1      15.446  44.451  82.650  1.00  0.00    -0.055 NA
ATOM     14  H6  UNL     1      13.118  44.893  82.057  1.00  0.00     0.190 HD
BRANCH  12  15
HETATM   15  O1  UNL     1      14.406  42.534  83.811  1.00  0.00    -0.334 OA
ATOM     16  H1  UNL     1      13.675  41.928  83.798  1.00  0.00     0.220 HD
ENDBRANCH  12  15
ENDBRANCH   9  11
BRANCH   7  17
HETATM   17  N4  UNL     1      11.098  47.030  85.573  1.00  0.00    -0.330 N 
ATOM     18  H42 UNL     1      10.725  47.843  85.083  1.00  0.00     0.178 HD
ATOM     19  H41 UNL     1      11.752  47.118  86.350  1.00  0.00     0.178 HD
ENDBRANCH   7  17
TORSDOF 3
ENDMDL
MODEL 5
REMARK VINA RESULT: -6.131640437      2.152      2.179
REMARK  3 active torsions:
REMARK  status: ('A' for Active; 'I' for Inactive)
REMARK       I    between atoms: N1_2  and  C2_4 
REMARK       I    between atoms: C2_4  and  N2_5 
REMARK    1  A    between atoms: N3_7  and  N4_9 
REMARK    2  A    between atoms: N5_12  and  N6_14 
REMARK    3  A    between atoms: C3_16  and  O1_18 
ROOT
HETATM    1  C1  UNL     1       8.653  44.937  81.674  1.00  0.00     0.165 C 
HETATM    2  N1  UNL     1       9.129  44.745  83.021  1.00  0.00    -0.228 N 
ATOM      3  H1  UNL     1       8.541  44.978  83.822  1.00  0.00     0.177 HD
HETATM    4  C2  UNL     1      10.433  44.225  83.206  1.00  0.00     0.708 C 
HETATM    5  N2  UNL     1      10.757  43.108  83.984  1.00  0.00    -0.117 N 
ATOM      6  H2  UNL     1      11.727  43.019  84.287  1.00  0.00     0.207 HD
HETATM    7  N3  UNL     1       9.960  42.203  84.343  1.00  0.00    -0.235 N 
ATOM      8  H3  UNL     1       8.976  42.228  84.075  1.00  0.00     0.208 HD
HETATM    9  N5  UNL     1      11.391  44.863  82.586  1.00  0.00    -0.128 N 
ATOM     10  H5  UNL     1      11.161  45.679  82.017  1.00  0.00     0.205 HD
ENDROOT
BRANCH   9  11
HETATM   11  N6  UNL     1      12.708  44.458  82.683  1.00  0.00    -0.253 N 
HETATM   12  C3  UNL     1      13.531  44.367  81.698  1.00  0.00     0.244 C 
HETATM   13  N7  UNL     1      14.852  43.932  81.978  1.00  0.00    -0.055 NA
ATOM     14  H6  UNL     1      13.056  44.212  83.610  1.00  0.00     0.190 HD
BRANCH  12  15
HETATM   15  O1  UNL     1      13.078  44.695  80.437  1.00  0.00    -0.334 OA
ATOM     16  H1  UNL     1      13.045  45.613  80.197  1.00  0.00     0.220 HD
ENDBRANCH  12  15
ENDBRANCH   9  11
BRANCH   7  17
HETATM   17  N4  UNL     1      10.472  41.163  85.123  1.00  0.00    -0.330 N 
ATOM     18  H42 UNL     1      11.470  41.118  85.328  1.00  0.00     0.178 HD
ATOM     19  H41 UNL     1       9.815  40.466  85.471  1.00  0.00     0.178 HD
ENDBRANCH   7  17
TORSDOF 3
ENDMDL
