MODEL 1
REMARK VINA RESULT: -5.879872223      0.000      0.000
REMARK  2 active torsions:
REMARK  status: ('A' for Active; 'I' for Inactive)
REMARK    1  A    between atoms: O1_2  and  N1_3 
REMARK       I    between atoms: C2_5  and  N3_7 
REMARK    2  A    between atoms: N3_7  and  N4_9 
ROOT
HETATM    1  N1  UNL     1       9.548  43.396  82.357  1.00  0.00    -0.238 N 
ATOM      2  H1  UNL     1       9.636  42.582  82.965  1.00  0.00     0.197 HD
HETATM    3  C2  UNL     1      10.553  44.202  82.281  1.00  0.00     0.227 C 
HETATM    4  N2  UNL     1      10.526  45.362  81.462  1.00  0.00    -0.060 NA
HETATM    5  N3  UNL     1      11.719  43.916  83.044  1.00  0.00    -0.270 N 
ATOM      6  H3  UNL     1      11.655  43.251  83.815  1.00  0.00     0.189 HD
ENDROOT
BRANCH   5   7
HETATM    7  N4  UNL     1      12.940  44.511  82.773  1.00  0.00    -0.274 N 
HETATM    8  C3  UNL     1      14.006  43.799  82.641  1.00  0.00     0.215 C 
HETATM    9  N5  UNL     1      15.281  44.345  82.365  1.00  0.00    -0.065 NA
HETATM   10  N6  UNL     1      13.923  42.383  82.777  1.00  0.00    -0.065 NA
ATOM     11  H4  UNL     1      12.996  45.525  82.676  1.00  0.00     0.189 HD
ENDBRANCH   5   7
BRANCH   1  12
HETATM   12  O1  UNL     1       8.384  43.558  81.682  1.00  0.00    -0.283 OA
HETATM   13  C1  UNL     1       7.220  43.921  82.434  1.00  0.00     0.237 C 
ENDBRANCH   1  12
TORSDOF 2
ENDMDL
MODEL 2
REMARK VINA RESULT: -5.758703979      2.491      2.923
REMARK  2 active torsions:
REMARK  status: ('A' for Active; 'I' for Inactive)
REMARK    1  A    between atoms: O1_2  and  N1_3 
REMARK       I    between atoms: C2_5  and  N3_7 
REMARK    2  A    between atoms: N3_7  and  N4_9 
ROOT
HETATM    1  N1  UNL     1      11.355  45.341  84.444  1.00  0.00    -0.238 N 
ATOM      2  H1  UNL     1      11.676  44.861  85.285  1.00  0.00     0.197 HD
HETATM    3  C2  UNL     1      11.865  44.980  83.314  1.00  0.00     0.227 C 
HETATM    4  N2  UNL     1      11.482  45.587  82.089  1.00  0.00    -0.060 NA
HETATM    5  N3  UNL     1      12.838  43.943  83.302  1.00  0.00    -0.270 N 
ATOM      6  H3  UNL     1      13.301  43.689  84.175  1.00  0.00     0.189 HD
ENDROOT
BRANCH   5   7
HETATM    7  N4  UNL     1      13.178  43.266  82.143  1.00  0.00    -0.274 N 
HETATM    8  C3  UNL     1      14.340  43.417  81.606  1.00  0.00     0.215 C 
HETATM    9  N5  UNL     1      14.747  42.755  80.425  1.00  0.00    -0.065 NA
HETATM   10  N6  UNL     1      15.283  44.293  82.218  1.00  0.00    -0.065 NA
ATOM     11  H4  UNL     1      12.501  42.639  81.708  1.00  0.00     0.189 HD
ENDBRANCH   5   7
BRANCH   1  12
HETATM   12  O1  UNL     1      10.423  46.313  84.587  1.00  0.00    -0.283 OA
HETATM   13  C1  UNL     1      10.484  47.131  85.762  1.00  0.00     0.237 C 
ENDBRANCH   1  12
TORSDOF 2
ENDMDL
MODEL 3
REMARK VINA RESULT: -5.680206891      3.218      6.303
REMARK  2 active torsions:
REMARK  status: ('A' for Active; 'I' for Inactive)
REMARK    1  A    between atoms: O1_2  and  N1_3 
REMARK       I    between atoms: C2_5  and  N3_7 
REMARK    2  A    between atoms: N3_7  and  N4_9 
ROOT
HETATM    1  N1  UNL     1       9.391  44.564  83.200  1.00  0.00    -0.238 N 
ATOM      2  H1  UNL     1       9.247  44.647  84.206  1.00  0.00     0.197 HD
HETATM    3  C2  UNL     1       8.472  43.980  82.506  1.00  0.00     0.227 C 
HETATM    4  N2  UNL     1       8.582  43.817  81.100  1.00  0.00    -0.060 NA
HETATM    5  N3  UNL     1       7.318  43.487  83.176  1.00  0.00    -0.270 N 
ATOM      6  H3  UNL     1       7.349  43.366  84.189  1.00  0.00     0.189 HD
ENDROOT
BRANCH   5   7
HETATM    7  N4  UNL     1       6.154  43.167  82.498  1.00  0.00    -0.274 N 
HETATM    8  C3  UNL     1       5.202  44.027  82.376  1.00  0.00     0.215 C 
HETATM    9  N5  UNL     1       3.991  43.761  81.697  1.00  0.00    -0.065 NA
HETATM   10  N6  UNL     1       5.355  45.323  82.949  1.00  0.00    -0.065 NA
ATOM     11  H4  UNL     1       6.048  42.238  82.089  1.00  0.00     0.189 HD
ENDBRANCH   5   7
BRANCH   1  12
HETATM   12  O1  UNL     1      10.533  45.074  82.680  1.00  0.00    -0.283 OA
HETATM   13  C1  UNL     1      11.761  44.392  82.965  1.00  0.00     0.237 C 
ENDBRANCH   1  12
TORSDOF 2
ENDMDL
MODEL 4
REMARK VINA RESULT: -5.556104961      2.712      5.868
REMARK  2 active torsions:
REMARK  status: ('A' for Active; 'I' for Inactive)
REMARK    1  A    between atoms: O1_2  and  N1_3 
REMARK       I    between atoms: C2_5  and  N3_7 
REMARK    2  A    between atoms: N3_7  and  N4_9 
ROOT
HETATM    1  N1  UNL     1      10.223  43.345  82.452  1.00  0.00    -0.238 N 
ATOM      2  H1  UNL     1      10.187  42.536  83.072  1.00  0.00     0.197 HD
HETATM    3  C2  UNL     1       9.156  44.061  82.333  1.00  0.00     0.227 C 
HETATM    4  N2  UNL     1       9.109  45.207  81.496  1.00  0.00    -0.060 NA
HETATM    5  N3  UNL     1       7.995  43.686  83.065  1.00  0.00    -0.270 N 
ATOM      6  H3  UNL     1       7.938  42.744  83.452  1.00  0.00     0.189 HD
ENDROOT
BRANCH   5   7
HETATM    7  N4  UNL     1       6.940  44.560  83.269  1.00  0.00    -0.274 N 
HETATM    8  C3  UNL     1       5.775  44.314  82.777  1.00  0.00     0.215 C 
HETATM    9  N5  UNL     1       4.659  45.164  82.950  1.00  0.00    -0.065 NA
HETATM   10  N6  UNL     1       5.575  43.127  82.013  1.00  0.00    -0.065 NA
ATOM     11  H4  UNL     1       7.087  45.408  83.817  1.00  0.00     0.189 HD
ENDBRANCH   5   7
BRANCH   1  12
HETATM   12  O1  UNL     1      11.389  43.597  81.810  1.00  0.00    -0.283 OA
HETATM   13  C1  UNL     1      12.497  44.060  82.592  1.00  0.00     0.237 C 
ENDBRANCH   1  12
TORSDOF 2
ENDMDL
MODEL 5
REMARK VINA RESULT: -5.548579093      1.420      1.623
REMARK  2 active torsions:
REMARK  status: ('A' for Active; 'I' for Inactive)
REMARK    1  A    between atoms: O1_2  and  N1_3 
REMARK       I    between atoms: C2_5  and  N3_7 
REMARK    2  A    between atoms: N3_7  and  N4_9 
ROOT
HETATM    1  N1  UNL     1       9.489  44.709  82.118  1.00  0.00    -0.238 N 
ATOM      2  H1  UNL     1       9.305  44.057  81.356  1.00  0.00     0.197 HD
HETATM    3  C2  UNL     1      10.633  44.633  82.712  1.00  0.00     0.227 C 
HETATM    4  N2  UNL     1      10.981  45.498  83.784  1.00  0.00    -0.060 NA
HETATM    5  N3  UNL     1      11.567  43.654  82.277  1.00  0.00    -0.270 N 
ATOM      6  H3  UNL     1      11.237  42.877  81.703  1.00  0.00     0.189 HD
ENDROOT
BRANCH   5   7
HETATM    7  N4  UNL     1      12.910  43.719  82.607  1.00  0.00    -0.274 N 
HETATM    8  C3  UNL     1      13.789  44.069  81.732  1.00  0.00     0.215 C 
HETATM    9  N5  UNL     1      15.173  44.155  82.005  1.00  0.00    -0.065 NA
HETATM   10  N6  UNL     1      13.368  44.390  80.408  1.00  0.00    -0.065 NA
ATOM     11  H4  UNL     1      13.208  43.488  83.555  1.00  0.00     0.189 HD
ENDBRANCH   5   7
BRANCH   1  12
HETATM   12  O1  UNL     1       8.517  45.597  82.439  1.00  0.00    -0.283 OA
HETATM   13  C1  UNL     1       7.195  45.090  82.662  1.00  0.00     0.237 C 
ENDBRANCH   1  12
TORSDOF 2
ENDMDL
