MODEL 1
REMARK VINA RESULT: -6.447127696      0.000      0.000
REMARK  2 active torsions:
REMARK  status: ('A' for Active; 'I' for Inactive)
REMARK    1  A    between atoms: N2_4  and  N3_6 
REMARK    2  A    between atoms: N3_6  and  C1_8 
ROOT
HETATM    1  C1  UNL     1      12.419  42.835  83.689  1.00  0.00     0.706 A 
HETATM    2  N4  UNL     1      13.715  43.049  83.399  1.00  0.00    -0.139 N 
ATOM      3  H4  UNL     1      14.429  42.471  83.841  1.00  0.00     0.189 HD
HETATM    4  C2  UNL     1      14.089  44.018  82.529  1.00  0.00     0.342 A 
HETATM    5  O1  UNL     1      15.307  44.228  82.249  1.00  0.00    -0.246 OA
HETATM    6  N5  UNL     1      13.179  44.801  81.924  1.00  0.00    -0.260 N 
ATOM      7  H5  UNL     1      13.467  45.528  81.270  1.00  0.00     0.175 HD
HETATM    8  C3  UNL     1      11.875  44.598  82.204  1.00  0.00     0.342 A 
HETATM    9  O2  UNL     1      10.999  45.329  81.642  1.00  0.00    -0.246 OA
HETATM   10  N6  UNL     1      11.526  43.630  83.071  1.00  0.00    -0.139 N 
ATOM     11  H6  UNL     1      10.535  43.491  83.270  1.00  0.00     0.189 HD
ENDROOT
BRANCH   1  12
HETATM   12  N3  UNL     1      12.078  41.907  84.520  1.00  0.00    -0.118 N 
ATOM     13  H3  UNL     1      12.818  41.342  84.936  1.00  0.00     0.207 HD
BRANCH  12  14
HETATM   14  N2  UNL     1      10.780  41.633  84.880  1.00  0.00    -0.235 N 
HETATM   15  N1  UNL     1      10.272  40.470  84.919  1.00  0.00    -0.330 N 
ATOM     16  H12 UNL     1      10.884  39.696  84.663  1.00  0.00     0.178 HD
ATOM     17  H11 UNL     1       9.310  40.267  85.185  1.00  0.00     0.178 HD
ATOM     18  H2  UNL     1      10.182  42.420  85.133  1.00  0.00     0.208 HD
ENDBRANCH  12  14
ENDBRANCH   1  12
TORSDOF 2
ENDMDL
MODEL 2
REMARK VINA RESULT: -6.446665002      0.027      2.363
REMARK  2 active torsions:
REMARK  status: ('A' for Active; 'I' for Inactive)
REMARK    1  A    between atoms: N2_4  and  N3_6 
REMARK    2  A    between atoms: N3_6  and  C1_8 
ROOT
HETATM    1  C1  UNL     1      12.422  42.826  83.698  1.00  0.00     0.706 A 
HETATM    2  N4  UNL     1      11.500  43.604  83.102  1.00  0.00    -0.139 N 
ATOM      3  H4  UNL     1      10.513  43.460  83.311  1.00  0.00     0.189 HD
HETATM    4  C2  UNL     1      11.860  44.576  82.230  1.00  0.00     0.342 A 
HETATM    5  O1  UNL     1      11.000  45.315  81.664  1.00  0.00    -0.246 OA
HETATM    6  N5  UNL     1      13.151  44.799  81.928  1.00  0.00    -0.260 N 
ATOM      7  H5  UNL     1      13.415  45.533  81.270  1.00  0.00     0.175 HD
HETATM    8  C3  UNL     1      14.087  44.027  82.517  1.00  0.00     0.342 A 
HETATM    9  O2  UNL     1      15.314  44.223  82.244  1.00  0.00    -0.246 OA
HETATM   10  N6  UNL     1      13.707  43.067  83.381  1.00  0.00    -0.139 N 
ATOM     11  H6  UNL     1      14.430  42.494  83.817  1.00  0.00     0.189 HD
ENDROOT
BRANCH   1  12
HETATM   12  N3  UNL     1      12.064  41.903  84.527  1.00  0.00    -0.118 N 
ATOM     13  H3  UNL     1      12.795  41.341  84.962  1.00  0.00     0.207 HD
BRANCH  12  14
HETATM   14  N2  UNL     1      10.758  41.630  84.860  1.00  0.00    -0.235 N 
HETATM   15  N1  UNL     1      10.263  40.464  84.943  1.00  0.00    -0.330 N 
ATOM     16  H12 UNL     1      10.891  39.686  84.746  1.00  0.00     0.178 HD
ATOM     17  H11 UNL     1       9.295  40.261  85.190  1.00  0.00     0.178 HD
ATOM     18  H2  UNL     1      10.143  42.420  85.054  1.00  0.00     0.208 HD
ENDBRANCH  12  14
ENDBRANCH   1  12
TORSDOF 2
ENDMDL
MODEL 3
REMARK VINA RESULT: -6.402973401      1.614      1.879
REMARK  2 active torsions:
REMARK  status: ('A' for Active; 'I' for Inactive)
REMARK    1  A    between atoms: N2_4  and  N3_6 
REMARK    2  A    between atoms: N3_6  and  C1_8 
ROOT
HETATM    1  C1  UNL     1      11.702  42.902  84.794  1.00  0.00     0.706 A 
HETATM    2  N4  UNL     1      12.874  42.943  85.453  1.00  0.00    -0.139 N 
ATOM      3  H4  UNL     1      12.914  42.627  86.422  1.00  0.00     0.189 HD
HETATM    4  C2  UNL     1      14.001  43.395  84.854  1.00  0.00     0.342 A 
HETATM    5  O1  UNL     1      15.110  43.437  85.466  1.00  0.00    -0.246 OA
HETATM    6  N5  UNL     1      13.991  43.819  83.578  1.00  0.00    -0.260 N 
ATOM      7  H5  UNL     1      14.843  44.157  83.132  1.00  0.00     0.175 HD
HETATM    8  C3  UNL     1      12.824  43.784  82.903  1.00  0.00     0.342 A 
HETATM    9  O2  UNL     1      12.793  44.180  81.695  1.00  0.00    -0.246 OA
HETATM   10  N6  UNL     1      11.715  43.330  83.518  1.00  0.00    -0.139 N 
ATOM     11  H6  UNL     1      10.842  43.311  82.991  1.00  0.00     0.189 HD
ENDROOT
BRANCH   1  12
HETATM   12  N3  UNL     1      10.636  42.469  85.379  1.00  0.00    -0.118 N 
ATOM     13  H3  UNL     1      10.341  42.931  86.239  1.00  0.00     0.207 HD
BRANCH  12  14
HETATM   14  N2  UNL     1       9.872  41.423  84.916  1.00  0.00    -0.235 N 
HETATM   15  N1  UNL     1      10.230  40.205  84.932  1.00  0.00    -0.330 N 
ATOM     16  H12 UNL     1      11.152  40.006  85.320  1.00  0.00     0.178 HD
ATOM     17  H11 UNL     1       9.665  39.430  84.589  1.00  0.00     0.178 HD
ATOM     18  H2  UNL     1       8.953  41.641  84.531  1.00  0.00     0.208 HD
ENDBRANCH  12  14
ENDBRANCH   1  12
TORSDOF 2
ENDMDL
MODEL 4
REMARK VINA RESULT: -6.392824993      1.622      2.686
REMARK  2 active torsions:
REMARK  status: ('A' for Active; 'I' for Inactive)
REMARK    1  A    between atoms: N2_4  and  N3_6 
REMARK    2  A    between atoms: N3_6  and  C1_8 
ROOT
HETATM    1  C1  UNL     1      11.699  42.907  84.817  1.00  0.00     0.706 A 
HETATM    2  N4  UNL     1      11.678  43.318  83.536  1.00  0.00    -0.139 N 
ATOM      3  H4  UNL     1      10.800  43.296  83.017  1.00  0.00     0.189 HD
HETATM    4  C2  UNL     1      12.801  43.762  82.923  1.00  0.00     0.342 A 
HETATM    5  O1  UNL     1      12.793  44.151  81.717  1.00  0.00    -0.246 OA
HETATM    6  N5  UNL     1      13.978  43.807  83.572  1.00  0.00    -0.260 N 
ATOM      7  H5  UNL     1      14.820  44.143  83.104  1.00  0.00     0.175 HD
HETATM    8  C3  UNL     1      14.016  43.399  84.857  1.00  0.00     0.342 A 
HETATM    9  O2  UNL     1      15.119  43.435  85.487  1.00  0.00    -0.246 OA
HETATM   10  N6  UNL     1      12.887  42.962  85.446  1.00  0.00    -0.139 N 
ATOM     11  H6  UNL     1      12.934  42.657  86.419  1.00  0.00     0.189 HD
ENDROOT
BRANCH   1  12
HETATM   12  N3  UNL     1      10.619  42.486  85.388  1.00  0.00    -0.118 N 
ATOM     13  H3  UNL     1      10.302  42.971  86.227  1.00  0.00     0.207 HD
BRANCH  12  14
HETATM   14  N2  UNL     1       9.871  41.425  84.936  1.00  0.00    -0.235 N 
HETATM   15  N1  UNL     1      10.259  40.217  84.934  1.00  0.00    -0.330 N 
ATOM     16  H12 UNL     1      11.195  40.037  85.297  1.00  0.00     0.178 HD
ATOM     17  H11 UNL     1       9.704  39.429  84.599  1.00  0.00     0.178 HD
ATOM     18  H2  UNL     1       8.937  41.623  84.576  1.00  0.00     0.208 HD
ENDBRANCH  12  14
ENDBRANCH   1  12
TORSDOF 2
ENDMDL
MODEL 5
REMARK VINA RESULT: -6.345748978      1.249      2.560
REMARK  2 active torsions:
REMARK  status: ('A' for Active; 'I' for Inactive)
REMARK    1  A    between atoms: N2_4  and  N3_6 
REMARK    2  A    between atoms: N3_6  and  C1_8 
ROOT
HETATM    1  C1  UNL     1      11.005  42.704  83.646  1.00  0.00     0.706 A 
HETATM    2  N4  UNL     1      10.914  43.830  82.916  1.00  0.00    -0.139 N 
ATOM      3  H4  UNL     1       9.999  44.152  82.602  1.00  0.00     0.189 HD
HETATM    4  C2  UNL     1      12.017  44.546  82.590  1.00  0.00     0.342 A 
HETATM    5  O1  UNL     1      11.944  45.608  81.902  1.00  0.00    -0.246 OA
HETATM    6  N5  UNL     1      13.243  44.157  82.984  1.00  0.00    -0.260 N 
ATOM      7  H5  UNL     1      14.069  44.700  82.735  1.00  0.00     0.175 HD
HETATM    8  C3  UNL     1      13.350  43.030  83.717  1.00  0.00     0.342 A 
HETATM    9  O2  UNL     1      14.500  42.646  84.100  1.00  0.00    -0.246 OA
HETATM   10  N6  UNL     1      12.240  42.335  84.030  1.00  0.00    -0.139 N 
ATOM     11  H6  UNL     1      12.341  41.485  84.586  1.00  0.00     0.189 HD
ENDROOT
BRANCH   1  12
HETATM   12  N3  UNL     1       9.944  42.033  83.949  1.00  0.00    -0.118 N 
ATOM     13  H3  UNL     1       9.124  42.139  83.352  1.00  0.00     0.207 HD
BRANCH  12  14
HETATM   14  N2  UNL     1       9.850  41.183  85.026  1.00  0.00    -0.235 N 
HETATM   15  N1  UNL     1       9.954  39.920  84.959  1.00  0.00    -0.330 N 
ATOM     16  H12 UNL     1      10.119  39.523  84.035  1.00  0.00     0.178 HD
ATOM     17  H11 UNL     1       9.885  39.290  85.758  1.00  0.00     0.178 HD
ATOM     18  H2  UNL     1       9.685  41.597  85.943  1.00  0.00     0.208 HD
ENDBRANCH  12  14
ENDBRANCH   1  12
TORSDOF 2
ENDMDL
