MODEL 1
REMARK VINA RESULT: -5.960598993      0.000      0.000
REMARK  1 active torsions:
REMARK  status: ('A' for Active; 'I' for Inactive)
REMARK    1  A    between atoms: C1_2  and  N1_3 
ROOT
HETATM    1  N1  UNL     1       8.926  43.105  83.495  1.00  0.00    -0.165 N 
ATOM      2  H1  UNL     1       8.347  42.779  84.269  1.00  0.00     0.186 HD
HETATM    3  C2  UNL     1      10.187  42.966  83.618  1.00  0.00     0.713 A 
HETATM    4  N2  UNL     1      10.694  42.374  84.817  1.00  0.00    -0.127 N 
ATOM      5  H2  UNL     1      10.038  42.078  85.540  1.00  0.00     0.206 HD
HETATM    6  N3  UNL     1      12.068  42.188  85.026  1.00  0.00    -0.236 N 
ATOM      7  H3  UNL     1      12.398  41.763  85.893  1.00  0.00     0.192 HD
HETATM    8  C3  UNL     1      13.003  42.592  84.032  1.00  0.00     0.354 A 
HETATM    9  O2  UNL     1      14.255  42.433  84.201  1.00  0.00    -0.244 OA
HETATM   10  N4  UNL     1      12.526  43.189  82.821  1.00  0.00    -0.236 N 
ATOM     11  H4  UNL     1      13.180  43.485  82.098  1.00  0.00     0.192 HD
HETATM   12  N5  UNL     1      11.146  43.359  82.646  1.00  0.00    -0.127 N 
ATOM     13  H5  UNL     1      10.815  43.785  81.781  1.00  0.00     0.206 HD
ENDROOT
BRANCH   1  14
HETATM   14  C1  UNL     1       8.261  43.661  82.397  1.00  0.00     0.368 C 
HETATM   15  O1  UNL     1       8.628  43.458  81.206  1.00  0.00    -0.283 OA
ENDBRANCH   1  14
TORSDOF 1
ENDMDL
MODEL 2
REMARK VINA RESULT: -5.806675098      2.137      2.253
REMARK  1 active torsions:
REMARK  status: ('A' for Active; 'I' for Inactive)
REMARK    1  A    between atoms: C1_2  and  N1_3 
ROOT
HETATM    1  N1  UNL     1      10.170  44.505  83.318  1.00  0.00    -0.165 N 
ATOM      2  H1  UNL     1       9.946  44.387  84.306  1.00  0.00     0.186 HD
HETATM    3  C2  UNL     1      11.399  44.423  82.991  1.00  0.00     0.713 A 
HETATM    4  N2  UNL     1      12.363  44.175  84.018  1.00  0.00    -0.127 N 
ATOM      5  H2  UNL     1      12.045  44.070  84.982  1.00  0.00     0.206 HD
HETATM    6  N3  UNL     1      13.733  44.072  83.738  1.00  0.00    -0.236 N 
ATOM      7  H3  UNL     1      14.395  43.895  84.493  1.00  0.00     0.192 HD
HETATM    8  C3  UNL     1      14.201  44.214  82.401  1.00  0.00     0.354 A 
HETATM    9  O2  UNL     1      15.441  44.124  82.123  1.00  0.00    -0.244 OA
HETATM   10  N4  UNL     1      13.260  44.464  81.351  1.00  0.00    -0.236 N 
ATOM     11  H4  UNL     1      13.576  44.569  80.387  1.00  0.00     0.192 HD
HETATM   12  N5  UNL     1      11.899  44.561  81.668  1.00  0.00    -0.127 N 
ATOM     13  H5  UNL     1      11.235  44.738  80.914  1.00  0.00     0.206 HD
ENDROOT
BRANCH   1  14
HETATM   14  C1  UNL     1       9.100  44.743  82.449  1.00  0.00     0.368 C 
HETATM   15  O1  UNL     1       9.231  45.384  81.369  1.00  0.00    -0.283 OA
ENDBRANCH   1  14
TORSDOF 1
ENDMDL
MODEL 3
REMARK VINA RESULT: -5.794264846      2.423      2.934
REMARK  1 active torsions:
REMARK  status: ('A' for Active; 'I' for Inactive)
REMARK    1  A    between atoms: C1_2  and  N1_3 
ROOT
HETATM    1  N1  UNL     1      10.473  42.892  84.102  1.00  0.00    -0.165 N 
ATOM      2  H1  UNL     1       9.745  43.597  83.983  1.00  0.00     0.186 HD
HETATM    3  C2  UNL     1      11.625  43.168  83.633  1.00  0.00     0.713 A 
HETATM    4  N2  UNL     1      11.813  44.427  82.982  1.00  0.00    -0.127 N 
ATOM      5  H2  UNL     1      11.025  45.070  82.909  1.00  0.00     0.206 HD
HETATM    6  N3  UNL     1      13.050  44.802  82.440  1.00  0.00    -0.236 N 
ATOM      7  H3  UNL     1      13.152  45.707  81.981  1.00  0.00     0.192 HD
HETATM    8  C3  UNL     1      14.166  43.921  82.528  1.00  0.00     0.354 A 
HETATM    9  O2  UNL     1      15.299  44.241  82.043  1.00  0.00    -0.244 OA
HETATM   10  N4  UNL     1      14.008  42.653  83.174  1.00  0.00    -0.236 N 
ATOM     11  H4  UNL     1      14.795  42.009  83.247  1.00  0.00     0.192 HD
HETATM   12  N5  UNL     1      12.757  42.312  83.704  1.00  0.00    -0.127 N 
ATOM     13  H5  UNL     1      12.654  41.407  84.163  1.00  0.00     0.206 HD
ENDROOT
BRANCH   1  14
HETATM   14  C1  UNL     1      10.113  41.714  84.764  1.00  0.00     0.368 C 
HETATM   15  O1  UNL     1      10.654  40.601  84.515  1.00  0.00    -0.283 OA
ENDBRANCH   1  14
TORSDOF 1
ENDMDL
MODEL 4
REMARK VINA RESULT: -5.769059503      3.420      4.738
REMARK  1 active torsions:
REMARK  status: ('A' for Active; 'I' for Inactive)
REMARK    1  A    between atoms: C1_2  and  N1_3 
ROOT
HETATM    1  N1  UNL     1       5.068  43.746  83.602  1.00  0.00    -0.165 N 
ATOM      2  H1  UNL     1       5.007  42.875  84.129  1.00  0.00     0.186 HD
HETATM    3  C2  UNL     1       6.217  44.073  83.157  1.00  0.00     0.713 A 
HETATM    4  N2  UNL     1       7.323  43.207  83.424  1.00  0.00    -0.127 N 
ATOM      5  H2  UNL     1       7.167  42.354  83.961  1.00  0.00     0.206 HD
HETATM    6  N3  UNL     1       8.616  43.499  82.969  1.00  0.00    -0.236 N 
ATOM      7  H3  UNL     1       9.385  42.861  83.176  1.00  0.00     0.192 HD
HETATM    8  C3  UNL     1       8.860  44.683  82.217  1.00  0.00     0.354 A 
HETATM    9  O2  UNL     1      10.026  44.968  81.793  1.00  0.00    -0.244 OA
HETATM   10  N4  UNL     1       7.772  45.570  81.934  1.00  0.00    -0.236 N 
ATOM     11  H4  UNL     1       7.926  46.423  81.398  1.00  0.00     0.192 HD
HETATM   12  N5  UNL     1       6.493  45.247  82.405  1.00  0.00    -0.127 N 
ATOM     13  H5  UNL     1       5.723  45.884  82.199  1.00  0.00     0.206 HD
ENDROOT
BRANCH   1  14
HETATM   14  C1  UNL     1       3.883  44.471  83.437  1.00  0.00     0.368 C 
HETATM   15  O1  UNL     1       3.434  44.790  82.301  1.00  0.00    -0.283 OA
ENDBRANCH   1  14
TORSDOF 1
ENDMDL
MODEL 5
REMARK VINA RESULT: -5.703166082      1.545      1.545
REMARK  1 active torsions:
REMARK  status: ('A' for Active; 'I' for Inactive)
REMARK    1  A    between atoms: C1_2  and  N1_3 
ROOT
HETATM    1  N1  UNL     1       9.707  45.012  83.255  1.00  0.00    -0.165 N 
ATOM      2  H1  UNL     1       9.360  45.614  84.002  1.00  0.00     0.186 HD
HETATM    3  C2  UNL     1      10.825  44.432  83.454  1.00  0.00     0.713 A 
HETATM    4  N2  UNL     1      11.503  44.664  84.691  1.00  0.00    -0.127 N 
ATOM      5  H2  UNL     1      11.078  45.284  85.381  1.00  0.00     0.206 HD
HETATM    6  N3  UNL     1      12.736  44.064  84.983  1.00  0.00    -0.236 N 
ATOM      7  H3  UNL     1      13.195  44.250  85.875  1.00  0.00     0.192 HD
HETATM    8  C3  UNL     1      13.349  43.194  84.037  1.00  0.00     0.354 A 
HETATM    9  O2  UNL     1      14.468  42.638  84.280  1.00  0.00    -0.244 OA
HETATM   10  N4  UNL     1      12.694  42.943  82.788  1.00  0.00    -0.236 N 
ATOM     11  H4  UNL     1      13.117  42.324  82.097  1.00  0.00     0.192 HD
HETATM   12  N5  UNL     1      11.463  43.561  82.531  1.00  0.00    -0.127 N 
ATOM     13  H5  UNL     1      11.003  43.376  81.639  1.00  0.00     0.206 HD
ENDROOT
BRANCH   1  14
HETATM   14  C1  UNL     1       8.913  44.900  82.110  1.00  0.00     0.368 C 
HETATM   15  O1  UNL     1       9.235  45.419  81.005  1.00  0.00    -0.283 OA
ENDBRANCH   1  14
TORSDOF 1
ENDMDL
