MODEL 1
REMARK VINA RESULT: -7.178965498      0.000      0.000
REMARK  1 active torsions:
REMARK  status: ('A' for Active; 'I' for Inactive)
REMARK       I    between atoms: C1_4  and  N3_6 
REMARK    1  A    between atoms: N3_6  and  C2_8 
ROOT
HETATM    1  C2  UNL     1      12.749  42.814  83.310  1.00  0.00     0.692 A 
HETATM    2  N4  UNL     1      12.048  42.060  84.178  1.00  0.00    -0.141 N 
ATOM      3  H4  UNL     1      12.488  41.241  84.598  1.00  0.00     0.189 HD
HETATM    4  C3  UNL     1      10.782  42.366  84.501  1.00  0.00     0.342 A 
HETATM    5  O1  UNL     1      10.115  41.676  85.307  1.00  0.00    -0.246 OA
HETATM    6  N5  UNL     1      10.189  43.439  83.960  1.00  0.00    -0.260 N 
ATOM      7  H5  UNL     1       9.228  43.685  84.196  1.00  0.00     0.175 HD
HETATM    8  C4  UNL     1      10.900  44.176  83.099  1.00  0.00     0.342 A 
HETATM    9  O2  UNL     1      10.381  45.203  82.558  1.00  0.00    -0.246 OA
HETATM   10  N6  UNL     1      12.163  43.896  82.758  1.00  0.00    -0.141 N 
ATOM     11  H6  UNL     1      12.670  44.485  82.098  1.00  0.00     0.189 HD
ENDROOT
BRANCH   1  12
HETATM   12  N3  UNL     1      13.960  42.495  83.019  1.00  0.00    -0.163 N 
HETATM   13  C1  UNL     1      14.597  43.140  81.929  1.00  0.00     0.200 C 
HETATM   14  N1  UNL     1      14.380  42.707  80.749  1.00  0.00    -0.373 N 
HETATM   15  N2  UNL     1      15.447  44.236  82.187  1.00  0.00    -0.063 NA
ATOM     16  H12 UNL     1      14.839  43.171  79.964  1.00  0.00     0.158 HD
ATOM     17  H11 UNL     1      13.765  41.914  80.562  1.00  0.00     0.158 HD
ATOM     18  H3  UNL     1      14.455  41.788  83.565  1.00  0.00     0.187 HD
ENDBRANCH   1  12
TORSDOF 1
ENDMDL
MODEL 2
REMARK VINA RESULT: -7.141432198      0.037      2.263
REMARK  1 active torsions:
REMARK  status: ('A' for Active; 'I' for Inactive)
REMARK       I    between atoms: C1_4  and  N3_6 
REMARK    1  A    between atoms: N3_6  and  C2_8 
ROOT
HETATM    1  C2  UNL     1      12.752  42.785  83.332  1.00  0.00     0.692 A 
HETATM    2  N4  UNL     1      12.178  43.865  82.769  1.00  0.00    -0.141 N 
ATOM      3  H4  UNL     1      12.713  44.429  82.110  1.00  0.00     0.189 HD
HETATM    4  C3  UNL     1      10.914  44.212  83.058  1.00  0.00     0.342 A 
HETATM    5  O1  UNL     1      10.364  45.213  82.544  1.00  0.00    -0.246 OA
HETATM    6  N5  UNL     1      10.195  43.481  83.921  1.00  0.00    -0.260 N 
ATOM      7  H5  UNL     1       9.234  43.731  84.151  1.00  0.00     0.175 HD
HETATM    8  C4  UNL     1      10.782  42.412  84.471  1.00  0.00     0.342 A 
HETATM    9  O2  UNL     1      10.141  41.687  85.297  1.00  0.00    -0.246 OA
HETATM   10  N6  UNL     1      12.039  42.042  84.203  1.00  0.00    -0.141 N 
ATOM     11  H6  UNL     1      12.448  41.218  84.645  1.00  0.00     0.189 HD
ENDROOT
BRANCH   1  12
HETATM   12  N3  UNL     1      13.964  42.478  83.036  1.00  0.00    -0.163 N 
HETATM   13  C1  UNL     1      14.590  43.131  81.944  1.00  0.00     0.200 C 
HETATM   14  N1  UNL     1      14.372  42.698  80.764  1.00  0.00    -0.373 N 
HETATM   15  N2  UNL     1      15.431  44.234  82.200  1.00  0.00    -0.063 NA
ATOM     16  H12 UNL     1      14.822  43.168  79.978  1.00  0.00     0.158 HD
ATOM     17  H11 UNL     1      13.763  41.900  80.578  1.00  0.00     0.158 HD
ATOM     18  H3  UNL     1      14.468  41.776  83.578  1.00  0.00     0.187 HD
ENDBRANCH   1  12
TORSDOF 1
ENDMDL
MODEL 3
REMARK VINA RESULT: -6.891889044      1.619      1.896
REMARK  1 active torsions:
REMARK  status: ('A' for Active; 'I' for Inactive)
REMARK       I    between atoms: C1_4  and  N3_6 
REMARK    1  A    between atoms: N3_6  and  C2_8 
ROOT
HETATM    1  C2  UNL     1      12.678  43.547  83.271  1.00  0.00     0.692 A 
HETATM    2  N4  UNL     1      12.618  44.488  84.232  1.00  0.00    -0.141 N 
ATOM      3  H4  UNL     1      13.461  44.723  84.756  1.00  0.00     0.189 HD
HETATM    4  C3  UNL     1      11.470  45.124  84.513  1.00  0.00     0.342 A 
HETATM    5  O1  UNL     1      11.395  46.003  85.403  1.00  0.00    -0.246 OA
HETATM    6  N5  UNL     1      10.353  44.830  83.833  1.00  0.00    -0.260 N 
ATOM      7  H5  UNL     1       9.473  45.305  84.034  1.00  0.00     0.175 HD
HETATM    8  C4  UNL     1      10.432  43.892  82.882  1.00  0.00     0.342 A 
HETATM    9  O2  UNL     1       9.399  43.577  82.210  1.00  0.00    -0.246 OA
HETATM   10  N6  UNL     1      11.561  43.242  82.581  1.00  0.00    -0.141 N 
ATOM     11  H6  UNL     1      11.577  42.533  81.847  1.00  0.00     0.189 HD
ENDROOT
BRANCH   1  12
HETATM   12  N3  UNL     1      13.792  42.955  83.026  1.00  0.00    -0.163 N 
HETATM   13  C1  UNL     1      14.685  43.532  82.087  1.00  0.00     0.200 C 
HETATM   14  N1  UNL     1      14.491  43.316  80.845  1.00  0.00    -0.373 N 
HETATM   15  N2  UNL     1      15.752  44.324  82.559  1.00  0.00    -0.063 NA
ATOM     16  H12 UNL     1      15.134  43.732  80.169  1.00  0.00     0.158 HD
ATOM     17  H11 UNL     1      13.719  42.744  80.503  1.00  0.00     0.158 HD
ATOM     18  H3  UNL     1      14.030  42.083  83.499  1.00  0.00     0.187 HD
ENDBRANCH   1  12
TORSDOF 1
ENDMDL
MODEL 4
REMARK VINA RESULT: -6.854926848      1.639      1.918
REMARK  1 active torsions:
REMARK  status: ('A' for Active; 'I' for Inactive)
REMARK       I    between atoms: C1_4  and  N3_6 
REMARK    1  A    between atoms: N3_6  and  C2_8 
ROOT
HETATM    1  C2  UNL     1      12.692  43.658  83.387  1.00  0.00     0.692 A 
HETATM    2  N4  UNL     1      11.597  43.321  82.680  1.00  0.00    -0.141 N 
ATOM      3  H4  UNL     1      11.668  42.600  81.961  1.00  0.00     0.189 HD
HETATM    4  C3  UNL     1      10.414  43.914  82.903  1.00  0.00     0.342 A 
HETATM    5  O1  UNL     1       9.385  43.613  82.256  1.00  0.00    -0.246 OA
HETATM    6  N5  UNL     1      10.303  44.861  83.844  1.00  0.00    -0.260 N 
ATOM      7  H5  UNL     1       9.411  45.321  84.027  1.00  0.00     0.175 HD
HETATM    8  C4  UNL     1      11.402  45.183  84.537  1.00  0.00     0.342 A 
HETATM    9  O2  UNL     1      11.347  46.077  85.440  1.00  0.00    -0.246 OA
HETATM   10  N6  UNL     1      12.593  44.610  84.336  1.00  0.00    -0.141 N 
ATOM     11  H6  UNL     1      13.406  44.886  84.887  1.00  0.00     0.189 HD
ENDROOT
BRANCH   1  12
HETATM   12  N3  UNL     1      13.812  43.072  83.149  1.00  0.00    -0.163 N 
HETATM   13  C1  UNL     1      14.736  43.689  82.269  1.00  0.00     0.200 C 
HETATM   14  N1  UNL     1      14.583  43.534  81.012  1.00  0.00    -0.373 N 
HETATM   15  N2  UNL     1      15.791  44.452  82.812  1.00  0.00    -0.063 NA
ATOM     16  H12 UNL     1      15.248  43.978  80.378  1.00  0.00     0.158 HD
ATOM     17  H11 UNL     1      13.820  42.982  80.618  1.00  0.00     0.158 HD
ATOM     18  H3  UNL     1      14.031  42.177  83.587  1.00  0.00     0.187 HD
ENDBRANCH   1  12
TORSDOF 1
ENDMDL
MODEL 5
REMARK VINA RESULT: -6.730579453      1.272      1.589
REMARK  1 active torsions:
REMARK  status: ('A' for Active; 'I' for Inactive)
REMARK       I    between atoms: C1_4  and  N3_6 
REMARK    1  A    between atoms: N3_6  and  C2_8 
ROOT
HETATM    1  C2  UNL     1      12.571  42.595  83.683  1.00  0.00     0.692 A 
HETATM    2  N4  UNL     1      11.896  41.907  84.623  1.00  0.00    -0.141 N 
ATOM      3  H4  UNL     1      12.410  41.313  85.274  1.00  0.00     0.189 HD
HETATM    4  C3  UNL     1      10.560  41.988  84.719  1.00  0.00     0.342 A 
HETATM    5  O1  UNL     1       9.915  41.355  85.587  1.00  0.00    -0.246 OA
HETATM    6  N5  UNL     1       9.869  42.764  83.873  1.00  0.00    -0.260 N 
ATOM      7  H5  UNL     1       8.854  42.837  83.934  1.00  0.00     0.175 HD
HETATM    8  C4  UNL     1      10.557  43.440  82.946  1.00  0.00     0.342 A 
HETATM    9  O2  UNL     1       9.946  44.190  82.119  1.00  0.00    -0.246 OA
HETATM   10  N6  UNL     1      11.887  43.379  82.825  1.00  0.00    -0.141 N 
ATOM     11  H6  UNL     1      12.373  43.912  82.103  1.00  0.00     0.189 HD
ENDROOT
BRANCH   1  12
HETATM   12  N3  UNL     1      13.851  42.496  83.615  1.00  0.00    -0.163 N 
HETATM   13  C1  UNL     1      14.648  43.569  84.088  1.00  0.00     0.200 C 
HETATM   14  N1  UNL     1      14.855  44.565  83.317  1.00  0.00    -0.373 N 
HETATM   15  N2  UNL     1      15.184  43.499  85.390  1.00  0.00    -0.063 NA
ATOM     16  H12 UNL     1      15.428  45.338  83.657  1.00  0.00     0.158 HD
ATOM     17  H11 UNL     1      14.467  44.617  82.375  1.00  0.00     0.158 HD
ATOM     18  H3  UNL     1      14.286  41.659  83.227  1.00  0.00     0.187 HD
ENDBRANCH   1  12
TORSDOF 1
ENDMDL
