MODEL 1
REMARK VINA RESULT: -7.370863555      0.000      0.000
REMARK  3 active torsions:
REMARK  status: ('A' for Active; 'I' for Inactive)
REMARK    1  A    between atoms: N1_1  and  N2_4 
REMARK    2  A    between atoms: N2_4  and  N3_6 
REMARK    3  A    between atoms: N4_8  and  N5_10 
ROOT
HETATM    1  N5  UNL     1      11.481  43.848  84.139  1.00  0.00    -0.255 N 
ATOM      2  H5  UNL     1      11.500  44.196  85.098  1.00  0.00     0.191 HD
HETATM    3  C1  UNL     1      12.562  43.841  83.423  1.00  0.00     0.205 A 
HETATM    4  N6  UNL     1      13.814  44.305  83.905  1.00  0.00    -0.289 N 
ATOM      5  H6  UNL     1      13.993  44.681  84.837  1.00  0.00     0.172 HD
HETATM    6  C2  UNL     1      14.776  44.157  82.871  1.00  0.00     0.316 A 
HETATM    7  O1  UNL     1      16.012  44.465  82.933  1.00  0.00    -0.262 OA
HETATM    8  C3  UNL     1      14.053  43.583  81.743  1.00  0.00     0.316 A 
HETATM    9  O2  UNL     1      14.549  43.295  80.618  1.00  0.00    -0.262 OA
HETATM   10  N7  UNL     1      12.697  43.387  82.071  1.00  0.00    -0.289 N 
ATOM     11  H7  UNL     1      11.966  43.003  81.473  1.00  0.00     0.172 HD
ENDROOT
BRANCH   1  12
HETATM   12  N4  UNL     1      10.296  43.375  83.586  1.00  0.00    -0.224 N 
HETATM   13  N3  UNL     1       9.683  42.419  84.135  1.00  0.00    -0.214 N 
ATOM     14  H3  UNL     1       8.813  42.067  83.734  1.00  0.00     0.211 HD
ATOM     15  H4  UNL     1       9.923  43.800  82.738  1.00  0.00     0.210 HD
BRANCH  13  16
HETATM   16  N2  UNL     1      10.206  41.846  85.296  1.00  0.00    -0.234 N 
ATOM     17  H2  UNL     1      10.402  42.401  86.129  1.00  0.00     0.209 HD
BRANCH  16  18
HETATM   18  N1  UNL     1      10.446  40.457  85.250  1.00  0.00    -0.330 N 
ATOM     19  H12 UNL     1       9.676  39.790  85.268  1.00  0.00     0.178 HD
ATOM     20  H11 UNL     1      11.424  40.172  85.199  1.00  0.00     0.178 HD
ENDBRANCH  16  18
ENDBRANCH  13  16
ENDBRANCH   1  12
TORSDOF 3
ENDMDL
MODEL 2
REMARK VINA RESULT: -7.207830840      1.347      1.544
REMARK  3 active torsions:
REMARK  status: ('A' for Active; 'I' for Inactive)
REMARK    1  A    between atoms: N1_1  and  N2_4 
REMARK    2  A    between atoms: N2_4  and  N3_6 
REMARK    3  A    between atoms: N4_8  and  N5_10 
ROOT
HETATM    1  N5  UNL     1      12.508  42.874  85.505  1.00  0.00    -0.255 N 
ATOM      2  H5  UNL     1      13.105  42.389  86.175  1.00  0.00     0.191 HD
HETATM    3  C1  UNL     1      13.016  43.400  84.434  1.00  0.00     0.205 A 
HETATM    4  N6  UNL     1      14.401  43.343  84.125  1.00  0.00    -0.289 N 
ATOM      5  H6  UNL     1      15.121  42.896  84.693  1.00  0.00     0.172 HD
HETATM    6  C2  UNL     1      14.613  44.012  82.891  1.00  0.00     0.316 A 
HETATM    7  O1  UNL     1      15.727  44.166  82.291  1.00  0.00    -0.262 OA
HETATM    8  C3  UNL     1      13.298  44.477  82.466  1.00  0.00     0.316 A 
HETATM    9  O2  UNL     1      13.050  45.124  81.411  1.00  0.00    -0.262 OA
HETATM   10  N7  UNL     1      12.315  44.107  83.405  1.00  0.00    -0.289 N 
ATOM     11  H7  UNL     1      11.314  44.302  83.361  1.00  0.00     0.172 HD
ENDROOT
BRANCH   1  12
HETATM   12  N4  UNL     1      11.139  42.977  85.729  1.00  0.00    -0.224 N 
HETATM   13  N3  UNL     1      10.397  41.971  85.570  1.00  0.00    -0.214 N 
ATOM     14  H3  UNL     1       9.393  42.040  85.732  1.00  0.00     0.211 HD
ATOM     15  H4  UNL     1      10.736  43.867  86.023  1.00  0.00     0.210 HD
BRANCH  13  16
HETATM   16  N2  UNL     1      10.963  40.760  85.168  1.00  0.00    -0.234 N 
ATOM     17  H2  UNL     1      11.954  40.677  84.938  1.00  0.00     0.209 HD
BRANCH  16  18
HETATM   18  N1  UNL     1      10.087  39.656  85.098  1.00  0.00    -0.330 N 
ATOM     19  H12 UNL     1       9.758  39.303  84.200  1.00  0.00     0.178 HD
ATOM     20  H11 UNL     1       9.811  39.245  85.989  1.00  0.00     0.178 HD
ENDBRANCH  16  18
ENDBRANCH  13  16
ENDBRANCH   1  12
TORSDOF 3
ENDMDL
MODEL 3
REMARK VINA RESULT: -7.078596052      0.651      1.874
REMARK  3 active torsions:
REMARK  status: ('A' for Active; 'I' for Inactive)
REMARK    1  A    between atoms: N1_1  and  N2_4 
REMARK    2  A    between atoms: N2_4  and  N3_6 
REMARK    3  A    between atoms: N4_8  and  N5_10 
ROOT
HETATM    1  N5  UNL     1      11.554  43.233  83.858  1.00  0.00    -0.255 N 
ATOM      2  H5  UNL     1      10.735  42.939  83.326  1.00  0.00     0.191 HD
HETATM    3  C1  UNL     1      12.664  43.516  83.250  1.00  0.00     0.205 A 
HETATM    4  N6  UNL     1      12.818  43.438  81.840  1.00  0.00    -0.289 N 
ATOM      5  H6  UNL     1      12.095  43.161  81.176  1.00  0.00     0.172 HD
HETATM    6  C2  UNL     1      14.147  43.812  81.513  1.00  0.00     0.316 A 
HETATM    7  O1  UNL     1      14.657  43.864  80.345  1.00  0.00    -0.262 OA
HETATM    8  C3  UNL     1      14.792  44.119  82.783  1.00  0.00     0.316 A 
HETATM    9  O2  UNL     1      15.989  44.494  82.932  1.00  0.00    -0.262 OA
HETATM   10  N7  UNL     1      13.892  43.940  83.852  1.00  0.00    -0.289 N 
ATOM     11  H7  UNL     1      14.076  44.083  84.845  1.00  0.00     0.172 HD
ENDROOT
BRANCH   1  12
HETATM   12  N4  UNL     1      11.492  43.336  85.243  1.00  0.00    -0.224 N 
HETATM   13  N3  UNL     1      10.738  42.567  85.899  1.00  0.00    -0.214 N 
ATOM     14  H3  UNL     1      10.688  42.638  86.915  1.00  0.00     0.211 HD
ATOM     15  H4  UNL     1      12.056  44.033  85.728  1.00  0.00     0.210 HD
BRANCH  13  16
HETATM   16  N2  UNL     1       9.972  41.618  85.221  1.00  0.00    -0.234 N 
ATOM     17  H2  UNL     1       9.136  41.875  84.695  1.00  0.00     0.209 HD
BRANCH  16  18
HETATM   18  N1  UNL     1      10.419  40.283  85.304  1.00  0.00    -0.330 N 
ATOM     19  H12 UNL     1      10.467  39.800  86.201  1.00  0.00     0.178 HD
ATOM     20  H11 UNL     1      10.687  39.842  84.424  1.00  0.00     0.178 HD
ENDBRANCH  16  18
ENDBRANCH  13  16
ENDBRANCH   1  12
TORSDOF 3
ENDMDL
MODEL 4
REMARK VINA RESULT: -7.052297513      1.519      2.504
REMARK  3 active torsions:
REMARK  status: ('A' for Active; 'I' for Inactive)
REMARK    1  A    between atoms: N1_1  and  N2_4 
REMARK    2  A    between atoms: N2_4  and  N3_6 
REMARK    3  A    between atoms: N4_8  and  N5_10 
ROOT
HETATM    1  N5  UNL     1      11.240  43.355  83.274  1.00  0.00    -0.255 N 
ATOM      2  H5  UNL     1      10.836  43.662  82.389  1.00  0.00     0.191 HD
HETATM    3  C1  UNL     1      12.514  43.469  83.489  1.00  0.00     0.205 A 
HETATM    4  N6  UNL     1      13.415  44.013  82.534  1.00  0.00    -0.289 N 
ATOM      5  H6  UNL     1      13.165  44.361  81.608  1.00  0.00     0.172 HD
HETATM    6  C2  UNL     1      14.722  43.990  83.088  1.00  0.00     0.316 A 
HETATM    7  O1  UNL     1      15.792  44.397  82.527  1.00  0.00    -0.262 OA
HETATM    8  C3  UNL     1      14.575  43.410  84.417  1.00  0.00     0.316 A 
HETATM    9  O2  UNL     1      15.509  43.212  85.243  1.00  0.00    -0.262 OA
HETATM   10  N7  UNL     1      13.226  43.088  84.670  1.00  0.00    -0.289 N 
ATOM     11  H7  UNL     1      12.840  42.670  85.517  1.00  0.00     0.172 HD
ENDROOT
BRANCH   1  12
HETATM   12  N4  UNL     1      10.430  42.811  84.265  1.00  0.00    -0.224 N 
HETATM   13  N3  UNL     1       9.191  42.685  84.068  1.00  0.00    -0.214 N 
ATOM     14  H3  UNL     1       8.592  42.286  84.790  1.00  0.00     0.211 HD
ATOM     15  H4  UNL     1      10.838  42.513  85.150  1.00  0.00     0.210 HD
BRANCH  13  16
HETATM   16  N2  UNL     1       8.647  43.097  82.850  1.00  0.00    -0.234 N 
ATOM     17  H2  UNL     1       9.234  43.339  82.051  1.00  0.00     0.209 HD
BRANCH  16  18
HETATM   18  N1  UNL     1       7.239  43.161  82.788  1.00  0.00    -0.330 N 
ATOM     19  H12 UNL     1       6.662  42.741  83.516  1.00  0.00     0.178 HD
ATOM     20  H11 UNL     1       6.846  43.644  81.981  1.00  0.00     0.178 HD
ENDBRANCH  16  18
ENDBRANCH  13  16
ENDBRANCH   1  12
TORSDOF 3
ENDMDL
MODEL 5
REMARK VINA RESULT: -6.861432877      1.197      2.286
REMARK  3 active torsions:
REMARK  status: ('A' for Active; 'I' for Inactive)
REMARK    1  A    between atoms: N1_1  and  N2_4 
REMARK    2  A    between atoms: N2_4  and  N3_6 
REMARK    3  A    between atoms: N4_8  and  N5_10 
ROOT
HETATM    1  N5  UNL     1      12.248  41.867  84.098  1.00  0.00    -0.255 N 
ATOM      2  H5  UNL     1      11.738  41.101  83.659  1.00  0.00     0.191 HD
HETATM    3  C1  UNL     1      13.220  42.453  83.470  1.00  0.00     0.205 A 
HETATM    4  N6  UNL     1      13.633  42.081  82.163  1.00  0.00    -0.289 N 
ATOM      5  H6  UNL     1      13.224  41.338  81.597  1.00  0.00     0.172 HD
HETATM    6  C2  UNL     1      14.713  42.919  81.779  1.00  0.00     0.316 A 
HETATM    7  O1  UNL     1      15.346  42.885  80.673  1.00  0.00    -0.262 OA
HETATM    8  C3  UNL     1      14.936  43.814  82.908  1.00  0.00     0.316 A 
HETATM    9  O2  UNL     1      15.815  44.718  82.971  1.00  0.00    -0.262 OA
HETATM   10  N7  UNL     1      14.027  43.535  83.948  1.00  0.00    -0.289 N 
ATOM     11  H7  UNL     1      13.958  44.005  84.851  1.00  0.00     0.172 HD
ENDROOT
BRANCH   1  12
HETATM   12  N4  UNL     1      11.910  42.296  85.377  1.00  0.00    -0.224 N 
HETATM   13  N3  UNL     1      10.700  42.328  85.731  1.00  0.00    -0.214 N 
ATOM     14  H3  UNL     1      10.445  42.641  86.668  1.00  0.00     0.211 HD
ATOM     15  H4  UNL     1      12.640  42.584  86.028  1.00  0.00     0.210 HD
BRANCH  13  16
HETATM   16  N2  UNL     1       9.712  41.930  84.829  1.00  0.00    -0.234 N 
ATOM     17  H2  UNL     1       9.398  40.962  84.765  1.00  0.00     0.209 HD
BRANCH  16  18
HETATM   18  N1  UNL     1       9.173  42.944  84.010  1.00  0.00    -0.330 N 
ATOM     19  H12 UNL     1       8.570  42.717  83.220  1.00  0.00     0.178 HD
ATOM     20  H11 UNL     1       9.424  43.902  84.257  1.00  0.00     0.178 HD
ENDBRANCH  16  18
ENDBRANCH  13  16
ENDBRANCH   1  12
TORSDOF 3
ENDMDL
