MODEL 1
REMARK VINA RESULT: -7.368470957      0.000      0.000
REMARK  2 active torsions:
REMARK  status: ('A' for Active; 'I' for Inactive)
REMARK    1  A    between atoms: N1_1  and  C1_4 
REMARK    2  A    between atoms: C3_11  and  N4_12 
REMARK       I    between atoms: N4_12  and  C4_14 
ROOT
HETATM    1  C1  UNL     1      10.767  42.519  84.339  1.00  0.00     0.694 A 
HETATM    2  N2  UNL     1      10.067  43.460  83.685  1.00  0.00    -0.141 N 
ATOM      3  H2  UNL     1       9.069  43.569  83.868  1.00  0.00     0.189 HD
HETATM    4  C2  UNL     1      10.673  44.259  82.790  1.00  0.00     0.352 A 
HETATM    5  O1  UNL     1      10.046  45.144  82.166  1.00  0.00    -0.246 OA
HETATM    6  N3  UNL     1      11.999  44.103  82.556  1.00  0.00    -0.140 N 
ATOM      7  H3  UNL     1      12.470  44.703  81.879  1.00  0.00     0.189 HD
HETATM    8  C3  UNL     1      12.687  43.168  83.208  1.00  0.00     0.704 A 
HETATM    9  N6  UNL     1      12.085  42.354  84.116  1.00  0.00    -0.022 N 
ATOM     10  H6  UNL     1      12.615  41.640  84.613  1.00  0.00     0.203 HD
ENDROOT
BRANCH   8  11
HETATM   11  N4  UNL     1      13.941  42.995  83.009  1.00  0.00    -0.143 N 
HETATM   12  C4  UNL     1      14.777  43.859  82.291  1.00  0.00     0.346 C 
HETATM   13  N5  UNL     1      15.875  44.472  82.995  1.00  0.00    -0.039 NA
HETATM   14  O2  UNL     1      14.649  44.148  81.078  1.00  0.00    -0.250 OA
ATOM     15  H4  UNL     1      14.367  42.157  83.407  1.00  0.00     0.188 HD
ENDBRANCH   8  11
BRANCH   1  16
HETATM   16  N1  UNL     1      10.146  41.777  85.186  1.00  0.00    -0.234 N 
ATOM     17  H12 UNL     1      10.182  41.983  86.185  1.00  0.00     0.174 HD
ATOM     18  H11 UNL     1       9.618  40.979  84.833  1.00  0.00     0.174 HD
ENDBRANCH   1  16
TORSDOF 2
ENDMDL
MODEL 2
REMARK VINA RESULT: -7.181296163      1.394      1.394
REMARK  2 active torsions:
REMARK  status: ('A' for Active; 'I' for Inactive)
REMARK    1  A    between atoms: N1_1  and  C1_4 
REMARK    2  A    between atoms: C3_11  and  N4_12 
REMARK       I    between atoms: N4_12  and  C4_14 
ROOT
HETATM    1  C1  UNL     1      10.584  42.366  84.470  1.00  0.00     0.694 A 
HETATM    2  N2  UNL     1       9.701  42.813  83.562  1.00  0.00    -0.141 N 
ATOM      3  H2  UNL     1       8.777  42.385  83.500  1.00  0.00     0.189 HD
HETATM    4  C2  UNL     1      10.027  43.821  82.735  1.00  0.00     0.352 A 
HETATM    5  O1  UNL     1       9.224  44.257  81.881  1.00  0.00    -0.246 OA
HETATM    6  N3  UNL     1      11.258  44.380  82.828  1.00  0.00    -0.140 N 
ATOM      7  H3  UNL     1      11.518  45.145  82.206  1.00  0.00     0.189 HD
HETATM    8  C3  UNL     1      12.130  43.932  83.730  1.00  0.00     0.704 A 
HETATM    9  N6  UNL     1      11.810  42.913  84.572  1.00  0.00    -0.022 N 
ATOM     10  H6  UNL     1      12.481  42.573  85.261  1.00  0.00     0.203 HD
ENDROOT
BRANCH   8  11
HETATM   11  N4  UNL     1      13.302  44.438  83.843  1.00  0.00    -0.143 N 
HETATM   12  C4  UNL     1      14.505  43.753  83.636  1.00  0.00     0.346 C 
HETATM   13  N5  UNL     1      15.371  44.218  82.582  1.00  0.00    -0.039 NA
HETATM   14  O2  UNL     1      14.896  42.762  84.296  1.00  0.00    -0.250 OA
ATOM     15  H4  UNL     1      13.363  45.422  84.104  1.00  0.00     0.188 HD
ENDBRANCH   8  11
BRANCH   1  16
HETATM   16  N1  UNL     1      10.229  41.400  85.240  1.00  0.00    -0.234 N 
ATOM     17  H12 UNL     1       9.311  40.965  85.143  1.00  0.00     0.174 HD
ATOM     18  H11 UNL     1      10.889  41.081  85.950  1.00  0.00     0.174 HD
ENDBRANCH   1  16
TORSDOF 2
ENDMDL
MODEL 3
REMARK VINA RESULT: -7.164129065      2.099      2.423
REMARK  2 active torsions:
REMARK  status: ('A' for Active; 'I' for Inactive)
REMARK    1  A    between atoms: N1_1  and  C1_4 
REMARK    2  A    between atoms: C3_11  and  N4_12 
REMARK       I    between atoms: N4_12  and  C4_14 
ROOT
HETATM    1  C1  UNL     1      10.484  43.124  83.780  1.00  0.00     0.694 A 
HETATM    2  N2  UNL     1      11.018  42.918  84.995  1.00  0.00    -0.141 N 
ATOM      3  H2  UNL     1      10.415  42.665  85.779  1.00  0.00     0.189 HD
HETATM    4  C2  UNL     1      12.342  43.041  85.185  1.00  0.00     0.352 A 
HETATM    5  O1  UNL     1      12.868  42.854  86.304  1.00  0.00    -0.246 OA
HETATM    6  N3  UNL     1      13.132  43.377  84.135  1.00  0.00    -0.140 N 
ATOM      7  H3  UNL     1      14.139  43.474  84.267  1.00  0.00     0.189 HD
HETATM    8  C3  UNL     1      12.596  43.581  82.934  1.00  0.00     0.704 A 
HETATM    9  N6  UNL     1      11.257  43.459  82.730  1.00  0.00    -0.022 N 
ATOM     10  H6  UNL     1      10.850  43.616  81.808  1.00  0.00     0.203 HD
ENDROOT
BRANCH   8  11
HETATM   11  N4  UNL     1      13.314  43.900  81.922  1.00  0.00    -0.143 N 
HETATM   12  C4  UNL     1      14.705  43.761  81.837  1.00  0.00     0.346 C 
HETATM   13  N5  UNL     1      15.233  42.889  80.817  1.00  0.00    -0.039 NA
HETATM   14  O2  UNL     1      15.537  44.335  82.578  1.00  0.00    -0.250 OA
ATOM     15  H4  UNL     1      12.833  44.289  81.110  1.00  0.00     0.188 HD
ENDBRANCH   8  11
BRANCH   1  16
HETATM   16  N1  UNL     1       9.212  42.996  83.645  1.00  0.00    -0.234 N 
ATOM     17  H12 UNL     1       8.604  43.815  83.616  1.00  0.00     0.174 HD
ATOM     18  H11 UNL     1       8.827  42.054  83.570  1.00  0.00     0.174 HD
ENDBRANCH   1  16
TORSDOF 2
ENDMDL
MODEL 4
REMARK VINA RESULT: -7.082527310      1.851      1.901
REMARK  2 active torsions:
REMARK  status: ('A' for Active; 'I' for Inactive)
REMARK    1  A    between atoms: N1_1  and  C1_4 
REMARK    2  A    between atoms: C3_11  and  N4_12 
REMARK       I    between atoms: N4_12  and  C4_14 
ROOT
HETATM    1  C1  UNL     1      11.706  42.675  84.575  1.00  0.00     0.694 A 
HETATM    2  N2  UNL     1      11.320  43.764  85.260  1.00  0.00    -0.141 N 
ATOM      3  H2  UNL     1      10.779  43.658  86.119  1.00  0.00     0.189 HD
HETATM    4  C2  UNL     1      11.641  44.992  84.821  1.00  0.00     0.352 A 
HETATM    5  O1  UNL     1      11.295  46.024  85.439  1.00  0.00    -0.246 OA
HETATM    6  N3  UNL     1      12.360  45.119  83.679  1.00  0.00    -0.140 N 
ATOM      7  H3  UNL     1      12.610  46.046  83.335  1.00  0.00     0.189 HD
HETATM    8  C3  UNL     1      12.740  44.036  83.004  1.00  0.00     0.704 A 
HETATM    9  N6  UNL     1      12.421  42.788  83.439  1.00  0.00    -0.022 N 
ATOM     10  H6  UNL     1      12.713  41.961  82.920  1.00  0.00     0.203 HD
ENDROOT
BRANCH   8  11
HETATM   11  N4  UNL     1      13.419  44.122  81.921  1.00  0.00    -0.143 N 
HETATM   12  C4  UNL     1      14.773  43.790  81.783  1.00  0.00     0.346 C 
HETATM   13  N5  UNL     1      15.114  42.728  80.869  1.00  0.00    -0.039 NA
HETATM   14  O2  UNL     1      15.719  44.340  82.391  1.00  0.00    -0.250 OA
ATOM     15  H4  UNL     1      12.934  44.460  81.090  1.00  0.00     0.188 HD
ENDBRANCH   8  11
BRANCH   1  16
HETATM   16  N1  UNL     1      11.376  41.520  85.032  1.00  0.00    -0.234 N 
ATOM     17  H12 UNL     1      10.396  41.280  85.187  1.00  0.00     0.174 HD
ATOM     18  H11 UNL     1      12.118  40.851  85.236  1.00  0.00     0.174 HD
ENDBRANCH   1  16
TORSDOF 2
ENDMDL
MODEL 5
REMARK VINA RESULT: -6.753552282      1.134      1.134
REMARK  2 active torsions:
REMARK  status: ('A' for Active; 'I' for Inactive)
REMARK    1  A    between atoms: N1_1  and  C1_4 
REMARK    2  A    between atoms: C3_11  and  N4_12 
REMARK       I    between atoms: N4_12  and  C4_14 
ROOT
HETATM    1  C1  UNL     1      10.974  42.627  84.516  1.00  0.00     0.694 A 
HETATM    2  N2  UNL     1      10.482  43.537  83.659  1.00  0.00    -0.141 N 
ATOM      3  H2  UNL     1       9.474  43.611  83.521  1.00  0.00     0.189 HD
HETATM    4  C2  UNL     1      11.311  44.350  82.984  1.00  0.00     0.352 A 
HETATM    5  O1  UNL     1      10.882  45.207  82.179  1.00  0.00    -0.246 OA
HETATM    6  N3  UNL     1      12.648  44.240  83.177  1.00  0.00    -0.140 N 
ATOM      7  H3  UNL     1      13.287  44.852  82.669  1.00  0.00     0.189 HD
HETATM    8  C3  UNL     1      13.129  43.336  84.028  1.00  0.00     0.704 A 
HETATM    9  N6  UNL     1      12.300  42.508  84.717  1.00  0.00    -0.022 N 
ATOM     10  H6  UNL     1      12.671  41.817  85.368  1.00  0.00     0.203 HD
ENDROOT
BRANCH   8  11
HETATM   11  N4  UNL     1      14.387  43.207  84.232  1.00  0.00    -0.143 N 
HETATM   12  C4  UNL     1      15.372  44.124  83.844  1.00  0.00     0.346 C 
HETATM   13  N5  UNL     1      16.165  44.736  84.880  1.00  0.00    -0.039 NA
HETATM   14  O2  UNL     1      15.622  44.460  82.664  1.00  0.00    -0.250 OA
ATOM     15  H4  UNL     1      14.698  42.365  84.718  1.00  0.00     0.188 HD
ENDBRANCH   8  11
BRANCH   1  16
HETATM   16  N1  UNL     1      10.143  41.869  85.141  1.00  0.00    -0.234 N 
ATOM     17  H12 UNL     1       9.144  42.073  85.135  1.00  0.00     0.174 HD
ATOM     18  H11 UNL     1      10.511  41.061  85.644  1.00  0.00     0.174 HD
ENDBRANCH   1  16
TORSDOF 2
ENDMDL
