MODEL 1
REMARK VINA RESULT: -7.019159854      0.000      0.000
REMARK  1 active torsions:
REMARK  status: ('A' for Active; 'I' for Inactive)
REMARK    1  A    between atoms: N3_4  and  N4_6 
ROOT
HETATM    1  N4  UNL     1      12.031  44.556  82.485  1.00  0.00    -0.279 N 
ATOM      2  H4  UNL     1      11.693  45.121  81.707  1.00  0.00     0.189 HD
HETATM    3  C2  UNL     1      11.180  43.807  83.094  1.00  0.00     0.193 A 
HETATM    4  N5  UNL     1      11.433  42.944  84.198  1.00  0.00    -0.289 N 
ATOM      5  H5  UNL     1      12.330  42.800  84.661  1.00  0.00     0.172 HD
HETATM    6  C3  UNL     1      10.195  42.317  84.537  1.00  0.00     0.328 A 
HETATM    7  O1  UNL     1      10.035  41.483  85.473  1.00  0.00    -0.247 OA
HETATM    8  N6  UNL     1       9.176  42.784  83.654  1.00  0.00    -0.272 N 
ATOM      9  H6  UNL     1       8.196  42.503  83.667  1.00  0.00     0.174 HD
HETATM   10  C4  UNL     1       9.766  43.703  82.756  1.00  0.00     0.295 A 
HETATM   11  O2  UNL     1       9.210  44.337  81.823  1.00  0.00    -0.264 OA
ENDROOT
BRANCH   1  12
HETATM   12  N3  UNL     1      13.370  44.647  82.813  1.00  0.00    -0.274 N 
HETATM   13  C1  UNL     1      14.272  44.168  82.020  1.00  0.00     0.215 C 
HETATM   14  N1  UNL     1      13.880  43.541  80.799  1.00  0.00    -0.065 NA
HETATM   15  N2  UNL     1      15.650  44.274  82.380  1.00  0.00    -0.065 NA
ATOM     16  H3  UNL     1      13.648  45.095  83.685  1.00  0.00     0.189 HD
ENDBRANCH   1  12
TORSDOF 1
ENDMDL
MODEL 2
REMARK VINA RESULT: -6.787177901      2.811      4.812
REMARK  1 active torsions:
REMARK  status: ('A' for Active; 'I' for Inactive)
REMARK    1  A    between atoms: N3_4  and  N4_6 
ROOT
HETATM    1  N4  UNL     1      11.306  43.326  83.787  1.00  0.00    -0.279 N 
ATOM      2  H4  UNL     1      10.851  43.036  84.652  1.00  0.00     0.189 HD
HETATM    3  C2  UNL     1      12.575  43.534  83.820  1.00  0.00     0.193 A 
HETATM    4  N5  UNL     1      13.406  43.942  82.738  1.00  0.00    -0.289 N 
ATOM      5  H5  UNL     1      13.106  44.127  81.781  1.00  0.00     0.172 HD
HETATM    6  C3  UNL     1      14.738  44.046  83.242  1.00  0.00     0.328 A 
HETATM    7  O1  UNL     1      15.749  44.385  82.564  1.00  0.00    -0.247 OA
HETATM    8  N6  UNL     1      14.741  43.706  84.628  1.00  0.00    -0.272 N 
ATOM      9  H6  UNL     1      15.557  43.695  85.241  1.00  0.00     0.174 HD
HETATM   10  C4  UNL     1      13.416  43.387  85.002  1.00  0.00     0.295 A 
HETATM   11  O2  UNL     1      12.995  43.036  86.134  1.00  0.00    -0.264 OA
ENDROOT
BRANCH   1  12
HETATM   12  N3  UNL     1      10.518  43.468  82.661  1.00  0.00    -0.274 N 
HETATM   13  C1  UNL     1       9.782  44.521  82.506  1.00  0.00     0.215 C 
HETATM   14  N1  UNL     1       9.787  45.540  83.505  1.00  0.00    -0.065 NA
HETATM   15  N2  UNL     1       8.975  44.644  81.334  1.00  0.00    -0.065 NA
ATOM     16  H3  UNL     1      10.516  42.739  81.949  1.00  0.00     0.189 HD
ENDBRANCH   1  12
TORSDOF 1
ENDMDL
MODEL 3
REMARK VINA RESULT: -6.753508746      1.035      2.491
REMARK  1 active torsions:
REMARK  status: ('A' for Active; 'I' for Inactive)
REMARK    1  A    between atoms: N3_4  and  N4_6 
ROOT
HETATM    1  N4  UNL     1      12.737  43.267  84.470  1.00  0.00    -0.279 N 
ATOM      2  H4  UNL     1      12.827  42.542  85.181  1.00  0.00     0.189 HD
HETATM    3  C2  UNL     1      11.587  43.423  83.917  1.00  0.00     0.193 A 
HETATM    4  N5  UNL     1      11.240  44.367  82.908  1.00  0.00    -0.289 N 
ATOM      5  H5  UNL     1      11.862  45.053  82.482  1.00  0.00     0.172 HD
HETATM    6  C3  UNL     1       9.859  44.173  82.603  1.00  0.00     0.328 A 
HETATM    7  O1  UNL     1       9.202  44.834  81.750  1.00  0.00    -0.247 OA
HETATM    8  N6  UNL     1       9.344  43.117  83.413  1.00  0.00    -0.272 N 
ATOM      9  H6  UNL     1       8.386  42.766  83.405  1.00  0.00     0.174 HD
HETATM   10  C4  UNL     1      10.396  42.643  84.230  1.00  0.00     0.295 A 
HETATM   11  O2  UNL     1      10.356  41.720  85.084  1.00  0.00    -0.264 OA
ENDROOT
BRANCH   1  12
HETATM   12  N3  UNL     1      13.860  44.012  84.166  1.00  0.00    -0.274 N 
HETATM   13  C1  UNL     1      14.604  43.694  83.157  1.00  0.00     0.215 C 
HETATM   14  N1  UNL     1      14.261  42.565  82.354  1.00  0.00    -0.065 NA
HETATM   15  N2  UNL     1      15.760  44.479  82.863  1.00  0.00    -0.065 NA
ATOM     16  H3  UNL     1      14.104  44.818  84.741  1.00  0.00     0.189 HD
ENDBRANCH   1  12
TORSDOF 1
ENDMDL
MODEL 4
REMARK VINA RESULT: -6.742121825      1.245      2.679
REMARK  1 active torsions:
REMARK  status: ('A' for Active; 'I' for Inactive)
REMARK    1  A    between atoms: N3_4  and  N4_6 
ROOT
HETATM    1  N4  UNL     1      12.601  42.906  83.526  1.00  0.00    -0.279 N 
ATOM      2  H4  UNL     1      12.816  42.108  84.123  1.00  0.00     0.189 HD
HETATM    3  C2  UNL     1      11.368  43.248  83.407  1.00  0.00     0.193 A 
HETATM    4  N5  UNL     1      10.846  44.322  82.629  1.00  0.00    -0.289 N 
ATOM      5  H5  UNL     1      11.384  44.971  82.056  1.00  0.00     0.172 HD
HETATM    6  C3  UNL     1       9.429  44.320  82.801  1.00  0.00     0.328 A 
HETATM    7  O1  UNL     1       8.629  45.135  82.260  1.00  0.00    -0.247 OA
HETATM    8  N6  UNL     1       9.065  43.254  83.678  1.00  0.00    -0.272 N 
ATOM      9  H6  UNL     1       8.118  43.019  83.976  1.00  0.00     0.174 HD
HETATM   10  C4  UNL     1      10.248  42.583  84.061  1.00  0.00     0.295 A 
HETATM   11  O2  UNL     1      10.360  41.590  84.825  1.00  0.00    -0.264 OA
ENDROOT
BRANCH   1  12
HETATM   12  N3  UNL     1      13.656  43.543  82.900  1.00  0.00    -0.274 N 
HETATM   13  C1  UNL     1      14.746  43.796  83.549  1.00  0.00     0.215 C 
HETATM   14  N1  UNL     1      14.857  43.414  84.920  1.00  0.00    -0.065 NA
HETATM   15  N2  UNL     1      15.821  44.456  82.881  1.00  0.00    -0.065 NA
ATOM     16  H3  UNL     1      13.574  43.816  81.921  1.00  0.00     0.189 HD
ENDBRANCH   1  12
TORSDOF 1
ENDMDL
MODEL 5
REMARK VINA RESULT: -6.692378629      2.688      4.823
REMARK  1 active torsions:
REMARK  status: ('A' for Active; 'I' for Inactive)
REMARK    1  A    between atoms: N3_4  and  N4_6 
ROOT
HETATM    1  N4  UNL     1      11.248  44.339  84.405  1.00  0.00    -0.279 N 
ATOM      2  H4  UNL     1      10.860  43.914  85.246  1.00  0.00     0.189 HD
HETATM    3  C2  UNL     1      12.488  44.121  84.143  1.00  0.00     0.193 A 
HETATM    4  N5  UNL     1      13.230  44.612  83.030  1.00  0.00    -0.289 N 
ATOM      5  H5  UNL     1      12.876  45.208  82.283  1.00  0.00     0.172 HD
HETATM    6  C3  UNL     1      14.562  44.114  83.157  1.00  0.00     0.328 A 
HETATM    7  O1  UNL     1      15.505  44.345  82.348  1.00  0.00    -0.247 OA
HETATM    8  N6  UNL     1      14.655  43.319  84.338  1.00  0.00    -0.272 N 
ATOM      9  H6  UNL     1      15.490  42.839  84.674  1.00  0.00     0.174 HD
HETATM   10  C4  UNL     1      13.385  43.312  84.959  1.00  0.00     0.295 A 
HETATM   11  O2  UNL     1      13.047  42.727  86.020  1.00  0.00    -0.264 OA
ENDROOT
BRANCH   1  12
HETATM   12  N3  UNL     1      10.406  45.108  83.625  1.00  0.00    -0.274 N 
HETATM   13  C1  UNL     1       9.499  44.549  82.892  1.00  0.00     0.215 C 
HETATM   14  N1  UNL     1       9.370  43.127  82.889  1.00  0.00    -0.065 NA
HETATM   15  N2  UNL     1       8.641  45.365  82.094  1.00  0.00    -0.065 NA
ATOM     16  H3  UNL     1      10.500  46.124  83.628  1.00  0.00     0.189 HD
ENDBRANCH   1  12
TORSDOF 1
ENDMDL
