MODEL 1
REMARK VINA RESULT: -7.055503447      0.000      0.000
REMARK  3 active torsions:
REMARK  status: ('A' for Active; 'I' for Inactive)
REMARK    1  A    between atoms: C2_4  and  N3_5 
REMARK    2  A    between atoms: C2_4  and  C4_14 
REMARK    3  A    between atoms: N3_5  and  C3_7 
ROOT
HETATM    1  N3  UNL     1      13.275  44.852  82.846  1.00  0.00    -0.175 N 
ATOM      2  H3  UNL     1      13.389  45.673  82.251  1.00  0.00     0.182 HD
ENDROOT
BRANCH   1   3
HETATM    3  C2  UNL     1      14.444  44.067  83.146  1.00  0.00     0.284 A 
HETATM    4  N1  UNL     1      15.018  43.257  82.060  1.00  0.00    -0.182 NA
HETATM    5  C1  UNL     1      14.254  43.267  80.837  1.00  0.00     0.137 C 
HETATM    6  N2  UNL     1      15.631  44.421  82.512  1.00  0.00    -0.102 NA
BRANCH   3   7
HETATM    7  C4  UNL     1      14.392  43.364  84.443  1.00  0.00     0.295 C 
HETATM    8  N7  UNL     1      13.288  42.616  84.918  1.00  0.00    -0.057 NA
HETATM    9  O1  UNL     1      15.401  43.435  85.181  1.00  0.00    -0.271 OA
ENDBRANCH   3   7
ENDBRANCH   1   3
BRANCH   1  10
HETATM   10  C3  UNL     1      12.108  44.583  83.278  1.00  0.00     0.712 A 
HETATM   11  N4  UNL     1      11.351  44.971  84.295  1.00  0.00    -0.116 N 
HETATM   12  N5  UNL     1      10.381  44.180  83.913  1.00  0.00    -0.214 N 
ATOM     13  H4  UNL     1      11.476  45.626  85.068  1.00  0.00     0.207 HD
HETATM   14  N6  UNL     1      11.116  43.777  82.890  1.00  0.00    -0.116 N 
ATOM     15  H5  UNL     1       9.447  43.964  84.259  1.00  0.00     0.209 HD
ATOM     16  H6  UNL     1      10.982  43.120  82.122  1.00  0.00     0.207 HD
ENDBRANCH   1  10
TORSDOF 3
ENDMDL
MODEL 2
REMARK VINA RESULT: -6.706057000      2.265      3.127
REMARK  3 active torsions:
REMARK  status: ('A' for Active; 'I' for Inactive)
REMARK    1  A    between atoms: C2_4  and  N3_5 
REMARK    2  A    between atoms: C2_4  and  C4_14 
REMARK    3  A    between atoms: N3_5  and  C3_7 
ROOT
HETATM    1  N3  UNL     1      12.308  43.543  84.287  1.00  0.00    -0.175 N 
ATOM      2  H3  UNL     1      12.279  44.431  84.787  1.00  0.00     0.182 HD
ENDROOT
BRANCH   1   3
HETATM    3  C2  UNL     1      13.288  43.386  83.243  1.00  0.00     0.284 A 
HETATM    4  N1  UNL     1      14.707  43.461  83.623  1.00  0.00    -0.182 NA
HETATM    5  C1  UNL     1      14.939  43.803  85.005  1.00  0.00     0.137 C 
HETATM    6  N2  UNL     1      14.098  42.255  83.292  1.00  0.00    -0.102 NA
BRANCH   3   7
HETATM    7  C4  UNL     1      12.970  44.107  81.994  1.00  0.00     0.295 C 
HETATM    8  N7  UNL     1      12.302  45.353  81.922  1.00  0.00    -0.057 NA
HETATM    9  O1  UNL     1      13.319  43.577  80.916  1.00  0.00    -0.271 OA
ENDBRANCH   3   7
ENDBRANCH   1   3
BRANCH   1  10
HETATM   10  C3  UNL     1      11.476  42.639  84.622  1.00  0.00     0.712 A 
HETATM   11  N4  UNL     1      11.524  41.493  85.287  1.00  0.00    -0.116 N 
HETATM   12  N5  UNL     1      10.240  41.306  85.114  1.00  0.00    -0.214 N 
ATOM     13  H4  UNL     1      12.266  40.967  85.748  1.00  0.00     0.207 HD
HETATM   14  N6  UNL     1      10.166  42.446  84.447  1.00  0.00    -0.116 N 
ATOM     15  H5  UNL     1       9.573  40.583  85.382  1.00  0.00     0.209 HD
ATOM     16  H6  UNL     1       9.417  42.964  83.988  1.00  0.00     0.207 HD
ENDBRANCH   1  10
TORSDOF 3
ENDMDL
MODEL 3
REMARK VINA RESULT: -6.656052923      2.180      3.055
REMARK  3 active torsions:
REMARK  status: ('A' for Active; 'I' for Inactive)
REMARK    1  A    between atoms: C2_4  and  N3_5 
REMARK    2  A    between atoms: C2_4  and  C4_14 
REMARK    3  A    between atoms: N3_5  and  C3_7 
ROOT
HETATM    1  N3  UNL     1      12.485  43.831  84.367  1.00  0.00    -0.175 N 
ATOM      2  H3  UNL     1      12.503  44.675  84.940  1.00  0.00     0.182 HD
ENDROOT
BRANCH   1   3
HETATM    3  C2  UNL     1      13.433  43.727  83.288  1.00  0.00     0.284 A 
HETATM    4  N1  UNL     1      14.861  43.672  83.638  1.00  0.00    -0.182 NA
HETATM    5  C1  UNL     1      15.140  43.847  85.041  1.00  0.00     0.137 C 
HETATM    6  N2  UNL     1      14.169  42.550  83.195  1.00  0.00    -0.102 NA
BRANCH   3   7
HETATM    7  C4  UNL     1      13.140  44.598  82.132  1.00  0.00     0.295 C 
HETATM    8  N7  UNL     1      13.666  44.424  80.829  1.00  0.00    -0.057 NA
HETATM    9  O1  UNL     1      12.367  45.565  82.317  1.00  0.00    -0.271 OA
ENDBRANCH   3   7
ENDBRANCH   1   3
BRANCH   1  10
HETATM   10  C3  UNL     1      11.626  42.934  84.648  1.00  0.00     0.712 A 
HETATM   11  N4  UNL     1      10.322  42.771  84.476  1.00  0.00    -0.116 N 
HETATM   12  N5  UNL     1      10.360  41.604  85.068  1.00  0.00    -0.214 N 
ATOM     13  H4  UNL     1       9.583  43.332  84.051  1.00  0.00     0.207 HD
HETATM   14  N6  UNL     1      11.662  41.744  85.252  1.00  0.00    -0.116 N 
ATOM     15  H5  UNL     1       9.673  40.886  85.293  1.00  0.00     0.209 HD
ATOM     16  H6  UNL     1      12.394  41.176  85.680  1.00  0.00     0.207 HD
ENDBRANCH   1  10
TORSDOF 3
ENDMDL
MODEL 4
REMARK VINA RESULT: -6.628276293      1.657      2.679
REMARK  3 active torsions:
REMARK  status: ('A' for Active; 'I' for Inactive)
REMARK    1  A    between atoms: C2_4  and  N3_5 
REMARK    2  A    between atoms: C2_4  and  C4_14 
REMARK    3  A    between atoms: N3_5  and  C3_7 
ROOT
HETATM    1  N3  UNL     1      13.038  44.579  83.165  1.00  0.00    -0.175 N 
ATOM      2  H3  UNL     1      13.546  45.457  83.274  1.00  0.00     0.182 HD
ENDROOT
BRANCH   1   3
HETATM    3  C2  UNL     1      13.795  43.395  82.852  1.00  0.00     0.284 A 
HETATM    4  N1  UNL     1      14.666  42.844  83.901  1.00  0.00    -0.182 NA
HETATM    5  C1  UNL     1      14.739  43.644  85.099  1.00  0.00     0.137 C 
HETATM    6  N2  UNL     1      13.473  42.229  83.540  1.00  0.00    -0.102 NA
BRANCH   3   7
HETATM    7  C4  UNL     1      14.416  43.404  81.512  1.00  0.00     0.295 C 
HETATM    8  N7  UNL     1      14.322  42.355  80.565  1.00  0.00    -0.057 NA
HETATM    9  O1  UNL     1      15.076  44.416  81.187  1.00  0.00    -0.271 OA
ENDBRANCH   3   7
ENDBRANCH   1   3
BRANCH   1  10
HETATM   10  C3  UNL     1      11.774  44.596  83.315  1.00  0.00     0.712 A 
HETATM   11  N4  UNL     1      10.724  44.871  82.554  1.00  0.00    -0.116 N 
HETATM   12  N5  UNL     1       9.905  44.621  83.544  1.00  0.00    -0.214 N 
ATOM     13  H4  UNL     1      10.603  45.162  81.583  1.00  0.00     0.207 HD
HETATM   14  N6  UNL     1      10.936  44.342  84.324  1.00  0.00    -0.116 N 
ATOM     15  H5  UNL     1       8.893  44.635  83.664  1.00  0.00     0.209 HD
ATOM     16  H6  UNL     1      11.046  44.052  85.295  1.00  0.00     0.207 HD
ENDBRANCH   1  10
TORSDOF 3
ENDMDL
MODEL 5
REMARK VINA RESULT: -6.582892576      2.263      3.215
REMARK  3 active torsions:
REMARK  status: ('A' for Active; 'I' for Inactive)
REMARK    1  A    between atoms: C2_4  and  N3_5 
REMARK    2  A    between atoms: C2_4  and  C4_14 
REMARK    3  A    between atoms: N3_5  and  C3_7 
ROOT
HETATM    1  N3  UNL     1      12.694  42.963  84.011  1.00  0.00    -0.175 N 
ATOM      2  H3  UNL     1      13.631  42.851  84.396  1.00  0.00     0.182 HD
ENDROOT
BRANCH   1   3
HETATM    3  C2  UNL     1      12.524  43.852  82.891  1.00  0.00     0.284 A 
HETATM    4  N1  UNL     1      13.736  44.424  82.285  1.00  0.00    -0.182 NA
HETATM    5  C1  UNL     1      14.960  44.104  82.978  1.00  0.00     0.137 C 
HETATM    6  N2  UNL     1      13.004  43.423  81.657  1.00  0.00    -0.102 NA
BRANCH   3   7
HETATM    7  C4  UNL     1      11.423  44.823  83.043  1.00  0.00     0.295 C 
HETATM    8  N7  UNL     1      10.450  45.111  82.056  1.00  0.00    -0.057 NA
HETATM    9  O1  UNL     1      11.343  45.441  84.129  1.00  0.00    -0.271 OA
ENDBRANCH   3   7
ENDBRANCH   1   3
BRANCH   1  10
HETATM   10  C3  UNL     1      11.743  42.309  84.550  1.00  0.00     0.712 A 
HETATM   11  N4  UNL     1      11.173  41.126  84.370  1.00  0.00    -0.116 N 
HETATM   12  N5  UNL     1      10.335  41.348  85.351  1.00  0.00    -0.214 N 
ATOM     13  H4  UNL     1      11.327  40.351  83.723  1.00  0.00     0.207 HD
HETATM   14  N6  UNL     1      10.887  42.533  85.550  1.00  0.00    -0.116 N 
ATOM     15  H5  UNL     1       9.574  40.824  85.782  1.00  0.00     0.209 HD
ATOM     16  H6  UNL     1      10.725  43.302  86.201  1.00  0.00     0.207 HD
ENDBRANCH   1  10
TORSDOF 3
ENDMDL
