MODEL 1
REMARK VINA RESULT: -7.091412890      0.000      0.000
REMARK  1 active torsions:
REMARK  status: ('A' for Active; 'I' for Inactive)
REMARK       I    between atoms: N1_1  and  C1_5 
REMARK       I    between atoms: C1_5  and  N2_6 
REMARK       I    between atoms: C1_5  and  N3_10 
REMARK    1  A    between atoms: N3_10  and  C2_12 
ROOT
HETATM    1  C2  UNL     1      11.967  44.004  83.564  1.00  0.00     0.188 A 
HETATM    2  N4  UNL     1      12.455  44.321  82.329  1.00  0.00    -0.277 N 
ATOM      3  H4  UNL     1      11.796  44.471  81.566  1.00  0.00     0.189 HD
HETATM    4  N5  UNL     1      13.742  44.442  82.083  1.00  0.00    -0.250 N 
ATOM      5  H5  UNL     1      14.045  44.680  81.139  1.00  0.00     0.192 HD
HETATM    6  C3  UNL     1      14.671  44.261  83.038  1.00  0.00     0.341 A 
HETATM    7  O1  UNL     1      15.900  44.382  82.778  1.00  0.00    -0.245 OA
HETATM    8  N6  UNL     1      14.227  43.950  84.258  1.00  0.00    -0.271 N 
ATOM      9  H6  UNL     1      14.908  43.807  85.002  1.00  0.00     0.174 HD
HETATM   10  C4  UNL     1      12.897  43.815  84.553  1.00  0.00     0.294 A 
HETATM   11  O2  UNL     1      12.567  43.519  85.738  1.00  0.00    -0.264 OA
ENDROOT
BRANCH   1  12
HETATM   12  N3  UNL     1      10.722  43.900  83.747  1.00  0.00    -0.322 N 
HETATM   13  C1  UNL     1       9.834  42.815  83.716  1.00  0.00     0.481 C 
HETATM   14  N1  UNL     1       9.889  41.927  84.861  1.00  0.00    -0.033 N 
HETATM   15  N2  UNL     1       8.427  43.271  83.645  1.00  0.00    -0.033 N 
ATOM     16  H13 UNL     1       9.548  42.348  85.725  1.00  0.00     0.278 HD
ATOM     17  H12 UNL     1       9.211  41.166  84.824  1.00  0.00     0.278 HD
ATOM     18  H11 UNL     1      10.859  41.613  84.910  1.00  0.00     0.278 HD
ATOM     19  H23 UNL     1       7.749  42.510  83.609  1.00  0.00     0.278 HD
ATOM     20  H22 UNL     1       8.087  43.691  84.509  1.00  0.00     0.278 HD
ATOM     21  H21 UNL     1       8.389  43.896  82.840  1.00  0.00     0.278 HD
ATOM     22  H3  UNL     1      10.269  44.788  83.962  1.00  0.00     0.165 HD
ENDBRANCH   1  12
TORSDOF 1
ENDMDL
MODEL 2
REMARK VINA RESULT: -7.050157073      1.500      1.863
REMARK  1 active torsions:
REMARK  status: ('A' for Active; 'I' for Inactive)
REMARK       I    between atoms: N1_1  and  C1_5 
REMARK       I    between atoms: C1_5  and  N2_6 
REMARK       I    between atoms: C1_5  and  N3_10 
REMARK    1  A    between atoms: N3_10  and  C2_12 
ROOT
HETATM    1  C2  UNL     1      11.841  44.051  83.391  1.00  0.00     0.188 A 
HETATM    2  N4  UNL     1      12.767  43.331  84.091  1.00  0.00    -0.277 N 
ATOM      3  H4  UNL     1      12.443  42.693  84.817  1.00  0.00     0.189 HD
HETATM    4  N5  UNL     1      14.060  43.427  83.867  1.00  0.00    -0.250 N 
ATOM      5  H5  UNL     1      14.701  42.863  84.424  1.00  0.00     0.192 HD
HETATM    6  C3  UNL     1      14.562  44.247  82.926  1.00  0.00     0.341 A 
HETATM    7  O1  UNL     1      15.806  44.322  82.729  1.00  0.00    -0.245 OA
HETATM    8  N6  UNL     1      13.683  44.964  82.223  1.00  0.00    -0.271 N 
ATOM      9  H6  UNL     1      14.034  45.594  81.502  1.00  0.00     0.174 HD
HETATM   10  C4  UNL     1      12.331  44.893  82.426  1.00  0.00     0.294 A 
HETATM   11  O2  UNL     1      11.573  45.610  81.712  1.00  0.00    -0.264 OA
ENDROOT
BRANCH   1  12
HETATM   12  N3  UNL     1      10.612  43.922  83.646  1.00  0.00    -0.322 N 
HETATM   13  C1  UNL     1       9.745  42.820  83.666  1.00  0.00     0.481 C 
HETATM   14  N1  UNL     1       9.885  41.934  84.806  1.00  0.00    -0.033 N 
HETATM   15  N2  UNL     1       8.328  43.246  83.677  1.00  0.00    -0.033 N 
ATOM     16  H13 UNL     1       9.586  42.348  85.688  1.00  0.00     0.278 HD
ATOM     17  H12 UNL     1       9.221  41.159  84.809  1.00  0.00     0.278 HD
ATOM     18  H11 UNL     1      10.861  41.639  84.798  1.00  0.00     0.278 HD
ATOM     19  H23 UNL     1       7.664  42.472  83.680  1.00  0.00     0.278 HD
ATOM     20  H22 UNL     1       8.029  43.661  84.560  1.00  0.00     0.278 HD
ATOM     21  H21 UNL     1       8.230  43.870  82.876  1.00  0.00     0.278 HD
ATOM     22  H3  UNL     1      10.153  44.801  83.887  1.00  0.00     0.165 HD
ENDBRANCH   1  12
TORSDOF 1
ENDMDL
MODEL 3
REMARK VINA RESULT: -6.827925414      1.328      1.690
REMARK  1 active torsions:
REMARK  status: ('A' for Active; 'I' for Inactive)
REMARK       I    between atoms: N1_1  and  C1_5 
REMARK       I    between atoms: C1_5  and  N2_6 
REMARK       I    between atoms: C1_5  and  N3_10 
REMARK    1  A    between atoms: N3_10  and  C2_12 
ROOT
HETATM    1  C2  UNL     1      12.797  42.400  84.002  1.00  0.00     0.188 A 
HETATM    2  N4  UNL     1      13.375  42.304  82.768  1.00  0.00    -0.277 N 
ATOM      3  H4  UNL     1      12.992  41.637  82.099  1.00  0.00     0.189 HD
HETATM    4  N5  UNL     1      14.405  43.039  82.406  1.00  0.00    -0.250 N 
ATOM      5  H5  UNL     1      14.792  42.920  81.470  1.00  0.00     0.192 HD
HETATM    6  C3  UNL     1      14.963  43.940  83.233  1.00  0.00     0.341 A 
HETATM    7  O1  UNL     1      15.951  44.634  82.863  1.00  0.00    -0.245 OA
HETATM    8  N6  UNL     1      14.422  44.060  84.447  1.00  0.00    -0.271 N 
ATOM      9  H6  UNL     1      14.824  44.736  85.095  1.00  0.00     0.174 HD
HETATM   10  C4  UNL     1      13.351  43.314  84.860  1.00  0.00     0.294 A 
HETATM   11  O2  UNL     1      12.903  43.495  86.029  1.00  0.00    -0.264 OA
ENDROOT
BRANCH   1  12
HETATM   12  N3  UNL     1      11.810  41.672  84.299  1.00  0.00    -0.322 N 
HETATM   13  C1  UNL     1      10.561  41.937  84.878  1.00  0.00     0.481 C 
HETATM   14  N1  UNL     1       9.591  42.576  84.010  1.00  0.00    -0.033 N 
HETATM   15  N2  UNL     1       9.906  40.693  85.342  1.00  0.00    -0.033 N 
ATOM     16  H13 UNL     1       9.258  41.979  83.253  1.00  0.00     0.278 HD
ATOM     17  H12 UNL     1       8.683  42.727  84.449  1.00  0.00     0.278 HD
ATOM     18  H11 UNL     1      10.042  43.434  83.690  1.00  0.00     0.278 HD
ATOM     19  H23 UNL     1       8.998  40.844  85.781  1.00  0.00     0.278 HD
ATOM     20  H22 UNL     1       9.573  40.095  84.585  1.00  0.00     0.278 HD
ATOM     21  H21 UNL     1      10.588  40.242  85.952  1.00  0.00     0.278 HD
ATOM     22  H3  UNL     1      11.950  40.687  84.072  1.00  0.00     0.165 HD
ENDBRANCH   1  12
TORSDOF 1
ENDMDL
MODEL 4
REMARK VINA RESULT: -6.740134047      1.971      2.505
REMARK  1 active torsions:
REMARK  status: ('A' for Active; 'I' for Inactive)
REMARK       I    between atoms: N1_1  and  C1_5 
REMARK       I    between atoms: C1_5  and  N2_6 
REMARK       I    between atoms: C1_5  and  N3_10 
REMARK    1  A    between atoms: N3_10  and  C2_12 
ROOT
HETATM    1  C2  UNL     1      10.973  44.463  83.608  1.00  0.00     0.188 A 
HETATM    2  N4  UNL     1      11.272  43.617  84.637  1.00  0.00    -0.277 N 
ATOM      3  H4  UNL     1      10.523  43.325  85.264  1.00  0.00     0.189 HD
HETATM    4  N5  UNL     1      12.488  43.162  84.853  1.00  0.00    -0.250 N 
ATOM      5  H5  UNL     1      12.648  42.533  85.639  1.00  0.00     0.192 HD
HETATM    6  C3  UNL     1      13.526  43.502  84.068  1.00  0.00     0.341 A 
HETATM    7  O1  UNL     1      14.684  43.053  84.295  1.00  0.00    -0.245 OA
HETATM    8  N6  UNL     1      13.267  44.328  83.052  1.00  0.00    -0.271 N 
ATOM      9  H6  UNL     1      14.035  44.603  82.440  1.00  0.00     0.174 HD
HETATM   10  C4  UNL     1      12.017  44.823  82.795  1.00  0.00     0.294 A 
HETATM   11  O2  UNL     1      11.864  45.600  81.810  1.00  0.00    -0.264 OA
ENDROOT
BRANCH   1  12
HETATM   12  N3  UNL     1       9.789  44.871  83.445  1.00  0.00    -0.322 N 
HETATM   13  C1  UNL     1       8.672  44.338  82.787  1.00  0.00     0.481 C 
HETATM   14  N1  UNL     1       8.004  43.246  83.469  1.00  0.00    -0.033 N 
HETATM   15  N2  UNL     1       7.625  45.365  82.582  1.00  0.00    -0.033 N 
ATOM     16  H13 UNL     1       7.528  43.525  84.326  1.00  0.00     0.278 HD
ATOM     17  H12 UNL     1       7.178  42.900  82.981  1.00  0.00     0.278 HD
ATOM     18  H11 UNL     1       8.725  42.538  83.610  1.00  0.00     0.278 HD
ATOM     19  H23 UNL     1       6.798  45.019  82.095  1.00  0.00     0.278 HD
ATOM     20  H22 UNL     1       7.148  45.644  83.439  1.00  0.00     0.278 HD
ATOM     21  H21 UNL     1       8.094  46.133  82.103  1.00  0.00     0.278 HD
ATOM     22  H3  UNL     1       9.608  45.774  83.883  1.00  0.00     0.165 HD
ENDBRANCH   1  12
TORSDOF 1
ENDMDL
MODEL 5
REMARK VINA RESULT: -6.676413910      2.217      3.591
REMARK  1 active torsions:
REMARK  status: ('A' for Active; 'I' for Inactive)
REMARK       I    between atoms: N1_1  and  C1_5 
REMARK       I    between atoms: C1_5  and  N2_6 
REMARK       I    between atoms: C1_5  and  N3_10 
REMARK    1  A    between atoms: N3_10  and  C2_12 
ROOT
HETATM    1  C2  UNL     1       9.373  43.375  83.329  1.00  0.00     0.188 A 
HETATM    2  N4  UNL     1       9.879  42.616  84.345  1.00  0.00    -0.277 N 
ATOM      3  H4  UNL     1       9.316  41.848  84.709  1.00  0.00     0.189 HD
HETATM    4  N5  UNL     1      11.063  42.836  84.875  1.00  0.00    -0.250 N 
ATOM      5  H5  UNL     1      11.385  42.234  85.633  1.00  0.00     0.192 HD
HETATM    6  C3  UNL     1      11.862  43.830  84.448  1.00  0.00     0.341 A 
HETATM    7  O1  UNL     1      12.995  44.021  84.973  1.00  0.00    -0.245 OA
HETATM    8  N6  UNL     1      11.398  44.590  83.455  1.00  0.00    -0.271 N 
ATOM      9  H6  UNL     1      11.982  45.351  83.110  1.00  0.00     0.174 HD
HETATM   10  C4  UNL     1      10.172  44.394  82.878  1.00  0.00     0.294 A 
HETATM   11  O2  UNL     1       9.814  45.164  81.941  1.00  0.00    -0.264 OA
ENDROOT
BRANCH   1  12
HETATM   12  N3  UNL     1       8.230  43.122  82.856  1.00  0.00    -0.322 N 
HETATM   13  C1  UNL     1       6.936  43.544  83.193  1.00  0.00     0.481 C 
HETATM   14  N1  UNL     1       6.596  44.898  82.799  1.00  0.00    -0.033 N 
HETATM   15  N2  UNL     1       5.907  42.686  82.564  1.00  0.00    -0.033 N 
ATOM     16  H13 UNL     1       6.514  45.025  81.791  1.00  0.00     0.278 HD
ATOM     17  H12 UNL     1       5.639  45.165  83.030  1.00  0.00     0.278 HD
ATOM     18  H11 UNL     1       7.305  45.489  83.233  1.00  0.00     0.278 HD
ATOM     19  H23 UNL     1       4.950  42.954  82.795  1.00  0.00     0.278 HD
ATOM     20  H22 UNL     1       5.825  42.814  81.555  1.00  0.00     0.278 HD
ATOM     21  H21 UNL     1       6.147  41.734  82.840  1.00  0.00     0.278 HD
ATOM     22  H3  UNL     1       8.252  42.478  82.065  1.00  0.00     0.165 HD
ENDBRANCH   1  12
TORSDOF 1
ENDMDL
