MODEL 1
REMARK VINA RESULT: -6.650654701      0.000      0.000
REMARK  3 active torsions:
REMARK  status: ('A' for Active; 'I' for Inactive)
REMARK    1  A    between atoms: N1_2  and  C2_3 
REMARK    2  A    between atoms: N1_2  and  S1_17 
REMARK    3  A    between atoms: C12_13  and  O1_15 
ROOT
HETATM    1  C2  UNL     1      39.224  51.640  15.245  1.00  0.00     0.129 C 
HETATM    2  C3  UNL     1      39.219  50.639  14.082  1.00  0.00     0.030 C 
HETATM    3  C4  UNL     1      39.235  51.430  12.832  1.00  0.00     0.011 C 
HETATM    4  C5  UNL     1      40.575  51.634  12.202  1.00  0.00    -0.041 C 
HETATM    5  C6  UNL     1      40.956  50.311  11.554  1.00  0.00     0.015 C 
HETATM    6  C7  UNL     1      40.339  52.586  11.031  1.00  0.00     0.015 C 
HETATM    7  C8  UNL     1      41.643  52.123  13.130  1.00  0.00    -0.038 C 
HETATM    8  C9  UNL     1      42.359  53.269  12.381  1.00  0.00     0.015 C 
HETATM    9  C10 UNL     1      42.716  51.074  13.338  1.00  0.00     0.015 C 
HETATM   10  C11 UNL     1      41.178  52.766  14.376  1.00  0.00     0.049 C 
HETATM   11  C12 UNL     1      40.702  51.904  15.478  1.00  0.00     0.076 C 
HETATM   12  C13 UNL     1      40.922  52.679  16.784  1.00  0.00     0.048 C 
ENDROOT
BRANCH   1  13
HETATM   13  N1  UNL     1      38.470  51.269  16.341  1.00  0.00    -0.308 N 
HETATM   14  C1  UNL     1      38.848  50.324  17.278  1.00  0.00     0.163 C 
BRANCH  13  15
HETATM   15  S1  UNL     1      37.187  52.280  16.734  1.00  0.00     0.224 S 
HETATM   16  C14 UNL     1      35.850  51.399  17.541  1.00  0.00     0.186 C 
HETATM   17  O2  UNL     1      37.544  53.420  17.622  1.00  0.00    -0.206 OA
HETATM   18  O3  UNL     1      36.637  52.882  15.456  1.00  0.00    -0.206 OA
ENDBRANCH  13  15
ENDBRANCH   1  13
BRANCH  11  19
HETATM   19  O1  UNL     1      41.448  50.753  15.577  1.00  0.00    -0.388 OA
ATOM     20  H1  UNL     1      42.210  50.752  15.009  1.00  0.00     0.210 HD
ENDBRANCH  11  19
TORSDOF 3
ENDMDL
MODEL 2
REMARK VINA RESULT: -6.153331432      1.770      3.170
REMARK  3 active torsions:
REMARK  status: ('A' for Active; 'I' for Inactive)
REMARK    1  A    between atoms: N1_2  and  C2_3 
REMARK    2  A    between atoms: N1_2  and  S1_17 
REMARK    3  A    between atoms: C12_13  and  O1_15 
ROOT
HETATM    1  C2  UNL     1      38.742  51.534  14.795  1.00  0.00     0.129 C 
HETATM    2  C3  UNL     1      39.718  52.690  14.540  1.00  0.00     0.030 C 
HETATM    3  C4  UNL     1      41.080  52.112  14.542  1.00  0.00     0.011 C 
HETATM    4  C5  UNL     1      41.654  51.783  13.201  1.00  0.00    -0.041 C 
HETATM    5  C6  UNL     1      42.047  53.107  12.562  1.00  0.00     0.015 C 
HETATM    6  C7  UNL     1      42.980  51.079  13.483  1.00  0.00     0.015 C 
HETATM    7  C8  UNL     1      40.759  50.981  12.309  1.00  0.00    -0.038 C 
HETATM    8  C9  UNL     1      41.646  49.861  11.721  1.00  0.00     0.015 C 
HETATM    9  C10 UNL     1      40.316  51.787  11.106  1.00  0.00     0.015 C 
HETATM   10  C11 UNL     1      39.669  50.241  12.975  1.00  0.00     0.049 C 
HETATM   11  C12 UNL     1      38.468  50.989  13.403  1.00  0.00     0.076 C 
HETATM   12  C13 UNL     1      37.300  49.994  13.421  1.00  0.00     0.048 C 
ENDROOT
BRANCH   1  13
HETATM   13  N1  UNL     1      37.646  51.853  15.572  1.00  0.00    -0.308 N 
HETATM   14  C1  UNL     1      36.634  52.718  15.196  1.00  0.00     0.163 C 
BRANCH  13  15
HETATM   15  S1  UNL     1      37.363  50.859  16.897  1.00  0.00     0.224 S 
HETATM   16  C14 UNL     1      36.991  51.796  18.381  1.00  0.00     0.186 C 
HETATM   17  O2  UNL     1      36.254  49.884  16.717  1.00  0.00    -0.206 OA
HETATM   18  O3  UNL     1      38.615  50.048  17.168  1.00  0.00    -0.206 OA
ENDBRANCH  13  15
ENDBRANCH   1  13
BRANCH  11  19
HETATM   19  O1  UNL     1      38.134  51.967  12.495  1.00  0.00    -0.388 OA
ATOM     20  H1  UNL     1      37.458  51.695  11.885  1.00  0.00     0.210 HD
ENDBRANCH  11  19
TORSDOF 3
ENDMDL
MODEL 3
REMARK VINA RESULT: -6.010464671      1.919      3.456
REMARK  3 active torsions:
REMARK  status: ('A' for Active; 'I' for Inactive)
REMARK    1  A    between atoms: N1_2  and  C2_3 
REMARK    2  A    between atoms: N1_2  and  S1_17 
REMARK    3  A    between atoms: C12_13  and  O1_15 
ROOT
HETATM    1  C2  UNL     1      40.435  52.347  16.212  1.00  0.00     0.129 C 
HETATM    2  C3  UNL     1      40.989  53.380  15.222  1.00  0.00     0.030 C 
HETATM    3  C4  UNL     1      42.164  52.762  14.568  1.00  0.00     0.011 C 
HETATM    4  C5  UNL     1      41.914  52.127  13.237  1.00  0.00    -0.041 C 
HETATM    5  C6  UNL     1      41.757  53.263  12.237  1.00  0.00     0.015 C 
HETATM    6  C7  UNL     1      43.227  51.448  12.852  1.00  0.00     0.015 C 
HETATM    7  C8  UNL     1      40.750  51.187  13.194  1.00  0.00    -0.038 C 
HETATM    8  C9  UNL     1      41.252  49.930  12.447  1.00  0.00     0.015 C 
HETATM    9  C10 UNL     1      39.636  51.729  12.322  1.00  0.00     0.015 C 
HETATM   10  C11 UNL     1      40.295  50.653  14.493  1.00  0.00     0.049 C 
HETATM   11  C12 UNL     1      39.478  51.524  15.365  1.00  0.00     0.076 C 
HETATM   12  C13 UNL     1      38.619  50.605  16.243  1.00  0.00     0.048 C 
ENDROOT
BRANCH   1  13
HETATM   13  N1  UNL     1      39.940  52.872  17.390  1.00  0.00    -0.308 N 
HETATM   14  C1  UNL     1      38.834  53.697  17.486  1.00  0.00     0.163 C 
BRANCH  13  15
HETATM   15  S1  UNL     1      40.514  52.177  18.808  1.00  0.00     0.224 S 
HETATM   16  C14 UNL     1      41.625  53.269  19.698  1.00  0.00     0.186 C 
HETATM   17  O2  UNL     1      39.457  51.766  19.771  1.00  0.00    -0.206 OA
HETATM   18  O3  UNL     1      41.289  50.924  18.453  1.00  0.00    -0.206 OA
ENDBRANCH  13  15
ENDBRANCH   1  13
BRANCH  11  19
HETATM   19  O1  UNL     1      38.605  52.293  14.633  1.00  0.00    -0.388 OA
ATOM     20  H1  UNL     1      38.190  51.816  13.924  1.00  0.00     0.210 HD
ENDBRANCH  11  19
TORSDOF 3
ENDMDL
MODEL 4
REMARK VINA RESULT: -5.886638049      2.582      5.310
REMARK  3 active torsions:
REMARK  status: ('A' for Active; 'I' for Inactive)
REMARK    1  A    between atoms: N1_2  and  C2_3 
REMARK    2  A    between atoms: N1_2  and  S1_17 
REMARK    3  A    between atoms: C12_13  and  O1_15 
ROOT
HETATM    1  C2  UNL     1      39.169  51.544  14.453  1.00  0.00     0.129 C 
HETATM    2  C3  UNL     1      40.254  51.132  15.457  1.00  0.00     0.030 C 
HETATM    3  C4  UNL     1      40.792  52.379  16.045  1.00  0.00     0.011 C 
HETATM    4  C5  UNL     1      40.211  52.788  17.361  1.00  0.00    -0.041 C 
HETATM    5  C6  UNL     1      40.803  51.853  18.405  1.00  0.00     0.015 C 
HETATM    6  C7  UNL     1      40.819  54.154  17.672  1.00  0.00     0.015 C 
HETATM    7  C8  UNL     1      38.715  52.801  17.414  1.00  0.00    -0.038 C 
HETATM    8  C9  UNL     1      38.331  54.134  18.097  1.00  0.00     0.015 C 
HETATM    9  C10 UNL     1      38.188  51.730  18.346  1.00  0.00     0.015 C 
HETATM   10  C11 UNL     1      38.017  52.869  16.115  1.00  0.00     0.049 C 
HETATM   11  C12 UNL     1      37.914  51.636  15.305  1.00  0.00     0.076 C 
HETATM   12  C13 UNL     1      36.663  51.776  14.429  1.00  0.00     0.048 C 
ENDROOT
BRANCH   1  13
HETATM   13  N1  UNL     1      39.100  50.766  13.314  1.00  0.00    -0.308 N 
HETATM   14  C1  UNL     1      37.947  50.181  12.823  1.00  0.00     0.163 C 
BRANCH  13  15
HETATM   15  S1  UNL     1      40.430  50.837  12.289  1.00  0.00     0.224 S 
HETATM   16  C14 UNL     1      40.960  52.522  11.979  1.00  0.00     0.186 C 
HETATM   17  O2  UNL     1      41.626  50.094  12.770  1.00  0.00    -0.206 OA
HETATM   18  O3  UNL     1      40.045  50.223  10.956  1.00  0.00    -0.206 OA
ENDBRANCH  13  15
ENDBRANCH   1  13
BRANCH  11  19
HETATM   19  O1  UNL     1      37.715  50.529  16.097  1.00  0.00    -0.388 OA
ATOM     20  H1  UNL     1      38.345  50.457  16.805  1.00  0.00     0.210 HD
ENDBRANCH  11  19
TORSDOF 3
ENDMDL
MODEL 5
REMARK VINA RESULT: -5.867449073      1.760      3.207
REMARK  3 active torsions:
REMARK  status: ('A' for Active; 'I' for Inactive)
REMARK    1  A    between atoms: N1_2  and  C2_3 
REMARK    2  A    between atoms: N1_2  and  S1_17 
REMARK    3  A    between atoms: C12_13  and  O1_15 
ROOT
HETATM    1  C2  UNL     1      40.704  52.084  16.522  1.00  0.00     0.129 C 
HETATM    2  C3  UNL     1      41.090  53.218  15.563  1.00  0.00     0.030 C 
HETATM    3  C4  UNL     1      42.189  52.708  14.713  1.00  0.00     0.011 C 
HETATM    4  C5  UNL     1      41.788  52.172  13.376  1.00  0.00    -0.041 C 
HETATM    5  C6  UNL     1      41.465  53.378  12.506  1.00  0.00     0.015 C 
HETATM    6  C7  UNL     1      43.062  51.586  12.769  1.00  0.00     0.015 C 
HETATM    7  C8  UNL     1      40.661  51.188  13.400  1.00  0.00    -0.038 C 
HETATM    8  C9  UNL     1      41.103  50.020  12.489  1.00  0.00     0.015 C 
HETATM    9  C10 UNL     1      39.425  51.750  12.727  1.00  0.00     0.015 C 
HETATM   10  C11 UNL     1      40.397  50.531  14.696  1.00  0.00     0.049 C 
HETATM   11  C12 UNL     1      39.673  51.291  15.737  1.00  0.00     0.076 C 
HETATM   12  C13 UNL     1      38.967  50.267  16.634  1.00  0.00     0.048 C 
ENDROOT
BRANCH   1  13
HETATM   13  N1  UNL     1      40.350  52.489  17.795  1.00  0.00    -0.308 N 
HETATM   14  C1  UNL     1      40.849  51.946  18.965  1.00  0.00     0.163 C 
BRANCH  13  15
HETATM   15  S1  UNL     1      39.538  53.956  17.906  1.00  0.00     0.224 S 
HETATM   16  C14 UNL     1      40.639  55.358  17.716  1.00  0.00     0.186 C 
HETATM   17  O2  UNL     1      38.441  54.136  16.915  1.00  0.00    -0.206 OA
HETATM   18  O3  UNL     1      38.902  54.053  19.279  1.00  0.00    -0.206 OA
ENDBRANCH  13  15
ENDBRANCH   1  13
BRANCH  11  19
HETATM   19  O1  UNL     1      38.686  52.078  15.191  1.00  0.00    -0.388 OA
ATOM     20  H1  UNL     1      38.445  51.818  14.309  1.00  0.00     0.210 HD
ENDBRANCH  11  19
TORSDOF 3
ENDMDL
