MODEL 1
REMARK VINA RESULT: -6.932905924      0.000      0.000
REMARK  0 active torsions:
REMARK  status: ('A' for Active; 'I' for Inactive)
REMARK       I    between atoms: N2_7  and  C6_9 
REMARK       I    between atoms: C6_9  and  N3_10 
REMARK       I    between atoms: C6_9  and  N4_14 
ROOT
HETATM    1  C1  UNL     1      40.803  50.205  11.663  1.00  0.00     0.309 C 
HETATM    2  N1  UNL     1      40.760  50.890  12.968  1.00  0.00     0.084 N 
HETATM    3  C2  UNL     1      40.425  49.882  13.940  1.00  0.00     0.272 C 
HETATM    4  C3  UNL     1      40.405  50.463  15.332  1.00  0.00     0.041 C 
HETATM    5  C4  UNL     1      39.912  51.887  15.378  1.00  0.00     0.038 C 
HETATM    6  C5  UNL     1      39.149  52.203  16.612  1.00  0.00    -0.010 C 
HETATM    7  N2  UNL     1      39.694  52.651  17.648  1.00  0.00    -0.345 N 
ATOM      8  H2  UNL     1      39.043  52.819  18.414  1.00  0.00     0.163 HD
HETATM    9  C6  UNL     1      41.014  52.963  17.956  1.00  0.00     0.520 C 
HETATM   10  N3  UNL     1      41.814  51.830  18.401  1.00  0.00    -0.030 N 
ATOM     11  H31 UNL     1      42.782  52.059  18.627  1.00  0.00     0.279 HD
ATOM     12  H32 UNL     1      41.779  51.079  17.712  1.00  0.00     0.279 HD
ATOM     13  H33 UNL     1      41.365  51.366  19.190  1.00  0.00     0.279 HD
HETATM   14  N4  UNL     1      41.190  54.002  18.944  1.00  0.00     0.138 N 
HETATM   15  C7  UNL     1      42.615  54.180  19.111  1.00  0.00     0.277 C 
HETATM   16  C8  UNL     1      42.992  55.181  20.139  1.00  0.00     0.030 C 
HETATM   17  C9  UNL     1      42.564  56.580  19.895  1.00  0.00     0.002 C 
HETATM   18  C10 UNL     1      42.321  56.932  18.464  1.00  0.00     0.002 C 
HETATM   19  C11 UNL     1      41.236  56.168  17.790  1.00  0.00     0.030 C 
HETATM   20  C12 UNL     1      40.489  55.207  18.674  1.00  0.00     0.277 C 
HETATM   21  C13 UNL     1      37.654  51.995  16.673  1.00  0.00     0.052 C 
HETATM   22  C14 UNL     1      36.998  52.455  15.377  1.00  0.00     0.006 C 
HETATM   23  C15 UNL     1      37.679  51.641  14.273  1.00  0.00     0.007 C 
HETATM   24  C16 UNL     1      39.075  52.231  14.161  1.00  0.00     0.023 C 
HETATM   25  C17 UNL     1      39.759  51.931  12.883  1.00  0.00     0.277 C 
ENDROOT
TORSDOF 0
ENDMDL
MODEL 2
REMARK VINA RESULT: -6.904603319      6.028      9.278
REMARK  0 active torsions:
REMARK  status: ('A' for Active; 'I' for Inactive)
REMARK       I    between atoms: N2_7  and  C6_9 
REMARK       I    between atoms: C6_9  and  N3_10 
REMARK       I    between atoms: C6_9  and  N4_14 
ROOT
HETATM    1  C1  UNL     1      29.787  47.817  19.288  1.00  0.00     0.309 C 
HETATM    2  N1  UNL     1      30.712  48.498  18.363  1.00  0.00     0.084 N 
HETATM    3  C2  UNL     1      30.751  49.876  18.776  1.00  0.00     0.272 C 
HETATM    4  C3  UNL     1      31.716  50.665  17.925  1.00  0.00     0.041 C 
HETATM    5  C4  UNL     1      31.762  50.205  16.491  1.00  0.00     0.038 C 
HETATM    6  C5  UNL     1      31.997  51.310  15.528  1.00  0.00    -0.010 C 
HETATM    7  N2  UNL     1      33.144  51.658  15.163  1.00  0.00    -0.345 N 
ATOM      8  H2  UNL     1      33.147  52.432  14.499  1.00  0.00     0.163 HD
HETATM    9  C6  UNL     1      34.414  51.194  15.487  1.00  0.00     0.520 C 
HETATM   10  N3  UNL     1      34.970  51.759  16.708  1.00  0.00    -0.030 N 
ATOM     11  H31 UNL     1      35.903  51.419  16.946  1.00  0.00     0.279 HD
ATOM     12  H32 UNL     1      34.331  51.616  17.489  1.00  0.00     0.279 HD
ATOM     13  H33 UNL     1      34.966  52.778  16.662  1.00  0.00     0.279 HD
HETATM   14  N4  UNL     1      35.417  51.366  14.461  1.00  0.00     0.138 N 
HETATM   15  C7  UNL     1      36.647  50.816  14.986  1.00  0.00     0.277 C 
HETATM   16  C8  UNL     1      37.815  50.955  14.082  1.00  0.00     0.030 C 
HETATM   17  C9  UNL     1      37.733  50.257  12.776  1.00  0.00     0.002 C 
HETATM   18  C10 UNL     1      36.804  49.089  12.734  1.00  0.00     0.002 C 
HETATM   19  C11 UNL     1      35.371  49.398  12.995  1.00  0.00     0.030 C 
HETATM   20  C12 UNL     1      35.059  50.858  13.185  1.00  0.00     0.277 C 
HETATM   21  C13 UNL     1      30.839  52.080  14.935  1.00  0.00     0.052 C 
HETATM   22  C14 UNL     1      29.705  51.132  14.562  1.00  0.00     0.006 C 
HETATM   23  C15 UNL     1      29.347  50.405  15.861  1.00  0.00     0.007 C 
HETATM   24  C16 UNL     1      30.505  49.450  16.102  1.00  0.00     0.023 C 
HETATM   25  C17 UNL     1      30.189  48.336  17.024  1.00  0.00     0.277 C 
ENDROOT
TORSDOF 0
ENDMDL
MODEL 3
REMARK VINA RESULT: -6.830468869      2.143      6.613
REMARK  0 active torsions:
REMARK  status: ('A' for Active; 'I' for Inactive)
REMARK       I    between atoms: N2_7  and  C6_9 
REMARK       I    between atoms: C6_9  and  N3_10 
REMARK       I    between atoms: C6_9  and  N4_14 
ROOT
HETATM    1  C1  UNL     1      37.146  55.878  20.546  1.00  0.00     0.309 C 
HETATM    2  N1  UNL     1      37.760  54.964  19.565  1.00  0.00     0.084 N 
HETATM    3  C2  UNL     1      37.543  53.633  20.065  1.00  0.00     0.272 C 
HETATM    4  C3  UNL     1      38.088  52.602  19.106  1.00  0.00     0.041 C 
HETATM    5  C4  UNL     1      39.339  53.051  18.395  1.00  0.00     0.038 C 
HETATM    6  C5  UNL     1      40.289  51.942  18.126  1.00  0.00    -0.010 C 
HETATM    7  N2  UNL     1      40.262  51.270  17.069  1.00  0.00    -0.345 N 
ATOM      8  H2  UNL     1      40.975  50.542  17.027  1.00  0.00     0.163 HD
HETATM    9  C6  UNL     1      39.449  51.321  15.942  1.00  0.00     0.520 C 
HETATM   10  N3  UNL     1      38.194  50.594  16.069  1.00  0.00    -0.030 N 
ATOM     11  H31 UNL     1      37.597  50.632  15.242  1.00  0.00     0.279 HD
ATOM     12  H32 UNL     1      37.681  50.912  16.891  1.00  0.00     0.279 HD
ATOM     13  H33 UNL     1      38.370  49.625  16.335  1.00  0.00     0.279 HD
HETATM   14  N4  UNL     1      40.062  50.871  14.714  1.00  0.00     0.138 N 
HETATM   15  C7  UNL     1      39.067  51.013  13.675  1.00  0.00     0.277 C 
HETATM   16  C8  UNL     1      39.504  50.542  12.338  1.00  0.00     0.030 C 
HETATM   17  C9  UNL     1      40.652  51.253  11.724  1.00  0.00     0.002 C 
HETATM   18  C10 UNL     1      40.871  52.648  12.209  1.00  0.00     0.002 C 
HETATM   19  C11 UNL     1      41.180  52.783  13.659  1.00  0.00     0.030 C 
HETATM   20  C12 UNL     1      41.305  51.484  14.407  1.00  0.00     0.277 C 
HETATM   21  C13 UNL     1      41.350  51.569  19.135  1.00  0.00     0.052 C 
HETATM   22  C14 UNL     1      41.977  52.822  19.736  1.00  0.00     0.006 C 
HETATM   23  C15 UNL     1      40.809  53.602  20.345  1.00  0.00     0.007 C 
HETATM   24  C16 UNL     1      40.049  54.157  19.151  1.00  0.00     0.023 C 
HETATM   25  C17 UNL     1      39.165  55.299  19.474  1.00  0.00     0.277 C 
ENDROOT
TORSDOF 0
ENDMDL
MODEL 4
REMARK VINA RESULT: -6.754259018      2.037      6.324
REMARK  0 active torsions:
REMARK  status: ('A' for Active; 'I' for Inactive)
REMARK       I    between atoms: N2_7  and  C6_9 
REMARK       I    between atoms: C6_9  and  N3_10 
REMARK       I    between atoms: C6_9  and  N4_14 
ROOT
HETATM    1  C1  UNL     1      36.094  52.458  20.594  1.00  0.00     0.309 C 
HETATM    2  N1  UNL     1      37.084  52.361  19.505  1.00  0.00     0.084 N 
HETATM    3  C2  UNL     1      38.329  51.996  20.126  1.00  0.00     0.272 C 
HETATM    4  C3  UNL     1      39.413  51.814  19.092  1.00  0.00     0.041 C 
HETATM    5  C4  UNL     1      39.289  52.760  17.925  1.00  0.00     0.038 C 
HETATM    6  C5  UNL     1      40.600  53.181  17.371  1.00  0.00    -0.010 C 
HETATM    7  N2  UNL     1      41.177  52.559  16.449  1.00  0.00    -0.345 N 
ATOM      8  H2  UNL     1      42.070  52.966  16.174  1.00  0.00     0.163 HD
HETATM    9  C6  UNL     1      40.837  51.420  15.728  1.00  0.00     0.520 C 
HETATM   10  N3  UNL     1      41.194  50.165  16.376  1.00  0.00    -0.030 N 
ATOM     11  H31 UNL     1      40.944  49.330  15.846  1.00  0.00     0.279 HD
ATOM     12  H32 UNL     1      40.794  50.124  17.313  1.00  0.00     0.279 HD
ATOM     13  H33 UNL     1      42.187  50.155  16.607  1.00  0.00     0.279 HD
HETATM   14  N4  UNL     1      41.369  51.354  14.386  1.00  0.00     0.138 N 
HETATM   15  C7  UNL     1      40.896  50.115  13.811  1.00  0.00     0.277 C 
HETATM   16  C8  UNL     1      41.393  49.846  12.439  1.00  0.00     0.030 C 
HETATM   17  C9  UNL     1      40.994  50.811  11.386  1.00  0.00     0.002 C 
HETATM   18  C10 UNL     1      39.744  51.580  11.666  1.00  0.00     0.002 C 
HETATM   19  C11 UNL     1      39.784  52.454  12.870  1.00  0.00     0.030 C 
HETATM   20  C12 UNL     1      41.107  52.496  13.583  1.00  0.00     0.277 C 
HETATM   21  C13 UNL     1      41.311  54.404  17.906  1.00  0.00     0.052 C 
HETATM   22  C14 UNL     1      40.318  55.536  18.141  1.00  0.00     0.006 C 
HETATM   23  C15 UNL     1      39.281  54.964  19.112  1.00  0.00     0.007 C 
HETATM   24  C16 UNL     1      38.469  53.985  18.279  1.00  0.00     0.023 C 
HETATM   25  C17 UNL     1      37.147  53.652  18.855  1.00  0.00     0.277 C 
ENDROOT
TORSDOF 0
ENDMDL
MODEL 5
REMARK VINA RESULT: -6.695718658      1.854      6.733
REMARK  0 active torsions:
REMARK  status: ('A' for Active; 'I' for Inactive)
REMARK       I    between atoms: N2_7  and  C6_9 
REMARK       I    between atoms: C6_9  and  N3_10 
REMARK       I    between atoms: C6_9  and  N4_14 
ROOT
HETATM    1  C1  UNL     1      43.143  57.141  18.034  1.00  0.00     0.309 C 
HETATM    2  N1  UNL     1      42.188  56.087  17.645  1.00  0.00     0.084 N 
HETATM    3  C2  UNL     1      41.061  56.219  18.530  1.00  0.00     0.272 C 
HETATM    4  C3  UNL     1      39.987  55.216  18.187  1.00  0.00     0.041 C 
HETATM    5  C4  UNL     1      40.534  53.900  17.696  1.00  0.00     0.038 C 
HETATM    6  C5  UNL     1      39.708  52.735  18.100  1.00  0.00    -0.010 C 
HETATM    7  N2  UNL     1      38.771  52.293  17.395  1.00  0.00    -0.345 N 
ATOM      8  H2  UNL     1      38.294  51.489  17.803  1.00  0.00     0.163 HD
HETATM    9  C6  UNL     1      38.255  52.684  16.164  1.00  0.00     0.520 C 
HETATM   10  N3  UNL     1      37.278  53.761  16.234  1.00  0.00    -0.030 N 
ATOM     11  H31 UNL     1      36.900  54.048  15.331  1.00  0.00     0.279 HD
ATOM     12  H32 UNL     1      37.670  54.564  16.725  1.00  0.00     0.279 HD
ATOM     13  H33 UNL     1      36.522  53.515  16.873  1.00  0.00     0.279 HD
HETATM   14  N4  UNL     1      37.649  51.630  15.384  1.00  0.00     0.138 N 
HETATM   15  C7  UNL     1      37.191  52.235  14.153  1.00  0.00     0.277 C 
HETATM   16  C8  UNL     1      36.484  51.305  13.238  1.00  0.00     0.030 C 
HETATM   17  C9  UNL     1      37.271  50.163  12.711  1.00  0.00     0.002 C 
HETATM   18  C10 UNL     1      38.750  50.366  12.685  1.00  0.00     0.002 C 
HETATM   19  C11 UNL     1      39.392  50.582  14.011  1.00  0.00     0.030 C 
HETATM   20  C12 UNL     1      38.465  50.484  15.191  1.00  0.00     0.277 C 
HETATM   21  C13 UNL     1      39.965  52.018  19.406  1.00  0.00     0.052 C 
HETATM   22  C14 UNL     1      41.463  51.855  19.637  1.00  0.00     0.006 C 
HETATM   23  C15 UNL     1      42.030  53.277  19.605  1.00  0.00     0.007 C 
HETATM   24  C16 UNL     1      41.968  53.686  18.141  1.00  0.00     0.023 C 
HETATM   25  C17 UNL     1      42.859  54.813  17.790  1.00  0.00     0.277 C 
ENDROOT
TORSDOF 0
ENDMDL
