MODEL 1
REMARK VINA RESULT: -7.747198834      0.000      0.000
REMARK  2 active torsions:
REMARK  status: ('A' for Active; 'I' for Inactive)
REMARK       I    between atoms: C2_2  and  N1_4 
REMARK    1  A    between atoms: N1_4  and  C3_6 
REMARK    2  A    between atoms: N2_13  and  C10_14 
ROOT
HETATM    1  C3  UNL     1      38.028  50.490  13.228  1.00  0.00     0.084 C 
HETATM    2  C4  UNL     1      37.055  49.345  12.921  1.00  0.00     0.026 C 
HETATM    3  C5  UNL     1      36.137  49.235  14.090  1.00  0.00     0.013 C 
HETATM    4  C6  UNL     1      35.390  50.490  14.417  1.00  0.00    -0.014 C 
HETATM    5  C7  UNL     1      35.054  50.401  15.916  1.00  0.00     0.013 C 
HETATM    6  C8  UNL     1      34.354  51.703  16.230  1.00  0.00     0.031 C 
HETATM    7  C9  UNL     1      33.074  51.751  15.491  1.00  0.00     0.273 C 
HETATM    8  N2  UNL     1      33.080  51.328  14.153  1.00  0.00     0.094 N 
HETATM    9  C15 UNL     1      34.077  50.463  13.699  1.00  0.00     0.282 C 
HETATM   10  C16 UNL     1      36.167  51.744  14.238  1.00  0.00     0.013 C 
HETATM   11  C17 UNL     1      37.156  51.744  13.138  1.00  0.00     0.026 C 
ENDROOT
BRANCH   8  12
HETATM   12  C10 UNL     1      31.768  50.766  13.852  1.00  0.00     0.227 C 
HETATM   13  C11 UNL     1      30.816  51.810  13.333  1.00  0.00     0.062 C 
HETATM   14  C12 UNL     1      29.461  51.142  13.180  1.00  0.00     0.169 C 
HETATM   15  O2  UNL     1      29.547  49.762  13.349  1.00  0.00    -0.391 OA
HETATM   16  C13 UNL     1      29.909  49.395  14.626  1.00  0.00     0.169 C 
HETATM   17  C14 UNL     1      31.125  50.175  15.107  1.00  0.00     0.062 C 
ENDBRANCH   8  12
BRANCH   1  18
HETATM   18  N1  UNL     1      39.136  50.521  12.337  1.00  0.00    -0.357 N 
HETATM   19  C2  UNL     1      40.460  50.340  12.802  1.00  0.00     0.213 C 
HETATM   20  C1  UNL     1      41.617  50.373  11.863  1.00  0.00     0.117 C 
HETATM   21  O1  UNL     1      40.640  50.150  14.033  1.00  0.00    -0.274 OA
ATOM     22  H1  UNL     1      38.973  50.677  11.342  1.00  0.00     0.162 HD
ENDBRANCH   1  18
TORSDOF 2
ENDMDL
MODEL 2
REMARK VINA RESULT: -7.568065408      0.563      1.123
REMARK  2 active torsions:
REMARK  status: ('A' for Active; 'I' for Inactive)
REMARK       I    between atoms: C2_2  and  N1_4 
REMARK    1  A    between atoms: N1_4  and  C3_6 
REMARK    2  A    between atoms: N2_13  and  C10_14 
ROOT
HETATM    1  C3  UNL     1      37.887  50.387  13.311  1.00  0.00     0.084 C 
HETATM    2  C4  UNL     1      36.781  49.381  12.970  1.00  0.00     0.026 C 
HETATM    3  C5  UNL     1      35.923  49.259  14.182  1.00  0.00     0.013 C 
HETATM    4  C6  UNL     1      35.335  50.547  14.664  1.00  0.00    -0.014 C 
HETATM    5  C7  UNL     1      35.075  50.354  16.169  1.00  0.00     0.013 C 
HETATM    6  C8  UNL     1      34.539  51.687  16.639  1.00  0.00     0.031 C 
HETATM    7  C9  UNL     1      33.232  51.934  15.992  1.00  0.00     0.273 C 
HETATM    8  N2  UNL     1      33.119  51.639  14.625  1.00  0.00     0.094 N 
HETATM    9  C15 UNL     1      33.989  50.722  14.034  1.00  0.00     0.282 C 
HETATM   10  C16 UNL     1      36.233  51.726  14.545  1.00  0.00     0.013 C 
HETATM   11  C17 UNL     1      37.153  51.727  13.387  1.00  0.00     0.026 C 
ENDROOT
BRANCH   8  12
HETATM   12  C10 UNL     1      31.738  51.246  14.362  1.00  0.00     0.227 C 
HETATM   13  C11 UNL     1      31.631  49.794  13.982  1.00  0.00     0.062 C 
HETATM   14  C12 UNL     1      30.181  49.536  13.610  1.00  0.00     0.169 C 
HETATM   15  O2  UNL     1      29.369  50.621  13.929  1.00  0.00    -0.391 OA
HETATM   16  C13 UNL     1      29.660  51.749  13.195  1.00  0.00     0.169 C 
HETATM   17  C14 UNL     1      31.153  52.046  13.199  1.00  0.00     0.062 C 
ENDBRANCH   8  12
BRANCH   1  18
HETATM   18  N1  UNL     1      38.941  50.387  12.356  1.00  0.00    -0.357 N 
HETATM   19  C2  UNL     1      40.295  50.275  12.753  1.00  0.00     0.213 C 
HETATM   20  C1  UNL     1      41.395  50.274  11.747  1.00  0.00     0.117 C 
HETATM   21  O1  UNL     1      40.550  50.176  13.981  1.00  0.00    -0.274 OA
ATOM     22  H1  UNL     1      38.717  50.469  11.365  1.00  0.00     0.162 HD
ENDBRANCH   1  18
TORSDOF 2
ENDMDL
MODEL 3
REMARK VINA RESULT: -7.397670120      2.133      7.992
REMARK  2 active torsions:
REMARK  status: ('A' for Active; 'I' for Inactive)
REMARK       I    between atoms: C2_2  and  N1_4 
REMARK    1  A    between atoms: N1_4  and  C3_6 
REMARK    2  A    between atoms: N2_13  and  C10_14 
ROOT
HETATM    1  C3  UNL     1      34.964  50.653  14.245  1.00  0.00     0.084 C 
HETATM    2  C4  UNL     1      35.823  51.091  13.052  1.00  0.00     0.026 C 
HETATM    3  C5  UNL     1      36.855  52.024  13.586  1.00  0.00     0.013 C 
HETATM    4  C6  UNL     1      37.711  51.453  14.673  1.00  0.00    -0.014 C 
HETATM    5  C7  UNL     1      38.204  52.656  15.497  1.00  0.00     0.013 C 
HETATM    6  C8  UNL     1      39.014  52.046  16.618  1.00  0.00     0.031 C 
HETATM    7  C9  UNL     1      40.205  51.384  16.044  1.00  0.00     0.273 C 
HETATM    8  N2  UNL     1      40.025  50.613  14.886  1.00  0.00     0.094 N 
HETATM    9  C15 UNL     1      38.932  50.853  14.051  1.00  0.00     0.282 C 
HETATM   10  C16 UNL     1      36.998  50.560  15.625  1.00  0.00     0.013 C 
HETATM   11  C17 UNL     1      35.896  49.753  15.056  1.00  0.00     0.026 C 
ENDROOT
BRANCH   8  12
HETATM   12  C10 UNL     1      41.259  50.673  14.109  1.00  0.00     0.227 C 
HETATM   13  C11 UNL     1      41.909  52.028  14.191  1.00  0.00     0.062 C 
HETATM   14  C12 UNL     1      43.101  52.009  13.250  1.00  0.00     0.169 C 
HETATM   15  O2  UNL     1      43.359  50.725  12.775  1.00  0.00    -0.391 OA
HETATM   16  C13 UNL     1      42.351  50.231  11.977  1.00  0.00     0.169 C 
HETATM   17  C14 UNL     1      40.987  50.408  12.628  1.00  0.00     0.062 C 
ENDBRANCH   8  12
BRANCH   1  18
HETATM   18  N1  UNL     1      33.768  49.994  13.845  1.00  0.00    -0.357 N 
HETATM   19  C2  UNL     1      32.495  50.554  14.107  1.00  0.00     0.213 C 
HETATM   20  C1  UNL     1      31.246  49.859  13.685  1.00  0.00     0.117 C 
HETATM   21  O1  UNL     1      32.442  51.658  14.708  1.00  0.00    -0.274 OA
ATOM     22  H1  UNL     1      33.829  49.099  13.359  1.00  0.00     0.162 HD
ENDBRANCH   1  18
TORSDOF 2
ENDMDL
MODEL 4
REMARK VINA RESULT: -7.379470554      1.658      7.631
REMARK  2 active torsions:
REMARK  status: ('A' for Active; 'I' for Inactive)
REMARK       I    between atoms: C2_2  and  N1_4 
REMARK    1  A    between atoms: N1_4  and  C3_6 
REMARK    2  A    between atoms: N2_13  and  C10_14 
ROOT
HETATM    1  C3  UNL     1      33.134  50.953  15.360  1.00  0.00     0.084 C 
HETATM    2  C4  UNL     1      34.425  51.325  16.099  1.00  0.00     0.026 C 
HETATM    3  C5  UNL     1      35.455  50.327  15.692  1.00  0.00     0.013 C 
HETATM    4  C6  UNL     1      35.695  50.243  14.218  1.00  0.00    -0.014 C 
HETATM    5  C7  UNL     1      36.228  48.823  13.958  1.00  0.00     0.013 C 
HETATM    6  C8  UNL     1      36.404  48.747  12.459  1.00  0.00     0.031 C 
HETATM    7  C9  UNL     1      37.461  49.698  12.051  1.00  0.00     0.273 C 
HETATM    8  N2  UNL     1      37.448  50.974  12.636  1.00  0.00     0.094 N 
HETATM    9  C15 UNL     1      36.813  51.172  13.863  1.00  0.00     0.282 C 
HETATM   10  C16 UNL     1      34.478  50.391  13.377  1.00  0.00     0.013 C 
HETATM   11  C17 UNL     1      33.434  51.300  13.901  1.00  0.00     0.026 C 
ENDROOT
BRANCH   8  12
HETATM   12  C10 UNL     1      38.826  51.448  12.713  1.00  0.00     0.227 C 
HETATM   13  C11 UNL     1      39.761  50.588  11.906  1.00  0.00     0.062 C 
HETATM   14  C12 UNL     1      41.169  51.097  12.164  1.00  0.00     0.169 C 
HETATM   15  O2  UNL     1      41.159  52.298  12.870  1.00  0.00    -0.391 OA
HETATM   16  C13 UNL     1      40.658  52.171  14.146  1.00  0.00     0.169 C 
HETATM   17  C14 UNL     1      39.336  51.416  14.153  1.00  0.00     0.062 C 
ENDBRANCH   8  12
BRANCH   1  18
HETATM   18  N1  UNL     1      31.996  51.638  15.869  1.00  0.00    -0.357 N 
HETATM   19  C2  UNL     1      30.774  50.964  16.104  1.00  0.00     0.213 C 
HETATM   20  C1  UNL     1      29.585  51.687  16.638  1.00  0.00     0.117 C 
HETATM   21  O1  UNL     1      30.714  49.733  15.851  1.00  0.00    -0.274 OA
ATOM     22  H1  UNL     1      32.061  52.636  16.068  1.00  0.00     0.162 HD
ENDBRANCH   1  18
TORSDOF 2
ENDMDL
MODEL 5
REMARK VINA RESULT: -7.376005218      2.498      7.568
REMARK  2 active torsions:
REMARK  status: ('A' for Active; 'I' for Inactive)
REMARK       I    between atoms: C2_2  and  N1_4 
REMARK    1  A    between atoms: N1_4  and  C3_6 
REMARK    2  A    between atoms: N2_13  and  C10_14 
ROOT
HETATM    1  C3  UNL     1      33.816  51.048  16.272  1.00  0.00     0.084 C 
HETATM    2  C4  UNL     1      35.257  51.212  16.772  1.00  0.00     0.026 C 
HETATM    3  C5  UNL     1      36.078  50.195  16.056  1.00  0.00     0.013 C 
HETATM    4  C6  UNL     1      36.023  50.286  14.564  1.00  0.00    -0.014 C 
HETATM    5  C7  UNL     1      36.342  48.872  14.044  1.00  0.00     0.013 C 
HETATM    6  C8  UNL     1      36.221  48.980  12.541  1.00  0.00     0.031 C 
HETATM    7  C9  UNL     1      37.276  49.886  12.038  1.00  0.00     0.273 C 
HETATM    8  N2  UNL     1      37.510  51.070  12.753  1.00  0.00     0.094 N 
HETATM    9  C15 UNL     1      37.146  51.158  14.097  1.00  0.00     0.282 C 
HETATM   10  C16 UNL     1      34.691  50.642  14.008  1.00  0.00     0.013 C 
HETATM   11  C17 UNL     1      33.869  51.557  14.831  1.00  0.00     0.026 C 
ENDROOT
BRANCH   8  12
HETATM   12  C10 UNL     1      38.920  51.415  12.602  1.00  0.00     0.227 C 
HETATM   13  C11 UNL     1      39.690  50.334  11.894  1.00  0.00     0.062 C 
HETATM   14  C12 UNL     1      41.153  50.743  11.911  1.00  0.00     0.169 C 
HETATM   15  O2  UNL     1      41.315  52.049  12.365  1.00  0.00    -0.391 OA
HETATM   16  C13 UNL     1      40.952  52.212  13.684  1.00  0.00     0.169 C 
HETATM   17  C14 UNL     1      39.586  51.603  13.966  1.00  0.00     0.062 C 
ENDBRANCH   8  12
BRANCH   1  18
HETATM   18  N1  UNL     1      32.876  51.752  17.074  1.00  0.00    -0.357 N 
HETATM   19  C2  UNL     1      32.133  51.097  18.085  1.00  0.00     0.213 C 
HETATM   20  C1  UNL     1      31.149  51.840  18.922  1.00  0.00     0.117 C 
HETATM   21  O1  UNL     1      32.323  49.866  18.262  1.00  0.00    -0.274 OA
ATOM     22  H1  UNL     1      32.732  52.749  16.917  1.00  0.00     0.162 HD
ENDBRANCH   1  18
TORSDOF 2
ENDMDL
