MODEL 1
REMARK VINA RESULT: -7.787649777      0.000      0.000
REMARK  3 active torsions:
REMARK  status: ('A' for Active; 'I' for Inactive)
REMARK    1  A    between atoms: N1_8  and  C7_9 
REMARK    2  A    between atoms: C7_9  and  C8_10 
REMARK    3  A    between atoms: C14_17  and  O3_18 
ROOT
HETATM    1  C8  UNL     1      37.903  51.785  15.044  1.00  0.00     0.008 C 
HETATM    2  C9  UNL     1      38.143  51.596  16.493  1.00  0.00     0.032 C 
HETATM    3  C10 UNL     1      37.150  50.667  17.159  1.00  0.00     0.169 C 
HETATM    4  O2  UNL     1      36.373  49.988  16.225  1.00  0.00    -0.380 OA
HETATM    5  C11 UNL     1      35.603  50.844  15.440  1.00  0.00     0.061 C 
HETATM    6  C12 UNL     1      34.853  49.956  14.461  1.00  0.00     0.040 C 
HETATM    7  C13 UNL     1      33.826  50.702  13.667  1.00  0.00     0.034 C 
HETATM    8  C14 UNL     1      32.789  51.226  14.668  1.00  0.00     0.118 C 
HETATM    9  C15 UNL     1      33.479  52.179  15.600  1.00  0.00     0.034 C 
HETATM   10  C16 UNL     1      34.615  51.568  16.350  1.00  0.00     0.040 C 
HETATM   11  C17 UNL     1      36.402  51.876  14.719  1.00  0.00     0.044 C 
ENDROOT
BRANCH   1  12
HETATM   12  C7  UNL     1      38.468  50.784  14.111  1.00  0.00     0.130 C 
BRANCH  12  13
HETATM   13  N1  UNL     1      39.826  50.981  13.689  1.00  0.00    -0.352 N 
HETATM   14  C1  UNL     1      40.156  50.451  12.418  1.00  0.00     0.219 C 
HETATM   15  O1  UNL     1      39.200  50.257  11.624  1.00  0.00    -0.273 OA
HETATM   16  C2  UNL     1      41.474  50.067  11.830  1.00  0.00     0.103 C 
HETATM   17  C3  UNL     1      42.590  50.906  12.434  1.00  0.00     0.009 C 
HETATM   18  C4  UNL     1      42.208  52.338  12.587  1.00  0.00     0.002 C 
HETATM   19  C5  UNL     1      41.445  52.733  13.775  1.00  0.00     0.020 C 
HETATM   20  C6  UNL     1      40.762  51.671  14.545  1.00  0.00     0.125 C 
ENDBRANCH  12  13
ENDBRANCH   1  12
BRANCH   8  21
HETATM   21  O3  UNL     1      32.237  50.137  15.311  1.00  0.00    -0.396 OA
ATOM     22  H3  UNL     1      31.375  50.390  15.620  1.00  0.00     0.210 HD
ENDBRANCH   8  21
TORSDOF 3
ENDMDL
MODEL 2
REMARK VINA RESULT: -7.707024565      1.691      3.200
REMARK  3 active torsions:
REMARK  status: ('A' for Active; 'I' for Inactive)
REMARK    1  A    between atoms: N1_8  and  C7_9 
REMARK    2  A    between atoms: C7_9  and  C8_10 
REMARK    3  A    between atoms: C14_17  and  O3_18 
ROOT
HETATM    1  C8  UNL     1      37.830  50.336  13.801  1.00  0.00     0.008 C 
HETATM    2  C9  UNL     1      36.413  49.986  13.556  1.00  0.00     0.032 C 
HETATM    3  C10 UNL     1      35.429  50.958  14.174  1.00  0.00     0.169 C 
HETATM    4  O2  UNL     1      36.061  52.112  14.628  1.00  0.00    -0.380 OA
HETATM    5  C11 UNL     1      36.999  51.856  15.627  1.00  0.00     0.061 C 
HETATM    6  C12 UNL     1      37.616  53.200  15.980  1.00  0.00     0.040 C 
HETATM    7  C13 UNL     1      38.510  53.132  17.179  1.00  0.00     0.034 C 
HETATM    8  C14 UNL     1      37.627  52.729  18.366  1.00  0.00     0.118 C 
HETATM    9  C15 UNL     1      37.069  51.363  18.091  1.00  0.00     0.034 C 
HETATM   10  C16 UNL     1      36.265  51.284  16.836  1.00  0.00     0.040 C 
HETATM   11  C17 UNL     1      38.050  50.876  15.225  1.00  0.00     0.044 C 
ENDROOT
BRANCH   1  12
HETATM   12  C7  UNL     1      38.473  51.307  12.887  1.00  0.00     0.130 C 
BRANCH  12  13
HETATM   13  N1  UNL     1      39.907  51.371  12.908  1.00  0.00    -0.352 N 
HETATM   14  C1  UNL     1      40.571  50.531  11.981  1.00  0.00     0.219 C 
HETATM   15  O1  UNL     1      39.903  50.157  10.982  1.00  0.00    -0.273 OA
HETATM   16  C2  UNL     1      41.963  49.992  11.972  1.00  0.00     0.103 C 
HETATM   17  C3  UNL     1      42.905  50.940  12.699  1.00  0.00     0.009 C 
HETATM   18  C4  UNL     1      42.636  52.369  12.377  1.00  0.00     0.002 C 
HETATM   19  C5  UNL     1      41.577  53.064  13.116  1.00  0.00     0.020 C 
HETATM   20  C6  UNL     1      40.584  52.241  13.840  1.00  0.00     0.125 C 
ENDBRANCH  12  13
ENDBRANCH   1  12
BRANCH   8  21
HETATM   21  O3  UNL     1      36.653  53.696  18.515  1.00  0.00    -0.396 OA
ATOM     22  H3  UNL     1      35.827  53.320  18.235  1.00  0.00     0.210 HD
ENDBRANCH   8  21
TORSDOF 3
ENDMDL
MODEL 3
REMARK VINA RESULT: -7.660152783      1.256      1.815
REMARK  3 active torsions:
REMARK  status: ('A' for Active; 'I' for Inactive)
REMARK    1  A    between atoms: N1_8  and  C7_9 
REMARK    2  A    between atoms: C7_9  and  C8_10 
REMARK    3  A    between atoms: C14_17  and  O3_18 
ROOT
HETATM    1  C8  UNL     1      37.583  52.037  15.530  1.00  0.00     0.008 C 
HETATM    2  C9  UNL     1      37.409  52.118  16.998  1.00  0.00     0.032 C 
HETATM    3  C10 UNL     1      36.358  51.171  17.540  1.00  0.00     0.169 C 
HETATM    4  O2  UNL     1      35.954  50.246  16.582  1.00  0.00    -0.380 OA
HETATM    5  C11 UNL     1      35.366  50.845  15.469  1.00  0.00     0.061 C 
HETATM    6  C12 UNL     1      35.020  49.713  14.516  1.00  0.00     0.040 C 
HETATM    7  C13 UNL     1      34.202  50.167  13.347  1.00  0.00     0.034 C 
HETATM    8  C14 UNL     1      32.874  50.686  13.912  1.00  0.00     0.118 C 
HETATM    9  C15 UNL     1      33.171  51.865  14.792  1.00  0.00     0.034 C 
HETATM   10  C16 UNL     1      34.093  51.553  15.923  1.00  0.00     0.040 C 
HETATM   11  C17 UNL     1      36.238  51.856  14.803  1.00  0.00     0.044 C 
ENDROOT
BRANCH   1  12
HETATM   12  C7  UNL     1      38.486  50.994  14.994  1.00  0.00     0.130 C 
BRANCH  12  13
HETATM   13  N1  UNL     1      39.496  51.421  14.067  1.00  0.00    -0.352 N 
HETATM   14  C1  UNL     1      40.721  51.837  14.644  1.00  0.00     0.219 C 
HETATM   15  O1  UNL     1      40.970  51.412  15.802  1.00  0.00    -0.273 OA
HETATM   16  C2  UNL     1      41.804  52.716  14.112  1.00  0.00     0.103 C 
HETATM   17  C3  UNL     1      41.857  52.634  12.594  1.00  0.00     0.009 C 
HETATM   18  C4  UNL     1      41.685  51.242  12.091  1.00  0.00     0.002 C 
HETATM   19  C5  UNL     1      40.323  50.717  11.942  1.00  0.00     0.020 C 
HETATM   20  C6  UNL     1      39.230  51.418  12.648  1.00  0.00     0.125 C 
ENDBRANCH  12  13
ENDBRANCH   1  12
BRANCH   8  21
HETATM   21  O3  UNL     1      32.266  49.644  14.582  1.00  0.00    -0.396 OA
ATOM     22  H3  UNL     1      31.938  49.983  15.407  1.00  0.00     0.210 HD
ENDBRANCH   8  21
TORSDOF 3
ENDMDL
MODEL 4
REMARK VINA RESULT: -7.659788404      2.200      6.134
REMARK  3 active torsions:
REMARK  status: ('A' for Active; 'I' for Inactive)
REMARK    1  A    between atoms: N1_8  and  C7_9 
REMARK    2  A    between atoms: C7_9  and  C8_10 
REMARK    3  A    between atoms: C14_17  and  O3_18 
ROOT
HETATM    1  C8  UNL     1      38.760  51.564  13.265  1.00  0.00     0.008 C 
HETATM    2  C9  UNL     1      39.988  51.379  12.460  1.00  0.00     0.032 C 
HETATM    3  C10 UNL     1      41.112  50.697  13.212  1.00  0.00     0.169 C 
HETATM    4  O2  UNL     1      40.674  50.161  14.419  1.00  0.00    -0.380 OA
HETATM    5  C11 UNL     1      40.186  51.130  15.293  1.00  0.00     0.061 C 
HETATM    6  C12 UNL     1      39.720  50.382  16.533  1.00  0.00     0.040 C 
HETATM    7  C13 UNL     1      39.343  51.297  17.656  1.00  0.00     0.034 C 
HETATM    8  C14 UNL     1      40.615  52.056  18.053  1.00  0.00     0.118 C 
HETATM    9  C15 UNL     1      41.055  52.877  16.877  1.00  0.00     0.034 C 
HETATM   10  C16 UNL     1      41.331  52.072  15.651  1.00  0.00     0.040 C 
HETATM   11  C17 UNL     1      39.080  51.951  14.720  1.00  0.00     0.044 C 
ENDROOT
BRANCH   1  12
HETATM   12  C7  UNL     1      37.802  50.438  13.339  1.00  0.00     0.130 C 
BRANCH  12  13
HETATM   13  N1  UNL     1      36.474  50.741  13.794  1.00  0.00    -0.352 N 
HETATM   14  C1  UNL     1      35.498  49.748  13.541  1.00  0.00     0.219 C 
HETATM   15  O1  UNL     1      35.921  48.578  13.352  1.00  0.00    -0.273 OA
HETATM   16  C2  UNL     1      34.010  49.838  13.453  1.00  0.00     0.103 C 
HETATM   17  C3  UNL     1      33.494  50.971  14.326  1.00  0.00     0.009 C 
HETATM   18  C4  UNL     1      34.188  51.040  15.642  1.00  0.00     0.002 C 
HETATM   19  C5  UNL     1      35.474  51.741  15.717  1.00  0.00     0.020 C 
HETATM   20  C6  UNL     1      36.199  51.996  14.454  1.00  0.00     0.125 C 
ENDBRANCH  12  13
ENDBRANCH   1  12
BRANCH   8  21
HETATM   21  O3  UNL     1      41.554  51.126  18.451  1.00  0.00    -0.396 OA
ATOM     22  H3  UNL     1      41.116  50.494  19.009  1.00  0.00     0.210 HD
ENDBRANCH   8  21
TORSDOF 3
ENDMDL
MODEL 5
REMARK VINA RESULT: -7.424475337      4.724      7.382
REMARK  3 active torsions:
REMARK  status: ('A' for Active; 'I' for Inactive)
REMARK    1  A    between atoms: N1_8  and  C7_9 
REMARK    2  A    between atoms: C7_9  and  C8_10 
REMARK    3  A    between atoms: C14_17  and  O3_18 
ROOT
HETATM    1  C8  UNL     1      41.484  52.912  17.268  1.00  0.00     0.008 C 
HETATM    2  C9  UNL     1      40.923  52.712  18.623  1.00  0.00     0.032 C 
HETATM    3  C10 UNL     1      40.686  54.002  19.382  1.00  0.00     0.169 C 
HETATM    4  O2  UNL     1      40.809  55.115  18.556  1.00  0.00    -0.380 OA
HETATM    5  C11 UNL     1      42.085  55.242  18.009  1.00  0.00     0.061 C 
HETATM    6  C12 UNL     1      42.039  56.471  17.115  1.00  0.00     0.040 C 
HETATM    7  C13 UNL     1      43.388  56.864  16.598  1.00  0.00     0.034 C 
HETATM    8  C14 UNL     1      44.237  57.240  17.819  1.00  0.00     0.118 C 
HETATM    9  C15 UNL     1      44.378  56.021  18.682  1.00  0.00     0.034 C 
HETATM   10  C16 UNL     1      43.075  55.461  19.148  1.00  0.00     0.040 C 
HETATM   11  C17 UNL     1      42.529  54.042  17.242  1.00  0.00     0.044 C 
ENDROOT
BRANCH   1  12
HETATM   12  C7  UNL     1      40.542  53.195  16.161  1.00  0.00     0.130 C 
BRANCH  12  13
HETATM   13  N1  UNL     1      40.742  52.474  14.936  1.00  0.00    -0.352 N 
HETATM   14  C1  UNL     1      39.627  51.738  14.469  1.00  0.00     0.219 C 
HETATM   15  O1  UNL     1      38.497  52.100  14.889  1.00  0.00    -0.273 OA
HETATM   16  C2  UNL     1      39.543  50.572  13.540  1.00  0.00     0.103 C 
HETATM   17  C3  UNL     1      40.697  50.599  12.548  1.00  0.00     0.009 C 
HETATM   18  C4  UNL     1      40.976  51.969  12.034  1.00  0.00     0.002 C 
HETATM   19  C5  UNL     1      41.818  52.859  12.840  1.00  0.00     0.020 C 
HETATM   20  C6  UNL     1      42.020  52.519  14.265  1.00  0.00     0.125 C 
ENDBRANCH  12  13
ENDBRANCH   1  12
BRANCH   8  21
HETATM   21  O3  UNL     1      43.613  58.292  18.457  1.00  0.00    -0.396 OA
ATOM     22  H3  UNL     1      43.794  58.215  19.387  1.00  0.00     0.210 HD
ENDBRANCH   8  21
TORSDOF 3
ENDMDL
