MODEL 1
REMARK VINA RESULT: -7.613773841      0.000      0.000
REMARK  9 active torsions:
REMARK  status: ('A' for Active; 'I' for Inactive)
REMARK    1  A    between atoms: O1_2  and  C2_3 
REMARK    2  A    between atoms: C2_3  and  C3_5 
REMARK    3  A    between atoms: C3_5  and  C4_6 
REMARK    4  A    between atoms: C3_5  and  C5_9 
REMARK    5  A    between atoms: C4_6  and  O3_7 
REMARK    6  A    between atoms: C5_9  and  C6_10 
REMARK    7  A    between atoms: C6_10  and  O4_11 
REMARK    8  A    between atoms: C7_13  and  C8_14 
REMARK    9  A    between atoms: C8_14  and  C9_15 
ROOT
HETATM    1  C9  UNL     1      40.039  53.235  17.296  1.00  0.00     0.052 C 
HETATM    2  C10 UNL     1      39.685  54.652  17.703  1.00  0.00     0.186 C 
HETATM    3  O5  UNL     1      39.494  54.453  19.093  1.00  0.00    -0.379 OA
HETATM    4  C11 UNL     1      38.729  53.277  19.203  1.00  0.00     0.058 C 
HETATM    5  C12 UNL     1      37.289  53.769  19.422  1.00  0.00     0.046 C 
HETATM    6  C13 UNL     1      39.101  52.519  20.420  1.00  0.00     0.046 C 
HETATM    7  C14 UNL     1      38.806  52.592  17.917  1.00  0.00     0.038 C 
HETATM    8  C15 UNL     1      38.878  51.162  17.796  1.00  0.00     0.010 C 
HETATM    9  C16 UNL     1      38.021  50.663  16.656  1.00  0.00     0.011 C 
HETATM   10  C17 UNL     1      38.011  51.377  15.402  1.00  0.00    -0.025 A 
HETATM   11  C18 UNL     1      36.616  51.439  14.731  1.00  0.00     0.016 C 
HETATM   12  C19 UNL     1      38.946  52.345  14.976  1.00  0.00     0.073 A 
HETATM   13  C20 UNL     1      39.930  52.967  15.869  1.00  0.00     0.144 C 
HETATM   14  O6  UNL     1      40.920  53.364  15.230  1.00  0.00    -0.297 OA
HETATM   15  C21 UNL     1      39.097  50.988  14.411  1.00  0.00    -0.029 A 
HETATM   16  C22 UNL     1      38.693  50.731  12.966  1.00  0.00     0.016 C 
HETATM   17  C23 UNL     1      40.290  50.215  14.868  1.00  0.00     0.016 C 
ENDROOT
BRANCH   1  18
HETATM   18  C8  UNL     1      41.335  52.787  17.890  1.00  0.00     0.049 C 
BRANCH  18  19
HETATM   19  C7  UNL     1      42.209  53.929  18.267  1.00  0.00     0.006 C 
HETATM   20  C6  UNL     1      43.218  54.366  17.543  1.00  0.00     0.040 C 
BRANCH  20  21
HETATM   21  C5  UNL     1      44.076  55.488  17.911  1.00  0.00     0.080 C 
BRANCH  21  22
HETATM   22  C3  UNL     1      43.847  56.739  17.140  1.00  0.00     0.115 C 
BRANCH  22  23
HETATM   23  C2  UNL     1      45.030  57.266  16.463  1.00  0.00     0.265 C 
HETATM   24  O2  UNL     1      44.937  58.120  15.550  1.00  0.00    -0.265 OA
BRANCH  23  25
HETATM   25  O1  UNL     1      46.285  56.826  16.824  1.00  0.00    -0.326 OA
HETATM   26  C1  UNL     1      47.419  56.950  15.963  1.00  0.00     0.213 C 
ENDBRANCH  23  25
ENDBRANCH  22  23
BRANCH  22  27
HETATM   27  C4  UNL     1      43.337  57.794  18.095  1.00  0.00     0.179 C 
BRANCH  27  28
HETATM   28  O3  UNL     1      44.416  58.561  18.595  1.00  0.00    -0.400 OA
ATOM     29  H3  UNL     1      44.370  59.449  18.261  1.00  0.00     0.209 HD
ENDBRANCH  27  28
ENDBRANCH  22  27
ENDBRANCH  21  22
ENDBRANCH  20  21
BRANCH  20  30
HETATM   30  O4  UNL     1      43.480  53.707  16.339  1.00  0.00    -0.365 OA
ATOM     31  H4  UNL     1      42.783  53.189  15.954  1.00  0.00     0.217 HD
ENDBRANCH  20  30
ENDBRANCH  18  19
ENDBRANCH   1  18
TORSDOF 9
ENDMDL
MODEL 2
REMARK VINA RESULT: -7.569285724      1.523      1.997
REMARK  9 active torsions:
REMARK  status: ('A' for Active; 'I' for Inactive)
REMARK    1  A    between atoms: O1_2  and  C2_3 
REMARK    2  A    between atoms: C2_3  and  C3_5 
REMARK    3  A    between atoms: C3_5  and  C4_6 
REMARK    4  A    between atoms: C3_5  and  C5_9 
REMARK    5  A    between atoms: C4_6  and  O3_7 
REMARK    6  A    between atoms: C5_9  and  C6_10 
REMARK    7  A    between atoms: C6_10  and  O4_11 
REMARK    8  A    between atoms: C7_13  and  C8_14 
REMARK    9  A    between atoms: C8_14  and  C9_15 
ROOT
HETATM    1  C9  UNL     1      40.912  53.436  17.172  1.00  0.00     0.052 C 
HETATM    2  C10 UNL     1      40.066  54.626  17.584  1.00  0.00     0.186 C 
HETATM    3  O5  UNL     1      39.722  54.221  18.897  1.00  0.00    -0.379 OA
HETATM    4  C11 UNL     1      39.361  52.865  18.791  1.00  0.00     0.058 C 
HETATM    5  C12 UNL     1      37.824  52.873  18.757  1.00  0.00     0.046 C 
HETATM    6  C13 UNL     1      39.748  52.120  20.012  1.00  0.00     0.046 C 
HETATM    7  C14 UNL     1      39.862  52.386  17.507  1.00  0.00     0.038 C 
HETATM    8  C15 UNL     1      40.402  51.067  17.321  1.00  0.00     0.010 C 
HETATM    9  C16 UNL     1      39.946  50.468  16.010  1.00  0.00     0.011 C 
HETATM   10  C17 UNL     1      39.917  51.283  14.821  1.00  0.00    -0.025 A 
HETATM   11  C18 UNL     1      38.706  50.999  13.899  1.00  0.00     0.016 C 
HETATM   12  C19 UNL     1      40.555  52.530  14.638  1.00  0.00     0.073 A 
HETATM   13  C20 UNL     1      41.130  53.313  15.738  1.00  0.00     0.144 C 
HETATM   14  O6  UNL     1      42.034  54.059  15.324  1.00  0.00    -0.297 OA
HETATM   15  C21 UNL     1      41.219  51.355  14.036  1.00  0.00    -0.029 A 
HETATM   16  C22 UNL     1      41.161  51.155  12.528  1.00  0.00     0.016 C 
HETATM   17  C23 UNL     1      42.503  50.929  14.669  1.00  0.00     0.016 C 
ENDROOT
BRANCH   1  18
HETATM   18  C8  UNL     1      42.166  53.334  17.978  1.00  0.00     0.049 C 
BRANCH  18  19
HETATM   19  C7  UNL     1      42.769  54.664  18.258  1.00  0.00     0.006 C 
HETATM   20  C6  UNL     1      43.849  55.133  17.669  1.00  0.00     0.040 C 
BRANCH  20  21
HETATM   21  C5  UNL     1      44.441  56.439  17.943  1.00  0.00     0.080 C 
BRANCH  21  22
HETATM   22  C3  UNL     1      45.837  56.405  18.453  1.00  0.00     0.115 C 
BRANCH  22  23
HETATM   23  C2  UNL     1      46.866  56.345  17.416  1.00  0.00     0.265 C 
HETATM   24  O2  UNL     1      46.568  56.313  16.199  1.00  0.00    -0.265 OA
BRANCH  23  25
HETATM   25  O1  UNL     1      48.198  56.321  17.767  1.00  0.00    -0.326 OA
HETATM   26  C1  UNL     1      49.212  56.939  16.971  1.00  0.00     0.213 C 
ENDBRANCH  23  25
ENDBRANCH  22  23
BRANCH  22  27
HETATM   27  C4  UNL     1      45.985  55.188  19.339  1.00  0.00     0.179 C 
BRANCH  27  28
HETATM   28  O3  UNL     1      46.727  54.186  18.671  1.00  0.00    -0.400 OA
ATOM     29  H3  UNL     1      46.829  53.426  19.231  1.00  0.00     0.209 HD
ENDBRANCH  27  28
ENDBRANCH  22  27
ENDBRANCH  21  22
ENDBRANCH  20  21
BRANCH  20  30
HETATM   30  O4  UNL     1      44.467  54.318  16.717  1.00  0.00    -0.365 OA
ATOM     31  H4  UNL     1      44.536  54.645  15.827  1.00  0.00     0.217 HD
ENDBRANCH  20  30
ENDBRANCH  18  19
ENDBRANCH   1  18
TORSDOF 9
ENDMDL
MODEL 3
REMARK VINA RESULT: -7.514968563      1.491      1.793
REMARK  9 active torsions:
REMARK  status: ('A' for Active; 'I' for Inactive)
REMARK    1  A    between atoms: O1_2  and  C2_3 
REMARK    2  A    between atoms: C2_3  and  C3_5 
REMARK    3  A    between atoms: C3_5  and  C4_6 
REMARK    4  A    between atoms: C3_5  and  C5_9 
REMARK    5  A    between atoms: C4_6  and  O3_7 
REMARK    6  A    between atoms: C5_9  and  C6_10 
REMARK    7  A    between atoms: C6_10  and  O4_11 
REMARK    8  A    between atoms: C7_13  and  C8_14 
REMARK    9  A    between atoms: C8_14  and  C9_15 
ROOT
HETATM    1  C9  UNL     1      40.398  53.319  17.323  1.00  0.00     0.052 C 
HETATM    2  C10 UNL     1      39.475  54.486  17.614  1.00  0.00     0.186 C 
HETATM    3  O5  UNL     1      38.814  53.979  18.760  1.00  0.00    -0.379 OA
HETATM    4  C11 UNL     1      38.492  52.645  18.449  1.00  0.00     0.058 C 
HETATM    5  C12 UNL     1      37.012  52.689  18.034  1.00  0.00     0.046 C 
HETATM    6  C13 UNL     1      38.562  51.791  19.657  1.00  0.00     0.046 C 
HETATM    7  C14 UNL     1      39.298  52.266  17.293  1.00  0.00     0.038 C 
HETATM    8  C15 UNL     1      39.869  50.957  17.132  1.00  0.00     0.010 C 
HETATM    9  C16 UNL     1      39.756  50.481  15.702  1.00  0.00     0.011 C 
HETATM   10  C17 UNL     1      40.024  51.395  14.620  1.00  0.00    -0.025 A 
HETATM   11  C18 UNL     1      39.082  51.216  13.403  1.00  0.00     0.016 C 
HETATM   12  C19 UNL     1      40.687  52.639  14.712  1.00  0.00     0.073 A 
HETATM   13  C20 UNL     1      40.968  53.313  15.984  1.00  0.00     0.144 C 
HETATM   14  O6  UNL     1      41.946  54.073  15.876  1.00  0.00    -0.297 OA
HETATM   15  C21 UNL     1      41.480  51.505  14.193  1.00  0.00    -0.029 A 
HETATM   16  C22 UNL     1      41.802  51.436  12.706  1.00  0.00     0.016 C 
HETATM   17  C23 UNL     1      42.566  51.000  15.086  1.00  0.00     0.016 C 
ENDROOT
BRANCH   1  18
HETATM   18  C8  UNL     1      41.411  53.122  18.404  1.00  0.00     0.049 C 
BRANCH  18  19
HETATM   19  C7  UNL     1      42.352  54.268  18.513  1.00  0.00     0.006 C 
HETATM   20  C6  UNL     1      43.426  54.281  19.275  1.00  0.00     0.040 C 
BRANCH  20  21
HETATM   21  C5  UNL     1      44.352  55.405  19.382  1.00  0.00     0.080 C 
BRANCH  21  22
HETATM   22  C3  UNL     1      44.142  56.492  18.389  1.00  0.00     0.115 C 
BRANCH  22  23
HETATM   23  C2  UNL     1      44.965  56.388  17.186  1.00  0.00     0.265 C 
HETATM   24  O2  UNL     1      45.533  55.316  16.870  1.00  0.00    -0.265 OA
BRANCH  23  25
HETATM   25  O1  UNL     1      45.131  57.483  16.367  1.00  0.00    -0.326 OA
HETATM   26  C1  UNL     1      46.321  57.698  15.604  1.00  0.00     0.213 C 
ENDBRANCH  23  25
ENDBRANCH  22  23
BRANCH  22  27
HETATM   27  C4  UNL     1      44.451  57.810  19.062  1.00  0.00     0.179 C 
BRANCH  27  28
HETATM   28  O3  UNL     1      43.745  58.859  18.429  1.00  0.00    -0.400 OA
ATOM     29  H3  UNL     1      42.985  59.101  18.944  1.00  0.00     0.209 HD
ENDBRANCH  27  28
ENDBRANCH  22  27
ENDBRANCH  21  22
ENDBRANCH  20  21
BRANCH  20  30
HETATM   30  O4  UNL     1      43.693  53.136  20.031  1.00  0.00    -0.365 OA
ATOM     31  H4  UNL     1      43.042  52.444  20.037  1.00  0.00     0.217 HD
ENDBRANCH  20  30
ENDBRANCH  18  19
ENDBRANCH   1  18
TORSDOF 9
ENDMDL
MODEL 4
REMARK VINA RESULT: -7.435771319      2.226      4.435
REMARK  9 active torsions:
REMARK  status: ('A' for Active; 'I' for Inactive)
REMARK    1  A    between atoms: O1_2  and  C2_3 
REMARK    2  A    between atoms: C2_3  and  C3_5 
REMARK    3  A    between atoms: C3_5  and  C4_6 
REMARK    4  A    between atoms: C3_5  and  C5_9 
REMARK    5  A    between atoms: C4_6  and  O3_7 
REMARK    6  A    between atoms: C5_9  and  C6_10 
REMARK    7  A    between atoms: C6_10  and  O4_11 
REMARK    8  A    between atoms: C7_13  and  C8_14 
REMARK    9  A    between atoms: C8_14  and  C9_15 
ROOT
HETATM    1  C9  UNL     1      40.064  51.402  15.403  1.00  0.00     0.052 C 
HETATM    2  C10 UNL     1      41.073  50.280  15.557  1.00  0.00     0.186 C 
HETATM    3  O5  UNL     1      42.046  50.715  14.623  1.00  0.00    -0.379 OA
HETATM    4  C11 UNL     1      41.323  51.112  13.483  1.00  0.00     0.058 C 
HETATM    5  C12 UNL     1      41.427  49.918  12.521  1.00  0.00     0.046 C 
HETATM    6  C13 UNL     1      41.988  52.251  12.809  1.00  0.00     0.046 C 
HETATM    7  C14 UNL     1      39.931  51.273  13.891  1.00  0.00     0.038 C 
HETATM    8  C15 UNL     1      39.080  52.311  13.377  1.00  0.00     0.010 C 
HETATM    9  C16 UNL     1      37.688  51.792  13.101  1.00  0.00     0.011 C 
HETATM   10  C17 UNL     1      37.055  50.902  14.043  1.00  0.00    -0.025 A 
HETATM   11  C18 UNL     1      36.217  49.782  13.377  1.00  0.00     0.016 C 
HETATM   12  C19 UNL     1      37.451  50.668  15.378  1.00  0.00     0.073 A 
HETATM   13  C20 UNL     1      38.739  51.103  15.928  1.00  0.00     0.144 C 
HETATM   14  O6  UNL     1      38.668  51.251  17.160  1.00  0.00    -0.297 OA
HETATM   15  C21 UNL     1      36.298  51.571  15.180  1.00  0.00    -0.029 A 
HETATM   16  C22 UNL     1      34.895  51.074  15.501  1.00  0.00     0.016 C 
HETATM   17  C23 UNL     1      36.532  53.013  15.493  1.00  0.00     0.016 C 
ENDROOT
BRANCH   1  18
HETATM   18  C8  UNL     1      40.608  52.714  15.865  1.00  0.00     0.049 C 
BRANCH  18  19
HETATM   19  C7  UNL     1      41.447  52.581  17.085  1.00  0.00     0.006 C 
HETATM   20  C6  UNL     1      41.359  53.363  18.140  1.00  0.00     0.040 C 
BRANCH  20  21
HETATM   21  C5  UNL     1      42.182  53.232  19.339  1.00  0.00     0.080 C 
BRANCH  21  22
HETATM   22  C3  UNL     1      42.930  54.457  19.728  1.00  0.00     0.115 C 
BRANCH  22  23
HETATM   23  C2  UNL     1      43.569  55.162  18.619  1.00  0.00     0.265 C 
HETATM   24  O2  UNL     1      44.689  54.812  18.179  1.00  0.00    -0.265 OA
BRANCH  23  25
HETATM   25  O1  UNL     1      42.940  56.238  18.031  1.00  0.00    -0.326 OA
HETATM   26  C1  UNL     1      42.951  56.455  16.618  1.00  0.00     0.213 C 
ENDBRANCH  23  25
ENDBRANCH  22  23
BRANCH  22  27
HETATM   27  C4  UNL     1      44.001  54.059  20.718  1.00  0.00     0.179 C 
BRANCH  27  28
HETATM   28  O3  UNL     1      44.546  52.802  20.368  1.00  0.00    -0.400 OA
ATOM     29  H3  UNL     1      45.364  52.659  20.829  1.00  0.00     0.209 HD
ENDBRANCH  27  28
ENDBRANCH  22  27
ENDBRANCH  21  22
ENDBRANCH  20  21
BRANCH  20  30
HETATM   30  O4  UNL     1      40.410  54.388  18.104  1.00  0.00    -0.365 OA
ATOM     31  H4  UNL     1      39.507  54.166  18.301  1.00  0.00     0.217 HD
ENDBRANCH  20  30
ENDBRANCH  18  19
ENDBRANCH   1  18
TORSDOF 9
ENDMDL
MODEL 5
REMARK VINA RESULT: -7.433938782      4.471      8.814
REMARK  9 active torsions:
REMARK  status: ('A' for Active; 'I' for Inactive)
REMARK    1  A    between atoms: O1_2  and  C2_3 
REMARK    2  A    between atoms: C2_3  and  C3_5 
REMARK    3  A    between atoms: C3_5  and  C4_6 
REMARK    4  A    between atoms: C3_5  and  C5_9 
REMARK    5  A    between atoms: C4_6  and  O3_7 
REMARK    6  A    between atoms: C5_9  and  C6_10 
REMARK    7  A    between atoms: C6_10  and  O4_11 
REMARK    8  A    between atoms: C7_13  and  C8_14 
REMARK    9  A    between atoms: C8_14  and  C9_15 
ROOT
HETATM    1  C9  UNL     1      38.373  51.577  15.719  1.00  0.00     0.052 C 
HETATM    2  C10 UNL     1      37.967  50.673  16.867  1.00  0.00     0.186 C 
HETATM    3  O5  UNL     1      37.749  51.652  17.866  1.00  0.00    -0.379 OA
HETATM    4  C11 UNL     1      38.839  52.538  17.772  1.00  0.00     0.058 C 
HETATM    5  C12 UNL     1      39.795  52.097  18.893  1.00  0.00     0.046 C 
HETATM    6  C13 UNL     1      38.424  53.922  18.096  1.00  0.00     0.046 C 
HETATM    7  C14 UNL     1      39.478  52.297  16.482  1.00  0.00     0.038 C 
HETATM    8  C15 UNL     1      40.034  53.348  15.676  1.00  0.00     0.010 C 
HETATM    9  C16 UNL     1      41.345  52.927  15.053  1.00  0.00     0.011 C 
HETATM   10  C17 UNL     1      41.482  51.603  14.498  1.00  0.00    -0.025 A 
HETATM   11  C18 UNL     1      42.868  50.961  14.751  1.00  0.00     0.016 C 
HETATM   12  C19 UNL     1      40.435  50.710  14.180  1.00  0.00     0.073 A 
HETATM   13  C20 UNL     1      39.048  50.900  14.621  1.00  0.00     0.144 C 
HETATM   14  O6  UNL     1      38.257  50.329  13.850  1.00  0.00    -0.297 OA
HETATM   15  C21 UNL     1      41.042  51.444  13.051  1.00  0.00    -0.029 A 
HETATM   16  C22 UNL     1      41.970  50.708  12.094  1.00  0.00     0.016 C 
HETATM   17  C23 UNL     1      40.185  52.484  12.406  1.00  0.00     0.016 C 
ENDROOT
BRANCH   1  18
HETATM   18  C8  UNL     1      37.252  52.460  15.276  1.00  0.00     0.049 C 
BRANCH  18  19
HETATM   19  C7  UNL     1      35.983  51.711  15.085  1.00  0.00     0.006 C 
HETATM   20  C6  UNL     1      34.930  51.814  15.869  1.00  0.00     0.040 C 
BRANCH  20  21
HETATM   21  C5  UNL     1      33.683  51.079  15.681  1.00  0.00     0.080 C 
BRANCH  21  22
HETATM   22  C3  UNL     1      33.075  51.203  14.329  1.00  0.00     0.115 C 
BRANCH  22  23
HETATM   23  C2  UNL     1      31.632  51.435  14.326  1.00  0.00     0.265 C 
HETATM   24  O2  UNL     1      30.942  51.282  15.361  1.00  0.00    -0.265 OA
BRANCH  23  25
HETATM   25  O1  UNL     1      30.999  51.831  13.168  1.00  0.00    -0.326 OA
HETATM   26  C1  UNL     1      29.603  51.621  12.946  1.00  0.00     0.213 C 
ENDBRANCH  23  25
ENDBRANCH  22  23
BRANCH  22  27
HETATM   27  C4  UNL     1      33.351  49.924  13.570  1.00  0.00     0.179 C 
BRANCH  27  28
HETATM   28  O3  UNL     1      32.166  49.160  13.455  1.00  0.00    -0.400 OA
ATOM     29  H3  UNL     1      31.906  48.827  14.307  1.00  0.00     0.209 HD
ENDBRANCH  27  28
ENDBRANCH  22  27
ENDBRANCH  21  22
ENDBRANCH  20  21
BRANCH  20  30
HETATM   30  O4  UNL     1      35.020  52.688  16.955  1.00  0.00    -0.365 OA
ATOM     31  H4  UNL     1      35.831  53.166  17.077  1.00  0.00     0.217 HD
ENDBRANCH  20  30
ENDBRANCH  18  19
ENDBRANCH   1  18
TORSDOF 9
ENDMDL
