MODEL 1
REMARK VINA RESULT: -7.888225946      0.000      0.000
REMARK  8 active torsions:
REMARK  status: ('A' for Active; 'I' for Inactive)
REMARK    1  A    between atoms: C2_2  and  C3_3 
REMARK    2  A    between atoms: C8_8  and  O1_9 
REMARK    3  A    between atoms: C14_17  and  O3_18 
REMARK    4  A    between atoms: O3_18  and  C15_19 
REMARK    5  A    between atoms: C15_19  and  C16_20 
REMARK    6  A    between atoms: C16_20  and  O4_21 
REMARK    7  A    between atoms: C16_20  and  C17_23 
REMARK    8  A    between atoms: C22_29  and  C23_30 
ROOT
HETATM    1  C3  UNL     1      40.402  54.799  18.907  1.00  0.00    -0.010 C 
HETATM    2  C4  UNL     1      39.015  55.036  18.311  1.00  0.00     0.021 C 
HETATM    3  C5  UNL     1      40.193  54.669  20.374  1.00  0.00     0.014 C 
HETATM    4  C6  UNL     1      40.044  53.317  20.941  1.00  0.00     0.004 C 
HETATM    5  C7  UNL     1      39.627  52.335  19.933  1.00  0.00     0.042 C 
HETATM    6  C8  UNL     1      40.417  52.317  18.655  1.00  0.00     0.102 C 
HETATM    7  C9  UNL     1      39.453  51.793  17.653  1.00  0.00     0.192 A 
HETATM    8  O2  UNL     1      38.698  50.673  17.793  1.00  0.00    -0.366 OA
HETATM    9  C10 UNL     1      39.743  50.738  16.836  1.00  0.00     0.087 A 
HETATM   10  C11 UNL     1      40.456  49.444  16.907  1.00  0.00     0.049 C 
HETATM   11  C12 UNL     1      39.475  51.184  15.413  1.00  0.00     0.043 C 
HETATM   12  C13 UNL     1      40.113  52.552  15.286  1.00  0.00     0.035 C 
HETATM   13  C14 UNL     1      41.491  52.639  15.950  1.00  0.00     0.126 C 
HETATM   14  C20 UNL     1      41.550  53.797  16.920  1.00  0.00     0.030 C 
HETATM   15  C21 UNL     1      42.937  54.377  16.771  1.00  0.00     0.014 C 
HETATM   16  C22 UNL     1      41.104  53.592  18.300  1.00  0.00     0.062 C 
ENDROOT
BRANCH  13  17
HETATM   17  O3  UNL     1      42.345  52.759  14.883  1.00  0.00    -0.383 OA
BRANCH  17  18
HETATM   18  C15 UNL     1      43.104  51.749  14.461  1.00  0.00     0.202 C 
BRANCH  18  19
HETATM   19  C16 UNL     1      43.130  51.290  13.059  1.00  0.00     0.173 C 
BRANCH  19  20
HETATM   20  O4  UNL     1      44.363  50.876  12.597  1.00  0.00    -0.391 OA
ATOM     21  H4  UNL     1      44.341  50.310  11.834  1.00  0.00     0.210 HD
ENDBRANCH  19  20
BRANCH  19  22
HETATM   22  C17 UNL     1      42.153  50.140  12.815  1.00  0.00     0.181 A 
HETATM   23  O5  UNL     1      42.019  49.865  11.437  1.00  0.00    -0.373 OA
HETATM   24  C18 UNL     1      40.871  50.364  12.175  1.00  0.00     0.149 A 
HETATM   25  C19 UNL     1      40.389  51.719  11.742  1.00  0.00     0.042 C 
ENDBRANCH  19  22
ENDBRANCH  18  19
ENDBRANCH  17  18
ENDBRANCH  13  17
BRANCH  16  26
HETATM   26  C23 UNL     1      42.413  53.456  19.060  1.00  0.00     0.245 C 
HETATM   27  O6  UNL     1      43.010  54.281  19.642  1.00  0.00    -0.306 OA
ENDBRANCH  16  26
BRANCH   1  28
HETATM   28  C2  UNL     1      41.081  56.085  18.653  1.00  0.00    -0.026 C 
HETATM   29  C1  UNL     1      40.800  57.066  17.845  1.00  0.00     0.008 C 
ENDBRANCH   1  28
BRANCH   6  30
HETATM   30  O1  UNL     1      41.361  51.265  18.837  1.00  0.00    -0.386 OA
ATOM     31  H1  UNL     1      40.973  50.521  18.392  1.00  0.00     0.210 HD
ENDBRANCH   6  30
TORSDOF 8
ENDMDL
MODEL 2
REMARK VINA RESULT: -7.724615718      2.023      6.716
REMARK  8 active torsions:
REMARK  status: ('A' for Active; 'I' for Inactive)
REMARK    1  A    between atoms: C2_2  and  C3_3 
REMARK    2  A    between atoms: C8_8  and  O1_9 
REMARK    3  A    between atoms: C14_17  and  O3_18 
REMARK    4  A    between atoms: O3_18  and  C15_19 
REMARK    5  A    between atoms: C15_19  and  C16_20 
REMARK    6  A    between atoms: C16_20  and  O4_21 
REMARK    7  A    between atoms: C16_20  and  C17_23 
REMARK    8  A    between atoms: C22_29  and  C23_30 
ROOT
HETATM    1  C3  UNL     1      41.018  52.002  13.099  1.00  0.00    -0.010 C 
HETATM    2  C4  UNL     1      41.065  53.507  12.839  1.00  0.00     0.021 C 
HETATM    3  C5  UNL     1      42.322  51.469  12.623  1.00  0.00     0.014 C 
HETATM    4  C6  UNL     1      43.409  51.304  13.603  1.00  0.00     0.004 C 
HETATM    5  C7  UNL     1      43.217  52.145  14.792  1.00  0.00     0.042 C 
HETATM    6  C8  UNL     1      41.866  52.075  15.444  1.00  0.00     0.102 C 
HETATM    7  C9  UNL     1      41.729  53.397  16.109  1.00  0.00     0.192 A 
HETATM    8  O2  UNL     1      42.650  53.972  16.923  1.00  0.00    -0.366 OA
HETATM    9  C10 UNL     1      41.402  53.526  17.429  1.00  0.00     0.087 A 
HETATM   10  C11 UNL     1      41.690  52.850  18.712  1.00  0.00     0.049 C 
HETATM   11  C12 UNL     1      40.211  54.458  17.510  1.00  0.00     0.043 C 
HETATM   12  C13 UNL     1      39.246  53.982  16.444  1.00  0.00     0.035 C 
HETATM   13  C14 UNL     1      39.119  52.457  16.382  1.00  0.00     0.126 C 
HETATM   14  C20 UNL     1      39.365  51.951  14.980  1.00  0.00     0.030 C 
HETATM   15  C21 UNL     1      38.384  50.820  14.781  1.00  0.00     0.014 C 
HETATM   16  C22 UNL     1      40.739  51.666  14.558  1.00  0.00     0.062 C 
ENDROOT
BRANCH  13  17
HETATM   17  O3  UNL     1      37.846  52.231  16.843  1.00  0.00    -0.383 OA
BRANCH  17  18
HETATM   18  C15 UNL     1      37.093  53.199  17.364  1.00  0.00     0.202 C 
BRANCH  18  19
HETATM   19  C16 UNL     1      36.513  53.130  18.718  1.00  0.00     0.173 C 
BRANCH  19  20
HETATM   20  O4  UNL     1      35.136  53.062  18.766  1.00  0.00    -0.391 OA
ATOM     21  H4  UNL     1      34.698  53.870  19.007  1.00  0.00     0.210 HD
ENDBRANCH  19  20
BRANCH  19  22
HETATM   22  C17 UNL     1      37.048  51.938  19.511  1.00  0.00     0.181 A 
HETATM   23  O5  UNL     1      36.681  52.019  20.871  1.00  0.00    -0.373 OA
HETATM   24  C18 UNL     1      38.086  52.101  20.511  1.00  0.00     0.149 A 
HETATM   25  C19 UNL     1      38.735  53.420  20.819  1.00  0.00     0.042 C 
ENDBRANCH  19  22
ENDBRANCH  18  19
ENDBRANCH  17  18
ENDBRANCH  13  17
BRANCH  16  26
HETATM   26  C23 UNL     1      40.812  50.151  14.649  1.00  0.00     0.245 C 
HETATM   27  O6  UNL     1      40.649  49.466  15.587  1.00  0.00    -0.306 OA
ENDBRANCH  16  26
BRANCH   1  28
HETATM   28  C2  UNL     1      39.969  51.551  12.163  1.00  0.00    -0.026 C 
HETATM   29  C1  UNL     1      39.932  50.561  11.319  1.00  0.00     0.008 C 
ENDBRANCH   1  28
BRANCH   6  30
HETATM   30  O1  UNL     1      42.036  51.147  16.512  1.00  0.00    -0.386 OA
ATOM     31  H1  UNL     1      41.765  50.314  16.145  1.00  0.00     0.210 HD
ENDBRANCH   6  30
TORSDOF 8
ENDMDL
MODEL 3
REMARK VINA RESULT: -7.687444539      2.408      6.404
REMARK  8 active torsions:
REMARK  status: ('A' for Active; 'I' for Inactive)
REMARK    1  A    between atoms: C2_2  and  C3_3 
REMARK    2  A    between atoms: C8_8  and  O1_9 
REMARK    3  A    between atoms: C14_17  and  O3_18 
REMARK    4  A    between atoms: O3_18  and  C15_19 
REMARK    5  A    between atoms: C15_19  and  C16_20 
REMARK    6  A    between atoms: C16_20  and  O4_21 
REMARK    7  A    between atoms: C16_20  and  C17_23 
REMARK    8  A    between atoms: C22_29  and  C23_30 
ROOT
HETATM    1  C3  UNL     1      41.103  52.043  13.018  1.00  0.00    -0.010 C 
HETATM    2  C4  UNL     1      41.205  53.552  12.796  1.00  0.00     0.021 C 
HETATM    3  C5  UNL     1      42.412  51.483  12.590  1.00  0.00     0.014 C 
HETATM    4  C6  UNL     1      43.448  51.265  13.615  1.00  0.00     0.004 C 
HETATM    5  C7  UNL     1      43.224  52.084  14.812  1.00  0.00     0.042 C 
HETATM    6  C8  UNL     1      41.843  52.040  15.401  1.00  0.00     0.102 C 
HETATM    7  C9  UNL     1      41.712  53.351  16.089  1.00  0.00     0.192 A 
HETATM    8  O2  UNL     1      42.611  53.880  16.957  1.00  0.00    -0.366 OA
HETATM    9  C10 UNL     1      41.328  53.459  17.395  1.00  0.00     0.087 A 
HETATM   10  C11 UNL     1      41.537  52.747  18.674  1.00  0.00     0.049 C 
HETATM   11  C12 UNL     1      40.162  54.424  17.443  1.00  0.00     0.043 C 
HETATM   12  C13 UNL     1      39.234  54.000  16.323  1.00  0.00     0.035 C 
HETATM   13  C14 UNL     1      39.067  52.481  16.220  1.00  0.00     0.126 C 
HETATM   14  C20 UNL     1      39.363  51.999  14.819  1.00  0.00     0.030 C 
HETATM   15  C21 UNL     1      38.361  50.902  14.549  1.00  0.00     0.014 C 
HETATM   16  C22 UNL     1      40.747  51.684  14.454  1.00  0.00     0.062 C 
ENDROOT
BRANCH  13  17
HETATM   17  O3  UNL     1      37.768  52.282  16.617  1.00  0.00    -0.383 OA
BRANCH  17  18
HETATM   18  C15 UNL     1      37.457  51.708  17.779  1.00  0.00     0.202 C 
BRANCH  18  19
HETATM   19  C16 UNL     1      36.164  51.911  18.459  1.00  0.00     0.173 C 
BRANCH  19  20
HETATM   20  O4  UNL     1      35.588  53.151  18.270  1.00  0.00    -0.391 OA
ATOM     21  H4  UNL     1      35.163  53.277  17.429  1.00  0.00     0.210 HD
ENDBRANCH  19  20
BRANCH  19  22
HETATM   22  C17 UNL     1      35.128  50.868  18.041  1.00  0.00     0.181 A 
HETATM   23  O5  UNL     1      35.609  50.059  16.990  1.00  0.00    -0.373 OA
HETATM   24  C18 UNL     1      34.474  50.932  16.748  1.00  0.00     0.149 A 
HETATM   25  C19 UNL     1      34.725  52.023  15.747  1.00  0.00     0.042 C 
ENDBRANCH  19  22
ENDBRANCH  18  19
ENDBRANCH  17  18
ENDBRANCH  13  17
BRANCH  16  26
HETATM   26  C23 UNL     1      40.773  50.165  14.513  1.00  0.00     0.245 C 
HETATM   27  O6  UNL     1      40.613  49.466  15.441  1.00  0.00    -0.306 OA
ENDBRANCH  16  26
BRANCH   1  28
HETATM   28  C2  UNL     1      40.087  51.644  12.024  1.00  0.00    -0.026 C 
HETATM   29  C1  UNL     1      40.010  50.613  11.233  1.00  0.00     0.008 C 
ENDBRANCH   1  28
BRANCH   6  30
HETATM   30  O1  UNL     1      41.936  51.084  16.453  1.00  0.00    -0.386 OA
ATOM     31  H1  UNL     1      41.288  50.426  16.231  1.00  0.00     0.210 HD
ENDBRANCH   6  30
TORSDOF 8
ENDMDL
MODEL 4
REMARK VINA RESULT: -7.656004324      2.995      6.479
REMARK  8 active torsions:
REMARK  status: ('A' for Active; 'I' for Inactive)
REMARK    1  A    between atoms: C2_2  and  C3_3 
REMARK    2  A    between atoms: C8_8  and  O1_9 
REMARK    3  A    between atoms: C14_17  and  O3_18 
REMARK    4  A    between atoms: O3_18  and  C15_19 
REMARK    5  A    between atoms: C15_19  and  C16_20 
REMARK    6  A    between atoms: C16_20  and  O4_21 
REMARK    7  A    between atoms: C16_20  and  C17_23 
REMARK    8  A    between atoms: C22_29  and  C23_30 
ROOT
HETATM    1  C3  UNL     1      40.970  52.091  13.227  1.00  0.00    -0.010 C 
HETATM    2  C4  UNL     1      40.997  53.614  13.097  1.00  0.00     0.021 C 
HETATM    3  C5  UNL     1      42.388  51.653  13.132  1.00  0.00     0.014 C 
HETATM    4  C6  UNL     1      43.142  51.449  14.381  1.00  0.00     0.004 C 
HETATM    5  C7  UNL     1      42.551  52.179  15.511  1.00  0.00     0.042 C 
HETATM    6  C8  UNL     1      41.074  52.002  15.718  1.00  0.00     0.102 C 
HETATM    7  C9  UNL     1      40.662  53.257  16.399  1.00  0.00     0.192 A 
HETATM    8  O2  UNL     1      41.261  53.797  17.490  1.00  0.00    -0.366 OA
HETATM    9  C10 UNL     1      39.949  53.261  17.564  1.00  0.00     0.087 A 
HETATM   10  C11 UNL     1      39.884  52.491  18.825  1.00  0.00     0.049 C 
HETATM   11  C12 UNL     1      38.732  54.135  17.344  1.00  0.00     0.043 C 
HETATM   12  C13 UNL     1      38.161  53.712  16.007  1.00  0.00     0.035 C 
HETATM   13  C14 UNL     1      38.154  52.193  15.806  1.00  0.00     0.126 C 
HETATM   14  C20 UNL     1      38.838  51.816  14.512  1.00  0.00     0.030 C 
HETATM   15  C21 UNL     1      38.034  50.668  13.950  1.00  0.00     0.014 C 
HETATM   16  C22 UNL     1      40.291  51.624  14.507  1.00  0.00     0.062 C 
ENDROOT
BRANCH  13  17
HETATM   17  O3  UNL     1      36.819  51.879  15.845  1.00  0.00    -0.383 OA
BRANCH  17  18
HETATM   18  C15 UNL     1      36.252  51.303  16.904  1.00  0.00     0.202 C 
BRANCH  18  19
HETATM   19  C16 UNL     1      34.932  50.646  16.856  1.00  0.00     0.173 C 
BRANCH  19  20
HETATM   20  O4  UNL     1      34.422  50.259  18.079  1.00  0.00    -0.391 OA
ATOM     21  H4  UNL     1      34.147  50.970  18.647  1.00  0.00     0.210 HD
ENDBRANCH  19  20
BRANCH  19  22
HETATM   22  C17 UNL     1      33.877  51.530  16.192  1.00  0.00     0.181 A 
HETATM   23  O5  UNL     1      32.714  50.794  15.879  1.00  0.00    -0.373 OA
HETATM   24  C18 UNL     1      33.511  51.352  14.800  1.00  0.00     0.149 A 
HETATM   25  C19 UNL     1      34.151  50.331  13.902  1.00  0.00     0.042 C 
ENDBRANCH  19  22
ENDBRANCH  18  19
ENDBRANCH  17  18
ENDBRANCH  13  17
BRANCH  16  26
HETATM   26  C23 UNL     1      40.429  50.110  14.513  1.00  0.00     0.245 C 
HETATM   27  O6  UNL     1      40.558  49.390  15.430  1.00  0.00    -0.306 OA
ENDBRANCH  16  26
BRANCH   1  28
HETATM   28  C2  UNL     1      40.279  51.679  11.989  1.00  0.00    -0.026 C 
HETATM   29  C1  UNL     1      40.351  50.589  11.281  1.00  0.00     0.008 C 
ENDBRANCH   1  28
BRANCH   6  30
HETATM   30  O1  UNL     1      40.976  50.994  16.722  1.00  0.00    -0.386 OA
ATOM     31  H1  UNL     1      41.119  51.460  17.537  1.00  0.00     0.210 HD
ENDBRANCH   6  30
TORSDOF 8
ENDMDL
MODEL 5
REMARK VINA RESULT: -7.617868749      1.897      2.610
REMARK  8 active torsions:
REMARK  status: ('A' for Active; 'I' for Inactive)
REMARK    1  A    between atoms: C2_2  and  C3_3 
REMARK    2  A    between atoms: C8_8  and  O1_9 
REMARK    3  A    between atoms: C14_17  and  O3_18 
REMARK    4  A    between atoms: O3_18  and  C15_19 
REMARK    5  A    between atoms: C15_19  and  C16_20 
REMARK    6  A    between atoms: C16_20  and  O4_21 
REMARK    7  A    between atoms: C16_20  and  C17_23 
REMARK    8  A    between atoms: C22_29  and  C23_30 
ROOT
HETATM    1  C3  UNL     1      39.713  53.915  19.711  1.00  0.00    -0.010 C 
HETATM    2  C4  UNL     1      38.570  54.929  19.716  1.00  0.00     0.021 C 
HETATM    3  C5  UNL     1      39.769  53.364  21.091  1.00  0.00     0.014 C 
HETATM    4  C6  UNL     1      39.052  52.109  21.372  1.00  0.00     0.004 C 
HETATM    5  C7  UNL     1      37.987  51.847  20.395  1.00  0.00     0.042 C 
HETATM    6  C8  UNL     1      38.372  51.955  18.947  1.00  0.00     0.102 C 
HETATM    7  C9  UNL     1      37.097  52.306  18.269  1.00  0.00     0.192 A 
HETATM    8  O2  UNL     1      35.914  51.660  18.428  1.00  0.00    -0.366 OA
HETATM    9  C10 UNL     1      36.619  51.609  17.197  1.00  0.00     0.087 A 
HETATM   10  C11 UNL     1      36.543  50.207  16.731  1.00  0.00     0.049 C 
HETATM   11  C12 UNL     1      36.343  52.610  16.095  1.00  0.00     0.043 C 
HETATM   12  C13 UNL     1      37.563  53.507  16.043  1.00  0.00     0.035 C 
HETATM   13  C14 UNL     1      38.882  52.740  16.173  1.00  0.00     0.126 C 
HETATM   14  C20 UNL     1      39.735  53.315  17.280  1.00  0.00     0.030 C 
HETATM   15  C21 UNL     1      41.155  53.246  16.772  1.00  0.00     0.014 C 
HETATM   16  C22 UNL     1      39.537  52.837  18.651  1.00  0.00     0.062 C 
ENDROOT
BRANCH  13  17
HETATM   17  O3  UNL     1      39.436  52.856  14.922  1.00  0.00    -0.383 OA
BRANCH  17  18
HETATM   18  C15 UNL     1      39.499  51.831  14.073  1.00  0.00     0.202 C 
BRANCH  18  19
HETATM   19  C16 UNL     1      40.689  50.971  13.933  1.00  0.00     0.173 C 
BRANCH  19  20
HETATM   20  O4  UNL     1      40.716  49.864  14.757  1.00  0.00    -0.391 OA
ATOM     21  H4  UNL     1      40.447  49.049  14.349  1.00  0.00     0.210 HD
ENDBRANCH  19  20
BRANCH  19  22
HETATM   22  C17 UNL     1      40.866  50.467  12.501  1.00  0.00     0.181 A 
HETATM   23  O5  UNL     1      41.533  49.223  12.474  1.00  0.00    -0.373 OA
HETATM   24  C18 UNL     1      42.178  50.385  11.887  1.00  0.00     0.149 A 
HETATM   25  C19 UNL     1      43.441  50.815  12.577  1.00  0.00     0.042 C 
ENDBRANCH  19  22
ENDBRANCH  18  19
ENDBRANCH  17  18
ENDBRANCH  13  17
BRANCH  16  26
HETATM   26  C23 UNL     1      40.703  51.880  18.844  1.00  0.00     0.245 C 
HETATM   27  O6  UNL     1      41.060  51.012  18.142  1.00  0.00    -0.306 OA
ENDBRANCH  16  26
BRANCH   1  28
HETATM   28  C2  UNL     1      40.898  54.773  19.512  1.00  0.00    -0.026 C 
HETATM   29  C1  UNL     1      41.067  56.057  19.639  1.00  0.00     0.008 C 
ENDBRANCH   1  28
BRANCH   6  30
HETATM   30  O1  UNL     1      38.637  50.612  18.551  1.00  0.00    -0.386 OA
ATOM     31  H1  UNL     1      38.484  50.609  17.613  1.00  0.00     0.210 HD
ENDBRANCH   6  30
TORSDOF 8
ENDMDL
