MODEL 1
REMARK VINA RESULT: -7.498051974      0.000      0.000
REMARK  8 active torsions:
REMARK  status: ('A' for Active; 'I' for Inactive)
REMARK    1  A    between atoms: C4_4  and  C5_5 
REMARK    2  A    between atoms: C10_12  and  C11_13 
REMARK    3  A    between atoms: C11_13  and  O3_15 
REMARK    4  A    between atoms: C11_13  and  C13_17 
REMARK    5  A    between atoms: C13_17  and  C14_18 
REMARK    6  A    between atoms: C14_18  and  C15_19 
REMARK    7  A    between atoms: C15_19  and  O4_21 
REMARK    8  A    between atoms: C18_24  and  O5_25 
ROOT
HETATM    1  C1  UNL     1      36.548  53.920  20.645  1.00  0.00     0.043 C 
HETATM    2  C2  UNL     1      37.745  53.595  19.824  1.00  0.00    -0.078 C 
HETATM    3  C3  UNL     1      37.619  53.366  18.521  1.00  0.00     0.008 C 
HETATM    4  C4  UNL     1      38.845  53.041  17.715  1.00  0.00     0.158 C 
HETATM    5  O1  UNL     1      39.613  54.122  17.393  1.00  0.00    -0.311 OA
HETATM    6  C8  UNL     1      40.313  55.082  17.995  1.00  0.00     0.277 C 
HETATM    7  O2  UNL     1      39.887  56.300  17.892  1.00  0.00    -0.264 OA
HETATM    8  C9  UNL     1      41.537  55.030  18.794  1.00  0.00     0.119 A 
HETATM    9  C10 UNL     1      42.717  55.702  18.263  1.00  0.00    -0.025 A 
HETATM   10  C17 UNL     1      43.457  54.636  18.437  1.00  0.00     0.020 A 
HETATM   11  C18 UNL     1      42.318  53.846  18.999  1.00  0.00     0.102 A 
HETATM   12  C19 UNL     1      42.224  54.016  20.484  1.00  0.00     0.034 C 
HETATM   13  C20 UNL     1      41.946  52.852  21.344  1.00  0.00     0.014 C 
HETATM   14  C21 UNL     1      41.209  55.069  20.243  1.00  0.00     0.088 C 
HETATM   15  C22 UNL     1      39.791  54.814  20.538  1.00  0.00     0.137 C 
HETATM   16  O6  UNL     1      39.055  55.775  20.837  1.00  0.00    -0.297 OA
HETATM   17  C23 UNL     1      39.074  53.537  20.533  1.00  0.00     0.112 C 
ENDROOT
BRANCH   9  18
HETATM   18  C11 UNL     1      43.040  57.093  17.689  1.00  0.00     0.079 C 
HETATM   19  C12 UNL     1      42.893  56.980  16.158  1.00  0.00     0.051 C 
BRANCH  18  20
HETATM   20  O3  UNL     1      42.140  58.035  18.101  1.00  0.00    -0.386 OA
ATOM     21  H3  UNL     1      42.542  58.689  18.660  1.00  0.00     0.211 HD
ENDBRANCH  18  20
BRANCH  18  22
HETATM   22  C13 UNL     1      44.455  57.382  18.001  1.00  0.00     0.045 C 
BRANCH  22  23
HETATM   23  C14 UNL     1      45.439  57.419  16.908  1.00  0.00     0.034 C 
BRANCH  23  24
HETATM   24  C15 UNL     1      46.697  56.680  16.888  1.00  0.00     0.114 C 
HETATM   25  C16 UNL     1      47.503  57.086  15.589  1.00  0.00     0.039 C 
BRANCH  24  26
HETATM   26  O4  UNL     1      46.554  55.281  16.598  1.00  0.00    -0.396 OA
ATOM     27  H4  UNL     1      46.762  55.046  15.702  1.00  0.00     0.210 HD
ENDBRANCH  24  26
ENDBRANCH  23  24
ENDBRANCH  22  23
ENDBRANCH  18  22
ENDBRANCH   9  18
BRANCH  11  28
HETATM   28  O5  UNL     1      42.167  52.669  18.406  1.00  0.00    -0.384 OA
ATOM     29  H5  UNL     1      42.306  52.463  17.489  1.00  0.00     0.211 HD
ENDBRANCH  11  28
BRANCH   4  30
HETATM   30  C5  UNL     1      38.304  52.478  16.386  1.00  0.00     0.011 C 
HETATM   31  C6  UNL     1      39.427  52.613  15.372  1.00  0.00     0.012 C 
HETATM   32  C7  UNL     1      37.156  53.325  15.883  1.00  0.00     0.012 C 
ENDBRANCH   4  30
TORSDOF 8
ENDMDL
MODEL 2
REMARK VINA RESULT: -7.452294139      2.779      5.751
REMARK  8 active torsions:
REMARK  status: ('A' for Active; 'I' for Inactive)
REMARK    1  A    between atoms: C4_4  and  C5_5 
REMARK    2  A    between atoms: C10_12  and  C11_13 
REMARK    3  A    between atoms: C11_13  and  O3_15 
REMARK    4  A    between atoms: C11_13  and  C13_17 
REMARK    5  A    between atoms: C13_17  and  C14_18 
REMARK    6  A    between atoms: C14_18  and  C15_19 
REMARK    7  A    between atoms: C15_19  and  O4_21 
REMARK    8  A    between atoms: C18_24  and  O5_25 
ROOT
HETATM    1  C1  UNL     1      37.089  51.092  12.422  1.00  0.00     0.043 C 
HETATM    2  C2  UNL     1      38.277  50.800  13.266  1.00  0.00    -0.078 C 
HETATM    3  C3  UNL     1      39.473  50.646  12.707  1.00  0.00     0.008 C 
HETATM    4  C4  UNL     1      40.656  50.352  13.584  1.00  0.00     0.158 C 
HETATM    5  O1  UNL     1      41.164  51.440  14.233  1.00  0.00    -0.311 OA
HETATM    6  C8  UNL     1      40.784  52.358  15.122  1.00  0.00     0.277 C 
HETATM    7  O2  UNL     1      40.679  53.584  14.723  1.00  0.00    -0.264 OA
HETATM    8  C9  UNL     1      40.444  52.246  16.540  1.00  0.00     0.119 A 
HETATM    9  C10 UNL     1      41.305  52.933  17.495  1.00  0.00    -0.025 A 
HETATM   10  C17 UNL     1      41.441  51.850  18.218  1.00  0.00     0.020 A 
HETATM   11  C18 UNL     1      40.569  51.044  17.309  1.00  0.00     0.102 A 
HETATM   12  C19 UNL     1      39.132  51.131  17.720  1.00  0.00     0.034 C 
HETATM   13  C20 UNL     1      38.287  49.924  17.710  1.00  0.00     0.014 C 
HETATM   14  C21 UNL     1      38.968  52.208  16.715  1.00  0.00     0.088 C 
HETATM   15  C22 UNL     1      38.229  51.954  15.469  1.00  0.00     0.137 C 
HETATM   16  O6  UNL     1      37.654  52.905  14.904  1.00  0.00    -0.297 OA
HETATM   17  C23 UNL     1      38.056  50.687  14.754  1.00  0.00     0.112 C 
ENDROOT
BRANCH   9  18
HETATM   18  C11 UNL     1      41.885  54.350  17.650  1.00  0.00     0.079 C 
HETATM   19  C12 UNL     1      42.844  54.301  18.857  1.00  0.00     0.051 C 
BRANCH  18  20
HETATM   20  O3  UNL     1      42.635  54.714  16.567  1.00  0.00    -0.386 OA
ATOM     21  H3  UNL     1      42.436  55.597  16.279  1.00  0.00     0.211 HD
ENDBRANCH  18  20
BRANCH  18  22
HETATM   22  C13 UNL     1      40.763  55.252  17.984  1.00  0.00     0.045 C 
BRANCH  22  23
HETATM   23  C14 UNL     1      40.674  55.819  19.338  1.00  0.00     0.034 C 
BRANCH  23  24
HETATM   24  C15 UNL     1      39.592  55.563  20.283  1.00  0.00     0.114 C 
HETATM   25  C16 UNL     1      39.157  54.047  20.157  1.00  0.00     0.039 C 
BRANCH  24  26
HETATM   26  O4  UNL     1      38.337  56.156  19.917  1.00  0.00    -0.396 OA
ATOM     27  H4  UNL     1      37.601  55.868  20.445  1.00  0.00     0.210 HD
ENDBRANCH  24  26
ENDBRANCH  23  24
ENDBRANCH  22  23
ENDBRANCH  18  22
ENDBRANCH   9  18
BRANCH  11  28
HETATM   28  O5  UNL     1      41.135  49.904  16.934  1.00  0.00    -0.384 OA
ATOM     29  H5  UNL     1      41.407  49.183  17.492  1.00  0.00     0.211 HD
ENDBRANCH  11  28
BRANCH   4  30
HETATM   30  C5  UNL     1      41.755  49.871  12.614  1.00  0.00     0.011 C 
HETATM   31  C6  UNL     1      42.703  51.043  12.421  1.00  0.00     0.012 C 
HETATM   32  C7  UNL     1      41.160  49.561  11.259  1.00  0.00     0.012 C 
ENDBRANCH   4  30
TORSDOF 8
ENDMDL
MODEL 3
REMARK VINA RESULT: -7.422105684      2.881      5.108
REMARK  8 active torsions:
REMARK  status: ('A' for Active; 'I' for Inactive)
REMARK    1  A    between atoms: C4_4  and  C5_5 
REMARK    2  A    between atoms: C10_12  and  C11_13 
REMARK    3  A    between atoms: C11_13  and  O3_15 
REMARK    4  A    between atoms: C11_13  and  C13_17 
REMARK    5  A    between atoms: C13_17  and  C14_18 
REMARK    6  A    between atoms: C14_18  and  C15_19 
REMARK    7  A    between atoms: C15_19  and  O4_21 
REMARK    8  A    between atoms: C18_24  and  O5_25 
ROOT
HETATM    1  C1  UNL     1      37.159  51.208  12.536  1.00  0.00     0.043 C 
HETATM    2  C2  UNL     1      38.349  50.902  13.374  1.00  0.00    -0.078 C 
HETATM    3  C3  UNL     1      39.542  50.750  12.809  1.00  0.00     0.008 C 
HETATM    4  C4  UNL     1      40.728  50.442  13.679  1.00  0.00     0.158 C 
HETATM    5  O1  UNL     1      41.241  51.522  14.337  1.00  0.00    -0.311 OA
HETATM    6  C8  UNL     1      40.868  52.431  15.237  1.00  0.00     0.277 C 
HETATM    7  O2  UNL     1      40.767  53.662  14.851  1.00  0.00    -0.264 OA
HETATM    8  C9  UNL     1      40.532  52.306  16.656  1.00  0.00     0.119 A 
HETATM    9  C10 UNL     1      41.399  52.979  17.615  1.00  0.00    -0.025 A 
HETATM   10  C17 UNL     1      41.533  51.888  18.326  1.00  0.00     0.020 A 
HETATM   11  C18 UNL     1      40.655  51.095  17.411  1.00  0.00     0.102 A 
HETATM   12  C19 UNL     1      39.220  51.183  17.828  1.00  0.00     0.034 C 
HETATM   13  C20 UNL     1      38.370  49.980  17.808  1.00  0.00     0.014 C 
HETATM   14  C21 UNL     1      39.057  52.271  16.835  1.00  0.00     0.088 C 
HETATM   15  C22 UNL     1      38.313  52.033  15.589  1.00  0.00     0.137 C 
HETATM   16  O6  UNL     1      37.740  52.992  15.035  1.00  0.00    -0.297 OA
HETATM   17  C23 UNL     1      38.133  50.775  14.860  1.00  0.00     0.112 C 
ENDROOT
BRANCH   9  18
HETATM   18  C11 UNL     1      41.985  54.392  17.782  1.00  0.00     0.079 C 
HETATM   19  C12 UNL     1      43.273  54.435  16.935  1.00  0.00     0.051 C 
BRANCH  18  20
HETATM   20  O3  UNL     1      41.152  55.351  17.280  1.00  0.00    -0.386 OA
ATOM     21  H3  UNL     1      41.486  56.227  17.434  1.00  0.00     0.211 HD
ENDBRANCH  18  20
BRANCH  18  22
HETATM   22  C13 UNL     1      42.358  54.550  19.204  1.00  0.00     0.045 C 
BRANCH  22  23
HETATM   23  C14 UNL     1      43.779  54.510  19.583  1.00  0.00     0.034 C 
BRANCH  23  24
HETATM   24  C15 UNL     1      44.314  53.823  20.754  1.00  0.00     0.114 C 
HETATM   25  C16 UNL     1      45.698  54.484  21.141  1.00  0.00     0.039 C 
BRANCH  24  26
HETATM   26  O4  UNL     1      44.799  52.498  20.489  1.00  0.00    -0.396 OA
ATOM     27  H4  UNL     1      44.929  51.968  21.267  1.00  0.00     0.210 HD
ENDBRANCH  24  26
ENDBRANCH  23  24
ENDBRANCH  22  23
ENDBRANCH  18  22
ENDBRANCH   9  18
BRANCH  11  28
HETATM   28  O5  UNL     1      41.216  49.956  17.023  1.00  0.00    -0.384 OA
ATOM     29  H5  UNL     1      40.791  49.114  16.907  1.00  0.00     0.211 HD
ENDBRANCH  11  28
BRANCH   4  30
HETATM   30  C5  UNL     1      41.821  49.967  12.701  1.00  0.00     0.011 C 
HETATM   31  C6  UNL     1      42.761  51.144  12.499  1.00  0.00     0.012 C 
HETATM   32  C7  UNL     1      41.217  49.653  11.350  1.00  0.00     0.012 C 
ENDBRANCH   4  30
TORSDOF 8
ENDMDL
MODEL 4
REMARK VINA RESULT: -7.408835247      2.551      4.573
REMARK  8 active torsions:
REMARK  status: ('A' for Active; 'I' for Inactive)
REMARK    1  A    between atoms: C4_4  and  C5_5 
REMARK    2  A    between atoms: C10_12  and  C11_13 
REMARK    3  A    between atoms: C11_13  and  O3_15 
REMARK    4  A    between atoms: C11_13  and  C13_17 
REMARK    5  A    between atoms: C13_17  and  C14_18 
REMARK    6  A    between atoms: C14_18  and  C15_19 
REMARK    7  A    between atoms: C15_19  and  O4_21 
REMARK    8  A    between atoms: C18_24  and  O5_25 
ROOT
HETATM    1  C1  UNL     1      37.750  51.074  12.794  1.00  0.00     0.043 C 
HETATM    2  C2  UNL     1      38.938  50.964  13.682  1.00  0.00    -0.078 C 
HETATM    3  C3  UNL     1      40.158  50.894  13.160  1.00  0.00     0.008 C 
HETATM    4  C4  UNL     1      41.340  50.784  14.081  1.00  0.00     0.158 C 
HETATM    5  O1  UNL     1      41.718  51.960  14.660  1.00  0.00    -0.311 OA
HETATM    6  C8  UNL     1      41.223  52.893  15.473  1.00  0.00     0.277 C 
HETATM    7  O2  UNL     1      41.007  54.072  14.984  1.00  0.00    -0.264 OA
HETATM    8  C9  UNL     1      40.856  52.847  16.888  1.00  0.00     0.119 A 
HETATM    9  C10 UNL     1      41.618  53.683  17.809  1.00  0.00    -0.025 A 
HETATM   10  C17 UNL     1      41.840  52.672  18.611  1.00  0.00     0.020 A 
HETATM   11  C18 UNL     1      41.080  51.720  17.743  1.00  0.00     0.102 A 
HETATM   12  C19 UNL     1      39.630  51.688  18.118  1.00  0.00     0.034 C 
HETATM   13  C20 UNL     1      38.911  50.404  18.177  1.00  0.00     0.014 C 
HETATM   14  C21 UNL     1      39.388  52.670  17.034  1.00  0.00     0.088 C 
HETATM   15  C22 UNL     1      38.713  52.257  15.795  1.00  0.00     0.137 C 
HETATM   16  O6  UNL     1      38.062  53.103  15.151  1.00  0.00    -0.297 OA
HETATM   17  C23 UNL     1      38.688  50.933  15.169  1.00  0.00     0.112 C 
ENDROOT
BRANCH   9  18
HETATM   18  C11 UNL     1      42.048  55.158  17.873  1.00  0.00     0.079 C 
HETATM   19  C12 UNL     1      40.769  55.996  17.672  1.00  0.00     0.051 C 
BRANCH  18  20
HETATM   20  O3  UNL     1      42.545  55.491  19.101  1.00  0.00    -0.386 OA
ATOM     21  H3  UNL     1      42.148  56.283  19.442  1.00  0.00     0.211 HD
ENDBRANCH  18  20
BRANCH  18  22
HETATM   22  C13 UNL     1      42.950  55.406  16.729  1.00  0.00     0.045 C 
BRANCH  22  23
HETATM   23  C14 UNL     1      43.134  56.782  16.243  1.00  0.00     0.034 C 
BRANCH  23  24
HETATM   24  C15 UNL     1      44.055  57.757  16.818  1.00  0.00     0.114 C 
HETATM   25  C16 UNL     1      45.279  56.984  17.456  1.00  0.00     0.039 C 
BRANCH  24  26
HETATM   26  O4  UNL     1      43.576  58.384  18.016  1.00  0.00    -0.396 OA
ATOM     27  H4  UNL     1      43.616  59.334  18.002  1.00  0.00     0.210 HD
ENDBRANCH  24  26
ENDBRANCH  23  24
ENDBRANCH  22  23
ENDBRANCH  18  22
ENDBRANCH   9  18
BRANCH  11  28
HETATM   28  O5  UNL     1      41.767  50.620  17.464  1.00  0.00    -0.384 OA
ATOM     29  H5  UNL     1      41.636  49.750  17.824  1.00  0.00     0.211 HD
ENDBRANCH  11  28
BRANCH   4  30
HETATM   30  C5  UNL     1      42.507  50.351  13.171  1.00  0.00     0.011 C 
HETATM   31  C6  UNL     1      43.349  51.592  12.929  1.00  0.00     0.012 C 
HETATM   32  C7  UNL     1      41.986  49.905  11.823  1.00  0.00     0.012 C 
ENDBRANCH   4  30
TORSDOF 8
ENDMDL
MODEL 5
REMARK VINA RESULT: -7.324729835      1.789      3.328
REMARK  8 active torsions:
REMARK  status: ('A' for Active; 'I' for Inactive)
REMARK    1  A    between atoms: C4_4  and  C5_5 
REMARK    2  A    between atoms: C10_12  and  C11_13 
REMARK    3  A    between atoms: C11_13  and  O3_15 
REMARK    4  A    between atoms: C11_13  and  C13_17 
REMARK    5  A    between atoms: C13_17  and  C14_18 
REMARK    6  A    between atoms: C14_18  and  C15_19 
REMARK    7  A    between atoms: C15_19  and  O4_21 
REMARK    8  A    between atoms: C18_24  and  O5_25 
ROOT
HETATM    1  C1  UNL     1      37.499  53.917  16.269  1.00  0.00     0.043 C 
HETATM    2  C2  UNL     1      38.500  53.102  17.007  1.00  0.00    -0.078 C 
HETATM    3  C3  UNL     1      39.347  52.322  16.343  1.00  0.00     0.008 C 
HETATM    4  C4  UNL     1      40.349  51.511  17.113  1.00  0.00     0.158 C 
HETATM    5  O1  UNL     1      41.432  52.217  17.551  1.00  0.00    -0.311 OA
HETATM    6  C8  UNL     1      41.715  53.247  18.347  1.00  0.00     0.277 C 
HETATM    7  O2  UNL     1      42.175  54.328  17.803  1.00  0.00    -0.264 OA
HETATM    8  C9  UNL     1      41.603  53.408  19.797  1.00  0.00     0.119 A 
HETATM    9  C10 UNL     1      42.836  53.605  20.550  1.00  0.00    -0.025 A 
HETATM   10  C17 UNL     1      42.526  52.651  21.391  1.00  0.00     0.020 A 
HETATM   11  C18 UNL     1      41.233  52.359  20.699  1.00  0.00     0.102 A 
HETATM   12  C19 UNL     1      40.122  53.197  21.254  1.00  0.00     0.034 C 
HETATM   13  C20 UNL     1      38.798  52.600  21.498  1.00  0.00     0.014 C 
HETATM   14  C21 UNL     1      40.358  54.145  20.139  1.00  0.00     0.088 C 
HETATM   15  C22 UNL     1      39.399  54.238  19.028  1.00  0.00     0.137 C 
HETATM   16  O6  UNL     1      39.295  55.316  18.410  1.00  0.00    -0.297 OA
HETATM   17  C23 UNL     1      38.500  53.204  18.511  1.00  0.00     0.112 C 
ENDROOT
BRANCH   9  18
HETATM   18  C11 UNL     1      44.063  54.527  20.450  1.00  0.00     0.079 C 
HETATM   19  C12 UNL     1      44.954  54.203  21.666  1.00  0.00     0.051 C 
BRANCH  18  20
HETATM   20  O3  UNL     1      44.809  54.262  19.336  1.00  0.00    -0.386 OA
ATOM     21  H3  UNL     1      44.268  54.159  18.563  1.00  0.00     0.211 HD
ENDBRANCH  18  20
BRANCH  18  22
HETATM   22  C13 UNL     1      43.584  55.919  20.582  1.00  0.00     0.045 C 
BRANCH  22  23
HETATM   23  C14 UNL     1      44.222  56.978  19.788  1.00  0.00     0.034 C 
BRANCH  23  24
HETATM   24  C15 UNL     1      43.723  57.485  18.514  1.00  0.00     0.114 C 
HETATM   25  C16 UNL     1      44.818  57.229  17.402  1.00  0.00     0.039 C 
BRANCH  24  26
HETATM   26  O4  UNL     1      43.686  58.917  18.423  1.00  0.00    -0.396 OA
ATOM     27  H4  UNL     1      44.502  59.344  18.661  1.00  0.00     0.210 HD
ENDBRANCH  24  26
ENDBRANCH  23  24
ENDBRANCH  22  23
ENDBRANCH  18  22
ENDBRANCH   9  18
BRANCH  11  28
HETATM   28  O5  UNL     1      41.080  51.071  20.419  1.00  0.00    -0.384 OA
ATOM     29  H5  UNL     1      41.419  50.330  20.908  1.00  0.00     0.211 HD
ENDBRANCH  11  28
BRANCH   4  30
HETATM   30  C5  UNL     1      40.882  50.478  16.100  1.00  0.00     0.011 C 
HETATM   31  C6  UNL     1      42.157  51.065  15.516  1.00  0.00     0.012 C 
HETATM   32  C7  UNL     1      39.910  50.317  14.953  1.00  0.00     0.012 C 
ENDBRANCH   4  30
TORSDOF 8
ENDMDL
