MODEL 1
REMARK VINA RESULT: -8.489815148      0.000      0.000
REMARK  6 active torsions:
REMARK  status: ('A' for Active; 'I' for Inactive)
REMARK    1  A    between atoms: C2_2  and  C3_3 
REMARK       I    between atoms: C3_3  and  N1_5 
REMARK    2  A    between atoms: N1_5  and  C5_7 
REMARK    3  A    between atoms: C5_7  and  C6_8 
REMARK    4  A    between atoms: C9_14  and  N4_15 
REMARK    5  A    between atoms: N4_15  and  C10_17 
REMARK    6  A    between atoms: C15_22  and  O2_23 
ROOT
HETATM    1  C6  UNL     1      42.867  55.877  20.518  1.00  0.00     0.057 C 
HETATM    2  C7  UNL     1      42.715  56.639  21.852  1.00  0.00     0.041 C 
HETATM    3  C8  UNL     1      42.503  54.473  20.803  1.00  0.00     0.183 C 
HETATM    4  N2  UNL     1      42.099  53.709  19.631  1.00  0.00    -0.261 N 
HETATM    5  N3  UNL     1      42.290  52.497  19.208  1.00  0.00    -0.128 N 
ATOM      6  H3  UNL     1      42.830  51.778  19.688  1.00  0.00     0.206 HD
HETATM    7  C9  UNL     1      41.652  52.345  18.023  1.00  0.00     0.699 A 
HETATM    8  N5  UNL     1      41.057  53.512  17.729  1.00  0.00    -0.175 N 
ATOM      9  H5  UNL     1      40.497  53.720  16.902  1.00  0.00     0.185 HD
HETATM   10  C18 UNL     1      41.340  54.343  18.727  1.00  0.00     0.142 A 
HETATM   11  C19 UNL     1      40.979  55.740  18.987  1.00  0.00     0.080 C 
HETATM   12  C20 UNL     1      39.650  55.814  19.743  1.00  0.00     0.046 C 
HETATM   13  C21 UNL     1      40.684  56.385  17.622  1.00  0.00     0.046 C 
HETATM   14  N6  UNL     1      41.962  56.545  19.607  1.00  0.00    -0.395 N 
ATOM     15  H6  UNL     1      42.031  57.546  19.422  1.00  0.00     0.155 HD
ENDROOT
BRANCH   7  16
HETATM   16  N4  UNL     1      41.628  51.278  17.323  1.00  0.00    -0.190 N 
ATOM     17  H4  UNL     1      41.666  50.364  17.775  1.00  0.00     0.184 HD
BRANCH  16  18
HETATM   18  C10 UNL     1      41.550  51.375  15.911  1.00  0.00     0.052 A 
HETATM   19  C11 UNL     1      42.672  51.364  15.110  1.00  0.00     0.037 A 
HETATM   20  C12 UNL     1      42.593  51.456  13.739  1.00  0.00    -0.057 A 
HETATM   21  C13 UNL     1      43.786  51.448  12.852  1.00  0.00     0.048 C 
HETATM   22  C14 UNL     1      41.344  51.563  13.174  1.00  0.00     0.043 A 
HETATM   23  C15 UNL     1      40.199  51.577  13.939  1.00  0.00     0.070 A 
HETATM   24  C17 UNL     1      40.306  51.482  15.310  1.00  0.00     0.066 A 
BRANCH  23  25
HETATM   25  O2  UNL     1      38.935  51.685  13.384  1.00  0.00    -0.356 OA
HETATM   26  C16 UNL     1      38.197  50.605  12.884  1.00  0.00     0.210 C 
ENDBRANCH  23  25
ENDBRANCH  16  18
ENDBRANCH   7  16
BRANCH   1  27
HETATM   27  C5  UNL     1      44.248  56.018  19.978  1.00  0.00     0.157 C 
BRANCH  27  28
HETATM   28  N1  UNL     1      44.386  56.216  18.566  1.00  0.00    -0.351 N 
HETATM   29  C3  UNL     1      44.264  57.438  17.889  1.00  0.00     0.242 C 
HETATM   30  O1  UNL     1      44.082  58.550  18.447  1.00  0.00    -0.268 OA
HETATM   31  C4  UNL     1      44.646  55.025  17.770  1.00  0.00     0.153 C 
BRANCH  29  32
HETATM   32  C2  UNL     1      44.350  57.460  16.436  1.00  0.00     0.064 C 
HETATM   33  C1  UNL     1      45.470  57.768  15.815  1.00  0.00     0.017 C 
ENDBRANCH  29  32
ENDBRANCH  27  28
ENDBRANCH   1  27
TORSDOF 6
ENDMDL
MODEL 2
REMARK VINA RESULT: -8.453247925      1.783      2.687
REMARK  6 active torsions:
REMARK  status: ('A' for Active; 'I' for Inactive)
REMARK    1  A    between atoms: C2_2  and  C3_3 
REMARK       I    between atoms: C3_3  and  N1_5 
REMARK    2  A    between atoms: N1_5  and  C5_7 
REMARK    3  A    between atoms: C5_7  and  C6_8 
REMARK    4  A    between atoms: C9_14  and  N4_15 
REMARK    5  A    between atoms: N4_15  and  C10_17 
REMARK    6  A    between atoms: C15_22  and  O2_23 
ROOT
HETATM    1  C6  UNL     1      43.336  54.975  19.824  1.00  0.00     0.057 C 
HETATM    2  C7  UNL     1      43.190  56.001  20.968  1.00  0.00     0.041 C 
HETATM    3  C8  UNL     1      42.281  53.963  20.043  1.00  0.00     0.183 C 
HETATM    4  N2  UNL     1      41.918  53.209  18.852  1.00  0.00    -0.261 N 
HETATM    5  N3  UNL     1      41.618  51.973  18.597  1.00  0.00    -0.128 N 
ATOM      6  H3  UNL     1      41.586  51.216  19.280  1.00  0.00     0.206 HD
HETATM    7  C9  UNL     1      41.356  51.852  17.274  1.00  0.00     0.699 A 
HETATM    8  N5  UNL     1      41.504  53.065  16.718  1.00  0.00    -0.175 N 
ATOM      9  H5  UNL     1      41.377  53.306  15.735  1.00  0.00     0.185 HD
HETATM   10  C18 UNL     1      41.850  53.891  17.701  1.00  0.00     0.142 A 
HETATM   11  C19 UNL     1      42.143  55.327  17.731  1.00  0.00     0.080 C 
HETATM   12  C20 UNL     1      40.857  56.128  17.957  1.00  0.00     0.046 C 
HETATM   13  C21 UNL     1      42.598  55.720  16.315  1.00  0.00     0.046 C 
HETATM   14  N6  UNL     1      43.166  55.748  18.612  1.00  0.00    -0.395 N 
ATOM     15  H6  UNL     1      43.754  56.556  18.404  1.00  0.00     0.155 HD
ENDROOT
BRANCH   7  16
HETATM   16  N4  UNL     1      41.028  50.773  16.676  1.00  0.00    -0.190 N 
ATOM     17  H4  UNL     1      41.128  49.873  17.146  1.00  0.00     0.184 HD
BRANCH  16  18
HETATM   18  C10 UNL     1      40.524  50.837  15.353  1.00  0.00     0.052 A 
HETATM   19  C11 UNL     1      39.188  51.053  15.085  1.00  0.00     0.037 A 
HETATM   20  C12 UNL     1      38.701  51.117  13.799  1.00  0.00    -0.057 A 
HETATM   21  C13 UNL     1      37.268  51.346  13.482  1.00  0.00     0.048 C 
HETATM   22  C14 UNL     1      39.595  50.956  12.767  1.00  0.00     0.043 A 
HETATM   23  C15 UNL     1      40.936  50.740  12.992  1.00  0.00     0.070 A 
HETATM   24  C17 UNL     1      41.398  50.682  14.290  1.00  0.00     0.066 A 
BRANCH  23  25
HETATM   25  O2  UNL     1      41.846  50.578  11.962  1.00  0.00    -0.356 OA
HETATM   26  C16 UNL     1      43.214  50.342  12.145  1.00  0.00     0.210 C 
ENDBRANCH  23  25
ENDBRANCH  16  18
ENDBRANCH   7  16
BRANCH   1  27
HETATM   27  C5  UNL     1      44.705  54.389  19.805  1.00  0.00     0.157 C 
BRANCH  27  28
HETATM   28  N1  UNL     1      45.776  55.232  19.364  1.00  0.00    -0.351 N 
HETATM   29  C3  UNL     1      46.235  55.361  18.046  1.00  0.00     0.242 C 
HETATM   30  O1  UNL     1      45.716  54.797  17.049  1.00  0.00    -0.268 OA
HETATM   31  C4  UNL     1      46.462  55.997  20.397  1.00  0.00     0.153 C 
BRANCH  29  32
HETATM   32  C2  UNL     1      47.393  56.201  17.772  1.00  0.00     0.064 C 
HETATM   33  C1  UNL     1      47.664  56.628  16.557  1.00  0.00     0.017 C 
ENDBRANCH  29  32
ENDBRANCH  27  28
ENDBRANCH   1  27
TORSDOF 6
ENDMDL
MODEL 3
REMARK VINA RESULT: -8.388440511      0.881      1.867
REMARK  6 active torsions:
REMARK  status: ('A' for Active; 'I' for Inactive)
REMARK    1  A    between atoms: C2_2  and  C3_3 
REMARK       I    between atoms: C3_3  and  N1_5 
REMARK    2  A    between atoms: N1_5  and  C5_7 
REMARK    3  A    between atoms: C5_7  and  C6_8 
REMARK    4  A    between atoms: C9_14  and  N4_15 
REMARK    5  A    between atoms: N4_15  and  C10_17 
REMARK    6  A    between atoms: C15_22  and  O2_23 
ROOT
HETATM    1  C6  UNL     1      42.937  55.939  20.610  1.00  0.00     0.057 C 
HETATM    2  C7  UNL     1      42.798  56.727  21.930  1.00  0.00     0.041 C 
HETATM    3  C8  UNL     1      42.569  54.542  20.923  1.00  0.00     0.183 C 
HETATM    4  N2  UNL     1      42.153  53.759  19.769  1.00  0.00    -0.261 N 
HETATM    5  N3  UNL     1      42.335  52.538  19.368  1.00  0.00    -0.128 N 
ATOM      6  H3  UNL     1      42.876  51.826  19.857  1.00  0.00     0.206 HD
HETATM    7  C9  UNL     1      41.688  52.366  18.190  1.00  0.00     0.699 A 
HETATM    8  N5  UNL     1      41.095  53.531  17.878  1.00  0.00    -0.175 N 
ATOM      9  H5  UNL     1      40.531  53.726  17.052  1.00  0.00     0.185 HD
HETATM   10  C18 UNL     1      41.390  54.379  18.859  1.00  0.00     0.142 A 
HETATM   11  C19 UNL     1      41.037  55.782  19.095  1.00  0.00     0.080 C 
HETATM   12  C20 UNL     1      39.713  55.876  19.859  1.00  0.00     0.046 C 
HETATM   13  C21 UNL     1      40.735  56.403  17.721  1.00  0.00     0.046 C 
HETATM   14  N6  UNL     1      42.029  56.594  19.693  1.00  0.00    -0.395 N 
ATOM     15  H6  UNL     1      42.100  57.591  19.488  1.00  0.00     0.155 HD
ENDROOT
BRANCH   7  16
HETATM   16  N4  UNL     1      41.654  51.287  17.511  1.00  0.00    -0.190 N 
ATOM     17  H4  UNL     1      41.928  50.401  17.937  1.00  0.00     0.184 HD
BRANCH  16  18
HETATM   18  C10 UNL     1      41.233  51.330  16.158  1.00  0.00     0.052 A 
HETATM   19  C11 UNL     1      39.900  51.353  15.804  1.00  0.00     0.037 A 
HETATM   20  C12 UNL     1      39.494  51.397  14.489  1.00  0.00    -0.057 A 
HETATM   21  C13 UNL     1      38.066  51.422  14.079  1.00  0.00     0.048 C 
HETATM   22  C14 UNL     1      40.466  51.416  13.518  1.00  0.00     0.043 A 
HETATM   23  C15 UNL     1      41.807  51.394  13.830  1.00  0.00     0.070 A 
HETATM   24  C17 UNL     1      42.188  51.351  15.154  1.00  0.00     0.066 A 
BRANCH  23  25
HETATM   25  O2  UNL     1      42.797  51.412  12.862  1.00  0.00    -0.356 OA
HETATM   26  C16 UNL     1      43.194  50.296  12.116  1.00  0.00     0.210 C 
ENDBRANCH  23  25
ENDBRANCH  16  18
ENDBRANCH   7  16
BRANCH   1  27
HETATM   27  C5  UNL     1      44.314  56.064  20.057  1.00  0.00     0.157 C 
BRANCH  27  28
HETATM   28  N1  UNL     1      44.443  56.227  18.640  1.00  0.00    -0.351 N 
HETATM   29  C3  UNL     1      44.281  57.425  17.929  1.00  0.00     0.242 C 
HETATM   30  O1  UNL     1      44.065  58.545  18.456  1.00  0.00    -0.268 OA
HETATM   31  C4  UNL     1      44.739  55.022  17.876  1.00  0.00     0.153 C 
BRANCH  29  32
HETATM   32  C2  UNL     1      44.364  57.408  16.475  1.00  0.00     0.064 C 
HETATM   33  C1  UNL     1      45.456  57.782  15.841  1.00  0.00     0.017 C 
ENDBRANCH  29  32
ENDBRANCH  27  28
ENDBRANCH   1  27
TORSDOF 6
ENDMDL
MODEL 4
REMARK VINA RESULT: -8.382357568      1.903      2.362
REMARK  6 active torsions:
REMARK  status: ('A' for Active; 'I' for Inactive)
REMARK    1  A    between atoms: C2_2  and  C3_3 
REMARK       I    between atoms: C3_3  and  N1_5 
REMARK    2  A    between atoms: N1_5  and  C5_7 
REMARK    3  A    between atoms: C5_7  and  C6_8 
REMARK    4  A    between atoms: C9_14  and  N4_15 
REMARK    5  A    between atoms: N4_15  and  C10_17 
REMARK    6  A    between atoms: C15_22  and  O2_23 
ROOT
HETATM    1  C6  UNL     1      43.240  54.932  19.798  1.00  0.00     0.057 C 
HETATM    2  C7  UNL     1      42.992  55.879  20.990  1.00  0.00     0.041 C 
HETATM    3  C8  UNL     1      42.205  53.879  19.886  1.00  0.00     0.183 C 
HETATM    4  N2  UNL     1      41.939  53.193  18.631  1.00  0.00    -0.261 N 
HETATM    5  N3  UNL     1      41.694  51.968  18.282  1.00  0.00    -0.128 N 
ATOM      6  H3  UNL     1      41.642  51.169  18.914  1.00  0.00     0.206 HD
HETATM    7  C9  UNL     1      41.518  51.923  16.940  1.00  0.00     0.699 A 
HETATM    8  N5  UNL     1      41.662  53.173  16.470  1.00  0.00    -0.175 N 
ATOM      9  H5  UNL     1      41.589  53.472  15.498  1.00  0.00     0.185 HD
HETATM   10  C18 UNL     1      41.921  53.945  17.522  1.00  0.00     0.142 A 
HETATM   11  C19 UNL     1      42.168  55.383  17.658  1.00  0.00     0.080 C 
HETATM   12  C20 UNL     1      40.846  56.133  17.851  1.00  0.00     0.046 C 
HETATM   13  C21 UNL     1      42.697  55.876  16.301  1.00  0.00     0.046 C 
HETATM   14  N6  UNL     1      43.121  55.775  18.627  1.00  0.00    -0.395 N 
ATOM     15  H6  UNL     1      43.695  56.609  18.507  1.00  0.00     0.155 HD
ENDROOT
BRANCH   7  16
HETATM   16  N4  UNL     1      41.260  50.876  16.258  1.00  0.00    -0.190 N 
ATOM     17  H4  UNL     1      41.698  49.986  16.496  1.00  0.00     0.184 HD
BRANCH  16  18
HETATM   18  C10 UNL     1      40.360  50.962  15.166  1.00  0.00     0.052 A 
HETATM   19  C11 UNL     1      40.736  50.646  13.877  1.00  0.00     0.037 A 
HETATM   20  C12 UNL     1      39.859  50.729  12.819  1.00  0.00    -0.057 A 
HETATM   21  C13 UNL     1      40.236  50.396  11.421  1.00  0.00     0.048 C 
HETATM   22  C14 UNL     1      38.575  51.143  13.081  1.00  0.00     0.043 A 
HETATM   23  C15 UNL     1      38.160  51.467  14.354  1.00  0.00     0.070 A 
HETATM   24  C17 UNL     1      39.057  51.375  15.396  1.00  0.00     0.066 A 
BRANCH  23  25
HETATM   25  O2  UNL     1      36.870  51.886  14.632  1.00  0.00    -0.356 OA
HETATM   26  C16 UNL     1      36.537  52.821  15.619  1.00  0.00     0.210 C 
ENDBRANCH  23  25
ENDBRANCH  16  18
ENDBRANCH   7  16
BRANCH   1  27
HETATM   27  C5  UNL     1      44.625  54.385  19.829  1.00  0.00     0.157 C 
BRANCH  27  28
HETATM   28  N1  UNL     1      45.684  55.250  19.405  1.00  0.00    -0.351 N 
HETATM   29  C3  UNL     1      46.187  55.361  18.101  1.00  0.00     0.242 C 
HETATM   30  O1  UNL     1      45.722  54.755  17.102  1.00  0.00    -0.268 OA
HETATM   31  C4  UNL     1      46.308  56.062  20.441  1.00  0.00     0.153 C 
BRANCH  29  32
HETATM   32  C2  UNL     1      47.327  56.230  17.847  1.00  0.00     0.064 C 
HETATM   33  C1  UNL     1      47.654  56.601  16.627  1.00  0.00     0.017 C 
ENDBRANCH  29  32
ENDBRANCH  27  28
ENDBRANCH   1  27
TORSDOF 6
ENDMDL
MODEL 5
REMARK VINA RESULT: -8.368115657      1.922      2.846
REMARK  6 active torsions:
REMARK  status: ('A' for Active; 'I' for Inactive)
REMARK    1  A    between atoms: C2_2  and  C3_3 
REMARK       I    between atoms: C3_3  and  N1_5 
REMARK    2  A    between atoms: N1_5  and  C5_7 
REMARK    3  A    between atoms: C5_7  and  C6_8 
REMARK    4  A    between atoms: C9_14  and  N4_15 
REMARK    5  A    between atoms: N4_15  and  C10_17 
REMARK    6  A    between atoms: C15_22  and  O2_23 
ROOT
HETATM    1  C6  UNL     1      43.261  55.207  19.690  1.00  0.00     0.057 C 
HETATM    2  C7  UNL     1      42.926  55.986  20.979  1.00  0.00     0.041 C 
HETATM    3  C8  UNL     1      42.203  54.186  19.539  1.00  0.00     0.183 C 
HETATM    4  N2  UNL     1      42.037  53.690  18.181  1.00  0.00    -0.261 N 
HETATM    5  N3  UNL     1      41.801  52.533  17.643  1.00  0.00    -0.128 N 
ATOM      6  H3  UNL     1      41.678  51.656  18.149  1.00  0.00     0.206 HD
HETATM    7  C9  UNL     1      41.745  52.682  16.297  1.00  0.00     0.699 A 
HETATM    8  N5  UNL     1      41.955  53.980  16.024  1.00  0.00    -0.175 N 
ATOM      9  H5  UNL     1      41.974  54.413  15.101  1.00  0.00     0.185 HD
HETATM   10  C18 UNL     1      42.133  54.589  17.192  1.00  0.00     0.142 A 
HETATM   11  C19 UNL     1      42.394  55.985  17.552  1.00  0.00     0.080 C 
HETATM   12  C20 UNL     1      41.075  56.742  17.735  1.00  0.00     0.046 C 
HETATM   13  C21 UNL     1      43.052  56.646  16.329  1.00  0.00     0.046 C 
HETATM   14  N6  UNL     1      43.263  56.208  18.645  1.00  0.00    -0.395 N 
ATOM     15  H6  UNL     1      43.862  57.033  18.694  1.00  0.00     0.155 HD
ENDROOT
BRANCH   7  16
HETATM   16  N4  UNL     1      41.530  51.748  15.454  1.00  0.00    -0.190 N 
ATOM     17  H4  UNL     1      42.268  51.083  15.223  1.00  0.00     0.184 HD
BRANCH  16  18
HETATM   18  C10 UNL     1      40.255  51.646  14.842  1.00  0.00     0.052 A 
HETATM   19  C11 UNL     1      39.116  52.160  15.426  1.00  0.00     0.037 A 
HETATM   20  C12 UNL     1      37.880  52.060  14.829  1.00  0.00    -0.057 A 
HETATM   21  C13 UNL     1      36.637  52.604  15.434  1.00  0.00     0.048 C 
HETATM   22  C14 UNL     1      37.805  51.422  13.613  1.00  0.00     0.043 A 
HETATM   23  C15 UNL     1      38.919  50.896  12.997  1.00  0.00     0.070 A 
HETATM   24  C17 UNL     1      40.145  51.010  13.616  1.00  0.00     0.066 A 
BRANCH  23  25
HETATM   25  O2  UNL     1      38.857  50.252  11.773  1.00  0.00    -0.356 OA
HETATM   26  C16 UNL     1      39.975  49.837  11.041  1.00  0.00     0.210 C 
ENDBRANCH  23  25
ENDBRANCH  16  18
ENDBRANCH   7  16
BRANCH   1  27
HETATM   27  C5  UNL     1      44.627  54.618  19.763  1.00  0.00     0.157 C 
BRANCH  27  28
HETATM   28  N1  UNL     1      45.716  55.419  19.288  1.00  0.00    -0.351 N 
HETATM   29  C3  UNL     1      46.216  55.438  17.978  1.00  0.00     0.242 C 
HETATM   30  O1  UNL     1      45.724  54.796  17.016  1.00  0.00    -0.268 OA
HETATM   31  C4  UNL     1      46.374  56.262  20.276  1.00  0.00     0.153 C 
BRANCH  29  32
HETATM   32  C2  UNL     1      47.386  56.249  17.673  1.00  0.00     0.064 C 
HETATM   33  C1  UNL     1      47.644  56.656  16.448  1.00  0.00     0.017 C 
ENDBRANCH  29  32
ENDBRANCH  27  28
ENDBRANCH   1  27
TORSDOF 6
ENDMDL
