MODEL 1
REMARK VINA RESULT: -6.361599657      0.000      0.000
REMARK  6 active torsions:
REMARK  status: ('A' for Active; 'I' for Inactive)
REMARK    1  A    between atoms: C2_2  and  C3_3 
REMARK    2  A    between atoms: C3_3  and  C4_4 
REMARK    3  A    between atoms: C4_4  and  O1_5 
REMARK    4  A    between atoms: N1_10  and  C8_11 
REMARK    5  A    between atoms: C9_14  and  N3_15 
REMARK    6  A    between atoms: C11_19  and  N4_20 
ROOT
HETATM    1  C8  UNL     1       1.828   3.547  27.293  1.00  0.00     0.683 A 
HETATM    2  N2  UNL     1       1.068   4.135  26.337  1.00  0.00    -0.177 N 
ATOM      3  H2  UNL     1       1.060   3.733  25.399  1.00  0.00     0.185 HD
HETATM    4  C9  UNL     1       0.324   5.226  26.581  1.00  0.00     0.118 A 
HETATM    5  C10 UNL     1       0.328   5.773  27.842  1.00  0.00     0.097 A 
HETATM    6  C11 UNL     1       1.108   5.177  28.835  1.00  0.00     0.122 A 
HETATM    7  N5  UNL     1       1.818   4.092  28.507  1.00  0.00    -0.177 N 
ATOM      8  H5  UNL     1       2.388   3.655  29.232  1.00  0.00     0.186 HD
ENDROOT
BRANCH   1   9
HETATM    9  N1  UNL     1       2.611   2.385  26.931  1.00  0.00    -0.217 N 
HETATM   10  C7  UNL     1       3.937   2.725  26.550  1.00  0.00     0.141 C 
HETATM   11  C6  UNL     1       4.987   1.700  26.843  1.00  0.00     0.023 C 
HETATM   12  C5  UNL     1       4.598   0.283  26.631  1.00  0.00     0.039 C 
HETATM   13  C4  UNL     1       3.587   0.033  25.589  1.00  0.00     0.059 C 
HETATM   14  C17 UNL     1       2.212   0.050  26.165  1.00  0.00     0.058 C 
HETATM   15  C16 UNL     1       1.856   1.179  27.051  1.00  0.00     0.144 C 
BRANCH  13  16
HETATM   16  C3  UNL     1       3.764  -1.263  24.831  1.00  0.00     0.037 C 
BRANCH  16  17
HETATM   17  C2  UNL     1       2.671  -2.251  24.959  1.00  0.00    -0.002 C 
HETATM   18  C1  UNL     1       2.795  -3.189  23.746  1.00  0.00     0.005 C 
ENDBRANCH  16  17
ENDBRANCH  13  16
BRANCH  13  19
HETATM   19  O1  UNL     1       3.609   1.010  24.561  1.00  0.00    -0.390 OA
ATOM     20  H1  UNL     1       4.527   1.250  24.512  1.00  0.00     0.210 HD
ENDBRANCH  13  19
ENDBRANCH   1   9
BRANCH   4  21
HETATM   21  N3  UNL     1      -0.406   5.796  25.680  1.00  0.00    -0.385 N 
ATOM     22  H32 UNL     1      -0.116   6.715  25.345  1.00  0.00     0.157 HD
ATOM     23  H31 UNL     1      -1.249   5.370  25.297  1.00  0.00     0.157 HD
ENDBRANCH   4  21
BRANCH   6  24
HETATM   24  N4  UNL     1       1.091   5.779  30.099  1.00  0.00    -0.363 N 
HETATM   25  C12 UNL     1      -0.110   6.346  30.664  1.00  0.00     0.150 C 
HETATM   26  C13 UNL     1      -0.124   6.114  32.178  1.00  0.00     0.187 C 
HETATM   27  O2  UNL     1       0.627   4.971  32.439  1.00  0.00    -0.388 OA
HETATM   28  C14 UNL     1       1.984   5.328  32.321  1.00  0.00     0.187 C 
HETATM   29  C15 UNL     1       2.279   5.842  30.912  1.00  0.00     0.150 C 
ENDBRANCH   6  24
TORSDOF 6
ENDMDL
MODEL 2
REMARK VINA RESULT: -6.274158953      2.249      2.910
REMARK  6 active torsions:
REMARK  status: ('A' for Active; 'I' for Inactive)
REMARK    1  A    between atoms: C2_2  and  C3_3 
REMARK    2  A    between atoms: C3_3  and  C4_4 
REMARK    3  A    between atoms: C4_4  and  O1_5 
REMARK    4  A    between atoms: N1_10  and  C8_11 
REMARK    5  A    between atoms: C9_14  and  N3_15 
REMARK    6  A    between atoms: C11_19  and  N4_20 
ROOT
HETATM    1  C8  UNL     1       0.748   4.077  27.473  1.00  0.00     0.683 A 
HETATM    2  N2  UNL     1       1.285   5.284  27.170  1.00  0.00    -0.177 N 
ATOM      3  H2  UNL     1       1.953   5.346  26.402  1.00  0.00     0.185 HD
HETATM    4  C9  UNL     1       0.969   6.401  27.846  1.00  0.00     0.118 A 
HETATM    5  C10 UNL     1       0.070   6.326  28.882  1.00  0.00     0.097 A 
HETATM    6  C11 UNL     1      -0.490   5.088  29.205  1.00  0.00     0.122 A 
HETATM    7  N5  UNL     1      -0.120   4.025  28.480  1.00  0.00    -0.177 N 
ATOM      8  H5  UNL     1      -0.529   3.121  28.714  1.00  0.00     0.186 HD
ENDROOT
BRANCH   1   9
HETATM    9  N1  UNL     1       1.164   2.926  26.700  1.00  0.00    -0.217 N 
HETATM   10  C7  UNL     1       0.280   1.823  26.856  1.00  0.00     0.141 C 
HETATM   11  C6  UNL     1       0.154   0.913  25.676  1.00  0.00     0.023 C 
HETATM   12  C5  UNL     1       1.404   0.637  24.923  1.00  0.00     0.039 C 
HETATM   13  C4  UNL     1       2.655   0.676  25.699  1.00  0.00     0.059 C 
HETATM   14  C17 UNL     1       3.253   2.042  25.676  1.00  0.00     0.058 C 
HETATM   15  C16 UNL     1       2.361   3.184  25.968  1.00  0.00     0.144 C 
BRANCH  13  16
HETATM   16  C3  UNL     1       3.710  -0.308  25.251  1.00  0.00     0.037 C 
BRANCH  16  17
HETATM   17  C2  UNL     1       3.233  -1.665  24.901  1.00  0.00    -0.002 C 
HETATM   18  C1  UNL     1       4.080  -2.645  25.731  1.00  0.00     0.005 C 
ENDBRANCH  16  17
ENDBRANCH  13  16
BRANCH  13  19
HETATM   19  O1  UNL     1       2.462   0.339  27.063  1.00  0.00    -0.390 OA
ATOM     20  H1  UNL     1       3.321   0.480  27.443  1.00  0.00     0.210 HD
ENDBRANCH  13  19
ENDBRANCH   1   9
BRANCH   4  21
HETATM   21  N3  UNL     1       1.472   7.557  27.568  1.00  0.00    -0.385 N 
ATOM     22  H32 UNL     1       1.537   7.824  26.585  1.00  0.00     0.157 HD
ATOM     23  H31 UNL     1       1.803   8.206  28.282  1.00  0.00     0.157 HD
ENDBRANCH   4  21
BRANCH   6  24
HETATM   24  N4  UNL     1      -1.389   5.060  30.278  1.00  0.00    -0.363 N 
HETATM   25  C12 UNL     1      -2.279   6.159  30.564  1.00  0.00     0.150 C 
HETATM   26  C13 UNL     1      -3.613   5.617  31.085  1.00  0.00     0.187 C 
HETATM   27  O2  UNL     1      -3.785   4.338  30.561  1.00  0.00    -0.388 OA
HETATM   28  C14 UNL     1      -2.941   3.474  31.286  1.00  0.00     0.187 C 
HETATM   29  C15 UNL     1      -1.483   3.911  31.143  1.00  0.00     0.150 C 
ENDBRANCH   6  24
TORSDOF 6
ENDMDL
MODEL 3
REMARK VINA RESULT: -6.134303807      2.838      7.123
REMARK  6 active torsions:
REMARK  status: ('A' for Active; 'I' for Inactive)
REMARK    1  A    between atoms: C2_2  and  C3_3 
REMARK    2  A    between atoms: C3_3  and  C4_4 
REMARK    3  A    between atoms: C4_4  and  O1_5 
REMARK    4  A    between atoms: N1_10  and  C8_11 
REMARK    5  A    between atoms: C9_14  and  N3_15 
REMARK    6  A    between atoms: C11_19  and  N4_20 
ROOT
HETATM    1  C8  UNL     1       2.749   3.432  27.744  1.00  0.00     0.683 A 
HETATM    2  N2  UNL     1       2.655   2.843  26.526  1.00  0.00    -0.177 N 
ATOM      3  H2  UNL     1       1.870   3.086  25.922  1.00  0.00     0.185 HD
HETATM    4  C9  UNL     1       3.559   1.952  26.087  1.00  0.00     0.118 A 
HETATM    5  C10 UNL     1       4.620   1.619  26.894  1.00  0.00     0.097 A 
HETATM    6  C11 UNL     1       4.728   2.217  28.151  1.00  0.00     0.122 A 
HETATM    7  N5  UNL     1       3.783   3.095  28.510  1.00  0.00    -0.177 N 
ATOM      8  H5  UNL     1       3.861   3.534  29.428  1.00  0.00     0.186 HD
ENDROOT
BRANCH   1   9
HETATM    9  N1  UNL     1       1.716   4.366  28.138  1.00  0.00    -0.217 N 
HETATM   10  C7  UNL     1       2.233   5.665  28.395  1.00  0.00     0.141 C 
HETATM   11  C6  UNL     1       1.309   6.806  28.108  1.00  0.00     0.023 C 
HETATM   12  C5  UNL     1      -0.119   6.598  28.458  1.00  0.00     0.039 C 
HETATM   13  C4  UNL     1      -0.389   5.691  29.587  1.00  0.00     0.059 C 
HETATM   14  C17 UNL     1      -0.573   4.290  29.112  1.00  0.00     0.058 C 
HETATM   15  C16 UNL     1       0.430   3.750  28.168  1.00  0.00     0.144 C 
BRANCH  13  16
HETATM   16  C3  UNL     1      -1.586   6.065  30.428  1.00  0.00     0.037 C 
BRANCH  16  17
HETATM   17  C2  UNL     1      -2.259   7.337  30.082  1.00  0.00    -0.002 C 
HETATM   18  C1  UNL     1      -3.765   7.095  30.282  1.00  0.00     0.005 C 
ENDBRANCH  16  17
ENDBRANCH  13  16
BRANCH  13  19
HETATM   19  O1  UNL     1       0.670   5.664  30.531  1.00  0.00    -0.390 OA
ATOM     20  H1  UNL     1       1.446   5.689  29.983  1.00  0.00     0.210 HD
ENDBRANCH  13  19
ENDBRANCH   1   9
BRANCH   4  21
HETATM   21  N3  UNL     1       3.482   1.384  24.929  1.00  0.00    -0.385 N 
ATOM     22  H32 UNL     1       2.868   0.575  24.836  1.00  0.00     0.157 HD
ATOM     23  H31 UNL     1       4.006   1.708  24.116  1.00  0.00     0.157 HD
ENDBRANCH   4  21
BRANCH   6  24
HETATM   24  N4  UNL     1       5.818   1.836  28.943  1.00  0.00    -0.363 N 
HETATM   25  C12 UNL     1       7.049   1.347  28.371  1.00  0.00     0.150 C 
HETATM   26  C13 UNL     1       8.234   1.829  29.215  1.00  0.00     0.187 C 
HETATM   27  O2  UNL     1       7.855   3.015  29.839  1.00  0.00    -0.388 OA
HETATM   28  C14 UNL     1       7.000   2.671  30.904  1.00  0.00     0.187 C 
HETATM   29  C15 UNL     1       5.767   1.934  30.380  1.00  0.00     0.150 C 
ENDBRANCH   6  24
TORSDOF 6
ENDMDL
MODEL 4
REMARK VINA RESULT: -6.104826599      4.388      5.937
REMARK  6 active torsions:
REMARK  status: ('A' for Active; 'I' for Inactive)
REMARK    1  A    between atoms: C2_2  and  C3_3 
REMARK    2  A    between atoms: C3_3  and  C4_4 
REMARK    3  A    between atoms: C4_4  and  O1_5 
REMARK    4  A    between atoms: N1_10  and  C8_11 
REMARK    5  A    between atoms: C9_14  and  N3_15 
REMARK    6  A    between atoms: C11_19  and  N4_20 
ROOT
HETATM    1  C8  UNL     1       4.979   3.397  29.407  1.00  0.00     0.683 A 
HETATM    2  N2  UNL     1       5.037   3.576  28.064  1.00  0.00    -0.177 N 
ATOM      3  H2  UNL     1       5.866   3.261  27.561  1.00  0.00     0.185 HD
HETATM    4  C9  UNL     1       4.040   4.155  27.374  1.00  0.00     0.118 A 
HETATM    5  C10 UNL     1       2.920   4.583  28.044  1.00  0.00     0.097 A 
HETATM    6  C11 UNL     1       2.848   4.405  29.427  1.00  0.00     0.122 A 
HETATM    7  N5  UNL     1       3.886   3.819  30.037  1.00  0.00    -0.177 N 
ATOM      8  H5  UNL     1       3.835   3.687  31.047  1.00  0.00     0.186 HD
ENDROOT
BRANCH   1   9
HETATM    9  N1  UNL     1       6.110   2.781  30.067  1.00  0.00    -0.217 N 
HETATM   10  C7  UNL     1       5.929   2.689  31.474  1.00  0.00     0.141 C 
HETATM   11  C6  UNL     1       6.590   1.527  32.146  1.00  0.00     0.023 C 
HETATM   12  C5  UNL     1       7.938   1.158  31.643  1.00  0.00     0.039 C 
HETATM   13  C4  UNL     1       8.749   2.255  31.088  1.00  0.00     0.059 C 
HETATM   14  C17 UNL     1       8.527   2.392  29.620  1.00  0.00     0.058 C 
HETATM   15  C16 UNL     1       7.129   2.413  29.139  1.00  0.00     0.144 C 
BRANCH  13  16
HETATM   16  C3  UNL     1      10.236   2.128  31.330  1.00  0.00     0.037 C 
BRANCH  16  17
HETATM   17  C2  UNL     1      10.859   0.850  30.924  1.00  0.00    -0.002 C 
HETATM   18  C1  UNL     1      12.343   0.952  31.313  1.00  0.00     0.005 C 
ENDBRANCH  16  17
ENDBRANCH  13  16
BRANCH  13  19
HETATM   19  O1  UNL     1       8.437   3.512  31.666  1.00  0.00    -0.390 OA
ATOM     20  H1  UNL     1       7.496   3.573  31.551  1.00  0.00     0.210 HD
ENDBRANCH  13  19
ENDBRANCH   1   9
BRANCH   4  21
HETATM   21  N3  UNL     1       4.081   4.331  26.095  1.00  0.00    -0.385 N 
ATOM     22  H32 UNL     1       4.940   4.708  25.694  1.00  0.00     0.157 HD
ATOM     23  H31 UNL     1       3.298   4.113  25.479  1.00  0.00     0.157 HD
ENDBRANCH   4  21
BRANCH   6  24
HETATM   24  N4  UNL     1       1.693   4.870  30.067  1.00  0.00    -0.363 N 
HETATM   25  C12 UNL     1       1.546   4.843  31.502  1.00  0.00     0.150 C 
HETATM   26  C13 UNL     1       0.761   6.076  31.960  1.00  0.00     0.187 C 
HETATM   27  O2  UNL     1       0.970   7.085  31.024  1.00  0.00    -0.388 OA
HETATM   28  C14 UNL     1       0.184   6.775  29.897  1.00  0.00     0.187 C 
HETATM   29  C15 UNL     1       0.595   5.423  29.315  1.00  0.00     0.150 C 
ENDBRANCH   6  24
TORSDOF 6
ENDMDL
MODEL 5
REMARK VINA RESULT: -6.067394514      2.391      3.683
REMARK  6 active torsions:
REMARK  status: ('A' for Active; 'I' for Inactive)
REMARK    1  A    between atoms: C2_2  and  C3_3 
REMARK    2  A    between atoms: C3_3  and  C4_4 
REMARK    3  A    between atoms: C4_4  and  O1_5 
REMARK    4  A    between atoms: N1_10  and  C8_11 
REMARK    5  A    between atoms: C9_14  and  N3_15 
REMARK    6  A    between atoms: C11_19  and  N4_20 
ROOT
HETATM    1  C8  UNL     1       0.311   5.241  28.269  1.00  0.00     0.683 A 
HETATM    2  N2  UNL     1       0.474   6.587  28.255  1.00  0.00    -0.177 N 
ATOM      3  H2  UNL     1       1.204   6.988  27.667  1.00  0.00     0.185 HD
HETATM    4  C9  UNL     1      -0.294   7.411  28.987  1.00  0.00     0.118 A 
HETATM    5  C10 UNL     1      -1.281   6.879  29.781  1.00  0.00     0.097 A 
HETATM    6  C11 UNL     1      -1.458   5.494  29.806  1.00  0.00     0.122 A 
HETATM    7  N5  UNL     1      -0.650   4.746  29.045  1.00  0.00    -0.177 N 
ATOM      8  H5  UNL     1      -0.778   3.734  29.061  1.00  0.00     0.186 HD
ENDROOT
BRANCH   1   9
HETATM    9  N1  UNL     1       1.199   4.433  27.461  1.00  0.00    -0.217 N 
HETATM   10  C7  UNL     1       0.495   3.491  26.662  1.00  0.00     0.141 C 
HETATM   11  C6  UNL     1       1.130   3.137  25.355  1.00  0.00     0.023 C 
HETATM   12  C5  UNL     1       2.608   3.002  25.358  1.00  0.00     0.039 C 
HETATM   13  C4  UNL     1       3.220   2.562  26.624  1.00  0.00     0.059 C 
HETATM   14  C17 UNL     1       3.587   3.731  27.473  1.00  0.00     0.058 C 
HETATM   15  C16 UNL     1       2.567   4.784  27.664  1.00  0.00     0.144 C 
BRANCH  13  16
HETATM   16  C3  UNL     1       4.445   1.691  26.467  1.00  0.00     0.037 C 
BRANCH  16  17
HETATM   17  C2  UNL     1       4.272   0.255  26.779  1.00  0.00    -0.002 C 
HETATM   18  C1  UNL     1       3.936  -0.438  25.448  1.00  0.00     0.005 C 
ENDBRANCH  16  17
ENDBRANCH  13  16
BRANCH  13  19
HETATM   19  O1  UNL     1       2.350   1.754  27.399  1.00  0.00    -0.390 OA
ATOM     20  H1  UNL     1       1.490   1.984  27.067  1.00  0.00     0.210 HD
ENDBRANCH  13  19
ENDBRANCH   1   9
BRANCH   4  21
HETATM   21  N3  UNL     1      -0.152   8.694  28.983  1.00  0.00    -0.385 N 
ATOM     22  H32 UNL     1      -0.923   9.260  29.338  1.00  0.00     0.157 HD
ATOM     23  H31 UNL     1       0.690   9.159  28.642  1.00  0.00     0.157 HD
ENDBRANCH   4  21
BRANCH   6  24
HETATM   24  N4  UNL     1      -2.466   4.999  30.641  1.00  0.00    -0.363 N 
HETATM   25  C12 UNL     1      -2.427   3.663  31.185  1.00  0.00     0.150 C 
HETATM   26  C13 UNL     1      -3.017   3.666  32.599  1.00  0.00     0.187 C 
HETATM   27  O2  UNL     1      -2.831   4.939  33.133  1.00  0.00    -0.388 OA
HETATM   28  C14 UNL     1      -3.785   5.785  32.534  1.00  0.00     0.187 C 
HETATM   29  C15 UNL     1      -3.592   5.816  31.018  1.00  0.00     0.150 C 
ENDBRANCH   6  24
TORSDOF 6
ENDMDL
