MODEL 1
REMARK VINA RESULT: -6.136332138      0.000      0.000
REMARK  5 active torsions:
REMARK  status: ('A' for Active; 'I' for Inactive)
REMARK    1  A    between atoms: C5_8  and  N3_9 
REMARK    2  A    between atoms: N3_9  and  C6_11 
REMARK    3  A    between atoms: C6_11  and  C7_12 
REMARK    4  A    between atoms: C7_12  and  N4_13 
REMARK    5  A    between atoms: N4_13  and  C8_15 
ROOT
HETATM    1  C1  UNL     1      -3.785   6.472  31.128  1.00  0.00     0.072 C 
HETATM    2  C2  UNL     1      -2.575   5.909  30.515  1.00  0.00     0.051 A 
HETATM    3  N1  UNL     1      -2.216   4.631  30.416  1.00  0.00    -0.301 N 
ATOM      4  H1  UNL     1      -2.766   3.850  30.771  1.00  0.00     0.187 HD
HETATM    5  N2  UNL     1      -1.045   4.509  29.793  1.00  0.00    -0.291 N 
HETATM    6  C3  UNL     1      -0.343   3.264  29.497  1.00  0.00     0.178 C 
HETATM    7  C4  UNL     1      -0.617   5.739  29.472  1.00  0.00     0.123 A 
HETATM    8  C5  UNL     1       0.527   6.208  28.815  1.00  0.00     0.138 A 
HETATM    9  N5  UNL     1       0.611   7.533  28.668  1.00  0.00    -0.317 N 
ATOM     10  H5  UNL     1       1.437   7.897  28.192  1.00  0.00     0.170 HD
HETATM   11  C16 UNL     1      -0.291   8.423  29.090  1.00  0.00     0.181 A 
HETATM   12 CL1  UNL     1      -0.058  10.164  28.829  1.00  0.00    -0.045 Cl
HETATM   13  N6  UNL     1      -1.389   7.975  29.719  1.00  0.00    -0.329 N 
ATOM     14  H6  UNL     1      -2.093   8.634  30.051  1.00  0.00     0.168 HD
HETATM   15  C17 UNL     1      -1.558   6.648  29.911  1.00  0.00     0.090 A 
ENDROOT
BRANCH   8  16
HETATM   16  N3  UNL     1       1.359   5.357  28.435  1.00  0.00    -0.351 N 
ATOM     17  H3  UNL     1       0.912   4.539  28.021  1.00  0.00     0.166 HD
BRANCH  16  18
HETATM   18  C6  UNL     1       2.756   5.253  28.438  1.00  0.00     0.093 C 
BRANCH  18  19
HETATM   19  C7  UNL     1       3.373   3.885  28.359  1.00  0.00     0.058 A 
HETATM   20  C14 UNL     1       4.381   3.494  29.488  1.00  0.00     0.039 A 
HETATM   21  C15 UNL     1       4.886   3.971  28.188  1.00  0.00     0.039 A 
BRANCH  19  22
HETATM   22  N4  UNL     1       2.803   2.774  27.705  1.00  0.00    -0.404 N 
ATOM     23  H4  UNL     1       2.388   2.033  28.271  1.00  0.00     0.154 HD
BRANCH  22  24
HETATM   24  C8  UNL     1       2.783   2.645  26.298  1.00  0.00     0.077 C 
HETATM   25  C9  UNL     1       1.465   2.917  25.719  1.00  0.00     0.024 C 
HETATM   26  C10 UNL     1       1.175   2.297  24.366  1.00  0.00     0.002 C 
HETATM   27  C11 UNL     1       1.469   0.820  24.485  1.00  0.00     0.000 C 
HETATM   28  C12 UNL     1       2.971   0.737  24.665  1.00  0.00     0.002 C 
HETATM   29  C13 UNL     1       3.418   1.316  25.970  1.00  0.00     0.024 C 
ENDBRANCH  22  24
ENDBRANCH  19  22
ENDBRANCH  18  19
ENDBRANCH  16  18
ENDBRANCH   8  16
TORSDOF 5
ENDMDL
MODEL 2
REMARK VINA RESULT: -6.024686213      1.331      2.951
REMARK  5 active torsions:
REMARK  status: ('A' for Active; 'I' for Inactive)
REMARK    1  A    between atoms: C5_8  and  N3_9 
REMARK    2  A    between atoms: N3_9  and  C6_11 
REMARK    3  A    between atoms: C6_11  and  C7_12 
REMARK    4  A    between atoms: C7_12  and  N4_13 
REMARK    5  A    between atoms: N4_13  and  C8_15 
ROOT
HETATM    1  C1  UNL     1      -2.866   5.434  32.184  1.00  0.00     0.072 C 
HETATM    2  C2  UNL     1      -2.088   4.895  31.060  1.00  0.00     0.051 A 
HETATM    3  N1  UNL     1      -1.947   3.626  30.687  1.00  0.00    -0.301 N 
ATOM      4  H1  UNL     1      -2.384   2.834  31.158  1.00  0.00     0.187 HD
HETATM    5  N2  UNL     1      -1.160   3.525  29.616  1.00  0.00    -0.291 N 
HETATM    6  C3  UNL     1      -0.786   2.297  28.923  1.00  0.00     0.178 C 
HETATM    7  C4  UNL     1      -0.769   4.762  29.274  1.00  0.00     0.123 A 
HETATM    8  C5  UNL     1       0.047   5.253  28.247  1.00  0.00     0.138 A 
HETATM    9  N5  UNL     1       0.210   6.578  28.216  1.00  0.00    -0.317 N 
ATOM     10  H5  UNL     1       0.800   6.958  27.476  1.00  0.00     0.170 HD
HETATM   11  C16 UNL     1      -0.333   7.450  29.071  1.00  0.00     0.181 A 
HETATM   12 CL1  UNL     1      -0.036   9.194  28.919  1.00  0.00    -0.045 Cl
HETATM   13  N6  UNL     1      -1.115   6.981  30.056  1.00  0.00    -0.329 N 
ATOM     14  H6  UNL     1      -1.540   7.625  30.722  1.00  0.00     0.168 HD
HETATM   15  C17 UNL     1      -1.335   5.653  30.163  1.00  0.00     0.090 A 
ENDROOT
BRANCH   8  16
HETATM   16  N3  UNL     1       0.547   4.418  27.463  1.00  0.00    -0.351 N 
ATOM     17  H3  UNL     1       1.003   3.650  27.956  1.00  0.00     0.166 HD
BRANCH  16  18
HETATM   18  C6  UNL     1       0.632   4.279  26.072  1.00  0.00     0.093 C 
BRANCH  18  19
HETATM   19  C7  UNL     1       1.498   3.186  25.513  1.00  0.00     0.058 A 
HETATM   20  C14 UNL     1       1.032   2.525  24.176  1.00  0.00     0.039 A 
HETATM   21  C15 UNL     1       0.748   1.860  25.460  1.00  0.00     0.039 A 
BRANCH  19  22
HETATM   22  N4  UNL     1       2.877   3.034  25.763  1.00  0.00    -0.404 N 
ATOM     23  H4  UNL     1       3.542   3.408  25.086  1.00  0.00     0.154 HD
BRANCH  22  24
HETATM   24  C8  UNL     1       3.375   2.383  26.915  1.00  0.00     0.077 C 
HETATM   25  C9  UNL     1       4.054   3.296  27.837  1.00  0.00     0.024 C 
HETATM   26  C10 UNL     1       5.073   2.681  28.777  1.00  0.00     0.002 C 
HETATM   27  C11 UNL     1       6.035   1.886  27.926  1.00  0.00     0.000 C 
HETATM   28  C12 UNL     1       5.215   0.730  27.391  1.00  0.00     0.002 C 
HETATM   29  C13 UNL     1       4.154   1.182  26.438  1.00  0.00     0.024 C 
ENDBRANCH  22  24
ENDBRANCH  19  22
ENDBRANCH  18  19
ENDBRANCH  16  18
ENDBRANCH   8  16
TORSDOF 5
ENDMDL
MODEL 3
REMARK VINA RESULT: -5.946661337      2.194      4.059
REMARK  5 active torsions:
REMARK  status: ('A' for Active; 'I' for Inactive)
REMARK    1  A    between atoms: C5_8  and  N3_9 
REMARK    2  A    between atoms: N3_9  and  C6_11 
REMARK    3  A    between atoms: C6_11  and  C7_12 
REMARK    4  A    between atoms: C7_12  and  N4_13 
REMARK    5  A    between atoms: N4_13  and  C8_15 
ROOT
HETATM    1  C1  UNL     1       1.480   6.245  32.998  1.00  0.00     0.072 C 
HETATM    2  C2  UNL     1       1.555   6.046  31.545  1.00  0.00     0.051 A 
HETATM    3  N1  UNL     1       2.580   5.597  30.824  1.00  0.00    -0.301 N 
ATOM      4  H1  UNL     1       3.482   5.323  31.213  1.00  0.00     0.187 HD
HETATM    5  N2  UNL     1       2.273   5.554  29.528  1.00  0.00    -0.291 N 
HETATM    6  C3  UNL     1       3.141   5.110  28.443  1.00  0.00     0.178 C 
HETATM    7  C4  UNL     1       1.012   5.988  29.389  1.00  0.00     0.123 A 
HETATM    8  C5  UNL     1       0.178   6.150  28.274  1.00  0.00     0.138 A 
HETATM    9  N5  UNL     1      -1.049   6.613  28.528  1.00  0.00    -0.317 N 
ATOM     10  H5  UNL     1      -1.673   6.739  27.731  1.00  0.00     0.170 HD
HETATM   11  C16 UNL     1      -1.529   6.926  29.735  1.00  0.00     0.181 A 
HETATM   12 CL1  UNL     1      -3.185   7.534  29.936  1.00  0.00    -0.045 Cl
HETATM   13  N6  UNL     1      -0.732   6.771  30.803  1.00  0.00    -0.329 N 
ATOM     14  H6  UNL     1      -1.075   7.003  31.735  1.00  0.00     0.168 HD
HETATM   15  C17 UNL     1       0.526   6.307  30.640  1.00  0.00     0.090 A 
ENDROOT
BRANCH   8  16
HETATM   16  N3  UNL     1       0.652   5.855  27.157  1.00  0.00    -0.351 N 
ATOM     17  H3  UNL     1       1.485   6.400  26.935  1.00  0.00     0.166 HD
BRANCH  16  18
HETATM   18  C6  UNL     1       0.318   4.958  26.134  1.00  0.00     0.093 C 
BRANCH  18  19
HETATM   19  C7  UNL     1       0.821   3.545  26.228  1.00  0.00     0.058 A 
HETATM   20  C14 UNL     1       2.032   3.161  25.317  1.00  0.00     0.039 A 
HETATM   21  C15 UNL     1       0.661   2.814  24.900  1.00  0.00     0.039 A 
BRANCH  19  22
HETATM   22  N4  UNL     1       0.671   2.702  27.347  1.00  0.00    -0.404 N 
ATOM     23  H4  UNL     1       1.501   2.256  27.738  1.00  0.00     0.154 HD
BRANCH  22  24
HETATM   24  C8  UNL     1      -0.583   2.450  27.949  1.00  0.00     0.077 C 
HETATM   25  C9  UNL     1      -0.602   2.764  29.380  1.00  0.00     0.024 C 
HETATM   26  C10 UNL     1      -1.642   2.048  30.220  1.00  0.00     0.002 C 
HETATM   27  C11 UNL     1      -1.490   0.571  29.946  1.00  0.00     0.000 C 
HETATM   28  C12 UNL     1      -1.929   0.396  28.507  1.00  0.00     0.002 C 
HETATM   29  C13 UNL     1      -0.992   1.055  27.545  1.00  0.00     0.024 C 
ENDBRANCH  22  24
ENDBRANCH  19  22
ENDBRANCH  18  19
ENDBRANCH  16  18
ENDBRANCH   8  16
TORSDOF 5
ENDMDL
MODEL 4
REMARK VINA RESULT: -5.901921967      2.806      6.838
REMARK  5 active torsions:
REMARK  status: ('A' for Active; 'I' for Inactive)
REMARK    1  A    between atoms: C5_8  and  N3_9 
REMARK    2  A    between atoms: N3_9  and  C6_11 
REMARK    3  A    between atoms: C6_11  and  C7_12 
REMARK    4  A    between atoms: C7_12  and  N4_13 
REMARK    5  A    between atoms: N4_13  and  C8_15 
ROOT
HETATM    1  C1  UNL     1       8.127   2.634  29.581  1.00  0.00     0.072 C 
HETATM    2  C2  UNL     1       6.855   2.274  28.940  1.00  0.00     0.051 A 
HETATM    3  N1  UNL     1       6.661   1.580  27.821  1.00  0.00    -0.301 N 
ATOM      4  H1  UNL     1       7.409   1.194  27.246  1.00  0.00     0.187 HD
HETATM    5  N2  UNL     1       5.362   1.456  27.552  1.00  0.00    -0.291 N 
HETATM    6  C3  UNL     1       4.771   0.756  26.417  1.00  0.00     0.178 C 
HETATM    7  C4  UNL     1       4.679   2.087  28.519  1.00  0.00     0.123 A 
HETATM    8  C5  UNL     1       3.310   2.276  28.751  1.00  0.00     0.138 A 
HETATM    9  N5  UNL     1       2.996   2.970  29.847  1.00  0.00    -0.317 N 
ATOM     10  H5  UNL     1       2.004   3.119  30.036  1.00  0.00     0.170 HD
HETATM   11  C16 UNL     1       3.867   3.486  30.719  1.00  0.00     0.181 A 
HETATM   12 CL1  UNL     1       3.315   4.392  32.143  1.00  0.00    -0.045 Cl
HETATM   13  N6  UNL     1       5.179   3.307  30.499  1.00  0.00    -0.329 N 
ATOM     14  H6  UNL     1       5.864   3.692  31.148  1.00  0.00     0.168 HD
HETATM   15  C17 UNL     1       5.588   2.615  29.413  1.00  0.00     0.090 A 
ENDROOT
BRANCH   8  16
HETATM   16  N3  UNL     1       2.516   1.787  27.919  1.00  0.00    -0.351 N 
ATOM     17  H3  UNL     1       2.862   0.914  27.521  1.00  0.00     0.166 HD
BRANCH  16  18
HETATM   18  C6  UNL     1       1.266   2.147  27.400  1.00  0.00     0.093 C 
BRANCH  18  19
HETATM   19  C7  UNL     1       1.200   3.272  26.406  1.00  0.00     0.058 A 
HETATM   20  C14 UNL     1       0.638   2.934  24.987  1.00  0.00     0.039 A 
HETATM   21  C15 UNL     1       2.094   2.999  25.203  1.00  0.00     0.039 A 
BRANCH  19  22
HETATM   22  N4  UNL     1       1.112   4.640  26.733  1.00  0.00    -0.404 N 
ATOM     23  H4  UNL     1       1.177   5.328  25.982  1.00  0.00     0.154 HD
BRANCH  22  24
HETATM   24  C8  UNL     1       0.938   5.098  28.059  1.00  0.00     0.077 C 
HETATM   25  C9  UNL     1      -0.367   4.740  28.620  1.00  0.00     0.024 C 
HETATM   26  C10 UNL     1      -0.880   5.605  29.755  1.00  0.00     0.002 C 
HETATM   27  C11 UNL     1      -0.818   7.037  29.281  1.00  0.00     0.000 C 
HETATM   28  C12 UNL     1       0.660   7.343  29.164  1.00  0.00     0.002 C 
HETATM   29  C13 UNL     1       1.316   6.558  28.073  1.00  0.00     0.024 C 
ENDBRANCH  22  24
ENDBRANCH  19  22
ENDBRANCH  18  19
ENDBRANCH  16  18
ENDBRANCH   8  16
TORSDOF 5
ENDMDL
MODEL 5
REMARK VINA RESULT: -5.899134517      2.137      3.028
REMARK  5 active torsions:
REMARK  status: ('A' for Active; 'I' for Inactive)
REMARK    1  A    between atoms: C5_8  and  N3_9 
REMARK    2  A    between atoms: N3_9  and  C6_11 
REMARK    3  A    between atoms: C6_11  and  C7_12 
REMARK    4  A    between atoms: C7_12  and  N4_13 
REMARK    5  A    between atoms: N4_13  and  C8_15 
ROOT
HETATM    1  C1  UNL     1      -3.178   7.317  30.138  1.00  0.00     0.072 C 
HETATM    2  C2  UNL     1      -1.879   6.739  29.768  1.00  0.00     0.051 A 
HETATM    3  N1  UNL     1      -1.031   7.145  28.826  1.00  0.00    -0.301 N 
ATOM      4  H1  UNL     1      -1.188   7.948  28.217  1.00  0.00     0.187 HD
HETATM    5  N2  UNL     1       0.049   6.366  28.784  1.00  0.00    -0.291 N 
HETATM    6  C3  UNL     1       1.190   6.509  27.887  1.00  0.00     0.178 C 
HETATM    7  C4  UNL     1      -0.090   5.417  29.722  1.00  0.00     0.123 A 
HETATM    8  C5  UNL     1       0.722   4.350  30.124  1.00  0.00     0.138 A 
HETATM    9  N5  UNL     1       0.246   3.601  31.123  1.00  0.00    -0.317 N 
ATOM     10  H5  UNL     1       0.822   2.817  31.432  1.00  0.00     0.170 HD
HETATM   11  C16 UNL     1      -0.918   3.788  31.751  1.00  0.00     0.181 A 
HETATM   12 CL1  UNL     1      -1.435   2.715  33.068  1.00  0.00    -0.045 Cl
HETATM   13  N6  UNL     1      -1.697   4.811  31.367  1.00  0.00    -0.329 N 
ATOM     14  H6  UNL     1      -2.591   4.975  31.829  1.00  0.00     0.168 HD
HETATM   15  C17 UNL     1      -1.295   5.622  30.364  1.00  0.00     0.090 A 
ENDROOT
BRANCH   8  16
HETATM   16  N3  UNL     1       1.804   4.193  29.519  1.00  0.00    -0.351 N 
ATOM     17  H3  UNL     1       2.140   5.059  29.099  1.00  0.00     0.166 HD
BRANCH  16  18
HETATM   18  C6  UNL     1       2.666   3.116  29.276  1.00  0.00     0.093 C 
BRANCH  18  19
HETATM   19  C7  UNL     1       3.714   3.264  28.210  1.00  0.00     0.058 A 
HETATM   20  C14 UNL     1       5.196   3.413  28.686  1.00  0.00     0.039 A 
HETATM   21  C15 UNL     1       4.422   4.610  28.314  1.00  0.00     0.039 A 
BRANCH  19  22
HETATM   22  N4  UNL     1       3.595   2.801  26.884  1.00  0.00    -0.404 N 
ATOM     23  H4  UNL     1       4.382   2.930  26.248  1.00  0.00     0.154 HD
BRANCH  22  24
HETATM   24  C8  UNL     1       2.428   2.167  26.400  1.00  0.00     0.077 C 
HETATM   25  C9  UNL     1       2.719   1.028  25.526  1.00  0.00     0.024 C 
HETATM   26  C10 UNL     1       1.637   0.633  24.539  1.00  0.00     0.002 C 
HETATM   27  C11 UNL     1       1.263   1.880  23.772  1.00  0.00     0.000 C 
HETATM   28  C12 UNL     1       0.588   2.774  24.792  1.00  0.00     0.002 C 
HETATM   29  C13 UNL     1       1.537   3.251  25.844  1.00  0.00     0.024 C 
ENDBRANCH  22  24
ENDBRANCH  19  22
ENDBRANCH  18  19
ENDBRANCH  16  18
ENDBRANCH   8  16
TORSDOF 5
ENDMDL
