MODEL 1
REMARK VINA RESULT: -6.577221648      0.000      0.000
REMARK  5 active torsions:
REMARK  status: ('A' for Active; 'I' for Inactive)
REMARK       I    between atoms: C1_2  and  N1_3 
REMARK    1  A    between atoms: C1_2  and  C12_20 
REMARK    2  A    between atoms: N1_3  and  C2_5 
REMARK    3  A    between atoms: C2_5  and  C3_6 
REMARK    4  A    between atoms: C6_9  and  N2_10 
REMARK    5  A    between atoms: N2_10  and  C7_12 
ROOT
HETATM    1  C3  UNL     1       2.940   2.690  26.306  1.00  0.00     0.003 C 
HETATM    2  C4  UNL     1       2.126   2.687  25.035  1.00  0.00     0.008 C 
HETATM    3  C5  UNL     1       0.664   2.925  25.289  1.00  0.00     0.025 C 
HETATM    4  C6  UNL     1       0.396   3.682  26.564  1.00  0.00     0.083 C 
HETATM    5  C10 UNL     1       1.055   3.069  27.768  1.00  0.00     0.025 C 
HETATM    6  C11 UNL     1       2.059   2.010  27.362  1.00  0.00     0.008 C 
ENDROOT
BRANCH   1   7
HETATM    7  C2  UNL     1       4.242   1.959  26.166  1.00  0.00     0.127 C 
BRANCH   7   8
HETATM    8  N1  UNL     1       5.198   2.378  27.138  1.00  0.00    -0.355 N 
HETATM    9  C1  UNL     1       5.791   1.419  27.995  1.00  0.00     0.279 C 
HETATM   10  O1  UNL     1       5.491   0.186  27.920  1.00  0.00    -0.265 OA
ATOM     11  H1  UNL     1       5.454   3.363  27.216  1.00  0.00     0.162 HD
BRANCH   9  12
HETATM   12  C12 UNL     1       6.765   1.862  28.982  1.00  0.00     0.194 A 
HETATM   13  O2  UNL     1       8.045   1.670  28.964  1.00  0.00    -0.246 OA
HETATM   14  C13 UNL     1       8.547   2.226  30.029  1.00  0.00     0.418 A 
HETATM   15  O3  UNL     1       9.766   2.247  30.357  1.00  0.00    -0.229 OA
HETATM   16  O4  UNL     1       7.613   2.777  30.736  1.00  0.00    -0.240 OA
HETATM   17  C14 UNL     1       6.487   2.581  30.134  1.00  0.00     0.190 A 
HETATM   18 CL1  UNL     1       4.879   3.081  30.593  1.00  0.00    -0.053 Cl
ENDBRANCH   9  12
ENDBRANCH   7   8
ENDBRANCH   1   7
BRANCH   4  19
HETATM   19  N2  UNL     1       0.738   5.081  26.453  1.00  0.00    -0.366 N 
ATOM     20  H2  UNL     1       1.149   5.459  25.599  1.00  0.00     0.162 HD
BRANCH  19  21
HETATM   21  C7  UNL     1       0.500   5.849  27.494  1.00  0.00     0.144 A 
HETATM   22  N3  UNL     1      -0.669   6.316  27.940  1.00  0.00    -0.346 N 
HETATM   23  C8  UNL     1      -0.677   7.069  29.001  1.00  0.00     0.097 A 
ATOM     24  H3  UNL     1      -1.538   6.088  27.457  1.00  0.00     0.167 HD
HETATM   25  C9  UNL     1       0.517   7.344  29.608  1.00  0.00     0.070 A 
HETATM   26  S1  UNL     1       1.620   6.500  28.617  1.00  0.00    -0.065 SA
ENDBRANCH  19  21
ENDBRANCH   4  19
TORSDOF 5
ENDMDL
MODEL 2
REMARK VINA RESULT: -6.494337471      4.523      6.820
REMARK  5 active torsions:
REMARK  status: ('A' for Active; 'I' for Inactive)
REMARK       I    between atoms: C1_2  and  N1_3 
REMARK    1  A    between atoms: C1_2  and  C12_20 
REMARK    2  A    between atoms: N1_3  and  C2_5 
REMARK    3  A    between atoms: C2_5  and  C3_6 
REMARK    4  A    between atoms: C6_9  and  N2_10 
REMARK    5  A    between atoms: N2_10  and  C7_12 
ROOT
HETATM    1  C3  UNL     1       4.163   3.321  28.798  1.00  0.00     0.003 C 
HETATM    2  C4  UNL     1       5.574   2.810  28.640  1.00  0.00     0.008 C 
HETATM    3  C5  UNL     1       5.621   1.401  28.116  1.00  0.00     0.025 C 
HETATM    4  C6  UNL     1       4.399   1.021  27.321  1.00  0.00     0.083 C 
HETATM    5  C10 UNL     1       3.111   1.278  28.052  1.00  0.00     0.025 C 
HETATM    6  C11 UNL     1       3.342   2.120  29.289  1.00  0.00     0.008 C 
ENDROOT
BRANCH   1   7
HETATM    7  C2  UNL     1       4.059   4.455  29.772  1.00  0.00     0.127 C 
BRANCH   7   8
HETATM    8  N1  UNL     1       2.753   5.029  29.788  1.00  0.00    -0.355 N 
HETATM    9  C1  UNL     1       2.515   6.244  29.100  1.00  0.00     0.279 C 
HETATM   10  O1  UNL     1       3.440   6.839  28.464  1.00  0.00    -0.265 OA
ATOM     11  H1  UNL     1       1.995   4.568  30.292  1.00  0.00     0.162 HD
BRANCH   9  12
HETATM   12  C12 UNL     1       1.177   6.817  29.126  1.00  0.00     0.194 A 
HETATM   13  O2  UNL     1       0.802   7.911  29.709  1.00  0.00    -0.246 OA
HETATM   14  C13 UNL     1      -0.473   8.063  29.491  1.00  0.00     0.418 A 
HETATM   15  O3  UNL     1      -1.192   9.015  29.902  1.00  0.00    -0.229 OA
HETATM   16  O4  UNL     1      -0.930   7.086  28.776  1.00  0.00    -0.240 OA
HETATM   17  C14 UNL     1       0.051   6.283  28.521  1.00  0.00     0.190 A 
HETATM   18 CL1  UNL     1       0.061   4.797  27.607  1.00  0.00    -0.053 Cl
ENDBRANCH   9  12
ENDBRANCH   7   8
ENDBRANCH   1   7
BRANCH   4  19
HETATM   19  N2  UNL     1       4.378   1.644  26.018  1.00  0.00    -0.366 N 
ATOM     20  H2  UNL     1       5.243   1.889  25.534  1.00  0.00     0.162 HD
BRANCH  19  21
HETATM   21  C7  UNL     1       3.203   1.883  25.478  1.00  0.00     0.144 A 
HETATM   22  N3  UNL     1       2.580   3.053  25.313  1.00  0.00    -0.346 N 
HETATM   23  C8  UNL     1       1.408   3.063  24.748  1.00  0.00     0.097 A 
ATOM     24  H3  UNL     1       3.014   3.922  25.626  1.00  0.00     0.167 HD
HETATM   25  C9  UNL     1       0.873   1.869  24.349  1.00  0.00     0.070 A 
HETATM   26  S1  UNL     1       2.089   0.765  24.809  1.00  0.00    -0.065 SA
ENDBRANCH  19  21
ENDBRANCH   4  19
TORSDOF 5
ENDMDL
MODEL 3
REMARK VINA RESULT: -6.300739068      4.104      6.790
REMARK  5 active torsions:
REMARK  status: ('A' for Active; 'I' for Inactive)
REMARK       I    between atoms: C1_2  and  N1_3 
REMARK    1  A    between atoms: C1_2  and  C12_20 
REMARK    2  A    between atoms: N1_3  and  C2_5 
REMARK    3  A    between atoms: C2_5  and  C3_6 
REMARK    4  A    between atoms: C6_9  and  N2_10 
REMARK    5  A    between atoms: N2_10  and  C7_12 
ROOT
HETATM    1  C3  UNL     1       1.850   2.571  25.930  1.00  0.00     0.003 C 
HETATM    2  C4  UNL     1       1.919   1.362  25.030  1.00  0.00     0.008 C 
HETATM    3  C5  UNL     1       3.311   0.802  24.925  1.00  0.00     0.025 C 
HETATM    4  C6  UNL     1       4.173   1.125  26.117  1.00  0.00     0.083 C 
HETATM    5  C10 UNL     1       4.210   2.592  26.443  1.00  0.00     0.025 C 
HETATM    6  C11 UNL     1       3.148   3.350  25.676  1.00  0.00     0.008 C 
ENDROOT
BRANCH   1   7
HETATM    7  C2  UNL     1       0.659   3.438  25.651  1.00  0.00     0.127 C 
BRANCH   7   8
HETATM    8  N1  UNL     1       0.715   4.671  26.367  1.00  0.00    -0.355 N 
HETATM    9  C1  UNL     1       0.245   4.726  27.702  1.00  0.00     0.279 C 
HETATM   10  O1  UNL     1      -0.227   3.698  28.282  1.00  0.00    -0.265 OA
ATOM     11  H1  UNL     1       1.090   5.508  25.920  1.00  0.00     0.162 HD
BRANCH   9  12
HETATM   12  C12 UNL     1       0.308   5.990  28.419  1.00  0.00     0.194 A 
HETATM   13  O2  UNL     1      -0.677   6.780  28.708  1.00  0.00    -0.246 OA
HETATM   14  C13 UNL     1      -0.193   7.802  29.354  1.00  0.00     0.418 A 
HETATM   15  O3  UNL     1      -0.850   8.783  29.801  1.00  0.00    -0.229 OA
HETATM   16  O4  UNL     1       1.090   7.687  29.489  1.00  0.00    -0.240 OA
HETATM   17  C14 UNL     1       1.454   6.582  28.927  1.00  0.00     0.190 A 
HETATM   18 CL1  UNL     1       3.045   5.881  28.783  1.00  0.00    -0.053 Cl
ENDBRANCH   9  12
ENDBRANCH   7   8
ENDBRANCH   1   7
BRANCH   4  19
HETATM   19  N2  UNL     1       3.809   0.353  27.283  1.00  0.00    -0.366 N 
ATOM     20  H2  UNL     1       3.109  -0.388  27.230  1.00  0.00     0.162 HD
BRANCH  19  21
HETATM   21  C7  UNL     1       4.413   0.641  28.415  1.00  0.00     0.144 A 
HETATM   22  N3  UNL     1       5.712   0.561  28.715  1.00  0.00    -0.346 N 
HETATM   23  C8  UNL     1       6.099   0.899  29.910  1.00  0.00     0.097 A 
ATOM     24  H3  UNL     1       6.387   0.241  28.021  1.00  0.00     0.167 HD
HETATM   25  C9  UNL     1       5.152   1.321  30.802  1.00  0.00     0.070 A 
HETATM   26  S1  UNL     1       3.723   1.213  29.876  1.00  0.00    -0.065 SA
ENDBRANCH  19  21
ENDBRANCH   4  19
TORSDOF 5
ENDMDL
MODEL 4
REMARK VINA RESULT: -6.228533705      4.234      7.080
REMARK  5 active torsions:
REMARK  status: ('A' for Active; 'I' for Inactive)
REMARK       I    between atoms: C1_2  and  N1_3 
REMARK    1  A    between atoms: C1_2  and  C12_20 
REMARK    2  A    between atoms: N1_3  and  C2_5 
REMARK    3  A    between atoms: C2_5  and  C3_6 
REMARK    4  A    between atoms: C6_9  and  N2_10 
REMARK    5  A    between atoms: N2_10  and  C7_12 
ROOT
HETATM    1  C3  UNL     1       2.091   2.139  26.946  1.00  0.00     0.003 C 
HETATM    2  C4  UNL     1       2.168   0.822  26.211  1.00  0.00     0.008 C 
HETATM    3  C5  UNL     1       3.517   0.589  25.589  1.00  0.00     0.025 C 
HETATM    4  C6  UNL     1       4.628   1.335  26.280  1.00  0.00     0.083 C 
HETATM    5  C10 UNL     1       4.354   2.805  26.427  1.00  0.00     0.025 C 
HETATM    6  C11 UNL     1       2.910   3.128  26.106  1.00  0.00     0.008 C 
ENDROOT
BRANCH   1   7
HETATM    7  C2  UNL     1       0.686   2.634  27.109  1.00  0.00     0.127 C 
BRANCH   7   8
HETATM    8  N1  UNL     1       0.616   3.774  27.964  1.00  0.00    -0.355 N 
HETATM    9  C1  UNL     1       0.276   5.037  27.420  1.00  0.00     0.279 C 
HETATM   10  O1  UNL     1       0.029   5.181  26.181  1.00  0.00    -0.265 OA
ATOM     11  H1  UNL     1       0.810   3.681  28.961  1.00  0.00     0.162 HD
BRANCH   9  12
HETATM   12  C12 UNL     1       0.209   6.190  28.305  1.00  0.00     0.194 A 
HETATM   13  O2  UNL     1      -0.845   6.861  28.643  1.00  0.00    -0.246 OA
HETATM   14  C13 UNL     1      -0.471   7.814  29.448  1.00  0.00     0.418 A 
HETATM   15  O3  UNL     1      -1.221   8.675  29.987  1.00  0.00    -0.229 OA
HETATM   16  O4  UNL     1       0.809   7.770  29.638  1.00  0.00    -0.240 OA
HETATM   17  C14 UNL     1       1.282   6.782  28.952  1.00  0.00     0.190 A 
HETATM   18 CL1  UNL     1       2.927   6.220  28.802  1.00  0.00    -0.053 Cl
ENDBRANCH   9  12
ENDBRANCH   7   8
ENDBRANCH   1   7
BRANCH   4  19
HETATM   19  N2  UNL     1       4.970   0.750  27.556  1.00  0.00    -0.366 N 
ATOM     20  H2  UNL     1       4.519  -0.104  27.885  1.00  0.00     0.162 HD
BRANCH  19  21
HETATM   21  C7  UNL     1       5.885   1.360  28.278  1.00  0.00     0.144 A 
HETATM   22  N3  UNL     1       7.138   1.680  27.946  1.00  0.00    -0.346 N 
HETATM   23  C8  UNL     1       7.881   2.289  28.823  1.00  0.00     0.097 A 
ATOM     24  H3  UNL     1       7.505   1.451  27.022  1.00  0.00     0.167 HD
HETATM   25  C9  UNL     1       7.339   2.570  30.046  1.00  0.00     0.070 A 
HETATM   26  S1  UNL     1       5.761   1.941  29.886  1.00  0.00    -0.065 SA
ENDBRANCH  19  21
ENDBRANCH   4  19
TORSDOF 5
ENDMDL
MODEL 5
REMARK VINA RESULT: -6.213948715      3.989      5.089
REMARK  5 active torsions:
REMARK  status: ('A' for Active; 'I' for Inactive)
REMARK       I    between atoms: C1_2  and  N1_3 
REMARK    1  A    between atoms: C1_2  and  C12_20 
REMARK    2  A    between atoms: N1_3  and  C2_5 
REMARK    3  A    between atoms: C2_5  and  C3_6 
REMARK    4  A    between atoms: C6_9  and  N2_10 
REMARK    5  A    between atoms: N2_10  and  C7_12 
ROOT
HETATM    1  C3  UNL     1       2.869   4.626  28.017  1.00  0.00     0.003 C 
HETATM    2  C4  UNL     1       2.457   3.591  29.036  1.00  0.00     0.008 C 
HETATM    3  C5  UNL     1       1.778   4.200  30.231  1.00  0.00     0.025 C 
HETATM    4  C6  UNL     1       1.126   5.525  29.934  1.00  0.00     0.083 C 
HETATM    5  C10 UNL     1       2.055   6.513  29.287  1.00  0.00     0.025 C 
HETATM    6  C11 UNL     1       3.334   5.843  28.829  1.00  0.00     0.008 C 
ENDROOT
BRANCH   1   7
HETATM    7  C2  UNL     1       3.970   4.151  27.116  1.00  0.00     0.127 C 
BRANCH   7   8
HETATM    8  N1  UNL     1       3.857   2.761  26.821  1.00  0.00    -0.355 N 
HETATM    9  C1  UNL     1       3.123   2.345  25.683  1.00  0.00     0.279 C 
HETATM   10  O1  UNL     1       2.559   3.184  24.914  1.00  0.00    -0.265 OA
ATOM     11  H1  UNL     1       4.302   2.069  27.425  1.00  0.00     0.162 HD
BRANCH   9  12
HETATM   12  C12 UNL     1       3.017   0.922  25.395  1.00  0.00     0.194 A 
HETATM   13  O2  UNL     1       3.945   0.140  24.945  1.00  0.00    -0.246 OA
HETATM   14  C13 UNL     1       3.438  -1.054  24.827  1.00  0.00     0.418 A 
HETATM   15  O3  UNL     1       4.042  -2.085  24.417  1.00  0.00    -0.229 OA
HETATM   16  O4  UNL     1       2.197  -1.058  25.194  1.00  0.00    -0.240 OA
HETATM   17  C14 UNL     1       1.883   0.142  25.556  1.00  0.00     0.190 A 
HETATM   18 CL1  UNL     1       0.362   0.762  26.145  1.00  0.00    -0.053 Cl
ENDBRANCH   9  12
ENDBRANCH   7   8
ENDBRANCH   1   7
BRANCH   4  19
HETATM   19  N2  UNL     1      -0.083   5.378  29.158  1.00  0.00    -0.366 N 
ATOM     20  H2  UNL     1      -0.073   4.931  28.241  1.00  0.00     0.162 HD
BRANCH  19  21
HETATM   21  C7  UNL     1      -1.199   5.842  29.678  1.00  0.00     0.144 A 
HETATM   22  N3  UNL     1      -1.815   7.003  29.439  1.00  0.00    -0.346 N 
HETATM   23  C8  UNL     1      -2.922   7.264  30.070  1.00  0.00     0.097 A 
ATOM     24  H3  UNL     1      -1.424   7.672  28.775  1.00  0.00     0.167 HD
HETATM   25  C9  UNL     1      -3.400   6.333  30.950  1.00  0.00     0.070 A 
HETATM   26  S1  UNL     1      -2.225   5.102  30.834  1.00  0.00    -0.065 SA
ENDBRANCH  19  21
ENDBRANCH   4  19
TORSDOF 5
ENDMDL
