MODEL 1
REMARK VINA RESULT: -7.341849788      0.000      0.000
REMARK  4 active torsions:
REMARK  status: ('A' for Active; 'I' for Inactive)
REMARK    1  A    between atoms: C4_9  and  C5_10 
REMARK    2  A    between atoms: C5_10  and  S1_11 
REMARK    3  A    between atoms: S1_11  and  C6_12 
REMARK    4  A    between atoms: C7_17  and  C8_18 
ROOT
HETATM    1  C6  UNL     1       3.554   4.534  27.995  1.00  0.00     0.160 A 
HETATM    2  N3  UNL     1       4.750   4.386  27.435  1.00  0.00    -0.278 N 
ATOM      3  H3  UNL     1       5.466   5.111  27.415  1.00  0.00     0.189 HD
HETATM    4  N4  UNL     1       4.895   3.197  26.912  1.00  0.00    -0.286 N 
ATOM      5  H4  UNL     1       5.727   2.855  26.430  1.00  0.00     0.188 HD
HETATM    6  C7  UNL     1       3.752   2.493  27.119  1.00  0.00     0.106 A 
HETATM    7  N5  UNL     1       2.933   3.319  27.784  1.00  0.00    -0.324 N 
ATOM      8  H5  UNL     1       1.989   3.085  28.090  1.00  0.00     0.169 HD
ENDROOT
BRANCH   1   9
HETATM    9  S1  UNL     1       2.770   5.894  28.848  1.00  0.00    -0.088 SA
BRANCH   9  10
HETATM   10  C5  UNL     1       1.313   6.488  28.037  1.00  0.00     0.129 C 
BRANCH  10  11
HETATM   11  C4  UNL     1       0.050   6.374  28.779  1.00  0.00     0.051 A 
HETATM   12  C3  UNL     1      -0.574   7.565  29.194  1.00  0.00     0.111 A 
HETATM   13  N1  UNL     1      -1.712   7.515  29.920  1.00  0.00    -0.332 N 
HETATM   14  N2  UNL     1      -0.040   8.685  28.865  1.00  0.00    -0.385 N 
HETATM   15  C2  UNL     1      -2.313   6.377  30.292  1.00  0.00     0.080 A 
ATOM     16  H1  UNL     1      -2.139   8.396  30.203  1.00  0.00     0.168 HD
HETATM   17  C1  UNL     1      -3.574   6.358  31.093  1.00  0.00     0.089 C 
HETATM   18  N6  UNL     1      -1.730   5.235  29.908  1.00  0.00    -0.322 N 
HETATM   19  C15 UNL     1      -0.577   5.222  29.171  1.00  0.00     0.200 A 
ATOM     20  H6  UNL     1      -2.158   4.349  30.172  1.00  0.00     0.169 HD
HETATM   21  F1  UNL     1      -0.003   4.036  28.880  1.00  0.00    -0.185 F 
ATOM     22  H22 UNL     1      -0.493   9.549  29.166  1.00  0.00     0.157 HD
ATOM     23  H21 UNL     1       0.819   8.723  28.316  1.00  0.00     0.157 HD
ENDBRANCH  10  11
ENDBRANCH   9  10
ENDBRANCH   1   9
BRANCH   6  24
HETATM   24  C8  UNL     1       3.460   1.123  26.703  1.00  0.00     0.024 C 
HETATM   25  C9  UNL     1       2.175   0.583  27.236  1.00  0.00     0.043 C 
HETATM   26  C10 UNL     1       1.365  -0.237  26.326  1.00  0.00     0.169 C 
HETATM   27  O1  UNL     1       1.954  -0.731  25.206  1.00  0.00    -0.386 OA
HETATM   28  C11 UNL     1       3.309  -0.525  25.083  1.00  0.00     0.122 C 
HETATM   29  C12 UNL     1       4.066  -1.087  26.268  1.00  0.00     0.033 C 
HETATM   30  C14 UNL     1       3.528   0.983  25.172  1.00  0.00     0.049 C 
HETATM   31  C13 UNL     1       4.552   0.127  27.063  1.00  0.00     0.020 C 
ENDBRANCH   6  24
TORSDOF 4
ENDMDL
MODEL 2
REMARK VINA RESULT: -7.272120015      1.740      2.255
REMARK  4 active torsions:
REMARK  status: ('A' for Active; 'I' for Inactive)
REMARK    1  A    between atoms: C4_9  and  C5_10 
REMARK    2  A    between atoms: C5_10  and  S1_11 
REMARK    3  A    between atoms: S1_11  and  C6_12 
REMARK    4  A    between atoms: C7_17  and  C8_18 
ROOT
HETATM    1  C6  UNL     1       3.637   4.632  28.686  1.00  0.00     0.160 A 
HETATM    2  N3  UNL     1       4.652   4.689  27.830  1.00  0.00    -0.278 N 
ATOM      3  H3  UNL     1       5.484   5.261  27.967  1.00  0.00     0.189 HD
HETATM    4  N4  UNL     1       4.451   3.924  26.790  1.00  0.00    -0.286 N 
ATOM      5  H4  UNL     1       5.090   3.806  26.004  1.00  0.00     0.188 HD
HETATM    6  C7  UNL     1       3.246   3.312  26.933  1.00  0.00     0.106 A 
HETATM    7  N5  UNL     1       2.753   3.750  28.098  1.00  0.00    -0.324 N 
ATOM      8  H5  UNL     1       1.854   3.473  28.494  1.00  0.00     0.169 HD
ENDROOT
BRANCH   1   9
HETATM    9  S1  UNL     1       3.321   5.430  30.253  1.00  0.00    -0.088 SA
BRANCH   9  10
HETATM   10  C5  UNL     1       2.180   6.780  30.139  1.00  0.00     0.129 C 
BRANCH  10  11
HETATM   11  C4  UNL     1       0.761   6.464  30.347  1.00  0.00     0.051 A 
HETATM   12  C3  UNL     1      -0.095   6.536  29.232  1.00  0.00     0.111 A 
HETATM   13  N1  UNL     1      -1.417   6.301  29.378  1.00  0.00    -0.332 N 
HETATM   14  N2  UNL     1       0.411   6.822  28.087  1.00  0.00    -0.385 N 
HETATM   15  C2  UNL     1      -1.999   5.997  30.546  1.00  0.00     0.080 A 
ATOM     16  H1  UNL     1      -2.008   6.359  28.549  1.00  0.00     0.168 HD
HETATM   17  C1  UNL     1      -3.466   5.741  30.670  1.00  0.00     0.089 C 
HETATM   18  N6  UNL     1      -1.200   5.929  31.616  1.00  0.00    -0.322 N 
HETATM   19  C15 UNL     1       0.147   6.156  31.531  1.00  0.00     0.200 A 
ATOM     20  H6  UNL     1      -1.606   5.701  32.523  1.00  0.00     0.169 HD
HETATM   21  F1  UNL     1       0.883   6.143  32.662  1.00  0.00    -0.185 F 
ATOM     22  H22 UNL     1      -0.209   6.874  27.279  1.00  0.00     0.157 HD
ATOM     23  H21 UNL     1       1.409   6.999  27.977  1.00  0.00     0.157 HD
ENDBRANCH  10  11
ENDBRANCH   9  10
ENDBRANCH   1   9
BRANCH   6  24
HETATM   24  C8  UNL     1       2.608   2.373  26.012  1.00  0.00     0.024 C 
HETATM   25  C9  UNL     1       3.555   1.426  25.352  1.00  0.00     0.043 C 
HETATM   26  C10 UNL     1       3.107   0.037  25.190  1.00  0.00     0.169 C 
HETATM   27  O1  UNL     1       1.784  -0.234  25.330  1.00  0.00    -0.386 OA
HETATM   28  C11 UNL     1       0.947   0.848  25.485  1.00  0.00     0.122 C 
HETATM   29  C12 UNL     1       1.083   1.823  24.335  1.00  0.00     0.033 C 
HETATM   30  C14 UNL     1       1.458   1.618  26.701  1.00  0.00     0.049 C 
HETATM   31  C13 UNL     1       1.802   3.046  24.912  1.00  0.00     0.020 C 
ENDBRANCH   6  24
TORSDOF 4
ENDMDL
MODEL 3
REMARK VINA RESULT: -7.179696935      3.356      7.389
REMARK  4 active torsions:
REMARK  status: ('A' for Active; 'I' for Inactive)
REMARK    1  A    between atoms: C4_9  and  C5_10 
REMARK    2  A    between atoms: C5_10  and  S1_11 
REMARK    3  A    between atoms: S1_11  and  C6_12 
REMARK    4  A    between atoms: C7_17  and  C8_18 
ROOT
HETATM    1  C6  UNL     1       0.777   3.571  26.411  1.00  0.00     0.160 A 
HETATM    2  N3  UNL     1       0.413   4.700  25.813  1.00  0.00    -0.278 N 
ATOM      3  H3  UNL     1       0.468   4.858  24.808  1.00  0.00     0.189 HD
HETATM    4  N4  UNL     1      -0.022   5.584  26.672  1.00  0.00    -0.286 N 
ATOM      5  H4  UNL     1      -0.355   6.521  26.445  1.00  0.00     0.188 HD
HETATM    6  C7  UNL     1       0.044   5.043  27.916  1.00  0.00     0.106 A 
HETATM    7  N5  UNL     1       0.535   3.808  27.749  1.00  0.00    -0.324 N 
ATOM      8  H5  UNL     1       0.705   3.140  28.501  1.00  0.00     0.169 HD
ENDROOT
BRANCH   1   9
HETATM    9  S1  UNL     1       1.441   2.029  25.799  1.00  0.00    -0.088 SA
BRANCH   9  10
HETATM   10  C5  UNL     1       3.172   2.103  25.434  1.00  0.00     0.129 C 
BRANCH  10  11
HETATM   11  C4  UNL     1       4.089   2.123  26.582  1.00  0.00     0.051 A 
HETATM   12  C3  UNL     1       4.547   3.376  27.031  1.00  0.00     0.111 A 
HETATM   13  N1  UNL     1       5.427   3.448  28.052  1.00  0.00    -0.332 N 
HETATM   14  N2  UNL     1       4.106   4.434  26.452  1.00  0.00    -0.385 N 
HETATM   15  C2  UNL     1       5.920   2.379  28.693  1.00  0.00     0.080 A 
ATOM     16  H1  UNL     1       5.736   4.372  28.353  1.00  0.00     0.168 HD
HETATM   17  C1  UNL     1       6.892   2.496  29.821  1.00  0.00     0.089 C 
HETATM   18  N6  UNL     1       5.498   1.181  28.275  1.00  0.00    -0.322 N 
HETATM   19  C15 UNL     1       4.606   1.044  27.247  1.00  0.00     0.200 A 
ATOM     20  H6  UNL     1       5.851   0.344  28.738  1.00  0.00     0.169 HD
HETATM   21  F1  UNL     1       4.279  -0.197  26.829  1.00  0.00    -0.185 F 
ATOM     22  H22 UNL     1       4.438   5.342  26.778  1.00  0.00     0.157 HD
ATOM     23  H21 UNL     1       3.440   4.379  25.681  1.00  0.00     0.157 HD
ENDBRANCH  10  11
ENDBRANCH   9  10
ENDBRANCH   1   9
BRANCH   6  24
HETATM   24  C8  UNL     1      -0.333   5.670  29.182  1.00  0.00     0.024 C 
HETATM   25  C9  UNL     1      -0.872   7.054  29.041  1.00  0.00     0.043 C 
HETATM   26  C10 UNL     1      -2.010   7.419  29.895  1.00  0.00     0.169 C 
HETATM   27  O1  UNL     1      -2.289   6.635  30.967  1.00  0.00    -0.386 OA
HETATM   28  C11 UNL     1      -1.394   5.625  31.240  1.00  0.00     0.122 C 
HETATM   29  C12 UNL     1       0.007   6.164  31.436  1.00  0.00     0.033 C 
HETATM   30  C14 UNL     1      -1.303   4.775  29.975  1.00  0.00     0.049 C 
HETATM   31  C13 UNL     1       0.796   5.726  30.199  1.00  0.00     0.020 C 
ENDBRANCH   6  24
TORSDOF 4
ENDMDL
MODEL 4
REMARK VINA RESULT: -7.168729441      3.321      7.616
REMARK  4 active torsions:
REMARK  status: ('A' for Active; 'I' for Inactive)
REMARK    1  A    between atoms: C4_9  and  C5_10 
REMARK    2  A    between atoms: C5_10  and  S1_11 
REMARK    3  A    between atoms: S1_11  and  C6_12 
REMARK    4  A    between atoms: C7_17  and  C8_18 
ROOT
HETATM    1  C6  UNL     1       0.490   3.506  25.975  1.00  0.00     0.160 A 
HETATM    2  N3  UNL     1       0.140   4.649  25.395  1.00  0.00    -0.278 N 
ATOM      3  H3  UNL     1      -0.078   4.744  24.404  1.00  0.00     0.189 HD
HETATM    4  N4  UNL     1       0.110   5.636  26.251  1.00  0.00    -0.286 N 
ATOM      5  H4  UNL     1      -0.131   6.603  26.036  1.00  0.00     0.188 HD
HETATM    6  C7  UNL     1       0.454   5.155  27.474  1.00  0.00     0.106 A 
HETATM    7  N5  UNL     1       0.685   3.848  27.297  1.00  0.00    -0.324 N 
ATOM      8  H5  UNL     1       0.965   3.199  28.033  1.00  0.00     0.169 HD
ENDROOT
BRANCH   1   9
HETATM    9  S1  UNL     1       0.709   1.845  25.354  1.00  0.00    -0.088 SA
BRANCH   9  10
HETATM   10  C5  UNL     1       2.310   1.561  24.651  1.00  0.00     0.129 C 
BRANCH  10  11
HETATM   11  C4  UNL     1       3.451   1.583  25.576  1.00  0.00     0.051 A 
HETATM   12  C3  UNL     1       3.976   0.346  25.996  1.00  0.00     0.111 A 
HETATM   13  N1  UNL     1       4.995   0.310  26.881  1.00  0.00    -0.332 N 
HETATM   14  N2  UNL     1       3.469  -0.731  25.516  1.00  0.00    -0.385 N 
HETATM   15  C2  UNL     1       5.563   1.400  27.414  1.00  0.00     0.080 A 
ATOM     16  H1  UNL     1       5.353  -0.603  27.162  1.00  0.00     0.168 HD
HETATM   17  C1  UNL     1       6.692   1.322  28.390  1.00  0.00     0.089 C 
HETATM   18  N6  UNL     1       5.073   2.583  27.028  1.00  0.00    -0.322 N 
HETATM   19  C15 UNL     1       4.043   2.684  26.134  1.00  0.00     0.200 A 
ATOM     20  H6  UNL     1       5.479   3.435  27.412  1.00  0.00     0.169 HD
HETATM   21  F1  UNL     1       3.548   3.906  25.844  1.00  0.00    -0.185 F 
ATOM     22  H22 UNL     1       3.849  -1.628  25.820  1.00  0.00     0.157 HD
ATOM     23  H21 UNL     1       2.699  -0.703  24.846  1.00  0.00     0.157 HD
ENDBRANCH  10  11
ENDBRANCH   9  10
ENDBRANCH   1   9
BRANCH   6  24
HETATM   24  C8  UNL     1       0.559   5.899  28.727  1.00  0.00     0.024 C 
HETATM   25  C9  UNL     1      -0.375   7.059  28.828  1.00  0.00     0.043 C 
HETATM   26  C10 UNL     1      -1.013   7.293  30.130  1.00  0.00     0.169 C 
HETATM   27  O1  UNL     1      -0.490   6.681  31.224  1.00  0.00    -0.386 OA
HETATM   28  C11 UNL     1       0.685   5.989  31.038  1.00  0.00     0.122 C 
HETATM   29  C12 UNL     1       1.768   6.878  30.465  1.00  0.00     0.033 C 
HETATM   30  C14 UNL     1       0.413   4.963  29.941  1.00  0.00     0.049 C 
HETATM   31  C13 UNL     1       1.958   6.418  29.017  1.00  0.00     0.020 C 
ENDBRANCH   6  24
TORSDOF 4
ENDMDL
MODEL 5
REMARK VINA RESULT: -7.148946094      1.957      2.172
REMARK  4 active torsions:
REMARK  status: ('A' for Active; 'I' for Inactive)
REMARK    1  A    between atoms: C4_9  and  C5_10 
REMARK    2  A    between atoms: C5_10  and  S1_11 
REMARK    3  A    between atoms: S1_11  and  C6_12 
REMARK    4  A    between atoms: C7_17  and  C8_18 
ROOT
HETATM    1  C6  UNL     1       3.599   4.809  28.609  1.00  0.00     0.160 A 
HETATM    2  N3  UNL     1       4.567   4.749  27.701  1.00  0.00    -0.278 N 
ATOM      3  H3  UNL     1       5.442   5.267  27.763  1.00  0.00     0.189 HD
HETATM    4  N4  UNL     1       4.260   3.943  26.719  1.00  0.00    -0.286 N 
ATOM      5  H4  UNL     1       4.846   3.738  25.911  1.00  0.00     0.188 HD
HETATM    6  C7  UNL     1       3.027   3.425  26.958  1.00  0.00     0.106 A 
HETATM    7  N5  UNL     1       2.627   3.960  28.119  1.00  0.00    -0.324 N 
ATOM      8  H5  UNL     1       1.734   3.769  28.575  1.00  0.00     0.169 HD
ENDROOT
BRANCH   1   9
HETATM    9  S1  UNL     1       3.422   5.712  30.140  1.00  0.00    -0.088 SA
BRANCH   9  10
HETATM   10  C5  UNL     1       2.170   6.963  30.080  1.00  0.00     0.129 C 
BRANCH  10  11
HETATM   11  C4  UNL     1       0.789   6.529  30.335  1.00  0.00     0.051 A 
HETATM   12  C3  UNL     1      -0.103   6.517  29.246  1.00  0.00     0.111 A 
HETATM   13  N1  UNL     1      -1.394   6.171  29.434  1.00  0.00    -0.332 N 
HETATM   14  N2  UNL     1       0.342   6.836  28.084  1.00  0.00    -0.385 N 
HETATM   15  C2  UNL     1      -1.913   5.829  30.621  1.00  0.00     0.080 A 
ATOM     16  H1  UNL     1      -2.013   6.171  28.623  1.00  0.00     0.168 HD
HETATM   17  C1  UNL     1      -3.347   5.449  30.793  1.00  0.00     0.089 C 
HETATM   18  N6  UNL     1      -1.078   5.839  31.667  1.00  0.00    -0.322 N 
HETATM   19  C15 UNL     1       0.240   6.180  31.539  1.00  0.00     0.200 A 
ATOM     20  H6  UNL     1      -1.436   5.585  32.587  1.00  0.00     0.169 HD
HETATM   21  F1  UNL     1       1.009   6.240  32.647  1.00  0.00    -0.185 F 
ATOM     22  H22 UNL     1      -0.305   6.827  27.295  1.00  0.00     0.157 HD
ATOM     23  H21 UNL     1       1.318   7.096  27.942  1.00  0.00     0.157 HD
ENDBRANCH  10  11
ENDBRANCH   9  10
ENDBRANCH   1   9
BRANCH   6  24
HETATM   24  C8  UNL     1       2.278   2.484  26.127  1.00  0.00     0.024 C 
HETATM   25  C9  UNL     1       1.264   1.683  26.873  1.00  0.00     0.043 C 
HETATM   26  C10 UNL     1      -0.023   1.447  26.207  1.00  0.00     0.169 C 
HETATM   27  O1  UNL     1      -0.107   1.664  24.869  1.00  0.00    -0.386 OA
HETATM   28  C11 UNL     1       1.068   1.966  24.221  1.00  0.00     0.122 C 
HETATM   29  C12 UNL     1       2.112   0.890  24.432  1.00  0.00     0.033 C 
HETATM   30  C14 UNL     1       1.643   3.196  24.919  1.00  0.00     0.049 C 
HETATM   31  C13 UNL     1       3.158   1.505  25.366  1.00  0.00     0.020 C 
ENDBRANCH   6  24
TORSDOF 4
ENDMDL
