MODEL 1
REMARK VINA RESULT: -7.020139932      0.000      0.000
REMARK  6 active torsions:
REMARK  status: ('A' for Active; 'I' for Inactive)
REMARK    1  A    between atoms: C2_2  and  C3_3 
REMARK    2  A    between atoms: C3_3  and  C4_4 
REMARK    3  A    between atoms: C10_10  and  O1_11 
REMARK    4  A    between atoms: C10_10  and  C11_13 
REMARK    5  A    between atoms: C11_13  and  C12_14 
REMARK    6  A    between atoms: C12_14  and  C13_15 
ROOT
HETATM    1  C3  UNL     1     -36.617  18.235  -6.893  1.00  0.00    -0.041 C 
HETATM    2  C6  UNL     1     -37.497  18.330  -5.667  1.00  0.00     0.009 C 
HETATM    3  C7  UNL     1     -36.897  18.846  -4.417  1.00  0.00     0.001 C 
HETATM    4  C8  UNL     1     -35.713  18.120  -3.879  1.00  0.00     0.003 C 
HETATM    5  C9  UNL     1     -34.419  18.849  -4.093  1.00  0.00     0.038 C 
HETATM    6  C10 UNL     1     -33.565  18.155  -5.164  1.00  0.00     0.058 C 
HETATM    7  C15 UNL     1     -34.086  18.361  -6.537  1.00  0.00     0.038 C 
HETATM    8  C16 UNL     1     -35.351  19.056  -6.753  1.00  0.00     0.012 C 
ENDROOT
BRANCH   6   9
HETATM    9  O1  UNL     1     -33.522  16.814  -4.774  1.00  0.00    -0.390 OA
ATOM     10  H1  UNL     1     -33.117  16.361  -5.504  1.00  0.00     0.210 HD
ENDBRANCH   6   9
BRANCH   6  11
HETATM   11  C11 UNL     1     -32.172  18.700  -4.940  1.00  0.00     0.045 C 
BRANCH  11  12
HETATM   12  C12 UNL     1     -31.229  18.593  -6.080  1.00  0.00     0.081 C 
BRANCH  12  13
HETATM   13  C13 UNL     1     -30.178  17.591  -5.696  1.00  0.00     0.123 C 
HETATM   14  C14 UNL     1     -28.734  17.915  -5.706  1.00  0.00     0.091 C 
HETATM   15  O2  UNL     1     -30.580  16.470  -5.369  1.00  0.00    -0.298 OA
ENDBRANCH  12  13
ENDBRANCH  11  12
ENDBRANCH   6  11
BRANCH   1  16
HETATM   16  C2  UNL     1     -36.370  16.845  -7.327  1.00  0.00     0.005 C 
HETATM   17  C1  UNL     1     -37.484  15.983  -7.781  1.00  0.00     0.006 C 
ENDBRANCH   1  16
BRANCH   1  18
HETATM   18  C4  UNL     1     -37.414  18.940  -7.965  1.00  0.00     0.005 C 
HETATM   19  C5  UNL     1     -38.807  19.308  -7.690  1.00  0.00     0.006 C 
ENDBRANCH   1  18
TORSDOF 6
ENDMDL
MODEL 2
REMARK VINA RESULT: -7.000776807      1.028      1.160
REMARK  6 active torsions:
REMARK  status: ('A' for Active; 'I' for Inactive)
REMARK    1  A    between atoms: C2_2  and  C3_3 
REMARK    2  A    between atoms: C3_3  and  C4_4 
REMARK    3  A    between atoms: C10_10  and  O1_11 
REMARK    4  A    between atoms: C10_10  and  C11_13 
REMARK    5  A    between atoms: C11_13  and  C12_14 
REMARK    6  A    between atoms: C12_14  and  C13_15 
ROOT
HETATM    1  C3  UNL     1     -37.501  18.129  -7.456  1.00  0.00    -0.041 C 
HETATM    2  C6  UNL     1     -38.384  18.149  -6.228  1.00  0.00     0.009 C 
HETATM    3  C7  UNL     1     -37.820  18.690  -4.973  1.00  0.00     0.001 C 
HETATM    4  C8  UNL     1     -36.587  18.043  -4.443  1.00  0.00     0.003 C 
HETATM    5  C9  UNL     1     -35.347  18.862  -4.649  1.00  0.00     0.038 C 
HETATM    6  C10 UNL     1     -34.448  18.242  -5.728  1.00  0.00     0.058 C 
HETATM    7  C15 UNL     1     -34.984  18.427  -7.099  1.00  0.00     0.038 C 
HETATM    8  C16 UNL     1     -36.294  19.035  -7.306  1.00  0.00     0.012 C 
ENDROOT
BRANCH   6   9
HETATM    9  O1  UNL     1     -34.313  16.902  -5.354  1.00  0.00    -0.390 OA
ATOM     10  H1  UNL     1     -33.388  16.796  -5.160  1.00  0.00     0.210 HD
ENDBRANCH   6   9
BRANCH   6  11
HETATM   11  C11 UNL     1     -33.096  18.880  -5.498  1.00  0.00     0.045 C 
BRANCH  11  12
HETATM   12  C12 UNL     1     -32.127  18.796  -6.618  1.00  0.00     0.081 C 
BRANCH  12  13
HETATM   13  C13 UNL     1     -30.948  18.006  -6.128  1.00  0.00     0.123 C 
HETATM   14  C14 UNL     1     -29.553  18.396  -6.429  1.00  0.00     0.091 C 
HETATM   15  O2  UNL     1     -31.200  17.002  -5.454  1.00  0.00    -0.298 OA
ENDBRANCH  12  13
ENDBRANCH  11  12
ENDBRANCH   6  11
BRANCH   1  16
HETATM   16  C2  UNL     1     -37.158  16.765  -7.906  1.00  0.00     0.005 C 
HETATM   17  C1  UNL     1     -38.118  15.650  -7.745  1.00  0.00     0.006 C 
ENDBRANCH   1  16
BRANCH   1  18
HETATM   18  C4  UNL     1     -38.346  18.790  -8.519  1.00  0.00     0.005 C 
HETATM   19  C5  UNL     1     -37.895  18.749  -9.914  1.00  0.00     0.006 C 
ENDBRANCH   1  18
TORSDOF 6
ENDMDL
MODEL 3
REMARK VINA RESULT: -6.678255871      3.332      5.973
REMARK  6 active torsions:
REMARK  status: ('A' for Active; 'I' for Inactive)
REMARK    1  A    between atoms: C2_2  and  C3_3 
REMARK    2  A    between atoms: C3_3  and  C4_4 
REMARK    3  A    between atoms: C10_10  and  O1_11 
REMARK    4  A    between atoms: C10_10  and  C11_13 
REMARK    5  A    between atoms: C11_13  and  C12_14 
REMARK    6  A    between atoms: C12_14  and  C13_15 
ROOT
HETATM    1  C3  UNL     1     -35.533  17.975  -5.693  1.00  0.00    -0.041 C 
HETATM    2  C6  UNL     1     -36.717  18.395  -4.850  1.00  0.00     0.009 C 
HETATM    3  C7  UNL     1     -38.074  18.158  -5.388  1.00  0.00     0.001 C 
HETATM    4  C8  UNL     1     -38.407  18.780  -6.700  1.00  0.00     0.003 C 
HETATM    5  C9  UNL     1     -38.437  17.798  -7.835  1.00  0.00     0.038 C 
HETATM    6  C10 UNL     1     -37.231  17.991  -8.764  1.00  0.00     0.058 C 
HETATM    7  C15 UNL     1     -35.963  17.499  -8.170  1.00  0.00     0.038 C 
HETATM    8  C16 UNL     1     -35.930  17.013  -6.795  1.00  0.00     0.012 C 
ENDROOT
BRANCH   6   9
HETATM    9  O1  UNL     1     -37.220  19.357  -9.059  1.00  0.00    -0.390 OA
ATOM     10  H1  UNL     1     -38.123  19.635  -8.955  1.00  0.00     0.210 HD
ENDBRANCH   6   9
BRANCH   6  11
HETATM   11  C11 UNL     1     -37.631  17.290 -10.043  1.00  0.00     0.045 C 
BRANCH  11  12
HETATM   12  C12 UNL     1     -37.961  18.159 -11.199  1.00  0.00     0.081 C 
BRANCH  12  13
HETATM   13  C13 UNL     1     -36.930  17.901 -12.260  1.00  0.00     0.123 C 
HETATM   14  C14 UNL     1     -35.559  18.451 -12.183  1.00  0.00     0.091 C 
HETATM   15  O2  UNL     1     -37.286  17.199 -13.212  1.00  0.00    -0.298 OA
ENDBRANCH  12  13
ENDBRANCH  11  12
ENDBRANCH   6  11
BRANCH   1  16
HETATM   16  C2  UNL     1     -34.724  19.114  -6.172  1.00  0.00     0.005 C 
HETATM   17  C1  UNL     1     -33.268  18.970  -6.395  1.00  0.00     0.006 C 
ENDBRANCH   1  16
BRANCH   1  18
HETATM   18  C4  UNL     1     -34.692  17.149  -4.748  1.00  0.00     0.005 C 
HETATM   19  C5  UNL     1     -34.759  17.426  -3.309  1.00  0.00     0.006 C 
ENDBRANCH   1  18
TORSDOF 6
ENDMDL
MODEL 4
REMARK VINA RESULT: -6.549148169      1.543      2.471
REMARK  6 active torsions:
REMARK  status: ('A' for Active; 'I' for Inactive)
REMARK    1  A    between atoms: C2_2  and  C3_3 
REMARK    2  A    between atoms: C3_3  and  C4_4 
REMARK    3  A    between atoms: C10_10  and  O1_11 
REMARK    4  A    between atoms: C10_10  and  C11_13 
REMARK    5  A    between atoms: C11_13  and  C12_14 
REMARK    6  A    between atoms: C12_14  and  C13_15 
ROOT
HETATM    1  C3  UNL     1     -37.777  17.781  -9.008  1.00  0.00    -0.041 C 
HETATM    2  C6  UNL     1     -38.750  18.383  -8.018  1.00  0.00     0.009 C 
HETATM    3  C7  UNL     1     -38.212  19.263  -6.958  1.00  0.00     0.001 C 
HETATM    4  C8  UNL     1     -37.180  18.687  -6.051  1.00  0.00     0.003 C 
HETATM    5  C9  UNL     1     -35.792  19.183  -6.334  1.00  0.00     0.038 C 
HETATM    6  C10 UNL     1     -34.933  18.083  -6.975  1.00  0.00     0.058 C 
HETATM    7  C15 UNL     1     -35.294  17.822  -8.390  1.00  0.00     0.038 C 
HETATM    8  C16 UNL     1     -36.439  18.493  -8.998  1.00  0.00     0.012 C 
ENDROOT
BRANCH   6   9
HETATM    9  O1  UNL     1     -35.091  16.974  -6.141  1.00  0.00    -0.390 OA
ATOM     10  H1  UNL     1     -34.207  16.672  -5.965  1.00  0.00     0.210 HD
ENDBRANCH   6   9
BRANCH   6  11
HETATM   11  C11 UNL     1     -33.511  18.558  -6.774  1.00  0.00     0.045 C 
BRANCH  11  12
HETATM   12  C12 UNL     1     -33.089  18.810  -5.375  1.00  0.00     0.081 C 
BRANCH  12  13
HETATM   13  C13 UNL     1     -32.093  17.747  -5.012  1.00  0.00     0.123 C 
HETATM   14  C14 UNL     1     -30.717  17.732  -5.556  1.00  0.00     0.091 C 
HETATM   15  O2  UNL     1     -32.480  16.874  -4.229  1.00  0.00    -0.298 OA
ENDBRANCH  12  13
ENDBRANCH  11  12
ENDBRANCH   6  11
BRANCH   1  16
HETATM   16  C2  UNL     1     -37.662  16.313  -8.894  1.00  0.00     0.005 C 
HETATM   17  C1  UNL     1     -38.229  15.596  -7.729  1.00  0.00     0.006 C 
ENDBRANCH   1  16
BRANCH   1  18
HETATM   18  C4  UNL     1     -38.379  18.115 -10.353  1.00  0.00     0.005 C 
HETATM   19  C5  UNL     1     -37.539  18.019 -11.551  1.00  0.00     0.006 C 
ENDBRANCH   1  18
TORSDOF 6
ENDMDL
MODEL 5
REMARK VINA RESULT: -6.333335060      1.723      2.465
REMARK  6 active torsions:
REMARK  status: ('A' for Active; 'I' for Inactive)
REMARK    1  A    between atoms: C2_2  and  C3_3 
REMARK    2  A    between atoms: C3_3  and  C4_4 
REMARK    3  A    between atoms: C10_10  and  O1_11 
REMARK    4  A    between atoms: C10_10  and  C11_13 
REMARK    5  A    between atoms: C11_13  and  C12_14 
REMARK    6  A    between atoms: C12_14  and  C13_15 
ROOT
HETATM    1  C3  UNL     1     -37.693  17.785  -8.971  1.00  0.00    -0.041 C 
HETATM    2  C6  UNL     1     -38.753  18.332  -8.041  1.00  0.00     0.009 C 
HETATM    3  C7  UNL     1     -38.322  19.210  -6.932  1.00  0.00     0.001 C 
HETATM    4  C8  UNL     1     -37.335  18.653  -5.965  1.00  0.00     0.003 C 
HETATM    5  C9  UNL     1     -35.950  19.204  -6.142  1.00  0.00     0.038 C 
HETATM    6  C10 UNL     1     -35.009  18.148  -6.740  1.00  0.00     0.058 C 
HETATM    7  C15 UNL     1     -35.261  17.902  -8.181  1.00  0.00     0.038 C 
HETATM    8  C16 UNL     1     -36.385  18.543  -8.855  1.00  0.00     0.012 C 
ENDROOT
BRANCH   6   9
HETATM    9  O1  UNL     1     -35.183  17.017  -5.937  1.00  0.00    -0.390 OA
ATOM     10  H1  UNL     1     -35.213  16.289  -6.547  1.00  0.00     0.210 HD
ENDBRANCH   6   9
BRANCH   6  11
HETATM   11  C11 UNL     1     -33.622  18.669  -6.432  1.00  0.00     0.045 C 
BRANCH  11  12
HETATM   12  C12 UNL     1     -32.625  18.581  -7.527  1.00  0.00     0.081 C 
BRANCH  12  13
HETATM   13  C13 UNL     1     -31.264  18.655  -6.897  1.00  0.00     0.123 C 
HETATM   14  C14 UNL     1     -30.032  18.281  -7.626  1.00  0.00     0.091 C 
HETATM   15  O2  UNL     1     -31.220  19.047  -5.726  1.00  0.00    -0.298 OA
ENDBRANCH  12  13
ENDBRANCH  11  12
ENDBRANCH   6  11
BRANCH   1  16
HETATM   16  C2  UNL     1     -37.531  16.320  -8.874  1.00  0.00     0.005 C 
HETATM   17  C1  UNL     1     -38.188  15.554  -7.791  1.00  0.00     0.006 C 
ENDBRANCH   1  16
BRANCH   1  18
HETATM   18  C4  UNL     1     -38.211  18.123 -10.349  1.00  0.00     0.005 C 
HETATM   19  C5  UNL     1     -37.360  17.863 -11.514  1.00  0.00     0.006 C 
ENDBRANCH   1  18
TORSDOF 6
ENDMDL
