MODEL 1
REMARK VINA RESULT: -7.974387371      0.000      0.000
REMARK  3 active torsions:
REMARK  status: ('A' for Active; 'I' for Inactive)
REMARK    1  A    between atoms: C2_7  and  C3_8 
REMARK    2  A    between atoms: C3_8  and  N3_9 
REMARK    3  A    between atoms: C12_22  and  O3_23 
ROOT
HETATM    1  N1  UNL     1     -28.576  16.716  -6.927  1.00  0.00    -0.384 N 
ATOM      2  H11 UNL     1     -27.928  15.937  -6.812  1.00  0.00     0.157 HD
ATOM      3  H12 UNL     1     -28.214  17.240  -7.724  1.00  0.00     0.157 HD
HETATM    4  C1  UNL     1     -29.574  17.015  -6.296  1.00  0.00     0.129 A 
HETATM    5  N2  UNL     1     -30.474  18.097  -6.456  1.00  0.00    -0.329 N 
ATOM      6  H2  UNL     1     -30.418  18.830  -7.163  1.00  0.00     0.168 HD
HETATM    7  C2  UNL     1     -31.473  17.974  -5.445  1.00  0.00     0.112 A 
HETATM    8  N4  UNL     1     -31.267  16.945  -4.706  1.00  0.00    -0.340 N 
ATOM      9  H4  UNL     1     -31.854  16.662  -3.922  1.00  0.00     0.167 HD
HETATM   10  C11 UNL     1     -30.097  16.259  -5.145  1.00  0.00     0.099 A 
HETATM   11  C12 UNL     1     -29.588  15.158  -4.616  1.00  0.00     0.164 C 
ENDROOT
BRANCH   7  12
HETATM   12  C3  UNL     1     -32.584  18.945  -5.315  1.00  0.00     0.348 C 
BRANCH  12  13
HETATM   13  N3  UNL     1     -33.872  18.276  -5.197  1.00  0.00     0.098 N 
HETATM   14  C4  UNL     1     -34.687  19.053  -4.323  1.00  0.00     0.275 C 
HETATM   15  C5  UNL     1     -36.122  18.654  -4.258  1.00  0.00     0.065 C 
HETATM   16  C6  UNL     1     -36.637  18.518  -5.689  1.00  0.00     0.153 C 
HETATM   17  O1  UNL     1     -37.958  18.132  -5.731  1.00  0.00    -0.381 OA
HETATM   18  C9  UNL     1     -35.798  17.482  -6.354  1.00  0.00     0.178 C 
HETATM   19  C7  UNL     1     -38.333  18.138  -7.076  1.00  0.00     0.194 C 
HETATM   20  C8  UNL     1     -37.505  17.252  -7.926  1.00  0.00     0.194 C 
HETATM   21  O2  UNL     1     -36.274  16.931  -7.484  1.00  0.00    -0.379 OA
HETATM   22  C10 UNL     1     -34.400  18.094  -6.515  1.00  0.00     0.307 C 
ENDBRANCH  12  13
ENDBRANCH   7  12
BRANCH  11  23
HETATM   23  O3  UNL     1     -30.229  14.588  -3.527  1.00  0.00    -0.370 OA
ATOM     24  H3  UNL     1     -30.534  15.158  -2.830  1.00  0.00     0.216 HD
ENDBRANCH  11  23
TORSDOF 3
ENDMDL
MODEL 2
REMARK VINA RESULT: -7.488351285      1.672      1.987
REMARK  3 active torsions:
REMARK  status: ('A' for Active; 'I' for Inactive)
REMARK    1  A    between atoms: C2_7  and  C3_8 
REMARK    2  A    between atoms: C3_8  and  N3_9 
REMARK    3  A    between atoms: C12_22  and  O3_23 
ROOT
HETATM    1  N1  UNL     1     -29.695  15.178  -4.797  1.00  0.00    -0.384 N 
ATOM      2  H11 UNL     1     -28.799  14.783  -5.083  1.00  0.00     0.157 HD
ATOM      3  H12 UNL     1     -30.124  14.458  -4.216  1.00  0.00     0.157 HD
HETATM    4  C1  UNL     1     -30.201  16.257  -5.051  1.00  0.00     0.129 A 
HETATM    5  N2  UNL     1     -31.444  16.805  -4.654  1.00  0.00    -0.329 N 
ATOM      6  H2  UNL     1     -32.142  16.354  -4.062  1.00  0.00     0.168 HD
HETATM    7  C2  UNL     1     -31.543  18.105  -5.235  1.00  0.00     0.112 A 
HETATM    8  N4  UNL     1     -30.501  18.386  -5.929  1.00  0.00    -0.340 N 
ATOM      9  H4  UNL     1     -30.353  19.260  -6.434  1.00  0.00     0.167 HD
HETATM   10  C11 UNL     1     -29.582  17.298  -5.890  1.00  0.00     0.099 A 
HETATM   11  C12 UNL     1     -28.405  17.241  -6.491  1.00  0.00     0.164 C 
ENDROOT
BRANCH   7  12
HETATM   12  C3  UNL     1     -32.724  18.973  -5.026  1.00  0.00     0.348 C 
BRANCH  12  13
HETATM   13  N3  UNL     1     -33.958  18.306  -5.420  1.00  0.00     0.098 N 
HETATM   14  C4  UNL     1     -34.873  18.406  -4.332  1.00  0.00     0.275 C 
HETATM   15  C5  UNL     1     -36.272  17.985  -4.627  1.00  0.00     0.065 C 
HETATM   16  C6  UNL     1     -36.708  18.677  -5.918  1.00  0.00     0.153 C 
HETATM   17  O1  UNL     1     -37.989  18.332  -6.284  1.00  0.00    -0.381 OA
HETATM   18  C9  UNL     1     -35.757  18.246  -6.981  1.00  0.00     0.178 C 
HETATM   19  C7  UNL     1     -38.301  19.096  -7.410  1.00  0.00     0.194 C 
HETATM   20  C8  UNL     1     -37.365  18.894  -8.541  1.00  0.00     0.194 C 
HETATM   21  O2  UNL     1     -36.133  18.427  -8.258  1.00  0.00    -0.379 OA
HETATM   22  C10 UNL     1     -34.407  18.895  -6.645  1.00  0.00     0.307 C 
ENDBRANCH  12  13
ENDBRANCH   7  12
BRANCH  11  23
HETATM   23  O3  UNL     1     -27.992  18.330  -7.243  1.00  0.00    -0.370 OA
ATOM     24  H3  UNL     1     -28.398  18.479  -8.089  1.00  0.00     0.216 HD
ENDBRANCH  11  23
TORSDOF 3
ENDMDL
MODEL 3
REMARK VINA RESULT: -7.163309533      1.027      1.053
REMARK  3 active torsions:
REMARK  status: ('A' for Active; 'I' for Inactive)
REMARK    1  A    between atoms: C2_7  and  C3_8 
REMARK    2  A    between atoms: C3_8  and  N3_9 
REMARK    3  A    between atoms: C12_22  and  O3_23 
ROOT
HETATM    1  N1  UNL     1     -28.288  17.762  -6.939  1.00  0.00    -0.384 N 
ATOM      2  H11 UNL     1     -27.585  17.143  -6.537  1.00  0.00     0.157 HD
ATOM      3  H12 UNL     1     -27.775  18.346  -7.600  1.00  0.00     0.157 HD
HETATM    4  C1  UNL     1     -29.486  17.844  -6.728  1.00  0.00     0.129 A 
HETATM    5  N2  UNL     1     -30.462  18.704  -7.286  1.00  0.00    -0.329 N 
ATOM      6  H2  UNL     1     -30.300  19.426  -7.988  1.00  0.00     0.168 HD
HETATM    7  C2  UNL     1     -31.714  18.375  -6.685  1.00  0.00     0.112 A 
HETATM    8  N4  UNL     1     -31.589  17.422  -5.837  1.00  0.00    -0.340 N 
ATOM      9  H4  UNL     1     -32.351  17.024  -5.288  1.00  0.00     0.167 HD
HETATM   10  C11 UNL     1     -30.228  17.000  -5.774  1.00  0.00     0.099 A 
HETATM   11  C12 UNL     1     -29.737  16.040  -5.009  1.00  0.00     0.164 C 
ENDROOT
BRANCH   7  12
HETATM   12  C3  UNL     1     -32.966  19.084  -7.038  1.00  0.00     0.348 C 
BRANCH  12  13
HETATM   13  N3  UNL     1     -34.138  18.398  -6.515  1.00  0.00     0.098 N 
HETATM   14  C4  UNL     1     -34.635  19.161  -5.419  1.00  0.00     0.275 C 
HETATM   15  C5  UNL     1     -35.967  18.743  -4.895  1.00  0.00     0.065 C 
HETATM   16  C6  UNL     1     -36.917  18.606  -6.084  1.00  0.00     0.153 C 
HETATM   17  O1  UNL     1     -38.176  18.203  -5.699  1.00  0.00    -0.381 OA
HETATM   18  C9  UNL     1     -36.326  17.584  -6.993  1.00  0.00     0.178 C 
HETATM   19  C7  UNL     1     -38.965  18.210  -6.850  1.00  0.00     0.194 C 
HETATM   20  C8  UNL     1     -38.448  17.337  -7.930  1.00  0.00     0.194 C 
HETATM   21  O2  UNL     1     -37.136  17.031  -7.913  1.00  0.00    -0.379 OA
HETATM   22  C10 UNL     1     -35.062  18.214  -7.593  1.00  0.00     0.307 C 
ENDBRANCH  12  13
ENDBRANCH   7  12
BRANCH  11  23
HETATM   23  O3  UNL     1     -30.602  15.354  -4.170  1.00  0.00    -0.370 OA
ATOM     24  H3  UNL     1     -31.146  14.669  -4.540  1.00  0.00     0.216 HD
ENDBRANCH  11  23
TORSDOF 3
ENDMDL
MODEL 4
REMARK VINA RESULT: -7.138803203      2.106      2.600
REMARK  3 active torsions:
REMARK  status: ('A' for Active; 'I' for Inactive)
REMARK    1  A    between atoms: C2_7  and  C3_8 
REMARK    2  A    between atoms: C3_8  and  N3_9 
REMARK    3  A    between atoms: C12_22  and  O3_23 
ROOT
HETATM    1  N1  UNL     1     -29.879  16.780  -5.252  1.00  0.00    -0.384 N 
ATOM      2  H11 UNL     1     -29.058  16.656  -5.843  1.00  0.00     0.157 HD
ATOM      3  H12 UNL     1     -29.688  16.224  -4.419  1.00  0.00     0.157 HD
HETATM    4  C1  UNL     1     -30.894  17.431  -5.433  1.00  0.00     0.129 A 
HETATM    5  N2  UNL     1     -32.034  17.604  -4.612  1.00  0.00    -0.329 N 
ATOM      6  H2  UNL     1     -32.187  17.187  -3.694  1.00  0.00     0.168 HD
HETATM    7  C2  UNL     1     -32.932  18.470  -5.306  1.00  0.00     0.112 A 
HETATM    8  N4  UNL     1     -32.453  18.827  -6.441  1.00  0.00    -0.340 N 
ATOM      9  H4  UNL     1     -32.922  19.442  -7.106  1.00  0.00     0.167 HD
HETATM   10  C11 UNL     1     -31.171  18.235  -6.636  1.00  0.00     0.099 A 
HETATM   11  C12 UNL     1     -30.389  18.385  -7.692  1.00  0.00     0.164 C 
ENDROOT
BRANCH   7  12
HETATM   12  C3  UNL     1     -34.239  18.870  -4.734  1.00  0.00     0.348 C 
BRANCH  12  13
HETATM   13  N3  UNL     1     -35.334  18.098  -5.305  1.00  0.00     0.098 N 
HETATM   14  C4  UNL     1     -36.522  18.440  -4.595  1.00  0.00     0.275 C 
HETATM   15  C5  UNL     1     -37.792  17.927  -5.183  1.00  0.00     0.065 C 
HETATM   16  C6  UNL     1     -37.794  18.272  -6.671  1.00  0.00     0.153 C 
HETATM   17  O1  UNL     1     -38.928  17.818  -7.307  1.00  0.00    -0.381 OA
HETATM   18  C9  UNL     1     -36.596  17.616  -7.267  1.00  0.00     0.178 C 
HETATM   19  C7  UNL     1     -38.855  18.276  -8.624  1.00  0.00     0.194 C 
HETATM   20  C8  UNL     1     -37.640  17.825  -9.343  1.00  0.00     0.194 C 
HETATM   21  O2  UNL     1     -36.571  17.470  -8.603  1.00  0.00    -0.379 OA
HETATM   22  C10 UNL     1     -35.373  18.358  -6.711  1.00  0.00     0.307 C 
ENDBRANCH  12  13
ENDBRANCH   7  12
BRANCH  11  23
HETATM   23  O3  UNL     1     -30.827  19.189  -8.733  1.00  0.00    -0.370 OA
ATOM     24  H3  UNL     1     -30.339  19.980  -8.934  1.00  0.00     0.216 HD
ENDBRANCH  11  23
TORSDOF 3
ENDMDL
MODEL 5
REMARK VINA RESULT: -7.111892559      3.396      8.205
REMARK  3 active torsions:
REMARK  status: ('A' for Active; 'I' for Inactive)
REMARK    1  A    between atoms: C2_7  and  C3_8 
REMARK    2  A    between atoms: C3_8  and  N3_9 
REMARK    3  A    between atoms: C12_22  and  O3_23 
ROOT
HETATM    1  N1  UNL     1     -33.774  18.889  -6.288  1.00  0.00    -0.384 N 
ATOM      2  H11 UNL     1     -34.593  19.013  -5.694  1.00  0.00     0.157 HD
ATOM      3  H12 UNL     1     -34.055  19.248  -7.200  1.00  0.00     0.157 HD
HETATM    4  C1  UNL     1     -32.675  18.426  -6.034  1.00  0.00     0.129 A 
HETATM    5  N2  UNL     1     -31.537  18.253  -6.857  1.00  0.00    -0.329 N 
ATOM      6  H2  UNL     1     -31.461  18.505  -7.843  1.00  0.00     0.168 HD
HETATM    7  C2  UNL     1     -30.515  17.662  -6.055  1.00  0.00     0.112 A 
HETATM    8  N4  UNL     1     -30.919  17.466  -4.854  1.00  0.00    -0.340 N 
ATOM      9  H4  UNL     1     -30.358  17.054  -4.108  1.00  0.00     0.167 HD
HETATM   10  C11 UNL     1     -32.268  17.907  -4.716  1.00  0.00     0.099 A 
HETATM   11  C12 UNL     1     -33.002  17.858  -3.617  1.00  0.00     0.164 C 
ENDROOT
BRANCH   7  12
HETATM   12  C3  UNL     1     -29.176  17.340  -6.600  1.00  0.00     0.348 C 
BRANCH  12  13
HETATM   13  N3  UNL     1     -28.523  16.288  -5.834  1.00  0.00     0.098 N 
HETATM   14  C4  UNL     1     -28.089  15.288  -6.751  1.00  0.00     0.275 C 
HETATM   15  C5  UNL     1     -27.195  14.238  -6.183  1.00  0.00     0.065 C 
HETATM   16  C6  UNL     1     -26.085  14.940  -5.403  1.00  0.00     0.153 C 
HETATM   17  O1  UNL     1     -25.213  14.046  -4.822  1.00  0.00    -0.381 OA
HETATM   18  C9  UNL     1     -26.747  15.747  -4.340  1.00  0.00     0.178 C 
HETATM   19  C7  UNL     1     -24.203  14.803  -4.228  1.00  0.00     0.194 C 
HETATM   20  C8  UNL     1     -24.699  15.772  -3.223  1.00  0.00     0.194 C 
HETATM   21  O2  UNL     1     -25.986  16.162  -3.313  1.00  0.00    -0.379 OA
HETATM   22  C10 UNL     1     -27.482  16.888  -5.055  1.00  0.00     0.307 C 
ENDBRANCH  12  13
ENDBRANCH   7  12
BRANCH  11  23
HETATM   23  O3  UNL     1     -32.437  17.331  -2.465  1.00  0.00    -0.370 OA
ATOM     24  H3  UNL     1     -32.960  16.746  -1.929  1.00  0.00     0.216 HD
ENDBRANCH  11  23
TORSDOF 3
ENDMDL
