MODEL 1
REMARK VINA RESULT: -6.194101210      0.000      0.000
REMARK  9 active torsions:
REMARK  status: ('A' for Active; 'I' for Inactive)
REMARK    1  A    between atoms: C2_2  and  C3_3 
REMARK    2  A    between atoms: C3_3  and  C4_4 
REMARK    3  A    between atoms: C4_4  and  C5_5 
REMARK    4  A    between atoms: C5_5  and  C6_6 
REMARK    5  A    between atoms: C10_10  and  O1_11 
REMARK    6  A    between atoms: O1_11  and  C11_12 
REMARK    7  A    between atoms: C14_15  and  C15_16 
REMARK    8  A    between atoms: C15_16  and  C16_17 
REMARK    9  A    between atoms: C16_17  and  O2_18 
ROOT
HETATM    1  C6  UNL     1     -35.417  17.736  -6.288  1.00  0.00    -0.051 A 
HETATM    2  C7  UNL     1     -34.883  17.880  -4.999  1.00  0.00     0.017 A 
HETATM    3  C8  UNL     1     -33.605  18.300  -4.740  1.00  0.00    -0.028 A 
HETATM    4  C9  UNL     1     -33.117  18.425  -3.340  1.00  0.00     0.051 C 
HETATM    5  C10 UNL     1     -32.806  18.597  -5.815  1.00  0.00     0.075 A 
HETATM    6  C13 UNL     1     -33.303  18.465  -7.088  1.00  0.00     0.045 A 
HETATM    7  C14 UNL     1     -34.604  18.035  -7.347  1.00  0.00    -0.047 A 
ENDROOT
BRANCH   1   8
HETATM    8  C5  UNL     1     -36.842  17.347  -6.405  1.00  0.00     0.039 C 
BRANCH   8   9
HETATM    9  C4  UNL     1     -37.783  18.436  -5.968  1.00  0.00     0.005 C 
BRANCH   9  10
HETATM   10  C3  UNL     1     -38.471  19.036  -7.153  1.00  0.00    -0.000 C 
BRANCH  10  11
HETATM   11  C2  UNL     1     -38.946  18.009  -8.134  1.00  0.00    -0.005 C 
HETATM   12  C1  UNL     1     -38.546  18.379  -9.537  1.00  0.00     0.005 C 
ENDBRANCH  10  11
ENDBRANCH   9  10
ENDBRANCH   8   9
ENDBRANCH   1   8
BRANCH   7  13
HETATM   13  C15 UNL     1     -35.068  17.833  -8.730  1.00  0.00     0.065 C 
BRANCH  13  14
HETATM   14  C16 UNL     1     -33.977  17.874  -9.767  1.00  0.00     0.168 C 
BRANCH  14  15
HETATM   15  O2  UNL     1     -34.253  18.895 -10.702  1.00  0.00    -0.401 OA
ATOM     16  H2  UNL     1     -34.091  19.742 -10.304  1.00  0.00     0.209 HD
ENDBRANCH  14  15
ENDBRANCH  13  14
ENDBRANCH   7  13
BRANCH   5  17
HETATM   17  O1  UNL     1     -31.526  19.022  -5.640  1.00  0.00    -0.351 OA
BRANCH  17  18
HETATM   18  C11 UNL     1     -30.346  18.602  -6.211  1.00  0.00     0.171 C 
HETATM   19  C12 UNL     1     -29.900  17.220  -5.905  1.00  0.00     0.034 C 
ENDBRANCH  17  18
ENDBRANCH   5  17
TORSDOF 9
ENDMDL
MODEL 2
REMARK VINA RESULT: -6.175386868      1.391      3.535
REMARK  9 active torsions:
REMARK  status: ('A' for Active; 'I' for Inactive)
REMARK    1  A    between atoms: C2_2  and  C3_3 
REMARK    2  A    between atoms: C3_3  and  C4_4 
REMARK    3  A    between atoms: C4_4  and  C5_5 
REMARK    4  A    between atoms: C5_5  and  C6_6 
REMARK    5  A    between atoms: C10_10  and  O1_11 
REMARK    6  A    between atoms: O1_11  and  C11_12 
REMARK    7  A    between atoms: C14_15  and  C15_16 
REMARK    8  A    between atoms: C15_16  and  C16_17 
REMARK    9  A    between atoms: C16_17  and  O2_18 
ROOT
HETATM    1  C6  UNL     1     -35.261  17.992  -6.131  1.00  0.00    -0.051 A 
HETATM    2  C7  UNL     1     -35.121  17.798  -7.513  1.00  0.00     0.017 A 
HETATM    3  C8  UNL     1     -33.942  17.947  -8.194  1.00  0.00    -0.028 A 
HETATM    4  C9  UNL     1     -33.881  17.720  -9.663  1.00  0.00     0.051 C 
HETATM    5  C10 UNL     1     -32.834  18.307  -7.470  1.00  0.00     0.075 A 
HETATM    6  C13 UNL     1     -32.941  18.505  -6.115  1.00  0.00     0.045 A 
HETATM    7  C14 UNL     1     -34.145  18.354  -5.427  1.00  0.00    -0.047 A 
ENDROOT
BRANCH   1   8
HETATM    8  C5  UNL     1     -36.585  17.717  -5.525  1.00  0.00     0.039 C 
BRANCH   8   9
HETATM    9  C4  UNL     1     -37.619  17.312  -6.541  1.00  0.00     0.005 C 
BRANCH   9  10
HETATM   10  C3  UNL     1     -38.682  18.359  -6.647  1.00  0.00    -0.000 C 
BRANCH  10  11
HETATM   11  C2  UNL     1     -38.570  19.180  -7.894  1.00  0.00    -0.005 C 
HETATM   12  C1  UNL     1     -38.479  18.300  -9.111  1.00  0.00     0.005 C 
ENDBRANCH  10  11
ENDBRANCH   9  10
ENDBRANCH   8   9
ENDBRANCH   1   8
BRANCH   7  13
HETATM   13  C15 UNL     1     -34.229  18.653  -3.987  1.00  0.00     0.065 C 
BRANCH  13  14
HETATM   14  C16 UNL     1     -32.911  18.613  -3.262  1.00  0.00     0.168 C 
BRANCH  14  15
HETATM   15  O2  UNL     1     -32.829  17.427  -2.500  1.00  0.00    -0.401 OA
ATOM     16  H2  UNL     1     -32.506  17.631  -1.630  1.00  0.00     0.209 HD
ENDBRANCH  14  15
ENDBRANCH  13  14
ENDBRANCH   7  13
BRANCH   5  17
HETATM   17  O1  UNL     1     -31.626  18.474  -8.073  1.00  0.00    -0.351 OA
BRANCH  17  18
HETATM   18  C11 UNL     1     -30.351  18.496  -7.558  1.00  0.00     0.171 C 
HETATM   19  C12 UNL     1     -29.415  17.442  -8.021  1.00  0.00     0.034 C 
ENDBRANCH  17  18
ENDBRANCH   5  17
TORSDOF 9
ENDMDL
MODEL 3
REMARK VINA RESULT: -6.150889536      1.793      6.722
REMARK  9 active torsions:
REMARK  status: ('A' for Active; 'I' for Inactive)
REMARK    1  A    between atoms: C2_2  and  C3_3 
REMARK    2  A    between atoms: C3_3  and  C4_4 
REMARK    3  A    between atoms: C4_4  and  C5_5 
REMARK    4  A    between atoms: C5_5  and  C6_6 
REMARK    5  A    between atoms: C10_10  and  O1_11 
REMARK    6  A    between atoms: O1_11  and  C11_12 
REMARK    7  A    between atoms: C14_15  and  C15_16 
REMARK    8  A    between atoms: C15_16  and  C16_17 
REMARK    9  A    between atoms: C16_17  and  O2_18 
ROOT
HETATM    1  C6  UNL     1     -31.809  18.349  -6.818  1.00  0.00    -0.051 A 
HETATM    2  C7  UNL     1     -32.232  18.085  -8.129  1.00  0.00     0.017 A 
HETATM    3  C8  UNL     1     -33.541  17.921  -8.496  1.00  0.00    -0.028 A 
HETATM    4  C9  UNL     1     -33.903  17.644  -9.912  1.00  0.00     0.051 C 
HETATM    5  C10 UNL     1     -34.492  18.025  -7.512  1.00  0.00     0.075 A 
HETATM    6  C13 UNL     1     -34.107  18.282  -6.220  1.00  0.00     0.045 A 
HETATM    7  C14 UNL     1     -32.772  18.446  -5.851  1.00  0.00    -0.047 A 
ENDROOT
BRANCH   1   8
HETATM    8  C5  UNL     1     -30.363  18.579  -6.591  1.00  0.00     0.039 C 
BRANCH   8   9
HETATM    9  C4  UNL     1     -29.536  17.338  -6.793  1.00  0.00     0.005 C 
BRANCH   9  10
HETATM   10  C3  UNL     1     -28.952  16.885  -5.493  1.00  0.00    -0.000 C 
BRANCH  10  11
HETATM   11  C2  UNL     1     -28.991  15.397  -5.323  1.00  0.00    -0.005 C 
HETATM   12  C1  UNL     1     -30.063  14.994  -4.348  1.00  0.00     0.005 C 
ENDBRANCH  10  11
ENDBRANCH   9  10
ENDBRANCH   8   9
ENDBRANCH   1   8
BRANCH   7  13
HETATM   13  C15 UNL     1     -32.402  18.642  -4.439  1.00  0.00     0.065 C 
BRANCH  13  14
HETATM   14  C16 UNL     1     -33.301  17.945  -3.454  1.00  0.00     0.168 C 
BRANCH  14  15
HETATM   15  O2  UNL     1     -32.519  17.366  -2.430  1.00  0.00    -0.401 OA
ATOM     16  H2  UNL     1     -32.006  16.651  -2.788  1.00  0.00     0.209 HD
ENDBRANCH  14  15
ENDBRANCH  13  14
ENDBRANCH   7  13
BRANCH   5  17
HETATM   17  O1  UNL     1     -35.814  17.876  -7.797  1.00  0.00    -0.351 OA
BRANCH  17  18
HETATM   18  C11 UNL     1     -36.836  17.302  -7.078  1.00  0.00     0.171 C 
HETATM   19  C12 UNL     1     -37.756  16.398  -7.813  1.00  0.00     0.034 C 
ENDBRANCH  17  18
ENDBRANCH   5  17
TORSDOF 9
ENDMDL
MODEL 4
REMARK VINA RESULT: -6.146617781      2.037      3.643
REMARK  9 active torsions:
REMARK  status: ('A' for Active; 'I' for Inactive)
REMARK    1  A    between atoms: C2_2  and  C3_3 
REMARK    2  A    between atoms: C3_3  and  C4_4 
REMARK    3  A    between atoms: C4_4  and  C5_5 
REMARK    4  A    between atoms: C5_5  and  C6_6 
REMARK    5  A    between atoms: C10_10  and  O1_11 
REMARK    6  A    between atoms: O1_11  and  C11_12 
REMARK    7  A    between atoms: C14_15  and  C15_16 
REMARK    8  A    between atoms: C15_16  and  C16_17 
REMARK    9  A    between atoms: C16_17  and  O2_18 
ROOT
HETATM    1  C6  UNL     1     -33.955  18.577  -6.738  1.00  0.00    -0.051 A 
HETATM    2  C7  UNL     1     -32.996  18.542  -7.760  1.00  0.00     0.017 A 
HETATM    3  C8  UNL     1     -31.644  18.599  -7.547  1.00  0.00    -0.028 A 
HETATM    4  C9  UNL     1     -30.694  18.555  -8.690  1.00  0.00     0.051 C 
HETATM    5  C10 UNL     1     -31.211  18.694  -6.248  1.00  0.00     0.075 A 
HETATM    6  C13 UNL     1     -32.128  18.730  -5.227  1.00  0.00     0.045 A 
HETATM    7  C14 UNL     1     -33.504  18.675  -5.450  1.00  0.00    -0.047 A 
ENDROOT
BRANCH   1   8
HETATM    8  C5  UNL     1     -35.379  18.428  -7.121  1.00  0.00     0.039 C 
BRANCH   8   9
HETATM    9  C4  UNL     1     -35.792  16.991  -7.285  1.00  0.00     0.005 C 
BRANCH   9  10
HETATM   10  C3  UNL     1     -37.280  16.863  -7.194  1.00  0.00    -0.000 C 
BRANCH  10  11
HETATM   11  C2  UNL     1     -37.893  17.849  -6.247  1.00  0.00    -0.005 C 
HETATM   12  C1  UNL     1     -39.118  18.483  -6.849  1.00  0.00     0.005 C 
ENDBRANCH  10  11
ENDBRANCH   9  10
ENDBRANCH   8   9
ENDBRANCH   1   8
BRANCH   7  13
HETATM   13  C15 UNL     1     -34.452  18.797  -4.328  1.00  0.00     0.065 C 
BRANCH  13  14
HETATM   14  C16 UNL     1     -34.762  17.501  -3.628  1.00  0.00     0.168 C 
BRANCH  14  15
HETATM   15  O2  UNL     1     -33.870  17.325  -2.547  1.00  0.00    -0.401 OA
ATOM     16  H2  UNL     1     -34.360  17.297  -1.734  1.00  0.00     0.209 HD
ENDBRANCH  14  15
ENDBRANCH  13  14
ENDBRANCH   7  13
BRANCH   5  17
HETATM   17  O1  UNL     1     -29.885  18.753  -5.955  1.00  0.00    -0.351 OA
BRANCH  17  18
HETATM   18  C11 UNL     1     -28.990  17.770  -5.603  1.00  0.00     0.171 C 
HETATM   19  C12 UNL     1     -29.503  16.378  -5.542  1.00  0.00     0.034 C 
ENDBRANCH  17  18
ENDBRANCH   5  17
TORSDOF 9
ENDMDL
MODEL 5
REMARK VINA RESULT: -6.125887755      2.301      4.160
REMARK  9 active torsions:
REMARK  status: ('A' for Active; 'I' for Inactive)
REMARK    1  A    between atoms: C2_2  and  C3_3 
REMARK    2  A    between atoms: C3_3  and  C4_4 
REMARK    3  A    between atoms: C4_4  and  C5_5 
REMARK    4  A    between atoms: C5_5  and  C6_6 
REMARK    5  A    between atoms: C10_10  and  O1_11 
REMARK    6  A    between atoms: O1_11  and  C11_12 
REMARK    7  A    between atoms: C14_15  and  C15_16 
REMARK    8  A    between atoms: C15_16  and  C16_17 
REMARK    9  A    between atoms: C16_17  and  O2_18 
ROOT
HETATM    1  C6  UNL     1     -33.266  18.821  -6.533  1.00  0.00    -0.051 A 
HETATM    2  C7  UNL     1     -32.552  18.542  -7.707  1.00  0.00     0.017 A 
HETATM    3  C8  UNL     1     -31.288  18.015  -7.730  1.00  0.00    -0.028 A 
HETATM    4  C9  UNL     1     -30.600  17.749  -9.022  1.00  0.00     0.051 C 
HETATM    5  C10 UNL     1     -30.692  17.746  -6.524  1.00  0.00     0.075 A 
HETATM    6  C13 UNL     1     -31.368  18.009  -5.358  1.00  0.00     0.045 A 
HETATM    7  C14 UNL     1     -32.654  18.548  -5.340  1.00  0.00    -0.047 A 
ENDROOT
BRANCH   1   8
HETATM    8  C5  UNL     1     -34.656  19.317  -6.671  1.00  0.00     0.039 C 
BRANCH   8   9
HETATM    9  C4  UNL     1     -35.533  18.383  -7.460  1.00  0.00     0.005 C 
BRANCH   9  10
HETATM   10  C3  UNL     1     -36.058  17.294  -6.579  1.00  0.00    -0.000 C 
BRANCH  10  11
HETATM   11  C2  UNL     1     -36.732  17.813  -5.347  1.00  0.00    -0.005 C 
HETATM   12  C1  UNL     1     -38.162  18.185  -5.632  1.00  0.00     0.005 C 
ENDBRANCH  10  11
ENDBRANCH   9  10
ENDBRANCH   8   9
ENDBRANCH   1   8
BRANCH   7  13
HETATM   13  C15 UNL     1     -33.309  18.886  -4.065  1.00  0.00     0.065 C 
BRANCH  13  14
HETATM   14  C16 UNL     1     -33.676  17.699  -3.216  1.00  0.00     0.168 C 
BRANCH  14  15
HETATM   15  O2  UNL     1     -32.620  17.412  -2.324  1.00  0.00    -0.401 OA
ATOM     16  H2  UNL     1     -32.163  18.216  -2.104  1.00  0.00     0.209 HD
ENDBRANCH  14  15
ENDBRANCH  13  14
ENDBRANCH   7  13
BRANCH   5  17
HETATM   17  O1  UNL     1     -29.439  17.221  -6.463  1.00  0.00    -0.351 OA
BRANCH  17  18
HETATM   18  C11 UNL     1     -28.755  16.624  -5.429  1.00  0.00     0.171 C 
HETATM   19  C12 UNL     1     -29.031  15.188  -5.175  1.00  0.00     0.034 C 
ENDBRANCH  17  18
ENDBRANCH   5  17
TORSDOF 9
ENDMDL
