MODEL 1
REMARK VINA RESULT: -6.637458060      0.000      0.000
REMARK  8 active torsions:
REMARK  status: ('A' for Active; 'I' for Inactive)
REMARK    1  A    between atoms: C2_2  and  C4_4 
REMARK    2  A    between atoms: C4_4  and  C5_5 
REMARK    3  A    between atoms: C5_5  and  C6_6 
REMARK    4  A    between atoms: C5_5  and  C12_15 
REMARK    5  A    between atoms: C6_6  and  C7_7 
REMARK    6  A    between atoms: C10_10  and  C11_11 
REMARK    7  A    between atoms: C11_11  and  O1_12 
REMARK    8  A    between atoms: C12_15  and  C13_16 
ROOT
HETATM    1  C5  UNL     1     -37.162  18.419  -6.501  1.00  0.00    -0.007 C 
ENDROOT
BRANCH   1   2
HETATM    2  C4  UNL     1     -38.489  18.949  -7.039  1.00  0.00     0.009 C 
BRANCH   2   3
HETATM    3  C2  UNL     1     -39.134  18.062  -8.055  1.00  0.00    -0.022 C 
HETATM    4  C1  UNL     1     -38.734  16.636  -7.686  1.00  0.00     0.009 C 
HETATM    5  C3  UNL     1     -38.689  18.295  -9.457  1.00  0.00     0.009 C 
ENDBRANCH   2   3
ENDBRANCH   1   2
BRANCH   1   6
HETATM    6  C6  UNL     1     -37.160  18.757  -5.055  1.00  0.00     0.069 C 
BRANCH   6   7
HETATM    7  C7  UNL     1     -35.948  18.320  -4.301  1.00  0.00     0.053 A 
HETATM    8  C8  UNL     1     -35.710  17.265  -3.481  1.00  0.00     0.035 A 
HETATM    9  C9  UNL     1     -34.402  17.338  -3.045  1.00  0.00     0.037 A 
HETATM   10  C10 UNL     1     -33.912  18.482  -3.654  1.00  0.00     0.076 A 
HETATM   11  O2  UNL     1     -34.839  19.029  -4.379  1.00  0.00    -0.317 OA
BRANCH  10  12
HETATM   12  C11 UNL     1     -32.517  18.985  -3.482  1.00  0.00     0.229 C 
BRANCH  12  13
HETATM   13  O1  UNL     1     -32.109  19.708  -4.604  1.00  0.00    -0.394 OA
ATOM     14  H1  UNL     1     -31.231  20.051  -4.483  1.00  0.00     0.209 HD
ENDBRANCH  12  13
ENDBRANCH  10  12
ENDBRANCH   6   7
ENDBRANCH   1   6
BRANCH   1  15
HETATM   15  C12 UNL     1     -36.029  18.944  -7.267  1.00  0.00     0.013 C 
BRANCH  15  16
HETATM   16  C13 UNL     1     -35.027  18.100  -7.923  1.00  0.00    -0.051 C 
HETATM   17  C14 UNL     1     -35.272  16.603  -7.491  1.00  0.00     0.014 C 
HETATM   18  C15 UNL     1     -35.046  18.003  -9.426  1.00  0.00     0.014 C 
HETATM   19  C16 UNL     1     -33.602  18.369  -7.506  1.00  0.00     0.014 C 
ENDBRANCH  15  16
ENDBRANCH   1  15
TORSDOF 8
ENDMDL
MODEL 2
REMARK VINA RESULT: -6.633136582      1.617      4.450
REMARK  8 active torsions:
REMARK  status: ('A' for Active; 'I' for Inactive)
REMARK    1  A    between atoms: C2_2  and  C4_4 
REMARK    2  A    between atoms: C4_4  and  C5_5 
REMARK    3  A    between atoms: C5_5  and  C6_6 
REMARK    4  A    between atoms: C5_5  and  C12_15 
REMARK    5  A    between atoms: C6_6  and  C7_7 
REMARK    6  A    between atoms: C10_10  and  C11_11 
REMARK    7  A    between atoms: C11_11  and  O1_12 
REMARK    8  A    between atoms: C12_15  and  C13_16 
ROOT
HETATM    1  C5  UNL     1     -35.743  18.401  -5.666  1.00  0.00    -0.007 C 
ENDROOT
BRANCH   1   2
HETATM    2  C4  UNL     1     -35.458  18.533  -4.173  1.00  0.00     0.009 C 
BRANCH   2   3
HETATM    3  C2  UNL     1     -34.518  17.501  -3.637  1.00  0.00    -0.022 C 
HETATM    4  C1  UNL     1     -35.202  16.903  -2.411  1.00  0.00     0.009 C 
HETATM    5  C3  UNL     1     -33.200  18.031  -3.191  1.00  0.00     0.009 C 
ENDBRANCH   2   3
ENDBRANCH   1   2
BRANCH   1   6
HETATM    6  C6  UNL     1     -34.888  19.422  -6.323  1.00  0.00     0.069 C 
BRANCH   6   7
HETATM    7  C7  UNL     1     -33.606  18.909  -6.891  1.00  0.00     0.053 A 
HETATM    8  C8  UNL     1     -33.318  18.211  -8.017  1.00  0.00     0.035 A 
HETATM    9  C9  UNL     1     -31.956  17.993  -8.059  1.00  0.00     0.037 A 
HETATM   10  C10 UNL     1     -31.487  18.600  -6.905  1.00  0.00     0.076 A 
HETATM   11  O2  UNL     1     -32.475  19.125  -6.248  1.00  0.00    -0.317 OA
BRANCH  10  12
HETATM   12  C11 UNL     1     -30.049  18.629  -6.504  1.00  0.00     0.229 C 
BRANCH  12  13
HETATM   13  O1  UNL     1     -29.890  18.186  -5.191  1.00  0.00    -0.394 OA
ATOM     14  H1  UNL     1     -29.343  17.410  -5.160  1.00  0.00     0.209 HD
ENDBRANCH  12  13
ENDBRANCH  10  12
ENDBRANCH   6   7
ENDBRANCH   1   6
BRANCH   1  15
HETATM   15  C12 UNL     1     -37.177  18.514  -5.946  1.00  0.00     0.013 C 
BRANCH  15  16
HETATM   16  C13 UNL     1     -37.806  18.043  -7.184  1.00  0.00    -0.051 C 
HETATM   17  C14 UNL     1     -39.368  18.219  -7.051  1.00  0.00     0.014 C 
HETATM   18  C15 UNL     1     -37.512  18.784  -8.462  1.00  0.00     0.014 C 
HETATM   19  C16 UNL     1     -37.629  16.572  -7.463  1.00  0.00     0.014 C 
ENDBRANCH  15  16
ENDBRANCH   1  15
TORSDOF 8
ENDMDL
MODEL 3
REMARK VINA RESULT: -6.550217744      6.557      9.577
REMARK  8 active torsions:
REMARK  status: ('A' for Active; 'I' for Inactive)
REMARK    1  A    between atoms: C2_2  and  C4_4 
REMARK    2  A    between atoms: C4_4  and  C5_5 
REMARK    3  A    between atoms: C5_5  and  C6_6 
REMARK    4  A    between atoms: C5_5  and  C12_15 
REMARK    5  A    between atoms: C6_6  and  C7_7 
REMARK    6  A    between atoms: C10_10  and  C11_11 
REMARK    7  A    between atoms: C11_11  and  O1_12 
REMARK    8  A    between atoms: C12_15  and  C13_16 
ROOT
HETATM    1  C5  UNL     1     -27.265  15.095  -5.453  1.00  0.00    -0.007 C 
ENDROOT
BRANCH   1   2
HETATM    2  C4  UNL     1     -26.766  14.802  -4.041  1.00  0.00     0.009 C 
BRANCH   2   3
HETATM    3  C2  UNL     1     -25.659  15.700  -3.587  1.00  0.00    -0.022 C 
HETATM    4  C1  UNL     1     -25.872  17.029  -4.304  1.00  0.00     0.009 C 
HETATM    5  C3  UNL     1     -24.291  15.226  -3.934  1.00  0.00     0.009 C 
ENDBRANCH   2   3
ENDBRANCH   1   2
BRANCH   1   6
HETATM    6  C6  UNL     1     -28.745  15.163  -5.342  1.00  0.00     0.069 C 
BRANCH   6   7
HETATM    7  C7  UNL     1     -29.354  16.464  -5.749  1.00  0.00     0.053 A 
HETATM    8  C8  UNL     1     -28.895  17.495  -6.501  1.00  0.00     0.035 A 
HETATM    9  C9  UNL     1     -29.878  18.463  -6.562  1.00  0.00     0.037 A 
HETATM   10  C10 UNL     1     -30.913  17.931  -5.810  1.00  0.00     0.076 A 
HETATM   11  O2  UNL     1     -30.575  16.765  -5.352  1.00  0.00    -0.317 OA
BRANCH  10  12
HETATM   12  C11 UNL     1     -32.216  18.623  -5.579  1.00  0.00     0.229 C 
BRANCH  12  13
HETATM   13  O1  UNL     1     -32.069  19.666  -4.664  1.00  0.00    -0.394 OA
ATOM     14  H1  UNL     1     -32.318  19.386  -3.791  1.00  0.00     0.209 HD
ENDBRANCH  12  13
ENDBRANCH  10  12
ENDBRANCH   6   7
ENDBRANCH   1   6
BRANCH   1  15
HETATM   15  C12 UNL     1     -26.756  14.111  -6.412  1.00  0.00     0.013 C 
BRANCH  15  16
HETATM   16  C13 UNL     1     -26.017  14.464  -7.628  1.00  0.00    -0.051 C 
HETATM   17  C14 UNL     1     -27.049  14.950  -8.718  1.00  0.00     0.014 C 
HETATM   18  C15 UNL     1     -25.052  15.618  -7.569  1.00  0.00     0.014 C 
HETATM   19  C16 UNL     1     -25.305  13.312  -8.292  1.00  0.00     0.014 C 
ENDBRANCH  15  16
ENDBRANCH   1  15
TORSDOF 8
ENDMDL
MODEL 4
REMARK VINA RESULT: -6.524428700      1.654      3.389
REMARK  8 active torsions:
REMARK  status: ('A' for Active; 'I' for Inactive)
REMARK    1  A    between atoms: C2_2  and  C4_4 
REMARK    2  A    between atoms: C4_4  and  C5_5 
REMARK    3  A    between atoms: C5_5  and  C6_6 
REMARK    4  A    between atoms: C5_5  and  C12_15 
REMARK    5  A    between atoms: C6_6  and  C7_7 
REMARK    6  A    between atoms: C10_10  and  C11_11 
REMARK    7  A    between atoms: C11_11  and  O1_12 
REMARK    8  A    between atoms: C12_15  and  C13_16 
ROOT
HETATM    1  C5  UNL     1     -35.787  18.055  -8.404  1.00  0.00    -0.007 C 
ENDROOT
BRANCH   1   2
HETATM    2  C4  UNL     1     -35.432  17.737  -9.854  1.00  0.00     0.009 C 
BRANCH   2   3
HETATM    3  C2  UNL     1     -36.153  18.578 -10.858  1.00  0.00    -0.022 C 
HETATM    4  C1  UNL     1     -37.350  17.752 -11.321  1.00  0.00     0.009 C 
HETATM    5  C3  UNL     1     -35.359  18.919 -12.071  1.00  0.00     0.009 C 
ENDBRANCH   2   3
ENDBRANCH   1   2
BRANCH   1   6
HETATM    6  C6  UNL     1     -34.526  17.873  -7.641  1.00  0.00     0.069 C 
BRANCH   6   7
HETATM    7  C7  UNL     1     -34.583  18.291  -6.209  1.00  0.00     0.053 A 
HETATM    8  C8  UNL     1     -34.997  19.432  -5.603  1.00  0.00     0.035 A 
HETATM    9  C9  UNL     1     -34.832  19.288  -4.241  1.00  0.00     0.037 A 
HETATM   10  C10 UNL     1     -34.306  18.014  -4.103  1.00  0.00     0.076 A 
HETATM   11  O2  UNL     1     -34.175  17.460  -5.269  1.00  0.00    -0.317 OA
BRANCH  10  12
HETATM   12  C11 UNL     1     -33.954  17.395  -2.791  1.00  0.00     0.229 C 
BRANCH  12  13
HETATM   13  O1  UNL     1     -32.571  17.386  -2.602  1.00  0.00    -0.394 OA
ATOM     14  H1  UNL     1     -32.357  17.398  -1.676  1.00  0.00     0.209 HD
ENDBRANCH  12  13
ENDBRANCH  10  12
ENDBRANCH   6   7
ENDBRANCH   1   6
BRANCH   1  15
HETATM   15  C12 UNL     1     -36.918  17.245  -7.944  1.00  0.00     0.013 C 
BRANCH  15  16
HETATM   16  C13 UNL     1     -38.126  17.805  -7.330  1.00  0.00    -0.051 C 
HETATM   17  C14 UNL     1     -38.179  19.350  -7.646  1.00  0.00     0.014 C 
HETATM   18  C15 UNL     1     -39.466  17.334  -7.829  1.00  0.00     0.014 C 
HETATM   19  C16 UNL     1     -38.156  17.742  -5.823  1.00  0.00     0.014 C 
ENDBRANCH  15  16
ENDBRANCH   1  15
TORSDOF 8
ENDMDL
MODEL 5
REMARK VINA RESULT: -6.515017571      1.871      4.045
REMARK  8 active torsions:
REMARK  status: ('A' for Active; 'I' for Inactive)
REMARK    1  A    between atoms: C2_2  and  C4_4 
REMARK    2  A    between atoms: C4_4  and  C5_5 
REMARK    3  A    between atoms: C5_5  and  C6_6 
REMARK    4  A    between atoms: C5_5  and  C12_15 
REMARK    5  A    between atoms: C6_6  and  C7_7 
REMARK    6  A    between atoms: C10_10  and  C11_11 
REMARK    7  A    between atoms: C11_11  and  O1_12 
REMARK    8  A    between atoms: C12_15  and  C13_16 
ROOT
HETATM    1  C5  UNL     1     -35.308  18.149  -7.080  1.00  0.00    -0.007 C 
ENDROOT
BRANCH   1   2
HETATM    2  C4  UNL     1     -36.679  18.275  -7.737  1.00  0.00     0.009 C 
BRANCH   2   3
HETATM    3  C2  UNL     1     -37.778  17.581  -6.996  1.00  0.00    -0.022 C 
HETATM    4  C1  UNL     1     -38.099  16.323  -7.795  1.00  0.00     0.009 C 
HETATM    5  C3  UNL     1     -39.040  18.363  -6.879  1.00  0.00     0.009 C 
ENDBRANCH   2   3
ENDBRANCH   1   2
BRANCH   1   6
HETATM    6  C6  UNL     1     -34.447  17.479  -8.087  1.00  0.00     0.069 C 
BRANCH   6   7
HETATM    7  C7  UNL     1     -33.041  17.974  -8.153  1.00  0.00     0.053 A 
HETATM    8  C8  UNL     1     -32.360  18.676  -9.093  1.00  0.00     0.035 A 
HETATM    9  C9  UNL     1     -31.069  18.870  -8.644  1.00  0.00     0.037 A 
HETATM   10  C10 UNL     1     -31.051  18.246  -7.407  1.00  0.00     0.076 A 
HETATM   11  O2  UNL     1     -32.216  17.735  -7.152  1.00  0.00    -0.317 OA
BRANCH  10  12
HETATM   12  C11 UNL     1     -29.851  18.187  -6.520  1.00  0.00     0.229 C 
BRANCH  12  13
HETATM   13  O1  UNL     1     -30.228  18.041  -5.185  1.00  0.00    -0.394 OA
ATOM     14  H1  UNL     1     -29.562  18.394  -4.606  1.00  0.00     0.209 HD
ENDBRANCH  12  13
ENDBRANCH  10  12
ENDBRANCH   6   7
ENDBRANCH   1   6
BRANCH   1  15
HETATM   15  C12 UNL     1     -35.399  17.469  -5.785  1.00  0.00     0.013 C 
BRANCH  15  16
HETATM   16  C13 UNL     1     -35.078  18.106  -4.504  1.00  0.00    -0.051 C 
HETATM   17  C14 UNL     1     -36.254  19.086  -4.123  1.00  0.00     0.014 C 
HETATM   18  C15 UNL     1     -34.980  17.237  -3.278  1.00  0.00     0.014 C 
HETATM   19  C16 UNL     1     -33.859  18.994  -4.528  1.00  0.00     0.014 C 
ENDBRANCH  15  16
ENDBRANCH   1  15
TORSDOF 8
ENDMDL
