MODEL 1
REMARK VINA RESULT: -7.019077663      0.000      0.000
REMARK  9 active torsions:
REMARK  status: ('A' for Active; 'I' for Inactive)
REMARK    1  A    between atoms: C2_2  and  C3_3 
REMARK    2  A    between atoms: C5_5  and  C6_6 
REMARK    3  A    between atoms: C6_6  and  C7_7 
REMARK    4  A    between atoms: C7_7  and  C8_8 
REMARK    5  A    between atoms: C8_8  and  O1_9 
REMARK    6  A    between atoms: C8_8  and  C9_11 
REMARK    7  A    between atoms: C9_11  and  C10_12 
REMARK    8  A    between atoms: C10_12  and  C11_13 
REMARK    9  A    between atoms: C11_13  and  O2_14 
ROOT
HETATM    1  C6  UNL     1     -35.840  17.986  -4.050  1.00  0.00     0.041 C 
ENDROOT
BRANCH   1   2
HETATM    2  C5  UNL     1     -36.518  18.075  -5.339  1.00  0.00    -0.057 A 
HETATM    3  C4  UNL     1     -35.800  18.001  -6.518  1.00  0.00     0.019 A 
HETATM    4  C3  UNL     1     -36.432  18.065  -7.741  1.00  0.00    -0.031 A 
HETATM    5  C15 UNL     1     -37.810  18.205  -7.789  1.00  0.00    -0.052 A 
HETATM    6  C14 UNL     1     -38.550  18.281  -6.622  1.00  0.00     0.008 A 
HETATM    7  C16 UNL     1     -38.481  18.272  -9.126  1.00  0.00     0.049 C 
HETATM    8  C13 UNL     1     -37.884  18.214  -5.393  1.00  0.00     0.007 A 
BRANCH   4   9
HETATM    9  C2  UNL     1     -35.685  17.987  -9.003  1.00  0.00     0.002 C 
HETATM   10  C1  UNL     1     -34.395  17.794  -9.087  1.00  0.00     0.012 C 
ENDBRANCH   4   9
ENDBRANCH   1   2
BRANCH   1  11
HETATM   11  C7  UNL     1     -34.493  17.387  -4.019  1.00  0.00     0.036 C 
BRANCH  11  12
HETATM   12  C8  UNL     1     -33.420  18.103  -3.301  1.00  0.00     0.118 C 
BRANCH  12  13
HETATM   13  O1  UNL     1     -32.663  17.381  -2.420  1.00  0.00    -0.396 OA
ATOM     14  H1  UNL     1     -31.862  17.781  -2.101  1.00  0.00     0.210 HD
ENDBRANCH  12  13
BRANCH  12  15
HETATM   15  C9  UNL     1     -32.488  18.879  -4.207  1.00  0.00     0.034 C 
BRANCH  15  16
HETATM   16  C10 UNL     1     -32.227  17.992  -5.416  1.00  0.00     0.029 C 
BRANCH  16  17
HETATM   17  C11 UNL     1     -30.964  17.216  -5.292  1.00  0.00     0.167 C 
BRANCH  17  18
HETATM   18  O2  UNL     1     -31.097  16.020  -4.648  1.00  0.00    -0.396 OA
HETATM   19  C12 UNL     1     -29.896  15.336  -4.654  1.00  0.00     0.201 C 
ENDBRANCH  17  18
ENDBRANCH  16  17
ENDBRANCH  15  16
ENDBRANCH  12  15
ENDBRANCH  11  12
ENDBRANCH   1  11
TORSDOF 9
ENDMDL
MODEL 2
REMARK VINA RESULT: -6.799909416      1.073      1.201
REMARK  9 active torsions:
REMARK  status: ('A' for Active; 'I' for Inactive)
REMARK    1  A    between atoms: C2_2  and  C3_3 
REMARK    2  A    between atoms: C5_5  and  C6_6 
REMARK    3  A    between atoms: C6_6  and  C7_7 
REMARK    4  A    between atoms: C7_7  and  C8_8 
REMARK    5  A    between atoms: C8_8  and  O1_9 
REMARK    6  A    between atoms: C8_8  and  C9_11 
REMARK    7  A    between atoms: C9_11  and  C10_12 
REMARK    8  A    between atoms: C10_12  and  C11_13 
REMARK    9  A    between atoms: C11_13  and  O2_14 
ROOT
HETATM    1  C6  UNL     1     -35.830  18.099  -3.928  1.00  0.00     0.041 C 
ENDROOT
BRANCH   1   2
HETATM    2  C5  UNL     1     -36.394  18.083  -5.273  1.00  0.00    -0.057 A 
HETATM    3  C4  UNL     1     -35.573  17.986  -6.380  1.00  0.00     0.019 A 
HETATM    4  C3  UNL     1     -36.097  17.951  -7.654  1.00  0.00    -0.031 A 
HETATM    5  C15 UNL     1     -37.471  18.013  -7.828  1.00  0.00    -0.052 A 
HETATM    6  C14 UNL     1     -38.314  18.110  -6.734  1.00  0.00     0.008 A 
HETATM    7  C16 UNL     1     -38.023  17.973  -9.219  1.00  0.00     0.049 C 
HETATM    8  C13 UNL     1     -37.756  18.145  -5.451  1.00  0.00     0.007 A 
BRANCH   4   9
HETATM    9  C2  UNL     1     -35.239  17.846  -8.841  1.00  0.00     0.002 C 
HETATM   10  C1  UNL     1     -33.979  17.498  -8.814  1.00  0.00     0.012 C 
ENDBRANCH   4   9
ENDBRANCH   1   2
BRANCH   1  11
HETATM   11  C7  UNL     1     -34.598  17.326  -3.689  1.00  0.00     0.036 C 
BRANCH  11  12
HETATM   12  C8  UNL     1     -33.411  18.034  -3.168  1.00  0.00     0.118 C 
BRANCH  12  13
HETATM   13  O1  UNL     1     -32.465  17.286  -2.523  1.00  0.00    -0.396 OA
ATOM     14  H1  UNL     1     -31.675  17.730  -2.240  1.00  0.00     0.210 HD
ENDBRANCH  12  13
BRANCH  12  15
HETATM   15  C9  UNL     1     -32.715  18.901  -4.196  1.00  0.00     0.034 C 
BRANCH  15  16
HETATM   16  C10 UNL     1     -32.001  17.949  -5.148  1.00  0.00     0.029 C 
BRANCH  16  17
HETATM   17  C11 UNL     1     -31.245  18.665  -6.209  1.00  0.00     0.167 C 
BRANCH  17  18
HETATM   18  O2  UNL     1     -29.989  19.056  -5.842  1.00  0.00    -0.396 OA
HETATM   19  C12 UNL     1     -29.112  17.992  -5.925  1.00  0.00     0.201 C 
ENDBRANCH  17  18
ENDBRANCH  16  17
ENDBRANCH  15  16
ENDBRANCH  12  15
ENDBRANCH  11  12
ENDBRANCH   1  11
TORSDOF 9
ENDMDL
MODEL 3
REMARK VINA RESULT: -6.653501535      0.920      1.098
REMARK  9 active torsions:
REMARK  status: ('A' for Active; 'I' for Inactive)
REMARK    1  A    between atoms: C2_2  and  C3_3 
REMARK    2  A    between atoms: C5_5  and  C6_6 
REMARK    3  A    between atoms: C6_6  and  C7_7 
REMARK    4  A    between atoms: C7_7  and  C8_8 
REMARK    5  A    between atoms: C8_8  and  O1_9 
REMARK    6  A    between atoms: C8_8  and  C9_11 
REMARK    7  A    between atoms: C9_11  and  C10_12 
REMARK    8  A    between atoms: C10_12  and  C11_13 
REMARK    9  A    between atoms: C11_13  and  O2_14 
ROOT
HETATM    1  C6  UNL     1     -36.745  18.212  -4.719  1.00  0.00     0.041 C 
ENDROOT
BRANCH   1   2
HETATM    2  C5  UNL     1     -37.120  18.266  -6.128  1.00  0.00    -0.057 A 
HETATM    3  C4  UNL     1     -36.164  18.121  -7.116  1.00  0.00     0.019 A 
HETATM    4  C3  UNL     1     -36.510  18.151  -8.450  1.00  0.00    -0.031 A 
HETATM    5  C15 UNL     1     -37.838  18.329  -8.806  1.00  0.00    -0.052 A 
HETATM    6  C14 UNL     1     -38.812  18.477  -7.834  1.00  0.00     0.008 A 
HETATM    7  C16 UNL     1     -38.196  18.358 -10.260  1.00  0.00     0.049 C 
HETATM    8  C13 UNL     1     -38.435  18.443  -6.487  1.00  0.00     0.007 A 
BRANCH   4   9
HETATM    9  C2  UNL     1     -35.509  17.997  -9.513  1.00  0.00     0.002 C 
HETATM   10  C1  UNL     1     -34.229  17.829  -9.304  1.00  0.00     0.012 C 
ENDBRANCH   4   9
ENDBRANCH   1   2
BRANCH   1  11
HETATM   11  C7  UNL     1     -35.463  18.823  -4.323  1.00  0.00     0.036 C 
BRANCH  11  12
HETATM   12  C8  UNL     1     -34.388  17.944  -3.820  1.00  0.00     0.118 C 
BRANCH  12  13
HETATM   13  O1  UNL     1     -34.289  16.695  -4.368  1.00  0.00    -0.396 OA
ATOM     14  H1  UNL     1     -33.952  16.001  -3.814  1.00  0.00     0.210 HD
ENDBRANCH  12  13
BRANCH  12  15
HETATM   15  C9  UNL     1     -33.016  18.584  -3.835  1.00  0.00     0.034 C 
BRANCH  15  16
HETATM   16  C10 UNL     1     -32.452  18.356  -5.231  1.00  0.00     0.029 C 
BRANCH  16  17
HETATM   17  C11 UNL     1     -31.189  17.569  -5.213  1.00  0.00     0.167 C 
BRANCH  17  18
HETATM   18  O2  UNL     1     -31.318  16.306  -4.713  1.00  0.00    -0.396 OA
HETATM   19  C12 UNL     1     -30.099  15.654  -4.737  1.00  0.00     0.201 C 
ENDBRANCH  17  18
ENDBRANCH  16  17
ENDBRANCH  15  16
ENDBRANCH  12  15
ENDBRANCH  11  12
ENDBRANCH   1  11
TORSDOF 9
ENDMDL
MODEL 4
REMARK VINA RESULT: -6.620561704      1.386      1.607
REMARK  9 active torsions:
REMARK  status: ('A' for Active; 'I' for Inactive)
REMARK    1  A    between atoms: C2_2  and  C3_3 
REMARK    2  A    between atoms: C5_5  and  C6_6 
REMARK    3  A    between atoms: C6_6  and  C7_7 
REMARK    4  A    between atoms: C7_7  and  C8_8 
REMARK    5  A    between atoms: C8_8  and  O1_9 
REMARK    6  A    between atoms: C8_8  and  C9_11 
REMARK    7  A    between atoms: C9_11  and  C10_12 
REMARK    8  A    between atoms: C10_12  and  C11_13 
REMARK    9  A    between atoms: C11_13  and  O2_14 
ROOT
HETATM    1  C6  UNL     1     -34.752  17.383  -3.937  1.00  0.00     0.041 C 
ENDROOT
BRANCH   1   2
HETATM    2  C5  UNL     1     -35.654  17.722  -5.032  1.00  0.00    -0.057 A 
HETATM    3  C4  UNL     1     -35.232  17.632  -6.345  1.00  0.00     0.019 A 
HETATM    4  C3  UNL     1     -36.082  17.931  -7.388  1.00  0.00    -0.031 A 
HETATM    5  C15 UNL     1     -37.381  18.329  -7.115  1.00  0.00    -0.052 A 
HETATM    6  C14 UNL     1     -37.827  18.426  -5.808  1.00  0.00     0.008 A 
HETATM    7  C16 UNL     1     -38.291  18.650  -8.260  1.00  0.00     0.049 C 
HETATM    8  C13 UNL     1     -36.944  18.117  -4.767  1.00  0.00     0.007 A 
BRANCH   4   9
HETATM    9  C2  UNL     1     -35.650  17.840  -8.788  1.00  0.00     0.002 C 
HETATM   10  C1  UNL     1     -34.403  17.867  -9.181  1.00  0.00     0.012 C 
ENDBRANCH   4   9
ENDBRANCH   1   2
BRANCH   1  11
HETATM   11  C7  UNL     1     -33.697  18.352  -3.588  1.00  0.00     0.036 C 
BRANCH  11  12
HETATM   12  C8  UNL     1     -32.339  18.142  -4.130  1.00  0.00     0.118 C 
BRANCH  12  13
HETATM   13  O1  UNL     1     -31.918  16.851  -4.290  1.00  0.00    -0.396 OA
ATOM     14  H1  UNL     1     -31.746  16.554  -5.175  1.00  0.00     0.210 HD
ENDBRANCH  12  13
BRANCH  12  15
HETATM   15  C9  UNL     1     -32.070  18.896  -5.415  1.00  0.00     0.034 C 
BRANCH  15  16
HETATM   16  C10 UNL     1     -31.268  17.954  -6.304  1.00  0.00     0.029 C 
BRANCH  16  17
HETATM   17  C11 UNL     1     -30.003  18.567  -6.790  1.00  0.00     0.167 C 
BRANCH  17  18
HETATM   18  O2  UNL     1     -29.116  18.888  -5.803  1.00  0.00    -0.396 OA
HETATM   19  C12 UNL     1     -28.317  17.800  -5.505  1.00  0.00     0.201 C 
ENDBRANCH  17  18
ENDBRANCH  16  17
ENDBRANCH  15  16
ENDBRANCH  12  15
ENDBRANCH  11  12
ENDBRANCH   1  11
TORSDOF 9
ENDMDL
MODEL 5
REMARK VINA RESULT: -6.521003507      1.544      1.892
REMARK  9 active torsions:
REMARK  status: ('A' for Active; 'I' for Inactive)
REMARK    1  A    between atoms: C2_2  and  C3_3 
REMARK    2  A    between atoms: C5_5  and  C6_6 
REMARK    3  A    between atoms: C6_6  and  C7_7 
REMARK    4  A    between atoms: C7_7  and  C8_8 
REMARK    5  A    between atoms: C8_8  and  O1_9 
REMARK    6  A    between atoms: C8_8  and  C9_11 
REMARK    7  A    between atoms: C9_11  and  C10_12 
REMARK    8  A    between atoms: C10_12  and  C11_13 
REMARK    9  A    between atoms: C11_13  and  O2_14 
ROOT
HETATM    1  C6  UNL     1     -35.342  17.937  -3.967  1.00  0.00     0.041 C 
ENDROOT
BRANCH   1   2
HETATM    2  C5  UNL     1     -36.186  18.019  -5.154  1.00  0.00    -0.057 A 
HETATM    3  C4  UNL     1     -35.634  17.924  -6.418  1.00  0.00     0.019 A 
HETATM    4  C3  UNL     1     -36.425  17.982  -7.546  1.00  0.00    -0.031 A 
HETATM    5  C15 UNL     1     -37.795  18.137  -7.410  1.00  0.00    -0.052 A 
HETATM    6  C14 UNL     1     -38.370  18.235  -6.155  1.00  0.00     0.008 A 
HETATM    7  C16 UNL     1     -38.639  18.197  -8.646  1.00  0.00     0.049 C 
HETATM    8  C13 UNL     1     -37.546  18.174  -5.025  1.00  0.00     0.007 A 
BRANCH   4   9
HETATM    9  C2  UNL     1     -35.855  17.881  -8.895  1.00  0.00     0.002 C 
HETATM   10  C1  UNL     1     -34.575  17.883  -9.160  1.00  0.00     0.012 C 
ENDBRANCH   4   9
ENDBRANCH   1   2
BRANCH   1  11
HETATM   11  C7  UNL     1     -34.221  18.887  -3.851  1.00  0.00     0.036 C 
BRANCH  11  12
HETATM   12  C8  UNL     1     -32.886  18.364  -3.497  1.00  0.00     0.118 C 
BRANCH  12  13
HETATM   13  O1  UNL     1     -32.816  17.465  -2.469  1.00  0.00    -0.396 OA
ATOM     14  H1  UNL     1     -32.011  16.968  -2.378  1.00  0.00     0.210 HD
ENDBRANCH  12  13
BRANCH  12  15
HETATM   15  C9  UNL     1     -32.115  17.807  -4.674  1.00  0.00     0.034 C 
BRANCH  15  16
HETATM   16  C10 UNL     1     -32.124  18.891  -5.745  1.00  0.00     0.029 C 
BRANCH  16  17
HETATM   17  C11 UNL     1     -31.183  18.599  -6.859  1.00  0.00     0.167 C 
BRANCH  17  18
HETATM   18  O2  UNL     1     -31.463  19.258  -8.021  1.00  0.00    -0.396 OA
HETATM   19  C12 UNL     1     -30.965  18.557  -9.103  1.00  0.00     0.201 C 
ENDBRANCH  17  18
ENDBRANCH  16  17
ENDBRANCH  15  16
ENDBRANCH  12  15
ENDBRANCH  11  12
ENDBRANCH   1  11
TORSDOF 9
ENDMDL
