MODEL 1
REMARK VINA RESULT: -6.713566188      0.000      0.000
REMARK  7 active torsions:
REMARK  status: ('A' for Active; 'I' for Inactive)
REMARK    1  A    between atoms: C2_2  and  C3_3 
REMARK    2  A    between atoms: C3_3  and  C4_4 
REMARK    3  A    between atoms: C4_4  and  O1_6 
REMARK    4  A    between atoms: O1_6  and  C6_7 
REMARK    5  A    between atoms: C6_7  and  C7_8 
REMARK    6  A    between atoms: C11_12  and  O2_13 
REMARK    7  A    between atoms: C12_15  and  C13_16 
ROOT
HETATM    1  C7  UNL     1     -34.398  18.073  -7.743  1.00  0.00    -0.033 A 
HETATM    2  C8  UNL     1     -33.035  18.261  -7.821  1.00  0.00     0.019 A 
HETATM    3  C9  UNL     1     -32.260  18.552  -6.716  1.00  0.00    -0.028 A 
HETATM    4  C10 UNL     1     -30.792  18.761  -6.770  1.00  0.00     0.051 C 
HETATM    5  C11 UNL     1     -32.899  18.656  -5.493  1.00  0.00     0.078 A 
HETATM    6  C12 UNL     1     -34.250  18.483  -5.347  1.00  0.00    -0.021 A 
HETATM    7  C16 UNL     1     -34.989  18.191  -6.478  1.00  0.00     0.019 A 
ENDROOT
BRANCH   1   8
HETATM    8  C6  UNL     1     -35.182  17.780  -8.947  1.00  0.00     0.206 C 
BRANCH   8   9
HETATM    9  O1  UNL     1     -35.982  18.763  -9.435  1.00  0.00    -0.382 OA
BRANCH   9  10
HETATM   10  C4  UNL     1     -37.289  18.379  -9.775  1.00  0.00     0.117 C 
HETATM   11  C5  UNL     1     -37.236  17.884 -11.180  1.00  0.00     0.039 C 
BRANCH  10  12
HETATM   12  C3  UNL     1     -37.719  17.358  -8.787  1.00  0.00     0.031 C 
BRANCH  12  13
HETATM   13  C2  UNL     1     -38.786  17.663  -7.820  1.00  0.00    -0.002 C 
HETATM   14  C1  UNL     1     -38.685  18.982  -7.171  1.00  0.00     0.005 C 
ENDBRANCH  12  13
ENDBRANCH  10  12
ENDBRANCH   9  10
ENDBRANCH   8   9
ENDBRANCH   1   8
BRANCH   6  15
HETATM   15  C13 UNL     1     -34.944  18.605  -4.076  1.00  0.00     0.013 C 
HETATM   16  C14 UNL     1     -34.816  17.334  -3.231  1.00  0.00     0.015 C 
HETATM   17  C15 UNL     1     -36.407  18.924  -4.182  1.00  0.00     0.015 C 
ENDBRANCH   6  15
BRANCH   5  18
HETATM   18  O2  UNL     1     -32.155  18.941  -4.386  1.00  0.00    -0.360 OA
ATOM     19  H2  UNL     1     -31.207  18.922  -4.455  1.00  0.00     0.217 HD
ENDBRANCH   5  18
TORSDOF 7
ENDMDL
MODEL 2
REMARK VINA RESULT: -6.428176756      1.329      3.551
REMARK  7 active torsions:
REMARK  status: ('A' for Active; 'I' for Inactive)
REMARK    1  A    between atoms: C2_2  and  C3_3 
REMARK    2  A    between atoms: C3_3  and  C4_4 
REMARK    3  A    between atoms: C4_4  and  O1_6 
REMARK    4  A    between atoms: O1_6  and  C6_7 
REMARK    5  A    between atoms: C6_7  and  C7_8 
REMARK    6  A    between atoms: C11_12  and  O2_13 
REMARK    7  A    between atoms: C12_15  and  C13_16 
ROOT
HETATM    1  C7  UNL     1     -35.080  17.470  -6.510  1.00  0.00    -0.033 A 
HETATM    2  C8  UNL     1     -35.034  17.416  -5.133  1.00  0.00     0.019 A 
HETATM    3  C9  UNL     1     -33.949  17.862  -4.407  1.00  0.00    -0.028 A 
HETATM    4  C10 UNL     1     -33.871  17.813  -2.926  1.00  0.00     0.051 C 
HETATM    5  C11 UNL     1     -32.875  18.379  -5.110  1.00  0.00     0.078 A 
HETATM    6  C12 UNL     1     -32.855  18.461  -6.477  1.00  0.00    -0.021 A 
HETATM    7  C16 UNL     1     -33.963  18.005  -7.166  1.00  0.00     0.019 A 
ENDROOT
BRANCH   1   8
HETATM    8  C6  UNL     1     -36.249  16.971  -7.240  1.00  0.00     0.206 C 
BRANCH   8   9
HETATM    9  O1  UNL     1     -37.474  17.189  -6.697  1.00  0.00    -0.382 OA
BRANCH   9  10
HETATM   10  C4  UNL     1     -38.442  17.724  -7.561  1.00  0.00     0.117 C 
HETATM   11  C5  UNL     1     -38.533  19.179  -7.251  1.00  0.00     0.039 C 
BRANCH  10  12
HETATM   12  C3  UNL     1     -38.008  17.424  -8.949  1.00  0.00     0.031 C 
BRANCH  12  13
HETATM   13  C2  UNL     1     -38.204  18.416 -10.019  1.00  0.00    -0.002 C 
HETATM   14  C1  UNL     1     -37.653  18.038 -11.332  1.00  0.00     0.005 C 
ENDBRANCH  12  13
ENDBRANCH  10  12
ENDBRANCH   9  10
ENDBRANCH   8   9
ENDBRANCH   1   8
BRANCH   6  15
HETATM   15  C13 UNL     1     -31.731  18.984  -7.235  1.00  0.00     0.013 C 
HETATM   16  C14 UNL     1     -32.133  19.367  -8.663  1.00  0.00     0.015 C 
HETATM   17  C15 UNL     1     -30.552  18.059  -7.337  1.00  0.00     0.015 C 
ENDBRANCH   6  15
BRANCH   5  18
HETATM   18  O2  UNL     1     -31.790  18.829  -4.414  1.00  0.00    -0.360 OA
ATOM     19  H2  UNL     1     -31.312  18.216  -3.867  1.00  0.00     0.217 HD
ENDBRANCH   5  18
TORSDOF 7
ENDMDL
MODEL 3
REMARK VINA RESULT: -6.412223477      2.503      4.937
REMARK  7 active torsions:
REMARK  status: ('A' for Active; 'I' for Inactive)
REMARK    1  A    between atoms: C2_2  and  C3_3 
REMARK    2  A    between atoms: C3_3  and  C4_4 
REMARK    3  A    between atoms: C4_4  and  O1_6 
REMARK    4  A    between atoms: O1_6  and  C6_7 
REMARK    5  A    between atoms: C6_7  and  C7_8 
REMARK    6  A    between atoms: C11_12  and  O2_13 
REMARK    7  A    between atoms: C12_15  and  C13_16 
ROOT
HETATM    1  C7  UNL     1     -32.035  18.429  -5.345  1.00  0.00    -0.033 A 
HETATM    2  C8  UNL     1     -32.150  18.932  -6.623  1.00  0.00     0.019 A 
HETATM    3  C9  UNL     1     -31.290  18.576  -7.642  1.00  0.00    -0.028 A 
HETATM    4  C10 UNL     1     -31.387  19.104  -9.025  1.00  0.00     0.051 C 
HETATM    5  C11 UNL     1     -30.280  17.678  -7.345  1.00  0.00     0.078 A 
HETATM    6  C12 UNL     1     -30.110  17.141  -6.096  1.00  0.00    -0.021 A 
HETATM    7  C16 UNL     1     -30.993  17.523  -5.105  1.00  0.00     0.019 A 
ENDROOT
BRANCH   1   8
HETATM    8  C6  UNL     1     -32.964  18.847  -4.290  1.00  0.00     0.206 C 
BRANCH   8   9
HETATM    9  O1  UNL     1     -34.253  19.090  -4.642  1.00  0.00    -0.382 OA
BRANCH   9  10
HETATM   10  C4  UNL     1     -35.137  18.006  -4.518  1.00  0.00     0.117 C 
HETATM   11  C5  UNL     1     -34.846  17.367  -3.204  1.00  0.00     0.039 C 
BRANCH  10  12
HETATM   12  C3  UNL     1     -36.515  18.546  -4.638  1.00  0.00     0.031 C 
BRANCH  12  13
HETATM   13  C2  UNL     1     -37.546  17.795  -5.373  1.00  0.00    -0.002 C 
HETATM   14  C1  UNL     1     -38.261  18.561  -6.408  1.00  0.00     0.005 C 
ENDBRANCH  12  13
ENDBRANCH  10  12
ENDBRANCH   9  10
ENDBRANCH   8   9
ENDBRANCH   1   8
BRANCH   6  15
HETATM   15  C13 UNL     1     -29.045  16.211  -5.760  1.00  0.00     0.013 C 
HETATM   16  C14 UNL     1     -29.504  15.163  -4.741  1.00  0.00     0.015 C 
HETATM   17  C15 UNL     1     -27.799  16.846  -5.214  1.00  0.00     0.015 C 
ENDBRANCH   6  15
BRANCH   5  18
HETATM   18  O2  UNL     1     -29.417  17.309  -8.337  1.00  0.00    -0.360 OA
ATOM     19  H2  UNL     1     -28.514  17.121  -8.111  1.00  0.00     0.217 HD
ENDBRANCH   5  18
TORSDOF 7
ENDMDL
MODEL 4
REMARK VINA RESULT: -6.358944209      0.683      3.004
REMARK  7 active torsions:
REMARK  status: ('A' for Active; 'I' for Inactive)
REMARK    1  A    between atoms: C2_2  and  C3_3 
REMARK    2  A    between atoms: C3_3  and  C4_4 
REMARK    3  A    between atoms: C4_4  and  O1_6 
REMARK    4  A    between atoms: O1_6  and  C6_7 
REMARK    5  A    between atoms: C6_7  and  C7_8 
REMARK    6  A    between atoms: C11_12  and  O2_13 
REMARK    7  A    between atoms: C12_15  and  C13_16 
ROOT
HETATM    1  C7  UNL     1     -34.592  18.189  -7.776  1.00  0.00    -0.033 A 
HETATM    2  C8  UNL     1     -35.180  18.536  -6.578  1.00  0.00     0.019 A 
HETATM    3  C9  UNL     1     -34.444  18.895  -5.466  1.00  0.00    -0.028 A 
HETATM    4  C10 UNL     1     -35.048  19.270  -4.164  1.00  0.00     0.051 C 
HETATM    5  C11 UNL     1     -33.065  18.898  -5.582  1.00  0.00     0.078 A 
HETATM    6  C12 UNL     1     -32.419  18.562  -6.743  1.00  0.00    -0.021 A 
HETATM    7  C16 UNL     1     -33.193  18.211  -7.833  1.00  0.00     0.019 A 
ENDROOT
BRANCH   1   8
HETATM    8  C6  UNL     1     -35.414  17.801  -8.926  1.00  0.00     0.206 C 
BRANCH   8   9
HETATM    9  O1  UNL     1     -36.107  18.777  -9.567  1.00  0.00    -0.382 OA
BRANCH   9  10
HETATM   10  C4  UNL     1     -37.410  18.444  -9.968  1.00  0.00     0.117 C 
HETATM   11  C5  UNL     1     -37.300  17.872 -11.340  1.00  0.00     0.039 C 
BRANCH  10  12
HETATM   12  C3  UNL     1     -37.954  17.500  -8.959  1.00  0.00     0.031 C 
BRANCH  12  13
HETATM   13  C2  UNL     1     -39.061  17.909  -8.080  1.00  0.00    -0.002 C 
HETATM   14  C1  UNL     1     -38.748  19.004  -7.146  1.00  0.00     0.005 C 
ENDBRANCH  12  13
ENDBRANCH  10  12
ENDBRANCH   9  10
ENDBRANCH   8   9
ENDBRANCH   1   8
BRANCH   6  15
HETATM   15  C13 UNL     1     -30.972  18.542  -6.880  1.00  0.00     0.013 C 
HETATM   16  C14 UNL     1     -30.539  18.525  -8.349  1.00  0.00     0.015 C 
HETATM   17  C15 UNL     1     -30.289  17.390  -6.201  1.00  0.00     0.015 C 
ENDBRANCH   6  15
BRANCH   5  18
HETATM   18  O2  UNL     1     -32.316  19.250  -4.497  1.00  0.00    -0.360 OA
ATOM     19  H2  UNL     1     -31.371  19.176  -4.550  1.00  0.00     0.217 HD
ENDBRANCH   5  18
TORSDOF 7
ENDMDL
MODEL 5
REMARK VINA RESULT: -6.310684300      1.304      3.607
REMARK  7 active torsions:
REMARK  status: ('A' for Active; 'I' for Inactive)
REMARK    1  A    between atoms: C2_2  and  C3_3 
REMARK    2  A    between atoms: C3_3  and  C4_4 
REMARK    3  A    between atoms: C4_4  and  O1_6 
REMARK    4  A    between atoms: O1_6  and  C6_7 
REMARK    5  A    between atoms: C6_7  and  C7_8 
REMARK    6  A    between atoms: C11_12  and  O2_13 
REMARK    7  A    between atoms: C12_15  and  C13_16 
ROOT
HETATM    1  C7  UNL     1     -35.100  18.164  -6.196  1.00  0.00    -0.033 A 
HETATM    2  C8  UNL     1     -35.525  17.741  -4.955  1.00  0.00     0.019 A 
HETATM    3  C9  UNL     1     -34.651  17.484  -3.918  1.00  0.00    -0.028 A 
HETATM    4  C10 UNL     1     -35.078  17.026  -2.573  1.00  0.00     0.051 C 
HETATM    5  C11 UNL     1     -33.300  17.664  -4.157  1.00  0.00     0.078 A 
HETATM    6  C12 UNL     1     -32.812  18.082  -5.367  1.00  0.00    -0.021 A 
HETATM    7  C16 UNL     1     -33.720  18.329  -6.378  1.00  0.00     0.019 A 
ENDROOT
BRANCH   1   8
HETATM    8  C6  UNL     1     -36.064  18.410  -7.272  1.00  0.00     0.206 C 
BRANCH   8   9
HETATM    9  O1  UNL     1     -36.938  17.417  -7.578  1.00  0.00    -0.382 OA
BRANCH   9  10
HETATM   10  C4  UNL     1     -38.222  17.827  -7.969  1.00  0.00     0.117 C 
HETATM   11  C5  UNL     1     -38.872  18.405  -6.759  1.00  0.00     0.039 C 
BRANCH  10  12
HETATM   12  C3  UNL     1     -38.056  18.789  -9.087  1.00  0.00     0.031 C 
BRANCH  12  13
HETATM   13  C2  UNL     1     -38.137  18.328 -10.483  1.00  0.00    -0.002 C 
HETATM   14  C1  UNL     1     -36.840  18.077 -11.136  1.00  0.00     0.005 C 
ENDBRANCH  12  13
ENDBRANCH  10  12
ENDBRANCH   9  10
ENDBRANCH   8   9
ENDBRANCH   1   8
BRANCH   6  15
HETATM   15  C13 UNL     1     -31.396  18.260  -5.645  1.00  0.00     0.013 C 
HETATM   16  C14 UNL     1     -31.158  18.856  -7.036  1.00  0.00     0.015 C 
HETATM   17  C15 UNL     1     -30.571  17.009  -5.549  1.00  0.00     0.015 C 
ENDBRANCH   6  15
BRANCH   5  18
HETATM   18  O2  UNL     1     -32.416  17.419  -3.147  1.00  0.00    -0.360 OA
ATOM     19  H2  UNL     1     -32.516  16.625  -2.634  1.00  0.00     0.217 HD
ENDBRANCH   5  18
TORSDOF 7
ENDMDL
