MODEL 1
REMARK VINA RESULT: -8.613743412      0.000      0.000
REMARK  11 active torsions:
REMARK  status: ('A' for Active; 'I' for Inactive)
REMARK    1  A    between atoms: O1_2  and  C2_3 
REMARK    2  A    between atoms: C2_3  and  C3_5 
REMARK    3  A    between atoms: C3_5  and  C4_6 
REMARK    4  A    between atoms: C3_5  and  C10_20 
REMARK    5  A    between atoms: C4_6  and  N1_7 
REMARK    6  A    between atoms: N1_7  and  C5_9 
REMARK    7  A    between atoms: N3_17  and  O4_18 
REMARK    8  A    between atoms: C10_20  and  C11_21 
REMARK    9  A    between atoms: C11_21  and  C12_23 
REMARK   10  A    between atoms: C13_24  and  O6_25 
REMARK   11  A    between atoms: C14_29  and  N5_30 
ROOT
HETATM    1  C3  UNL     1      45.174  50.494   7.803  1.00  0.00     0.131 C 
ENDROOT
BRANCH   1   2
HETATM    2  C2  UNL     1      44.038  50.827   8.772  1.00  0.00     0.268 C 
HETATM    3  O2  UNL     1      43.966  50.152   9.803  1.00  0.00    -0.264 OA
BRANCH   2   4
HETATM    4  O1  UNL     1      43.141  51.829   8.513  1.00  0.00    -0.326 OA
HETATM    5  C1  UNL     1      42.563  52.643   9.522  1.00  0.00     0.213 C 
ENDBRANCH   2   4
ENDBRANCH   1   2
BRANCH   1   6
HETATM    6  C4  UNL     1      45.637  49.155   8.388  1.00  0.00     0.077 C 
BRANCH   6   7
HETATM    7  N1  UNL     1      44.979  48.009   7.976  1.00  0.00    -0.353 N 
ATOM      8  H1  UNL     1      44.217  48.156   7.314  1.00  0.00     0.166 HD
BRANCH   7   9
HETATM    9  C5  UNL     1      45.190  46.801   8.305  1.00  0.00     0.139 A 
HETATM   10  C6  UNL     1      46.475  46.384   8.692  1.00  0.00     0.075 A 
HETATM   11  C7  UNL     1      46.712  45.074   9.050  1.00  0.00     0.013 A 
HETATM   12  C8  UNL     1      48.060  44.605   9.463  1.00  0.00     0.068 C 
HETATM   13  N2  UNL     1      45.708  44.177   9.032  1.00  0.00    -0.311 N 
HETATM   14  C9  UNL     1      44.468  44.570   8.661  1.00  0.00     0.352 A 
ATOM     15  H2  UNL     1      45.881  43.208   9.297  1.00  0.00     0.170 HD
HETATM   16  O3  UNL     1      43.526  43.737   8.643  1.00  0.00    -0.244 OA
HETATM   17  N3  UNL     1      44.250  45.855   8.313  1.00  0.00    -0.155 N 
BRANCH  17  18
HETATM   18  O4  UNL     1      42.969  46.167   7.950  1.00  0.00    -0.277 OA
ATOM     19  H4  UNL     1      42.628  45.868   7.116  1.00  0.00     0.245 HD
ENDBRANCH  17  18
ENDBRANCH   7   9
ENDBRANCH   6   7
ENDBRANCH   1   6
BRANCH   1  20
HETATM   20  C10 UNL     1      44.583  50.393   6.436  1.00  0.00     0.104 C 
BRANCH  20  21
HETATM   21  C11 UNL     1      45.128  51.247   5.393  1.00  0.00     0.170 C 
HETATM   22  O5  UNL     1      46.335  51.670   5.457  1.00  0.00    -0.292 OA
BRANCH  21  23
HETATM   23  C12 UNL     1      44.389  51.687   4.220  1.00  0.00     0.129 A 
HETATM   24  C13 UNL     1      44.409  51.056   3.003  1.00  0.00     0.174 A 
HETATM   25  N4  UNL     1      43.697  51.540   1.940  1.00  0.00    -0.170 N 
HETATM   26  C14 UNL     1      42.954  52.652   2.062  1.00  0.00     0.680 A 
ATOM     27  H4  UNL     1      43.730  51.052   1.045  1.00  0.00     0.186 HD
HETATM   28  N6  UNL     1      42.905  53.295   3.224  1.00  0.00    -0.155 N 
HETATM   29  C15 UNL     1      43.605  52.828   4.282  1.00  0.00     0.277 A 
ATOM     30  H6  UNL     1      42.341  54.140   3.317  1.00  0.00     0.187 HD
HETATM   31  O7  UNL     1      43.528  53.465   5.349  1.00  0.00    -0.266 OA
BRANCH  24  32
HETATM   32  O6  UNL     1      45.161  49.911   2.850  1.00  0.00    -0.345 OA
ATOM     33  H6  UNL     1      45.841  49.887   2.188  1.00  0.00     0.219 HD
ENDBRANCH  24  32
BRANCH  26  34
HETATM   34  N5  UNL     1      42.300  53.067   1.029  1.00  0.00    -0.234 N 
ATOM     35  H52 UNL     1      42.185  52.486   0.199  1.00  0.00     0.174 HD
ATOM     36  H51 UNL     1      41.894  54.003   1.058  1.00  0.00     0.174 HD
ENDBRANCH  26  34
ENDBRANCH  21  23
ENDBRANCH  20  21
ENDBRANCH   1  20
TORSDOF 11
ENDMDL
MODEL 2
REMARK VINA RESULT: -8.568139849      0.491      1.684
REMARK  11 active torsions:
REMARK  status: ('A' for Active; 'I' for Inactive)
REMARK    1  A    between atoms: O1_2  and  C2_3 
REMARK    2  A    between atoms: C2_3  and  C3_5 
REMARK    3  A    between atoms: C3_5  and  C4_6 
REMARK    4  A    between atoms: C3_5  and  C10_20 
REMARK    5  A    between atoms: C4_6  and  N1_7 
REMARK    6  A    between atoms: N1_7  and  C5_9 
REMARK    7  A    between atoms: N3_17  and  O4_18 
REMARK    8  A    between atoms: C10_20  and  C11_21 
REMARK    9  A    between atoms: C11_21  and  C12_23 
REMARK   10  A    between atoms: C13_24  and  O6_25 
REMARK   11  A    between atoms: C14_29  and  N5_30 
ROOT
HETATM    1  C3  UNL     1      44.997  50.613   7.607  1.00  0.00     0.131 C 
ENDROOT
BRANCH   1   2
HETATM    2  C2  UNL     1      43.782  51.377   8.136  1.00  0.00     0.268 C 
HETATM    3  O2  UNL     1      43.078  51.954   7.302  1.00  0.00    -0.264 OA
BRANCH   2   4
HETATM    4  O1  UNL     1      43.485  51.422   9.472  1.00  0.00    -0.326 OA
HETATM    5  C1  UNL     1      42.671  52.425  10.061  1.00  0.00     0.213 C 
ENDBRANCH   2   4
ENDBRANCH   1   2
BRANCH   1   6
HETATM    6  C4  UNL     1      44.924  49.360   8.486  1.00  0.00     0.077 C 
BRANCH   6   7
HETATM    7  N1  UNL     1      44.662  48.151   7.865  1.00  0.00    -0.353 N 
ATOM      8  H1  UNL     1      44.131  48.212   6.996  1.00  0.00     0.166 HD
BRANCH   7   9
HETATM    9  C5  UNL     1      44.988  46.978   8.223  1.00  0.00     0.139 A 
HETATM   10  C6  UNL     1      46.310  46.693   8.607  1.00  0.00     0.075 A 
HETATM   11  C7  UNL     1      46.671  45.421   8.998  1.00  0.00     0.013 A 
HETATM   12  C8  UNL     1      48.060  45.093   9.408  1.00  0.00     0.068 C 
HETATM   13  N2  UNL     1      45.755  44.435   9.015  1.00  0.00    -0.311 N 
HETATM   14  C9  UNL     1      44.481  44.700   8.647  1.00  0.00     0.352 A 
ATOM     15  H2  UNL     1      46.021  43.494   9.303  1.00  0.00     0.170 HD
HETATM   16  O3  UNL     1      43.622  43.781   8.661  1.00  0.00    -0.244 OA
HETATM   17  N3  UNL     1      44.141  45.948   8.267  1.00  0.00    -0.155 N 
BRANCH  17  18
HETATM   18  O4  UNL     1      42.833  46.129   7.910  1.00  0.00    -0.277 OA
ATOM     19  H4  UNL     1      42.209  45.423   8.029  1.00  0.00     0.245 HD
ENDBRANCH  17  18
ENDBRANCH   7   9
ENDBRANCH   6   7
ENDBRANCH   1   6
BRANCH   1  20
HETATM   20  C10 UNL     1      44.769  50.357   6.155  1.00  0.00     0.104 C 
BRANCH  20  21
HETATM   21  C11 UNL     1      45.242  51.351   5.204  1.00  0.00     0.170 C 
HETATM   22  O5  UNL     1      46.397  51.888   5.339  1.00  0.00    -0.292 OA
BRANCH  21  23
HETATM   23  C12 UNL     1      44.484  51.816   4.053  1.00  0.00     0.129 A 
HETATM   24  C13 UNL     1      43.763  52.982   4.015  1.00  0.00     0.174 A 
HETATM   25  N4  UNL     1      43.061  53.345   2.898  1.00  0.00    -0.170 N 
HETATM   26  C14 UNL     1      43.060  52.566   1.805  1.00  0.00     0.680 A 
ATOM     27  H4  UNL     1      42.533  54.218   2.896  1.00  0.00     0.186 HD
HETATM   28  N6  UNL     1      43.746  51.428   1.799  1.00  0.00    -0.155 N 
HETATM   29  C15 UNL     1      44.443  51.056   2.896  1.00  0.00     0.277 A 
ATOM     30  H6  UNL     1      43.745  50.835   0.968  1.00  0.00     0.187 HD
HETATM   31  O7  UNL     1      45.069  49.982   2.842  1.00  0.00    -0.266 OA
BRANCH  24  32
HETATM   32  O6  UNL     1      43.748  53.802   5.122  1.00  0.00    -0.345 OA
ATOM     33  H6  UNL     1      44.549  53.929   5.617  1.00  0.00     0.219 HD
ENDBRANCH  24  32
BRANCH  26  34
HETATM   34  N5  UNL     1      42.382  52.955   0.777  1.00  0.00    -0.234 N 
ATOM     35  H52 UNL     1      42.432  53.914   0.433  1.00  0.00     0.174 HD
ATOM     36  H51 UNL     1      41.785  52.274   0.307  1.00  0.00     0.174 HD
ENDBRANCH  26  34
ENDBRANCH  21  23
ENDBRANCH  20  21
ENDBRANCH   1  20
TORSDOF 11
ENDMDL
MODEL 3
REMARK VINA RESULT: -8.438515213      1.253      1.481
REMARK  11 active torsions:
REMARK  status: ('A' for Active; 'I' for Inactive)
REMARK    1  A    between atoms: O1_2  and  C2_3 
REMARK    2  A    between atoms: C2_3  and  C3_5 
REMARK    3  A    between atoms: C3_5  and  C4_6 
REMARK    4  A    between atoms: C3_5  and  C10_20 
REMARK    5  A    between atoms: C4_6  and  N1_7 
REMARK    6  A    between atoms: N1_7  and  C5_9 
REMARK    7  A    between atoms: N3_17  and  O4_18 
REMARK    8  A    between atoms: C10_20  and  C11_21 
REMARK    9  A    between atoms: C11_21  and  C12_23 
REMARK   10  A    between atoms: C13_24  and  O6_25 
REMARK   11  A    between atoms: C14_29  and  N5_30 
ROOT
HETATM    1  C3  UNL     1      44.311  51.766   7.818  1.00  0.00     0.131 C 
ENDROOT
BRANCH   1   2
HETATM    2  C2  UNL     1      43.483  51.649   9.098  1.00  0.00     0.268 C 
HETATM    3  O2  UNL     1      43.838  50.798   9.918  1.00  0.00    -0.264 OA
BRANCH   2   4
HETATM    4  O1  UNL     1      42.396  52.450   9.328  1.00  0.00    -0.326 OA
HETATM    5  C1  UNL     1      42.291  53.328  10.439  1.00  0.00     0.213 C 
ENDBRANCH   2   4
ENDBRANCH   1   2
BRANCH   1   6
HETATM    6  C4  UNL     1      45.058  50.428   7.863  1.00  0.00     0.077 C 
BRANCH   6   7
HETATM    7  N1  UNL     1      44.326  49.273   7.651  1.00  0.00    -0.353 N 
ATOM      8  H1  UNL     1      43.418  49.406   7.204  1.00  0.00     0.166 HD
BRANCH   7   9
HETATM    9  C5  UNL     1      44.623  48.072   7.935  1.00  0.00     0.139 A 
HETATM   10  C6  UNL     1      45.960  47.708   8.173  1.00  0.00     0.075 A 
HETATM   11  C7  UNL     1      46.290  46.406   8.482  1.00  0.00     0.013 A 
HETATM   12  C8  UNL     1      47.694  45.993   8.738  1.00  0.00     0.068 C 
HETATM   13  N2  UNL     1      45.329  45.465   8.558  1.00  0.00    -0.311 N 
HETATM   14  C9  UNL     1      44.041  45.807   8.330  1.00  0.00     0.352 A 
ATOM     15  H2  UNL     1      45.573  44.502   8.786  1.00  0.00     0.170 HD
HETATM   16  O3  UNL     1      43.140  44.932   8.400  1.00  0.00    -0.244 OA
HETATM   17  N3  UNL     1      43.731  47.085   8.029  1.00  0.00    -0.155 N 
BRANCH  17  18
HETATM   18  O4  UNL     1      42.406  47.344   7.812  1.00  0.00    -0.277 OA
ATOM     19  H4  UNL     1      41.745  46.833   8.264  1.00  0.00     0.245 HD
ENDBRANCH  17  18
ENDBRANCH   7   9
ENDBRANCH   6   7
ENDBRANCH   1   6
BRANCH   1  20
HETATM   20  C10 UNL     1      43.359  51.898   6.676  1.00  0.00     0.104 C 
BRANCH  20  21
HETATM   21  C11 UNL     1      43.769  52.700   5.535  1.00  0.00     0.170 C 
HETATM   22  O5  UNL     1      44.508  53.734   5.693  1.00  0.00    -0.292 OA
BRANCH  21  23
HETATM   23  C12 UNL     1      43.394  52.423   4.157  1.00  0.00     0.129 A 
HETATM   24  C13 UNL     1      44.098  51.609   3.307  1.00  0.00     0.174 A 
HETATM   25  N4  UNL     1      43.690  51.408   2.017  1.00  0.00    -0.170 N 
HETATM   26  C14 UNL     1      42.583  52.005   1.547  1.00  0.00     0.680 A 
ATOM     27  H4  UNL     1      44.233  50.798   1.405  1.00  0.00     0.186 HD
HETATM   28  N6  UNL     1      41.871  52.801   2.336  1.00  0.00    -0.155 N 
HETATM   29  C15 UNL     1      42.263  53.009   3.613  1.00  0.00     0.277 A 
ATOM     30  H6  UNL     1      41.030  53.254   1.980  1.00  0.00     0.187 HD
HETATM   31  O7  UNL     1      41.563  53.763   4.314  1.00  0.00    -0.266 OA
BRANCH  24  32
HETATM   32  O6  UNL     1      45.237  50.982   3.764  1.00  0.00    -0.345 OA
ATOM     33  H6  UNL     1      45.258  50.033   3.810  1.00  0.00     0.219 HD
ENDBRANCH  24  32
BRANCH  26  34
HETATM   34  N5  UNL     1      42.242  51.781   0.321  1.00  0.00    -0.234 N 
ATOM     35  H52 UNL     1      42.923  51.799  -0.437  1.00  0.00     0.174 HD
ATOM     36  H51 UNL     1      41.261  51.582   0.123  1.00  0.00     0.174 HD
ENDBRANCH  26  34
ENDBRANCH  21  23
ENDBRANCH  20  21
ENDBRANCH   1  20
TORSDOF 11
ENDMDL
MODEL 4
REMARK VINA RESULT: -8.353697819      1.995      2.841
REMARK  11 active torsions:
REMARK  status: ('A' for Active; 'I' for Inactive)
REMARK    1  A    between atoms: O1_2  and  C2_3 
REMARK    2  A    between atoms: C2_3  and  C3_5 
REMARK    3  A    between atoms: C3_5  and  C4_6 
REMARK    4  A    between atoms: C3_5  and  C10_20 
REMARK    5  A    between atoms: C4_6  and  N1_7 
REMARK    6  A    between atoms: N1_7  and  C5_9 
REMARK    7  A    between atoms: N3_17  and  O4_18 
REMARK    8  A    between atoms: C10_20  and  C11_21 
REMARK    9  A    between atoms: C11_21  and  C12_23 
REMARK   10  A    between atoms: C13_24  and  O6_25 
REMARK   11  A    between atoms: C14_29  and  N5_30 
ROOT
HETATM    1  C3  UNL     1      45.119  51.648   6.335  1.00  0.00     0.131 C 
ENDROOT
BRANCH   1   2
HETATM    2  C2  UNL     1      43.796  51.836   7.080  1.00  0.00     0.268 C 
HETATM    3  O2  UNL     1      42.761  51.604   6.450  1.00  0.00    -0.264 OA
BRANCH   2   4
HETATM    4  O1  UNL     1      43.758  52.241   8.388  1.00  0.00    -0.326 OA
HETATM    5  C1  UNL     1      42.553  52.504   9.092  1.00  0.00     0.213 C 
ENDBRANCH   2   4
ENDBRANCH   1   2
BRANCH   1   6
HETATM    6  C4  UNL     1      45.763  50.565   7.208  1.00  0.00     0.077 C 
BRANCH   6   7
HETATM    7  N1  UNL     1      44.955  49.538   7.664  1.00  0.00    -0.353 N 
ATOM      8  H1  UNL     1      44.041  49.469   7.216  1.00  0.00     0.166 HD
BRANCH   7   9
HETATM    9  C5  UNL     1      45.190  48.670   8.560  1.00  0.00     0.139 A 
HETATM   10  C6  UNL     1      46.013  47.566   8.281  1.00  0.00     0.075 A 
HETATM   11  C7  UNL     1      46.272  46.619   9.249  1.00  0.00     0.013 A 
HETATM   12  C8  UNL     1      47.138  45.441   8.981  1.00  0.00     0.068 C 
HETATM   13  N2  UNL     1      45.737  46.745  10.477  1.00  0.00    -0.311 N 
HETATM   14  C9  UNL     1      44.944  47.805  10.754  1.00  0.00     0.352 A 
ATOM     15  H2  UNL     1      45.928  46.045  11.194  1.00  0.00     0.170 HD
HETATM   16  O3  UNL     1      44.441  47.927  11.901  1.00  0.00    -0.244 OA
HETATM   17  N3  UNL     1      44.698  48.724   9.799  1.00  0.00    -0.155 N 
BRANCH  17  18
HETATM   18  O4  UNL     1      43.886  49.763  10.162  1.00  0.00    -0.277 OA
ATOM     19  H4  UNL     1      43.040  49.869   9.743  1.00  0.00     0.245 HD
ENDBRANCH  17  18
ENDBRANCH   7   9
ENDBRANCH   6   7
ENDBRANCH   1   6
BRANCH   1  20
HETATM   20  C10 UNL     1      44.794  51.203   4.948  1.00  0.00     0.104 C 
BRANCH  20  21
HETATM   21  C11 UNL     1      44.579  52.225   3.936  1.00  0.00     0.170 C 
HETATM   22  O5  UNL     1      45.485  53.092   3.679  1.00  0.00    -0.292 OA
BRANCH  21  23
HETATM   23  C12 UNL     1      43.364  52.359   3.147  1.00  0.00     0.129 A 
HETATM   24  C13 UNL     1      42.324  53.198   3.456  1.00  0.00     0.174 A 
HETATM   25  N4  UNL     1      41.205  53.259   2.671  1.00  0.00    -0.170 N 
HETATM   26  C14 UNL     1      41.096  52.496   1.572  1.00  0.00     0.680 A 
ATOM     27  H4  UNL     1      40.445  53.891   2.923  1.00  0.00     0.186 HD
HETATM   28  N6  UNL     1      42.081  51.669   1.236  1.00  0.00    -0.155 N 
HETATM   29  C15 UNL     1      43.192  51.599   2.003  1.00  0.00     0.277 A 
ATOM     30  H6  UNL     1      41.998  51.089   0.401  1.00  0.00     0.187 HD
HETATM   31  O7  UNL     1      44.086  50.810   1.647  1.00  0.00    -0.266 OA
BRANCH  24  32
HETATM   32  O6  UNL     1      42.410  53.995   4.577  1.00  0.00    -0.345 OA
ATOM     33  H6  UNL     1      42.548  54.929   4.473  1.00  0.00     0.219 HD
ENDBRANCH  24  32
BRANCH  26  34
HETATM   34  N5  UNL     1      40.019  52.591   0.865  1.00  0.00    -0.234 N 
ATOM     35  H52 UNL     1      39.996  52.317  -0.117  1.00  0.00     0.174 HD
ATOM     36  H51 UNL     1      39.178  52.952   1.315  1.00  0.00     0.174 HD
ENDBRANCH  26  34
ENDBRANCH  21  23
ENDBRANCH  20  21
ENDBRANCH   1  20
TORSDOF 11
ENDMDL
MODEL 5
REMARK VINA RESULT: -8.352414513      2.021      2.447
REMARK  11 active torsions:
REMARK  status: ('A' for Active; 'I' for Inactive)
REMARK    1  A    between atoms: O1_2  and  C2_3 
REMARK    2  A    between atoms: C2_3  and  C3_5 
REMARK    3  A    between atoms: C3_5  and  C4_6 
REMARK    4  A    between atoms: C3_5  and  C10_20 
REMARK    5  A    between atoms: C4_6  and  N1_7 
REMARK    6  A    between atoms: N1_7  and  C5_9 
REMARK    7  A    between atoms: N3_17  and  O4_18 
REMARK    8  A    between atoms: C10_20  and  C11_21 
REMARK    9  A    between atoms: C11_21  and  C12_23 
REMARK   10  A    between atoms: C13_24  and  O6_25 
REMARK   11  A    between atoms: C14_29  and  N5_30 
ROOT
HETATM    1  C3  UNL     1      44.970  51.620   6.264  1.00  0.00     0.131 C 
ENDROOT
BRANCH   1   2
HETATM    2  C2  UNL     1      43.701  51.794   7.099  1.00  0.00     0.268 C 
HETATM    3  O2  UNL     1      42.628  51.533   6.547  1.00  0.00    -0.264 OA
BRANCH   2   4
HETATM    4  O1  UNL     1      43.747  52.219   8.400  1.00  0.00    -0.326 OA
HETATM    5  C1  UNL     1      42.593  52.551   9.157  1.00  0.00     0.213 C 
ENDBRANCH   2   4
ENDBRANCH   1   2
BRANCH   1   6
HETATM    6  C4  UNL     1      45.691  50.554   7.097  1.00  0.00     0.077 C 
BRANCH   6   7
HETATM    7  N1  UNL     1      44.940  49.496   7.579  1.00  0.00    -0.353 N 
ATOM      8  H1  UNL     1      44.021  49.381   7.152  1.00  0.00     0.166 HD
BRANCH   7   9
HETATM    9  C5  UNL     1      45.233  48.649   8.478  1.00  0.00     0.139 A 
HETATM   10  C6  UNL     1      46.111  47.588   8.196  1.00  0.00     0.075 A 
HETATM   11  C7  UNL     1      46.433  46.664   9.167  1.00  0.00     0.013 A 
HETATM   12  C8  UNL     1      47.358  45.533   8.896  1.00  0.00     0.068 C 
HETATM   13  N2  UNL     1      45.907  46.770  10.401  1.00  0.00    -0.311 N 
HETATM   14  C9  UNL     1      45.062  47.788  10.682  1.00  0.00     0.352 A 
ATOM     15  H2  UNL     1      46.145  46.088  11.120  1.00  0.00     0.170 HD
HETATM   16  O3  UNL     1      44.568  47.892  11.834  1.00  0.00    -0.244 OA
HETATM   17  N3  UNL     1      44.754  48.685   9.723  1.00  0.00    -0.155 N 
BRANCH  17  18
HETATM   18  O4  UNL     1      43.892  49.681  10.089  1.00  0.00    -0.277 OA
ATOM     19  H4  UNL     1      43.434  49.627  10.920  1.00  0.00     0.245 HD
ENDBRANCH  17  18
ENDBRANCH   7   9
ENDBRANCH   6   7
ENDBRANCH   1   6
BRANCH   1  20
HETATM   20  C10 UNL     1      44.556  51.159   4.906  1.00  0.00     0.104 C 
BRANCH  20  21
HETATM   21  C11 UNL     1      44.342  52.167   3.879  1.00  0.00     0.170 C 
HETATM   22  O5  UNL     1      45.244  53.039   3.620  1.00  0.00    -0.292 OA
BRANCH  21  23
HETATM   23  C12 UNL     1      43.134  52.281   3.077  1.00  0.00     0.129 A 
HETATM   24  C13 UNL     1      42.899  51.586   1.919  1.00  0.00     0.174 A 
HETATM   25  N4  UNL     1      41.741  51.759   1.210  1.00  0.00    -0.170 N 
HETATM   26  C14 UNL     1      40.801  52.618   1.633  1.00  0.00     0.680 A 
ATOM     27  H4  UNL     1      41.592  51.230   0.351  1.00  0.00     0.186 HD
HETATM   28  N6  UNL     1      40.987  53.312   2.751  1.00  0.00    -0.155 N 
HETATM   29  C15 UNL     1      42.127  53.151   3.460  1.00  0.00     0.277 A 
ATOM     30  H6  UNL     1      40.272  53.965   3.072  1.00  0.00     0.187 HD
HETATM   31  O7  UNL     1      42.256  53.823   4.500  1.00  0.00    -0.266 OA
BRANCH  24  32
HETATM   32  O6  UNL     1      43.847  50.696   1.463  1.00  0.00    -0.345 OA
ATOM     33  H6  UNL     1      43.565  49.899   1.029  1.00  0.00     0.219 HD
ENDBRANCH  24  32
BRANCH  26  34
HETATM   34  N5  UNL     1      39.726  52.744   0.928  1.00  0.00    -0.234 N 
ATOM     35  H52 UNL     1      39.747  52.707  -0.091  1.00  0.00     0.174 HD
ATOM     36  H51 UNL     1      38.842  52.883   1.416  1.00  0.00     0.174 HD
ENDBRANCH  26  34
ENDBRANCH  21  23
ENDBRANCH  20  21
ENDBRANCH   1  20
TORSDOF 11
ENDMDL
