MODEL 1
REMARK VINA RESULT: -8.434826209      0.000      0.000
REMARK  11 active torsions:
REMARK  status: ('A' for Active; 'I' for Inactive)
REMARK    1  A    between atoms: N1_1  and  C1_5 
REMARK    2  A    between atoms: C1_5  and  C2_6 
REMARK    3  A    between atoms: C2_6  and  C3_7 
REMARK    4  A    between atoms: C3_7  and  O1_8 
REMARK    5  A    between atoms: O1_8  and  N2_9 
REMARK    6  A    between atoms: N2_9  and  C4_11 
REMARK    7  A    between atoms: C4_11  and  C5_18 
REMARK    8  A    between atoms: N3_12  and  N4_14 
REMARK    9  A    between atoms: N4_14  and  O2_16 
REMARK   10  A    between atoms: C9_25  and  S1_26 
REMARK   11  A    between atoms: S1_26  and  N6_27 
ROOT
HETATM    1  C5  UNL     1      43.936  52.038   5.926  1.00  0.00     0.055 A 
HETATM    2  C6  UNL     1      43.490  52.198   7.207  1.00  0.00     0.042 A 
HETATM    3  C7  UNL     1      43.813  51.248   8.112  1.00  0.00     0.067 A 
HETATM    4  C8  UNL     1      43.464  51.205   9.477  1.00  0.00     0.260 A 
HETATM    5  O3  UNL     1      42.777  52.098  10.025  1.00  0.00    -0.267 OA
HETATM    6  N5  UNL     1      43.868  50.193  10.220  1.00  0.00    -0.298 N 
ATOM      7  H5  UNL     1      43.594  50.198  11.203  1.00  0.00     0.171 HD
HETATM    8  C9  UNL     1      44.607  49.157   9.796  1.00  0.00     0.227 A 
HETATM    9  N7  UNL     1      44.955  49.168   8.503  1.00  0.00    -0.325 N 
ATOM     10  H7  UNL     1      45.517  48.407   8.124  1.00  0.00     0.169 HD
HETATM   11  C10 UNL     1      44.562  50.195   7.686  1.00  0.00     0.092 A 
HETATM   12  S2  UNL     1      44.801  50.555   6.023  1.00  0.00    -0.068 SA
ENDROOT
BRANCH   1  13
HETATM   13  C4  UNL     1      43.753  52.864   4.737  1.00  0.00     0.158 C 
HETATM   14  N3  UNL     1      44.741  53.137   3.979  1.00  0.00    -0.263 N 
ATOM     15  H3  UNL     1      44.573  53.710   3.151  1.00  0.00     0.190 HD
BRANCH  13  16
HETATM   16  N2  UNL     1      42.454  53.344   4.440  1.00  0.00    -0.248 N 
ATOM     17  H2  UNL     1      42.099  54.177   4.910  1.00  0.00     0.196 HD
BRANCH  16  18
HETATM   18  O1  UNL     1      41.694  52.713   3.551  1.00  0.00    -0.279 OA
BRANCH  18  19
HETATM   19  C3  UNL     1      41.015  53.556   2.695  1.00  0.00     0.203 C 
BRANCH  19  20
HETATM   20  C2  UNL     1      41.044  53.069   1.268  1.00  0.00     0.056 C 
BRANCH  20  21
HETATM   21  C1  UNL     1      42.431  52.616   0.861  1.00  0.00     0.231 C 
BRANCH  21  22
HETATM   22  N1  UNL     1      42.675  51.245   1.215  1.00  0.00    -0.079 N 
ATOM     23  H13 UNL     1      41.893  50.854   1.740  1.00  0.00     0.274 HD
ATOM     24  H12 UNL     1      42.639  50.639   0.394  1.00  0.00     0.274 HD
ATOM     25  H11 UNL     1      43.554  51.132   1.720  1.00  0.00     0.274 HD
ENDBRANCH  21  22
ENDBRANCH  20  21
ENDBRANCH  19  20
ENDBRANCH  18  19
ENDBRANCH  16  18
ENDBRANCH  13  16
BRANCH  14  26
HETATM   26  N4  UNL     1      46.030  52.696   4.222  1.00  0.00    -0.208 N 
ATOM     27  H4  UNL     1      46.160  51.701   4.405  1.00  0.00     0.215 HD
BRANCH  26  28
HETATM   28  O2  UNL     1      47.036  53.413   4.235  1.00  0.00    -0.274 OA
ATOM     29  H2  UNL     1      47.844  53.213   4.694  1.00  0.00     0.246 HD
ENDBRANCH  26  28
ENDBRANCH  14  26
ENDBRANCH   1  13
BRANCH   8  30
HETATM   30  S1  UNL     1      45.098  47.866  10.833  1.00  0.00     0.289 S 
HETATM   31  O4  UNL     1      46.549  47.892  11.165  1.00  0.00    -0.198 OA
HETATM   32  O5  UNL     1      44.802  46.546  10.170  1.00  0.00    -0.198 OA
BRANCH  30  33
HETATM   33  N6  UNL     1      44.114  47.924  12.265  1.00  0.00    -0.322 N 
ATOM     34  H62 UNL     1      43.872  48.772  12.778  1.00  0.00     0.169 HD
ATOM     35  H61 UNL     1      43.830  46.971  12.490  1.00  0.00     0.169 HD
ENDBRANCH  30  33
ENDBRANCH   8  30
TORSDOF 11
ENDMDL
MODEL 2
REMARK VINA RESULT: -8.195538291      2.980      8.194
REMARK  11 active torsions:
REMARK  status: ('A' for Active; 'I' for Inactive)
REMARK    1  A    between atoms: N1_1  and  C1_5 
REMARK    2  A    between atoms: C1_5  and  C2_6 
REMARK    3  A    between atoms: C2_6  and  C3_7 
REMARK    4  A    between atoms: C3_7  and  O1_8 
REMARK    5  A    between atoms: O1_8  and  N2_9 
REMARK    6  A    between atoms: N2_9  and  C4_11 
REMARK    7  A    between atoms: C4_11  and  C5_18 
REMARK    8  A    between atoms: N3_12  and  N4_14 
REMARK    9  A    between atoms: N4_14  and  O2_16 
REMARK   10  A    between atoms: C9_25  and  S1_26 
REMARK   11  A    between atoms: S1_26  and  N6_27 
ROOT
HETATM    1  C5  UNL     1      43.416  52.129   8.079  1.00  0.00     0.055 A 
HETATM    2  C6  UNL     1      44.428  52.353   7.191  1.00  0.00     0.042 A 
HETATM    3  C7  UNL     1      44.102  52.514   5.890  1.00  0.00     0.067 A 
HETATM    4  C8  UNL     1      44.973  52.751   4.806  1.00  0.00     0.260 A 
HETATM    5  O3  UNL     1      46.215  52.843   4.948  1.00  0.00    -0.267 OA
HETATM    6  N5  UNL     1      44.479  52.884   3.591  1.00  0.00    -0.298 N 
ATOM      7  H5  UNL     1      45.142  53.054   2.835  1.00  0.00     0.171 HD
HETATM    8  C9  UNL     1      43.181  52.814   3.262  1.00  0.00     0.227 A 
HETATM    9  N7  UNL     1      42.327  52.589   4.269  1.00  0.00    -0.325 N 
ATOM     10  H7  UNL     1      41.327  52.526   4.079  1.00  0.00     0.169 HD
HETATM   11  C10 UNL     1      42.786  52.443   5.551  1.00  0.00     0.092 A 
HETATM   12  S2  UNL     1      42.027  52.152   7.065  1.00  0.00    -0.068 SA
ENDROOT
BRANCH   1  13
HETATM   13  C4  UNL     1      43.437  51.909   9.522  1.00  0.00     0.158 C 
HETATM   14  N3  UNL     1      43.670  50.749   9.998  1.00  0.00    -0.263 N 
ATOM     15  H3  UNL     1      43.686  50.635  11.011  1.00  0.00     0.190 HD
BRANCH  13  16
HETATM   16  N2  UNL     1      43.203  53.013  10.378  1.00  0.00    -0.248 N 
ATOM     17  H2  UNL     1      43.950  53.354  10.984  1.00  0.00     0.196 HD
BRANCH  16  18
HETATM   18  O1  UNL     1      42.014  53.607  10.395  1.00  0.00    -0.279 OA
BRANCH  18  19
HETATM   19  C3  UNL     1      41.893  54.591  11.354  1.00  0.00     0.203 C 
BRANCH  19  20
HETATM   20  C2  UNL     1      42.207  54.084  12.739  1.00  0.00     0.056 C 
BRANCH  20  21
HETATM   21  C1  UNL     1      41.220  54.611  13.761  1.00  0.00     0.231 C 
BRANCH  21  22
HETATM   22  N1  UNL     1      41.070  56.037  13.680  1.00  0.00    -0.079 N 
ATOM     23  H13 UNL     1      40.841  56.438  14.590  1.00  0.00     0.274 HD
ATOM     24  H12 UNL     1      41.969  56.496  13.524  1.00  0.00     0.274 HD
ATOM     25  H11 UNL     1      40.387  56.309  12.973  1.00  0.00     0.274 HD
ENDBRANCH  21  22
ENDBRANCH  20  21
ENDBRANCH  19  20
ENDBRANCH  18  19
ENDBRANCH  16  18
ENDBRANCH  13  16
BRANCH  14  26
HETATM   26  N4  UNL     1      43.904  49.637   9.208  1.00  0.00    -0.208 N 
ATOM     27  H4  UNL     1      44.133  49.797   8.227  1.00  0.00     0.215 HD
BRANCH  26  28
HETATM   28  O2  UNL     1      43.857  48.465   9.597  1.00  0.00    -0.274 OA
ATOM     29  H2  UNL     1      44.605  47.884   9.673  1.00  0.00     0.246 HD
ENDBRANCH  26  28
ENDBRANCH  14  26
ENDBRANCH   1  13
BRANCH   8  30
HETATM   30  S1  UNL     1      42.610  52.998   1.643  1.00  0.00     0.289 S 
HETATM   31  O4  UNL     1      43.406  53.969   0.841  1.00  0.00    -0.198 OA
HETATM   32  O5  UNL     1      41.182  53.481   1.663  1.00  0.00    -0.198 OA
BRANCH  30  33
HETATM   33  N6  UNL     1      42.583  51.427   0.901  1.00  0.00    -0.322 N 
ATOM     34  H62 UNL     1      42.921  51.213  -0.037  1.00  0.00     0.169 HD
ATOM     35  H61 UNL     1      42.175  50.772   1.568  1.00  0.00     0.169 HD
ENDBRANCH  30  33
ENDBRANCH   8  30
TORSDOF 11
ENDMDL
MODEL 3
REMARK VINA RESULT: -8.139484814      1.373      1.438
REMARK  11 active torsions:
REMARK  status: ('A' for Active; 'I' for Inactive)
REMARK    1  A    between atoms: N1_1  and  C1_5 
REMARK    2  A    between atoms: C1_5  and  C2_6 
REMARK    3  A    between atoms: C2_6  and  C3_7 
REMARK    4  A    between atoms: C3_7  and  O1_8 
REMARK    5  A    between atoms: O1_8  and  N2_9 
REMARK    6  A    between atoms: N2_9  and  C4_11 
REMARK    7  A    between atoms: C4_11  and  C5_18 
REMARK    8  A    between atoms: N3_12  and  N4_14 
REMARK    9  A    between atoms: N4_14  and  O2_16 
REMARK   10  A    between atoms: C9_25  and  S1_26 
REMARK   11  A    between atoms: S1_26  and  N6_27 
ROOT
HETATM    1  C5  UNL     1      44.042  51.725   6.039  1.00  0.00     0.055 A 
HETATM    2  C6  UNL     1      43.850  51.589   7.384  1.00  0.00     0.042 A 
HETATM    3  C7  UNL     1      44.292  50.457   7.973  1.00  0.00     0.067 A 
HETATM    4  C8  UNL     1      44.201  50.103   9.335  1.00  0.00     0.260 A 
HETATM    5  O3  UNL     1      43.669  50.848  10.191  1.00  0.00    -0.267 OA
HETATM    6  N5  UNL     1      44.689  48.947   9.741  1.00  0.00    -0.298 N 
ATOM      7  H5  UNL     1      44.604  48.728  10.734  1.00  0.00     0.171 HD
HETATM    8  C9  UNL     1      45.289  48.034   8.963  1.00  0.00     0.227 A 
HETATM    9  N7  UNL     1      45.391  48.340   7.663  1.00  0.00    -0.325 N 
ATOM     10  H7  UNL     1      45.838  47.685   7.022  1.00  0.00     0.169 HD
HETATM   11  C10 UNL     1      44.900  49.528   7.187  1.00  0.00     0.092 A 
HETATM   12  S2  UNL     1      44.842  50.258   5.633  1.00  0.00    -0.068 SA
ENDROOT
BRANCH   1  13
HETATM   13  C4  UNL     1      43.678  52.801   5.122  1.00  0.00     0.158 C 
HETATM   14  N3  UNL     1      44.578  53.539   4.599  1.00  0.00    -0.263 N 
ATOM     15  H3  UNL     1      44.286  54.275   3.956  1.00  0.00     0.190 HD
BRANCH  13  16
HETATM   16  N2  UNL     1      42.308  53.000   4.821  1.00  0.00    -0.248 N 
ATOM     17  H2  UNL     1      41.687  53.404   5.521  1.00  0.00     0.196 HD
BRANCH  16  18
HETATM   18  O1  UNL     1      41.829  52.661   3.628  1.00  0.00    -0.279 OA
BRANCH  18  19
HETATM   19  C3  UNL     1      41.214  53.697   2.957  1.00  0.00     0.203 C 
BRANCH  19  20
HETATM   20  C2  UNL     1      41.600  53.746   1.500  1.00  0.00     0.056 C 
BRANCH  20  21
HETATM   21  C1  UNL     1      42.782  52.845   1.206  1.00  0.00     0.231 C 
BRANCH  21  22
HETATM   22  N1  UNL     1      42.397  51.463   1.125  1.00  0.00    -0.079 N 
ATOM     23  H13 UNL     1      42.721  50.940   1.940  1.00  0.00     0.274 HD
ATOM     24  H12 UNL     1      41.391  51.350   1.251  1.00  0.00     0.274 HD
ATOM     25  H11 UNL     1      42.714  51.029   0.258  1.00  0.00     0.274 HD
ENDBRANCH  21  22
ENDBRANCH  20  21
ENDBRANCH  19  20
ENDBRANCH  18  19
ENDBRANCH  16  18
ENDBRANCH  13  16
BRANCH  14  26
HETATM   26  N4  UNL     1      45.928  53.390   4.859  1.00  0.00    -0.208 N 
ATOM     27  H4  UNL     1      46.293  52.439   4.919  1.00  0.00     0.215 HD
BRANCH  26  28
HETATM   28  O2  UNL     1      46.727  54.318   5.023  1.00  0.00    -0.274 OA
ATOM     29  H2  UNL     1      47.674  54.238   4.985  1.00  0.00     0.246 HD
ENDBRANCH  26  28
ENDBRANCH  14  26
ENDBRANCH   1  13
BRANCH   8  30
HETATM   30  S1  UNL     1      45.905  46.539   9.570  1.00  0.00     0.289 S 
HETATM   31  O4  UNL     1      46.085  46.530  11.048  1.00  0.00    -0.198 OA
HETATM   32  O5  UNL     1      47.245  46.253   8.942  1.00  0.00    -0.198 OA
BRANCH  30  33
HETATM   33  N6  UNL     1      44.840  45.269   9.048  1.00  0.00    -0.322 N 
ATOM     34  H62 UNL     1      43.869  45.396   8.763  1.00  0.00     0.169 HD
ATOM     35  H61 UNL     1      45.359  44.392   9.078  1.00  0.00     0.169 HD
ENDBRANCH  30  33
ENDBRANCH   8  30
TORSDOF 11
ENDMDL
MODEL 4
REMARK VINA RESULT: -8.030534694      2.387      7.968
REMARK  11 active torsions:
REMARK  status: ('A' for Active; 'I' for Inactive)
REMARK    1  A    between atoms: N1_1  and  C1_5 
REMARK    2  A    between atoms: C1_5  and  C2_6 
REMARK    3  A    between atoms: C2_6  and  C3_7 
REMARK    4  A    between atoms: C3_7  and  O1_8 
REMARK    5  A    between atoms: O1_8  and  N2_9 
REMARK    6  A    between atoms: N2_9  and  C4_11 
REMARK    7  A    between atoms: C4_11  and  C5_18 
REMARK    8  A    between atoms: N3_12  and  N4_14 
REMARK    9  A    between atoms: N4_14  and  O2_16 
REMARK   10  A    between atoms: C9_25  and  S1_26 
REMARK   11  A    between atoms: S1_26  and  N6_27 
ROOT
HETATM    1  C5  UNL     1      43.893  51.486   7.505  1.00  0.00     0.055 A 
HETATM    2  C6  UNL     1      44.699  51.859   6.467  1.00  0.00     0.042 A 
HETATM    3  C7  UNL     1      44.108  52.292   5.333  1.00  0.00     0.067 A 
HETATM    4  C8  UNL     1      44.735  52.722   4.145  1.00  0.00     0.260 A 
HETATM    5  O3  UNL     1      45.980  52.748   4.012  1.00  0.00    -0.267 OA
HETATM    6  N5  UNL     1      43.997  53.115   3.125  1.00  0.00    -0.298 N 
ATOM      7  H5  UNL     1      44.488  53.418   2.284  1.00  0.00     0.171 HD
HETATM    8  C9  UNL     1      42.657  53.150   3.097  1.00  0.00     0.227 A 
HETATM    9  N7  UNL     1      42.030  52.748   4.210  1.00  0.00    -0.325 N 
ATOM     10  H7  UNL     1      41.011  52.754   4.248  1.00  0.00     0.169 HD
HETATM   11  C10 UNL     1      42.749  52.330   5.300  1.00  0.00     0.092 A 
HETATM   12  S2  UNL     1      42.321  51.756   6.862  1.00  0.00    -0.068 SA
ENDROOT
BRANCH   1  13
HETATM   13  C4  UNL     1      44.215  50.975   8.834  1.00  0.00     0.158 C 
HETATM   14  N3  UNL     1      43.802  51.577   9.878  1.00  0.00    -0.263 N 
ATOM     15  H3  UNL     1      44.039  51.185  10.790  1.00  0.00     0.190 HD
BRANCH  13  16
HETATM   16  N2  UNL     1      44.987  49.791   8.934  1.00  0.00    -0.248 N 
ATOM     17  H2  UNL     1      45.745  49.734   9.614  1.00  0.00     0.196 HD
BRANCH  16  18
HETATM   18  O1  UNL     1      44.728  48.754   8.144  1.00  0.00    -0.279 OA
BRANCH  18  19
HETATM   19  C3  UNL     1      44.044  47.731   8.768  1.00  0.00     0.203 C 
BRANCH  19  20
HETATM   20  C2  UNL     1      44.679  46.385   8.527  1.00  0.00     0.056 C 
BRANCH  20  21
HETATM   21  C1  UNL     1      46.041  46.287   9.182  1.00  0.00     0.231 C 
BRANCH  21  22
HETATM   22  N1  UNL     1      47.078  46.836   8.352  1.00  0.00    -0.079 N 
ATOM     23  H13 UNL     1      47.644  46.099   7.931  1.00  0.00     0.274 HD
ATOM     24  H12 UNL     1      46.693  47.249   7.502  1.00  0.00     0.274 HD
ATOM     25  H11 UNL     1      47.659  47.504   8.859  1.00  0.00     0.274 HD
ENDBRANCH  21  22
ENDBRANCH  20  21
ENDBRANCH  19  20
ENDBRANCH  18  19
ENDBRANCH  16  18
ENDBRANCH  13  16
BRANCH  14  26
HETATM   26  N4  UNL     1      43.047  52.736   9.838  1.00  0.00    -0.208 N 
ATOM     27  H4  UNL     1      42.766  53.082   8.921  1.00  0.00     0.215 HD
BRANCH  26  28
HETATM   28  O2  UNL     1      42.686  53.384  10.826  1.00  0.00    -0.274 OA
ATOM     29  H2  UNL     1      43.266  53.855  11.413  1.00  0.00     0.246 HD
ENDBRANCH  26  28
ENDBRANCH  14  26
ENDBRANCH   1  13
BRANCH   8  30
HETATM   30  S1  UNL     1      41.758  53.679   1.720  1.00  0.00     0.289 S 
HETATM   31  O4  UNL     1      42.617  54.083   0.572  1.00  0.00    -0.198 OA
HETATM   32  O5  UNL     1      40.908  54.864   2.097  1.00  0.00    -0.198 OA
BRANCH  30  33
HETATM   33  N6  UNL     1      40.657  52.408   1.278  1.00  0.00    -0.322 N 
ATOM     34  H62 UNL     1      40.094  51.864   1.932  1.00  0.00     0.169 HD
ATOM     35  H61 UNL     1      40.680  52.312   0.263  1.00  0.00     0.169 HD
ENDBRANCH  30  33
ENDBRANCH   8  30
TORSDOF 11
ENDMDL
MODEL 5
REMARK VINA RESULT: -7.737255775      4.272      9.368
REMARK  11 active torsions:
REMARK  status: ('A' for Active; 'I' for Inactive)
REMARK    1  A    between atoms: N1_1  and  C1_5 
REMARK    2  A    between atoms: C1_5  and  C2_6 
REMARK    3  A    between atoms: C2_6  and  C3_7 
REMARK    4  A    between atoms: C3_7  and  O1_8 
REMARK    5  A    between atoms: O1_8  and  N2_9 
REMARK    6  A    between atoms: N2_9  and  C4_11 
REMARK    7  A    between atoms: C4_11  and  C5_18 
REMARK    8  A    between atoms: N3_12  and  N4_14 
REMARK    9  A    between atoms: N4_14  and  O2_16 
REMARK   10  A    between atoms: C9_25  and  S1_26 
REMARK   11  A    between atoms: S1_26  and  N6_27 
ROOT
HETATM    1  C5  UNL     1      46.539  45.750   9.834  1.00  0.00     0.055 A 
HETATM    2  C6  UNL     1      45.604  46.549  10.428  1.00  0.00     0.042 A 
HETATM    3  C7  UNL     1      45.239  47.679   9.786  1.00  0.00     0.067 A 
HETATM    4  C8  UNL     1      44.302  48.646  10.207  1.00  0.00     0.260 A 
HETATM    5  O3  UNL     1      43.673  48.548  11.286  1.00  0.00    -0.267 OA
HETATM    6  N5  UNL     1      44.067  49.699   9.448  1.00  0.00    -0.298 N 
ATOM      7  H5  UNL     1      43.383  50.374   9.788  1.00  0.00     0.171 HD
HETATM    8  C9  UNL     1      44.649  49.958   8.268  1.00  0.00     0.227 A 
HETATM    9  N7  UNL     1      45.544  49.059   7.839  1.00  0.00    -0.325 N 
ATOM     10  H7  UNL     1      46.019  49.203   6.948  1.00  0.00     0.169 HD
HETATM   11  C10 UNL     1      45.827  47.947   8.588  1.00  0.00     0.092 A 
HETATM   12  S2  UNL     1      46.883  46.607   8.384  1.00  0.00    -0.068 SA
ENDROOT
BRANCH   1  13
HETATM   13  C4  UNL     1      47.141  44.493  10.267  1.00  0.00     0.158 C 
HETATM   14  N3  UNL     1      46.732  43.382   9.795  1.00  0.00    -0.263 N 
ATOM     15  H3  UNL     1      47.183  42.524  10.114  1.00  0.00     0.190 HD
BRANCH  13  16
HETATM   16  N2  UNL     1      48.194  44.538  11.214  1.00  0.00    -0.248 N 
ATOM     17  H2  UNL     1      49.119  44.190  10.963  1.00  0.00     0.196 HD
BRANCH  16  18
HETATM   18  O1  UNL     1      47.981  45.032  12.429  1.00  0.00    -0.279 OA
BRANCH  18  19
HETATM   19  C3  UNL     1      49.132  45.239  13.161  1.00  0.00     0.203 C 
BRANCH  19  20
HETATM   20  C2  UNL     1      48.980  46.351  14.168  1.00  0.00     0.056 C 
BRANCH  20  21
HETATM   21  C1  UNL     1      48.065  47.444  13.656  1.00  0.00     0.231 C 
BRANCH  21  22
HETATM   22  N1  UNL     1      48.300  48.697  14.320  1.00  0.00    -0.079 N 
ATOM     23  H13 UNL     1      47.539  48.926  14.959  1.00  0.00     0.274 HD
ATOM     24  H12 UNL     1      49.061  48.621  14.996  1.00  0.00     0.274 HD
ATOM     25  H11 UNL     1      48.468  49.454  13.658  1.00  0.00     0.274 HD
ENDBRANCH  21  22
ENDBRANCH  20  21
ENDBRANCH  19  20
ENDBRANCH  18  19
ENDBRANCH  16  18
ENDBRANCH  13  16
BRANCH  14  26
HETATM   26  N4  UNL     1      45.708  43.280   8.870  1.00  0.00    -0.208 N 
ATOM     27  H4  UNL     1      45.967  43.108   7.898  1.00  0.00     0.215 HD
BRANCH  26  28
HETATM   28  O2  UNL     1      44.504  43.381   9.128  1.00  0.00    -0.274 OA
ATOM     29  H2  UNL     1      44.146  43.662   9.963  1.00  0.00     0.246 HD
ENDBRANCH  26  28
ENDBRANCH  14  26
ENDBRANCH   1  13
BRANCH   8  30
HETATM   30  S1  UNL     1      44.287  51.362   7.330  1.00  0.00     0.289 S 
HETATM   31  O4  UNL     1      43.108  51.190   6.437  1.00  0.00    -0.198 OA
HETATM   32  O5  UNL     1      45.471  51.710   6.465  1.00  0.00    -0.198 OA
BRANCH  30  33
HETATM   33  N6  UNL     1      44.072  52.696   8.423  1.00  0.00    -0.322 N 
ATOM     34  H62 UNL     1      44.151  52.643   9.438  1.00  0.00     0.169 HD
ATOM     35  H61 UNL     1      43.856  53.525   7.869  1.00  0.00     0.169 HD
ENDBRANCH  30  33
ENDBRANCH   8  30
TORSDOF 11
ENDMDL
