MODEL 1
REMARK VINA RESULT: -7.661768408      0.000      0.000
REMARK  12 active torsions:
REMARK  status: ('A' for Active; 'I' for Inactive)
REMARK    1  A    between atoms: O1_2  and  C2_3 
REMARK    2  A    between atoms: C2_3  and  C3_5 
REMARK    3  A    between atoms: C4_6  and  C5_7 
REMARK    4  A    between atoms: C6_12  and  C7_13 
REMARK    5  A    between atoms: C7_13  and  C9_15 
REMARK    6  A    between atoms: C9_15  and  N3_20 
REMARK    7  A    between atoms: N2_16  and  O5_18 
REMARK    8  A    between atoms: N3_20  and  C11_22 
REMARK    9  A    between atoms: C11_22  and  C13_24 
REMARK   10  A    between atoms: C13_24  and  O6_25 
REMARK   11  A    between atoms: C13_24  and  C14_27 
REMARK   12  A    between atoms: C14_27  and  O7_30 
ROOT
HETATM    1  C9  UNL     1      45.456  51.781   5.897  1.00  0.00     0.107 C 
HETATM    2  N2  UNL     1      46.710  51.585   6.189  1.00  0.00    -0.257 N 
ATOM      3  H2  UNL     1      46.959  51.006   6.991  1.00  0.00     0.195 HD
ENDROOT
BRANCH   1   4
HETATM    4  C7  UNL     1      44.372  51.195   6.687  1.00  0.00     0.093 C 
HETATM    5  C8  UNL     1      43.987  52.156   7.785  1.00  0.00     0.022 C 
BRANCH   4   6
HETATM    6  C6  UNL     1      44.778  49.905   7.353  1.00  0.00     0.193 C 
HETATM    7  N1  UNL     1      44.647  50.054   8.782  1.00  0.00    -0.361 N 
HETATM    8  C4  UNL     1      44.545  48.675   9.263  1.00  0.00     0.140 C 
ATOM      9  H1  UNL     1      44.631  50.916   9.327  1.00  0.00     0.162 HD
HETATM   10  C3  UNL     1      44.113  47.914   8.284  1.00  0.00     0.139 C 
HETATM   11  N4  UNL     1      43.914  48.797   7.127  1.00  0.00    -0.361 N 
ATOM     12  H4  UNL     1      43.292  48.648   6.333  1.00  0.00     0.162 HD
BRANCH   8  13
HETATM   13  C5  UNL     1      44.892  48.313  10.630  1.00  0.00     0.229 C 
HETATM   14  O3  UNL     1      46.015  47.968  11.022  1.00  0.00    -0.643 OA
HETATM   15  O4  UNL     1      43.896  48.342  11.637  1.00  0.00    -0.643 OA
ENDBRANCH   8  13
BRANCH  10  16
HETATM   16  C2  UNL     1      43.846  46.484   8.241  1.00  0.00     0.311 C 
HETATM   17  O2  UNL     1      42.818  46.001   7.791  1.00  0.00    -0.258 OA
BRANCH  16  18
HETATM   18  O1  UNL     1      44.781  45.561   8.723  1.00  0.00    -0.321 OA
HETATM   19  C1  UNL     1      44.499  44.181   8.812  1.00  0.00     0.213 C 
ENDBRANCH  16  18
ENDBRANCH  10  16
ENDBRANCH   4   6
ENDBRANCH   1   4
BRANCH   1  20
HETATM   20  N3  UNL     1      45.230  52.611   4.747  1.00  0.00    -0.366 N 
HETATM   21  C10 UNL     1      45.698  53.964   4.864  1.00  0.00     0.151 C 
BRANCH  20  22
HETATM   22  C11 UNL     1      44.594  52.024   3.635  1.00  0.00     0.112 C 
HETATM   23  C12 UNL     1      44.956  50.532   3.576  1.00  0.00     0.035 C 
BRANCH  22  24
HETATM   24  C13 UNL     1      43.130  52.132   3.458  1.00  0.00     0.174 C 
BRANCH  24  25
HETATM   25  O6  UNL     1      42.383  52.453   4.577  1.00  0.00    -0.391 OA
ATOM     26  H6  UNL     1      41.664  53.062   4.456  1.00  0.00     0.210 HD
ENDBRANCH  24  25
BRANCH  24  27
HETATM   27  C14 UNL     1      42.677  52.826   2.193  1.00  0.00     0.078 C 
HETATM   28  C15 UNL     1      42.709  51.804   1.021  1.00  0.00     0.048 C 
HETATM   29  C16 UNL     1      41.290  53.357   2.214  1.00  0.00     0.048 C 
BRANCH  27  30
HETATM   30  O7  UNL     1      43.610  53.788   1.786  1.00  0.00    -0.388 OA
ATOM     31  H7  UNL     1      43.911  53.619   0.900  1.00  0.00     0.210 HD
ENDBRANCH  27  30
ENDBRANCH  24  27
ENDBRANCH  22  24
ENDBRANCH  20  22
ENDBRANCH   1  20
BRANCH   2  32
HETATM   32  O5  UNL     1      47.679  52.140   5.440  1.00  0.00    -0.288 OA
ATOM     33  H5  UNL     1      47.565  52.239   4.501  1.00  0.00     0.244 HD
ENDBRANCH   2  32
TORSDOF 12
ENDMDL
MODEL 2
REMARK VINA RESULT: -7.525318790      1.303      1.774
REMARK  12 active torsions:
REMARK  status: ('A' for Active; 'I' for Inactive)
REMARK    1  A    between atoms: O1_2  and  C2_3 
REMARK    2  A    between atoms: C2_3  and  C3_5 
REMARK    3  A    between atoms: C4_6  and  C5_7 
REMARK    4  A    between atoms: C6_12  and  C7_13 
REMARK    5  A    between atoms: C7_13  and  C9_15 
REMARK    6  A    between atoms: C9_15  and  N3_20 
REMARK    7  A    between atoms: N2_16  and  O5_18 
REMARK    8  A    between atoms: N3_20  and  C11_22 
REMARK    9  A    between atoms: C11_22  and  C13_24 
REMARK   10  A    between atoms: C13_24  and  O6_25 
REMARK   11  A    between atoms: C13_24  and  C14_27 
REMARK   12  A    between atoms: C14_27  and  O7_30 
ROOT
HETATM    1  C9  UNL     1      44.205  52.063   6.231  1.00  0.00     0.107 C 
HETATM    2  N2  UNL     1      45.032  53.060   6.366  1.00  0.00    -0.257 N 
ATOM      3  H2  UNL     1      45.221  53.439   7.294  1.00  0.00     0.195 HD
ENDROOT
BRANCH   1   4
HETATM    4  C7  UNL     1      43.524  51.456   7.376  1.00  0.00     0.093 C 
HETATM    5  C8  UNL     1      43.530  52.432   8.527  1.00  0.00     0.022 C 
BRANCH   4   6
HETATM    6  C6  UNL     1      44.212  50.204   7.857  1.00  0.00     0.193 C 
HETATM    7  N1  UNL     1      44.081  50.119   9.291  1.00  0.00    -0.361 N 
HETATM    8  C4  UNL     1      44.288  48.696   9.571  1.00  0.00     0.140 C 
ATOM      9  H1  UNL     1      43.890  50.871   9.952  1.00  0.00     0.162 HD
HETATM   10  C3  UNL     1      44.011  48.005   8.489  1.00  0.00     0.139 C 
HETATM   11  N4  UNL     1      43.603  48.979   7.467  1.00  0.00    -0.361 N 
ATOM     12  H4  UNL     1      43.012  48.812   6.653  1.00  0.00     0.162 HD
BRANCH   8  13
HETATM   13  C5  UNL     1      44.734  48.229  10.876  1.00  0.00     0.229 C 
HETATM   14  O3  UNL     1      45.869  47.817  11.146  1.00  0.00    -0.643 OA
HETATM   15  O4  UNL     1      43.828  48.229  11.966  1.00  0.00    -0.643 OA
ENDBRANCH   8  13
BRANCH  10  16
HETATM   16  C2  UNL     1      44.058  46.573   8.241  1.00  0.00     0.311 C 
HETATM   17  O2  UNL     1      43.087  45.911   7.907  1.00  0.00    -0.258 OA
BRANCH  16  18
HETATM   18  O1  UNL     1      45.253  45.856   8.374  1.00  0.00    -0.321 OA
HETATM   19  C1  UNL     1      45.327  44.642   9.089  1.00  0.00     0.213 C 
ENDBRANCH  16  18
ENDBRANCH  10  16
ENDBRANCH   4   6
ENDBRANCH   1   4
BRANCH   1  20
HETATM   20  N3  UNL     1      44.021  51.615   4.879  1.00  0.00    -0.366 N 
HETATM   21  C10 UNL     1      44.994  50.671   4.406  1.00  0.00     0.151 C 
BRANCH  20  22
HETATM   22  C11 UNL     1      42.917  52.129   4.168  1.00  0.00     0.112 C 
HETATM   23  C12 UNL     1      42.061  52.983   5.115  1.00  0.00     0.035 C 
BRANCH  22  24
HETATM   24  C13 UNL     1      43.115  52.906   2.925  1.00  0.00     0.174 C 
BRANCH  24  25
HETATM   25  O6  UNL     1      44.390  53.381   2.677  1.00  0.00    -0.391 OA
ATOM     26  H6  UNL     1      44.618  53.552   1.771  1.00  0.00     0.210 HD
ENDBRANCH  24  25
BRANCH  24  27
HETATM   27  C14 UNL     1      42.407  52.369   1.703  1.00  0.00     0.078 C 
HETATM   28  C15 UNL     1      42.101  53.551   0.740  1.00  0.00     0.048 C 
HETATM   29  C16 UNL     1      43.177  51.391   0.892  1.00  0.00     0.048 C 
BRANCH  27  30
HETATM   30  O7  UNL     1      41.127  51.900   2.028  1.00  0.00    -0.388 OA
ATOM     31  H7  UNL     1      40.631  51.689   1.245  1.00  0.00     0.210 HD
ENDBRANCH  27  30
ENDBRANCH  24  27
ENDBRANCH  22  24
ENDBRANCH  20  22
ENDBRANCH   1  20
BRANCH   2  32
HETATM   32  O5  UNL     1      45.640  53.591   5.291  1.00  0.00    -0.288 OA
ATOM     33  H5  UNL     1      46.339  53.121   4.851  1.00  0.00     0.244 HD
ENDBRANCH   2  32
TORSDOF 12
ENDMDL
MODEL 3
REMARK VINA RESULT: -7.502632709      1.997      8.200
REMARK  12 active torsions:
REMARK  status: ('A' for Active; 'I' for Inactive)
REMARK    1  A    between atoms: O1_2  and  C2_3 
REMARK    2  A    between atoms: C2_3  and  C3_5 
REMARK    3  A    between atoms: C4_6  and  C5_7 
REMARK    4  A    between atoms: C6_12  and  C7_13 
REMARK    5  A    between atoms: C7_13  and  C9_15 
REMARK    6  A    between atoms: C9_15  and  N3_20 
REMARK    7  A    between atoms: N2_16  and  O5_18 
REMARK    8  A    between atoms: N3_20  and  C11_22 
REMARK    9  A    between atoms: C11_22  and  C13_24 
REMARK   10  A    between atoms: C13_24  and  O6_25 
REMARK   11  A    between atoms: C13_24  and  C14_27 
REMARK   12  A    between atoms: C14_27  and  O7_30 
ROOT
HETATM    1  C9  UNL     1      44.324  48.613   8.796  1.00  0.00     0.107 C 
HETATM    2  N2  UNL     1      43.416  48.108   8.010  1.00  0.00    -0.257 N 
ATOM      3  H2  UNL     1      42.978  48.693   7.300  1.00  0.00     0.195 HD
ENDROOT
BRANCH   1   4
HETATM    4  C7  UNL     1      44.747  50.011   8.698  1.00  0.00     0.093 C 
HETATM    5  C8  UNL     1      43.683  50.891   9.307  1.00  0.00     0.022 C 
BRANCH   4   6
HETATM    6  C6  UNL     1      44.924  50.460   7.269  1.00  0.00     0.193 C 
HETATM    7  N1  UNL     1      43.715  51.112   6.829  1.00  0.00    -0.361 N 
HETATM    8  C4  UNL     1      44.158  51.934   5.702  1.00  0.00     0.140 C 
ATOM      9  H1  UNL     1      42.774  51.021   7.213  1.00  0.00     0.162 HD
HETATM   10  C3  UNL     1      45.444  52.170   5.828  1.00  0.00     0.139 C 
HETATM   11  N4  UNL     1      45.871  51.502   7.065  1.00  0.00    -0.361 N 
ATOM     12  H4  UNL     1      46.673  51.734   7.650  1.00  0.00     0.162 HD
BRANCH   8  13
HETATM   13  C5  UNL     1      43.238  52.366   4.660  1.00  0.00     0.229 C 
HETATM   14  O3  UNL     1      42.104  52.826   4.844  1.00  0.00    -0.643 OA
HETATM   15  O4  UNL     1      43.628  52.275   3.300  1.00  0.00    -0.643 OA
ENDBRANCH   8  13
BRANCH  10  16
HETATM   16  C2  UNL     1      46.357  52.925   4.983  1.00  0.00     0.311 C 
HETATM   17  O2  UNL     1      46.006  53.843   4.258  1.00  0.00    -0.258 OA
BRANCH  16  18
HETATM   18  O1  UNL     1      47.726  52.632   4.957  1.00  0.00    -0.321 OA
HETATM   19  C1  UNL     1      48.689  53.573   4.534  1.00  0.00     0.213 C 
ENDBRANCH  16  18
ENDBRANCH  10  16
ENDBRANCH   4   6
ENDBRANCH   1   4
BRANCH   1  20
HETATM   20  N3  UNL     1      44.869  47.693   9.754  1.00  0.00    -0.366 N 
HETATM   21  C10 UNL     1      44.407  47.865  11.103  1.00  0.00     0.151 C 
BRANCH  20  22
HETATM   22  C11 UNL     1      45.778  46.725   9.282  1.00  0.00     0.112 C 
HETATM   23  C12 UNL     1      46.538  47.293   8.075  1.00  0.00     0.035 C 
BRANCH  22  24
HETATM   24  C13 UNL     1      46.775  46.118  10.190  1.00  0.00     0.174 C 
BRANCH  24  25
HETATM   25  O6  UNL     1      46.759  46.533  11.509  1.00  0.00    -0.391 OA
ATOM     26  H6  UNL     1      47.153  45.953  12.149  1.00  0.00     0.210 HD
ENDBRANCH  24  25
BRANCH  24  27
HETATM   27  C14 UNL     1      46.998  44.633  10.013  1.00  0.00     0.078 C 
HETATM   28  C15 UNL     1      45.759  44.021   9.298  1.00  0.00     0.048 C 
HETATM   29  C16 UNL     1      48.163  44.254   9.173  1.00  0.00     0.048 C 
BRANCH  27  30
HETATM   30  O7  UNL     1      46.995  43.973  11.249  1.00  0.00    -0.388 OA
ATOM     31  H7  UNL     1      47.722  43.364  11.312  1.00  0.00     0.210 HD
ENDBRANCH  27  30
ENDBRANCH  24  27
ENDBRANCH  22  24
ENDBRANCH  20  22
ENDBRANCH   1  20
BRANCH   2  32
HETATM   32  O5  UNL     1      43.054  46.818   8.130  1.00  0.00    -0.288 OA
ATOM     33  H5  UNL     1      42.838  46.305   7.360  1.00  0.00     0.244 HD
ENDBRANCH   2  32
TORSDOF 12
ENDMDL
MODEL 4
REMARK VINA RESULT: -7.435234645      1.344      1.685
REMARK  12 active torsions:
REMARK  status: ('A' for Active; 'I' for Inactive)
REMARK    1  A    between atoms: O1_2  and  C2_3 
REMARK    2  A    between atoms: C2_3  and  C3_5 
REMARK    3  A    between atoms: C4_6  and  C5_7 
REMARK    4  A    between atoms: C6_12  and  C7_13 
REMARK    5  A    between atoms: C7_13  and  C9_15 
REMARK    6  A    between atoms: C9_15  and  N3_20 
REMARK    7  A    between atoms: N2_16  and  O5_18 
REMARK    8  A    between atoms: N3_20  and  C11_22 
REMARK    9  A    between atoms: C11_22  and  C13_24 
REMARK   10  A    between atoms: C13_24  and  O6_25 
REMARK   11  A    between atoms: C13_24  and  C14_27 
REMARK   12  A    between atoms: C14_27  and  O7_30 
ROOT
HETATM    1  C9  UNL     1      44.340  51.171   5.441  1.00  0.00     0.107 C 
HETATM    2  N2  UNL     1      44.887  50.184   4.791  1.00  0.00    -0.257 N 
ATOM      3  H2  UNL     1      44.967  49.269   5.233  1.00  0.00     0.195 HD
ENDROOT
BRANCH   1   4
HETATM    4  C7  UNL     1      43.827  51.017   6.803  1.00  0.00     0.093 C 
HETATM    5  C8  UNL     1      44.244  52.212   7.625  1.00  0.00     0.022 C 
BRANCH   4   6
HETATM    6  C6  UNL     1      44.380  49.795   7.491  1.00  0.00     0.193 C 
HETATM    7  N1  UNL     1      44.155  49.913   8.911  1.00  0.00    -0.361 N 
HETATM    8  C4  UNL     1      44.228  48.530   9.387  1.00  0.00     0.140 C 
ATOM      9  H1  UNL     1      43.984  50.759   9.453  1.00  0.00     0.162 HD
HETATM   10  C3  UNL     1      43.963  47.721   8.386  1.00  0.00     0.139 C 
HETATM   11  N4  UNL     1      43.699  48.575   7.220  1.00  0.00    -0.361 N 
ATOM     12  H4  UNL     1      43.148  48.343   6.394  1.00  0.00     0.162 HD
BRANCH   8  13
HETATM   13  C5  UNL     1      44.552  48.212  10.770  1.00  0.00     0.229 C 
HETATM   14  O3  UNL     1      43.765  48.258  11.725  1.00  0.00    -0.643 OA
HETATM   15  O4  UNL     1      45.869  47.808  11.105  1.00  0.00    -0.643 OA
ENDBRANCH   8  13
BRANCH  10  16
HETATM   16  C2  UNL     1      43.909  46.269   8.330  1.00  0.00     0.311 C 
HETATM   17  O2  UNL     1      42.930  45.641   7.955  1.00  0.00    -0.258 OA
BRANCH  16  18
HETATM   18  O1  UNL     1      45.008  45.490   8.711  1.00  0.00    -0.321 OA
HETATM   19  C1  UNL     1      44.898  44.107   8.968  1.00  0.00     0.213 C 
ENDBRANCH  16  18
ENDBRANCH  10  16
ENDBRANCH   4   6
ENDBRANCH   1   4
BRANCH   1  20
HETATM   20  N3  UNL     1      44.282  52.409   4.715  1.00  0.00    -0.366 N 
HETATM   21  C10 UNL     1      45.500  53.169   4.699  1.00  0.00     0.151 C 
BRANCH  20  22
HETATM   22  C11 UNL     1      43.061  52.743   4.095  1.00  0.00     0.112 C 
HETATM   23  C12 UNL     1      42.562  54.084   4.653  1.00  0.00     0.035 C 
BRANCH  22  24
HETATM   24  C13 UNL     1      42.955  52.808   2.621  1.00  0.00     0.174 C 
BRANCH  24  25
HETATM   25  O6  UNL     1      43.315  51.674   1.915  1.00  0.00    -0.391 OA
ATOM     26  H6  UNL     1      42.683  50.966   1.883  1.00  0.00     0.210 HD
ENDBRANCH  24  25
BRANCH  24  27
HETATM   27  C14 UNL     1      41.724  53.503   2.087  1.00  0.00     0.078 C 
HETATM   28  C15 UNL     1      41.001  52.550   1.093  1.00  0.00     0.048 C 
HETATM   29  C16 UNL     1      40.700  53.864   3.100  1.00  0.00     0.048 C 
BRANCH  27  30
HETATM   30  O7  UNL     1      42.073  54.588   1.273  1.00  0.00    -0.388 OA
ATOM     31  H7  UNL     1      41.940  54.383   0.354  1.00  0.00     0.210 HD
ENDBRANCH  27  30
ENDBRANCH  24  27
ENDBRANCH  22  24
ENDBRANCH  20  22
ENDBRANCH   1  20
BRANCH   2  32
HETATM   32  O5  UNL     1      45.347  50.364   3.540  1.00  0.00    -0.288 OA
ATOM     33  H5  UNL     1      44.776  50.227   2.792  1.00  0.00     0.244 HD
ENDBRANCH   2  32
TORSDOF 12
ENDMDL
MODEL 5
REMARK VINA RESULT: -7.416393317      1.680      2.382
REMARK  12 active torsions:
REMARK  status: ('A' for Active; 'I' for Inactive)
REMARK    1  A    between atoms: O1_2  and  C2_3 
REMARK    2  A    between atoms: C2_3  and  C3_5 
REMARK    3  A    between atoms: C4_6  and  C5_7 
REMARK    4  A    between atoms: C6_12  and  C7_13 
REMARK    5  A    between atoms: C7_13  and  C9_15 
REMARK    6  A    between atoms: C9_15  and  N3_20 
REMARK    7  A    between atoms: N2_16  and  O5_18 
REMARK    8  A    between atoms: N3_20  and  C11_22 
REMARK    9  A    between atoms: C11_22  and  C13_24 
REMARK   10  A    between atoms: C13_24  and  O6_25 
REMARK   11  A    between atoms: C13_24  and  C14_27 
REMARK   12  A    between atoms: C14_27  and  O7_30 
ROOT
HETATM    1  C9  UNL     1      44.823  51.150   6.206  1.00  0.00     0.107 C 
HETATM    2  N2  UNL     1      45.898  51.864   6.382  1.00  0.00    -0.257 N 
ATOM      3  H2  UNL     1      46.336  51.902   7.302  1.00  0.00     0.195 HD
ENDROOT
BRANCH   1   4
HETATM    4  C7  UNL     1      44.208  50.387   7.294  1.00  0.00     0.093 C 
HETATM    5  C8  UNL     1      44.668  50.955   8.615  1.00  0.00     0.022 C 
BRANCH   4   6
HETATM    6  C6  UNL     1      44.609  48.934   7.276  1.00  0.00     0.193 C 
HETATM    7  N1  UNL     1      45.685  48.733   8.215  1.00  0.00    -0.361 N 
HETATM    8  C4  UNL     1      45.629  47.298   8.500  1.00  0.00     0.140 C 
ATOM      9  H1  UNL     1      46.332  49.427   8.591  1.00  0.00     0.162 HD
HETATM   10  C3  UNL     1      44.417  46.861   8.245  1.00  0.00     0.139 C 
HETATM   11  N4  UNL     1      43.643  48.023   7.788  1.00  0.00    -0.361 N 
ATOM     12  H4  UNL     1      42.632  48.150   7.828  1.00  0.00     0.162 HD
BRANCH   8  13
HETATM   13  C5  UNL     1      46.791  46.567   8.985  1.00  0.00     0.229 C 
HETATM   14  O3  UNL     1      46.946  46.141  10.137  1.00  0.00    -0.643 OA
HETATM   15  O4  UNL     1      47.863  46.291   8.101  1.00  0.00    -0.643 OA
ENDBRANCH   8  13
BRANCH  10  16
HETATM   16  C2  UNL     1      43.846  45.528   8.358  1.00  0.00     0.311 C 
HETATM   17  O2  UNL     1      44.465  44.559   8.773  1.00  0.00    -0.258 OA
BRANCH  16  18
HETATM   18  O1  UNL     1      42.520  45.276   7.989  1.00  0.00    -0.321 OA
HETATM   19  C1  UNL     1      42.140  44.110   7.291  1.00  0.00     0.213 C 
ENDBRANCH  16  18
ENDBRANCH  10  16
ENDBRANCH   4   6
ENDBRANCH   1   4
BRANCH   1  20
HETATM   20  N3  UNL     1      44.298  51.174   4.869  1.00  0.00    -0.366 N 
HETATM   21  C10 UNL     1      45.007  50.367   3.916  1.00  0.00     0.151 C 
BRANCH  20  22
HETATM   22  C11 UNL     1      43.155  51.964   4.633  1.00  0.00     0.112 C 
HETATM   23  C12 UNL     1      42.612  52.479   5.974  1.00  0.00     0.035 C 
BRANCH  22  24
HETATM   24  C13 UNL     1      43.210  53.114   3.705  1.00  0.00     0.174 C 
BRANCH  24  25
HETATM   25  O6  UNL     1      44.454  53.465   3.212  1.00  0.00    -0.391 OA
ATOM     26  H6  UNL     1      45.108  52.778   3.162  1.00  0.00     0.210 HD
ENDBRANCH  24  25
BRANCH  24  27
HETATM   27  C14 UNL     1      42.099  53.178   2.681  1.00  0.00     0.078 C 
HETATM   28  C15 UNL     1      41.066  54.251   3.128  1.00  0.00     0.048 C 
HETATM   29  C16 UNL     1      42.511  53.575   1.311  1.00  0.00     0.048 C 
BRANCH  27  30
HETATM   30  O7  UNL     1      41.340  52.000   2.689  1.00  0.00    -0.388 OA
ATOM     31  H7  UNL     1      40.665  52.025   2.020  1.00  0.00     0.210 HD
ENDBRANCH  27  30
ENDBRANCH  24  27
ENDBRANCH  22  24
ENDBRANCH  20  22
ENDBRANCH   1  20
BRANCH   2  32
HETATM   32  O5  UNL     1      46.434  52.551   5.358  1.00  0.00    -0.288 OA
ATOM     33  H5  UNL     1      45.942  53.244   4.933  1.00  0.00     0.244 HD
ENDBRANCH   2  32
TORSDOF 12
ENDMDL
