MODEL 1
REMARK VINA RESULT: -8.623885991      0.000      0.000
REMARK  9 active torsions:
REMARK  status: ('A' for Active; 'I' for Inactive)
REMARK    1  A    between atoms: C2_2  and  N1_4 
REMARK    2  A    between atoms: C4_5  and  N2_6 
REMARK    3  A    between atoms: N2_6  and  N3_8 
REMARK    4  A    between atoms: C5_11  and  C6_12 
REMARK    5  A    between atoms: C6_12  and  C7_13 
REMARK    6  A    between atoms: C6_12  and  N5_17 
REMARK    7  A    between atoms: C7_13  and  C8_14 
REMARK       I    between atoms: N5_17  and  C9_19 
REMARK    8  A    between atoms: C9_19  and  C10_21 
REMARK    9  A    between atoms: C11_24  and  N7_25 
ROOT
HETATM    1  C6  UNL     1      45.464  52.351   5.122  1.00  0.00     0.167 C 
ENDROOT
BRANCH   1   2
HETATM    2  C5  UNL     1      44.240  52.640   4.321  1.00  0.00     0.086 A 
HETATM    3  C4  UNL     1      43.816  52.131   3.122  1.00  0.00     0.151 A 
HETATM    4  N1  UNL     1      42.629  52.695   2.747  1.00  0.00    -0.278 N 
HETATM    5  C14 UNL     1      42.324  53.571   3.719  1.00  0.00     0.329 A 
HETATM    6  N9  UNL     1      43.270  53.544   4.657  1.00  0.00    -0.306 N 
HETATM    7  O5  UNL     1      41.261  54.274   3.654  1.00  0.00    -0.246 OA
ATOM      8  H9  UNL     1      43.270  54.114   5.502  1.00  0.00     0.170 HD
BRANCH   3   9
HETATM    9  N2  UNL     1      44.465  51.110   2.367  1.00  0.00    -0.290 N 
ATOM     10  H2  UNL     1      44.596  51.282   1.370  1.00  0.00     0.188 HD
BRANCH   9  11
HETATM   11  N3  UNL     1      44.933  49.909   2.864  1.00  0.00    -0.344 N 
ATOM     12  H32 UNL     1      44.557  49.623   3.768  1.00  0.00     0.176 HD
ATOM     13  H31 UNL     1      45.610  49.297   2.408  1.00  0.00     0.176 HD
ENDBRANCH   9  11
ENDBRANCH   3   9
BRANCH   4  14
HETATM   14  C2  UNL     1      41.848  52.303   1.597  1.00  0.00     0.088 C 
HETATM   15  C1  UNL     1      40.504  53.029   1.616  1.00  0.00     0.032 C 
HETATM   16  C3  UNL     1      42.466  52.447   0.261  1.00  0.00     0.032 C 
ENDBRANCH   4  14
ENDBRANCH   1   2
BRANCH   1  17
HETATM   17  C7  UNL     1      46.300  53.597   4.912  1.00  0.00     0.075 C 
BRANCH  17  18
HETATM   18  C8  UNL     1      47.689  53.563   4.669  1.00  0.00     0.253 C 
HETATM   19  N4  UNL     1      48.456  52.552   5.377  1.00  0.00    -0.058 NA
HETATM   20  O1  UNL     1      48.351  54.291   3.916  1.00  0.00    -0.272 OA
ENDBRANCH  17  18
ENDBRANCH   1  17
BRANCH   1  21
HETATM   21  N5  UNL     1      45.373  51.899   6.434  1.00  0.00    -0.341 N 
HETATM   22  C9  UNL     1      44.955  50.547   6.724  1.00  0.00     0.286 C 
HETATM   23  O2  UNL     1      44.682  49.807   5.725  1.00  0.00    -0.264 OA
ATOM     24  H5  UNL     1      45.603  52.531   7.201  1.00  0.00     0.164 HD
BRANCH  22  25
HETATM   25  C10 UNL     1      44.839  49.985   8.031  1.00  0.00     0.178 A 
HETATM   26  N6  UNL     1      45.475  48.795   8.378  1.00  0.00    -0.318 N 
HETATM   27  C11 UNL     1      45.200  48.466   9.635  1.00  0.00     0.191 A 
ATOM     28  H6  UNL     1      46.071  48.252   7.754  1.00  0.00     0.169 HD
HETATM   29  C12 UNL     1      44.373  49.455  10.104  1.00  0.00     0.147 A 
HETATM   30  N8  UNL     1      44.162  50.375   9.113  1.00  0.00    -0.339 N 
HETATM   31  C13 UNL     1      43.320  51.556   9.262  1.00  0.00     0.157 C 
BRANCH  27  32
HETATM   32  N7  UNL     1      45.656  47.331  10.377  1.00  0.00    -0.096 N 
HETATM   33  O3  UNL     1      45.448  46.203   9.932  1.00  0.00    -0.530 OA
HETATM   34  O4  UNL     1      46.330  47.516  11.569  1.00  0.00    -0.530 OA
ENDBRANCH  27  32
ENDBRANCH  22  25
ENDBRANCH   1  21
TORSDOF 9
ENDMDL
MODEL 2
REMARK VINA RESULT: -8.260064751      2.339      7.878
REMARK  9 active torsions:
REMARK  status: ('A' for Active; 'I' for Inactive)
REMARK    1  A    between atoms: C2_2  and  N1_4 
REMARK    2  A    between atoms: C4_5  and  N2_6 
REMARK    3  A    between atoms: N2_6  and  N3_8 
REMARK    4  A    between atoms: C5_11  and  C6_12 
REMARK    5  A    between atoms: C6_12  and  C7_13 
REMARK    6  A    between atoms: C6_12  and  N5_17 
REMARK    7  A    between atoms: C7_13  and  C8_14 
REMARK       I    between atoms: N5_17  and  C9_19 
REMARK    8  A    between atoms: C9_19  and  C10_21 
REMARK    9  A    between atoms: C11_24  and  N7_25 
ROOT
HETATM    1  C6  UNL     1      44.293  49.947   9.149  1.00  0.00     0.167 C 
ENDROOT
BRANCH   1   2
HETATM    2  C5  UNL     1      45.040  48.767   9.675  1.00  0.00     0.086 A 
HETATM    3  C4  UNL     1      45.564  47.680   9.026  1.00  0.00     0.151 A 
HETATM    4  N1  UNL     1      46.163  46.828   9.911  1.00  0.00    -0.278 N 
HETATM    5  C14 UNL     1      45.995  47.390  11.120  1.00  0.00     0.329 A 
HETATM    6  N9  UNL     1      45.334  48.539  10.990  1.00  0.00    -0.306 N 
HETATM    7  O5  UNL     1      46.443  46.821  12.171  1.00  0.00    -0.246 OA
ATOM      8  H9  UNL     1      45.084  49.159  11.761  1.00  0.00     0.170 HD
BRANCH   3   9
HETATM    9  N2  UNL     1      45.558  47.461   7.617  1.00  0.00    -0.290 N 
ATOM     10  H2  UNL     1      46.446  47.569   7.126  1.00  0.00     0.188 HD
BRANCH   9  11
HETATM   11  N3  UNL     1      44.459  47.114   6.855  1.00  0.00    -0.344 N 
ATOM     12  H32 UNL     1      44.177  46.135   6.898  1.00  0.00     0.176 HD
ATOM     13  H31 UNL     1      43.917  47.745   6.266  1.00  0.00     0.176 HD
ENDBRANCH   9  11
ENDBRANCH   3   9
BRANCH   4  14
HETATM   14  C2  UNL     1      46.913  45.648   9.551  1.00  0.00     0.088 C 
HETATM   15  C1  UNL     1      45.953  44.522   9.176  1.00  0.00     0.032 C 
HETATM   16  C3  UNL     1      47.948  45.782   8.502  1.00  0.00     0.032 C 
ENDBRANCH   4  14
ENDBRANCH   1   2
BRANCH   1  17
HETATM   17  C7  UNL     1      43.632  50.502  10.394  1.00  0.00     0.075 C 
BRANCH  17  18
HETATM   18  C8  UNL     1      43.060  51.790  10.456  1.00  0.00     0.253 C 
HETATM   19  N4  UNL     1      42.436  52.290   9.242  1.00  0.00    -0.058 NA
HETATM   20  O1  UNL     1      43.014  52.561  11.425  1.00  0.00    -0.272 OA
ENDBRANCH  17  18
ENDBRANCH   1  17
BRANCH   1  21
HETATM   21  N5  UNL     1      44.913  50.881   8.327  1.00  0.00    -0.341 N 
HETATM   22  C9  UNL     1      44.698  50.869   6.898  1.00  0.00     0.286 C 
HETATM   23  O2  UNL     1      43.920  49.968   6.446  1.00  0.00    -0.264 OA
ATOM     24  H5  UNL     1      45.528  51.583   8.738  1.00  0.00     0.164 HD
BRANCH  22  25
HETATM   25  C10 UNL     1      45.278  51.786   5.972  1.00  0.00     0.178 A 
HETATM   26  N6  UNL     1      46.659  51.950   5.869  1.00  0.00    -0.318 N 
HETATM   27  C11 UNL     1      46.954  52.872   4.958  1.00  0.00     0.191 A 
ATOM     28  H6  UNL     1      47.347  51.434   6.416  1.00  0.00     0.169 HD
HETATM   29  C12 UNL     1      45.749  53.309   4.470  1.00  0.00     0.147 A 
HETATM   30  N8  UNL     1      44.736  52.637   5.099  1.00  0.00    -0.339 N 
HETATM   31  C13 UNL     1      43.320  52.861   4.833  1.00  0.00     0.157 C 
BRANCH  27  32
HETATM   32  N7  UNL     1      48.244  53.331   4.544  1.00  0.00    -0.096 N 
HETATM   33  O3  UNL     1      49.225  52.613   4.741  1.00  0.00    -0.530 OA
HETATM   34  O4  UNL     1      48.369  54.557   3.922  1.00  0.00    -0.530 OA
ENDBRANCH  27  32
ENDBRANCH  22  25
ENDBRANCH   1  21
TORSDOF 9
ENDMDL
MODEL 3
REMARK VINA RESULT: -8.104893994      3.223      9.398
REMARK  9 active torsions:
REMARK  status: ('A' for Active; 'I' for Inactive)
REMARK    1  A    between atoms: C2_2  and  N1_4 
REMARK    2  A    between atoms: C4_5  and  N2_6 
REMARK    3  A    between atoms: N2_6  and  N3_8 
REMARK    4  A    between atoms: C5_11  and  C6_12 
REMARK    5  A    between atoms: C6_12  and  C7_13 
REMARK    6  A    between atoms: C6_12  and  N5_17 
REMARK    7  A    between atoms: C7_13  and  C8_14 
REMARK       I    between atoms: N5_17  and  C9_19 
REMARK    8  A    between atoms: C9_19  and  C10_21 
REMARK    9  A    between atoms: C11_24  and  N7_25 
ROOT
HETATM    1  C6  UNL     1      45.377  47.033   8.934  1.00  0.00     0.167 C 
ENDROOT
BRANCH   1   2
HETATM    2  C5  UNL     1      46.259  46.528  10.026  1.00  0.00     0.086 A 
HETATM    3  C4  UNL     1      46.998  45.378  10.117  1.00  0.00     0.151 A 
HETATM    4  N1  UNL     1      47.654  45.316  11.315  1.00  0.00    -0.278 N 
HETATM    5  C14 UNL     1      47.305  46.433  11.975  1.00  0.00     0.329 A 
HETATM    6  N9  UNL     1      46.482  47.158  11.219  1.00  0.00    -0.306 N 
HETATM    7  O5  UNL     1      47.753  46.666  13.146  1.00  0.00    -0.246 OA
ATOM      8  H9  UNL     1      46.076  48.053  11.491  1.00  0.00     0.170 HD
BRANCH   3   9
HETATM    9  N2  UNL     1      47.138  44.387   9.101  1.00  0.00    -0.290 N 
ATOM     10  H2  UNL     1      47.712  44.628   8.293  1.00  0.00     0.188 HD
BRANCH   9  11
HETATM   11  N3  UNL     1      46.566  43.130   9.112  1.00  0.00    -0.344 N 
ATOM     12  H32 UNL     1      47.130  42.387   9.524  1.00  0.00     0.176 HD
ATOM     13  H31 UNL     1      45.644  42.889   8.748  1.00  0.00     0.176 HD
ENDBRANCH   9  11
ENDBRANCH   3   9
BRANCH   4  14
HETATM   14  C2  UNL     1      48.609  44.299  11.688  1.00  0.00     0.088 C 
HETATM   15  C1  UNL     1      49.708  44.916  12.551  1.00  0.00     0.032 C 
HETATM   16  C3  UNL     1      48.094  43.078  12.348  1.00  0.00     0.032 C 
ENDBRANCH   4  14
ENDBRANCH   1   2
BRANCH   1  17
HETATM   17  C7  UNL     1      44.066  46.325   9.213  1.00  0.00     0.075 C 
BRANCH  17  18
HETATM   18  C8  UNL     1      43.610  45.221   8.462  1.00  0.00     0.253 C 
HETATM   19  N4  UNL     1      42.553  45.475   7.497  1.00  0.00    -0.058 NA
HETATM   20  O1  UNL     1      44.000  44.046   8.515  1.00  0.00    -0.272 OA
ENDBRANCH  17  18
ENDBRANCH   1  17
BRANCH   1  21
HETATM   21  N5  UNL     1      45.282  48.393   8.660  1.00  0.00    -0.341 N 
HETATM   22  C9  UNL     1      44.882  48.858   7.352  1.00  0.00     0.286 C 
HETATM   23  O2  UNL     1      44.626  47.964   6.482  1.00  0.00    -0.264 OA
ATOM     24  H5  UNL     1      45.497  49.070   9.391  1.00  0.00     0.164 HD
BRANCH  22  25
HETATM   25  C10 UNL     1      44.745  50.227   6.973  1.00  0.00     0.178 A 
HETATM   26  N6  UNL     1      45.166  50.690   5.728  1.00  0.00    -0.318 N 
HETATM   27  C11 UNL     1      44.956  51.997   5.618  1.00  0.00     0.191 A 
ATOM     28  H6  UNL     1      45.578  50.106   5.000  1.00  0.00     0.169 HD
HETATM   29  C12 UNL     1      44.395  52.383   6.809  1.00  0.00     0.147 A 
HETATM   30  N8  UNL     1      44.272  51.291   7.625  1.00  0.00    -0.339 N 
HETATM   31  C13 UNL     1      43.725  51.339   8.975  1.00  0.00     0.157 C 
BRANCH  27  32
HETATM   32  N7  UNL     1      45.237  52.852   4.507  1.00  0.00    -0.096 N 
HETATM   33  O3  UNL     1      44.622  52.684   3.453  1.00  0.00    -0.530 OA
HETATM   34  O4  UNL     1      46.177  53.856   4.632  1.00  0.00    -0.530 OA
ENDBRANCH  27  32
ENDBRANCH  22  25
ENDBRANCH   1  21
TORSDOF 9
ENDMDL
MODEL 4
REMARK VINA RESULT: -8.101270645      2.905      6.186
REMARK  9 active torsions:
REMARK  status: ('A' for Active; 'I' for Inactive)
REMARK    1  A    between atoms: C2_2  and  N1_4 
REMARK    2  A    between atoms: C4_5  and  N2_6 
REMARK    3  A    between atoms: N2_6  and  N3_8 
REMARK    4  A    between atoms: C5_11  and  C6_12 
REMARK    5  A    between atoms: C6_12  and  C7_13 
REMARK    6  A    between atoms: C6_12  and  N5_17 
REMARK    7  A    between atoms: C7_13  and  C8_14 
REMARK       I    between atoms: N5_17  and  C9_19 
REMARK    8  A    between atoms: C9_19  and  C10_21 
REMARK    9  A    between atoms: C11_24  and  N7_25 
ROOT
HETATM    1  C6  UNL     1      44.216  48.473   8.916  1.00  0.00     0.167 C 
ENDROOT
BRANCH   1   2
HETATM    2  C5  UNL     1      44.311  49.444   7.788  1.00  0.00     0.086 A 
HETATM    3  C4  UNL     1      43.803  50.710   7.654  1.00  0.00     0.151 A 
HETATM    4  N1  UNL     1      44.126  51.236   6.435  1.00  0.00    -0.278 N 
HETATM    5  C14 UNL     1      44.829  50.280   5.805  1.00  0.00     0.329 A 
HETATM    6  N9  UNL     1      44.946  49.217   6.599  1.00  0.00    -0.306 N 
HETATM    7  O5  UNL     1      45.273  50.468   4.623  1.00  0.00    -0.246 OA
ATOM      8  H9  UNL     1      45.439  48.358   6.355  1.00  0.00     0.170 HD
BRANCH   3   9
HETATM    9  N2  UNL     1      43.083  51.435   8.648  1.00  0.00    -0.290 N 
ATOM     10  H2  UNL     1      42.245  51.931   8.345  1.00  0.00     0.188 HD
BRANCH   9  11
HETATM   11  N3  UNL     1      43.418  51.527   9.986  1.00  0.00    -0.344 N 
ATOM     12  H32 UNL     1      42.824  51.006  10.631  1.00  0.00     0.176 HD
ATOM     13  H31 UNL     1      44.195  52.063  10.372  1.00  0.00     0.176 HD
ENDBRANCH   9  11
ENDBRANCH   3   9
BRANCH   4  14
HETATM   14  C2  UNL     1      43.850  52.590   6.013  1.00  0.00     0.088 C 
HETATM   15  C1  UNL     1      45.122  53.226   5.458  1.00  0.00     0.032 C 
HETATM   16  C3  UNL     1      42.738  52.802   5.061  1.00  0.00     0.032 C 
ENDBRANCH   4  14
ENDBRANCH   1   2
BRANCH   1  17
HETATM   17  C7  UNL     1      43.337  47.381   8.341  1.00  0.00     0.075 C 
BRANCH  17  18
HETATM   18  C8  UNL     1      43.760  46.044   8.198  1.00  0.00     0.253 C 
HETATM   19  N4  UNL     1      42.746  45.070   7.829  1.00  0.00    -0.058 NA
HETATM   20  O1  UNL     1      44.901  45.583   8.344  1.00  0.00    -0.272 OA
ENDBRANCH  17  18
ENDBRANCH   1  17
BRANCH   1  21
HETATM   21  N5  UNL     1      45.355  48.040   9.587  1.00  0.00    -0.341 N 
HETATM   22  C9  UNL     1      45.316  47.754  11.003  1.00  0.00     0.286 C 
HETATM   23  O2  UNL     1      44.197  47.918  11.588  1.00  0.00    -0.264 OA
ATOM     24  H5  UNL     1      46.228  47.924   9.073  1.00  0.00     0.164 HD
BRANCH  22  25
HETATM   25  C10 UNL     1      46.423  47.297  11.779  1.00  0.00     0.178 A 
HETATM   26  N6  UNL     1      46.870  47.993  12.901  1.00  0.00    -0.318 N 
HETATM   27  C11 UNL     1      47.922  47.387  13.440  1.00  0.00     0.191 A 
ATOM     28  H6  UNL     1      46.448  48.850  13.258  1.00  0.00     0.169 HD
HETATM   29  C12 UNL     1      48.157  46.286  12.655  1.00  0.00     0.147 A 
HETATM   30  N8  UNL     1      47.234  46.246  11.645  1.00  0.00    -0.339 N 
HETATM   31  C13 UNL     1      47.196  45.215  10.616  1.00  0.00     0.157 C 
BRANCH  27  32
HETATM   32  N7  UNL     1      48.670  47.768  14.597  1.00  0.00    -0.096 N 
HETATM   33  O3  UNL     1      48.491  48.884  15.084  1.00  0.00    -0.530 OA
HETATM   34  O4  UNL     1      49.568  46.880  15.158  1.00  0.00    -0.530 OA
ENDBRANCH  27  32
ENDBRANCH  22  25
ENDBRANCH   1  21
TORSDOF 9
ENDMDL
MODEL 5
REMARK VINA RESULT: -8.072233097      2.436      3.622
REMARK  9 active torsions:
REMARK  status: ('A' for Active; 'I' for Inactive)
REMARK    1  A    between atoms: C2_2  and  N1_4 
REMARK    2  A    between atoms: C4_5  and  N2_6 
REMARK    3  A    between atoms: N2_6  and  N3_8 
REMARK    4  A    between atoms: C5_11  and  C6_12 
REMARK    5  A    between atoms: C6_12  and  C7_13 
REMARK    6  A    between atoms: C6_12  and  N5_17 
REMARK    7  A    between atoms: C7_13  and  C8_14 
REMARK       I    between atoms: N5_17  and  C9_19 
REMARK    8  A    between atoms: C9_19  and  C10_21 
REMARK    9  A    between atoms: C11_24  and  N7_25 
ROOT
HETATM    1  C6  UNL     1      44.179  51.361   6.706  1.00  0.00     0.167 C 
ENDROOT
BRANCH   1   2
HETATM    2  C5  UNL     1      43.585  51.951   5.471  1.00  0.00     0.086 A 
HETATM    3  C4  UNL     1      44.015  51.921   4.171  1.00  0.00     0.151 A 
HETATM    4  N1  UNL     1      43.159  52.611   3.360  1.00  0.00    -0.278 N 
HETATM    5  C14 UNL     1      42.197  53.083   4.171  1.00  0.00     0.329 A 
HETATM    6  N9  UNL     1      42.439  52.695   5.422  1.00  0.00    -0.306 N 
HETATM    7  O5  UNL     1      41.240  53.787   3.706  1.00  0.00    -0.246 OA
ATOM      8  H9  UNL     1      41.854  52.921   6.227  1.00  0.00     0.170 HD
BRANCH   3   9
HETATM    9  N2  UNL     1      45.160  51.226   3.682  1.00  0.00    -0.290 N 
ATOM     10  H2  UNL     1      46.040  51.742   3.657  1.00  0.00     0.188 HD
BRANCH   9  11
HETATM   11  N3  UNL     1      45.186  49.918   3.238  1.00  0.00    -0.344 N 
ATOM     12  H32 UNL     1      44.913  49.211   3.919  1.00  0.00     0.176 HD
ATOM     13  H31 UNL     1      45.451  49.610   2.302  1.00  0.00     0.176 HD
ENDBRANCH   9  11
ENDBRANCH   3   9
BRANCH   4  14
HETATM   14  C2  UNL     1      43.250  52.680   1.920  1.00  0.00     0.088 C 
HETATM   15  C1  UNL     1      42.552  51.471   1.302  1.00  0.00     0.032 C 
HETATM   16  C3  UNL     1      42.774  53.914   1.258  1.00  0.00     0.032 C 
ENDBRANCH   4  14
ENDBRANCH   1   2
BRANCH   1  17
HETATM   17  C7  UNL     1      43.862  52.405   7.758  1.00  0.00     0.075 C 
BRANCH  17  18
HETATM   18  C8  UNL     1      42.873  52.228   8.748  1.00  0.00     0.253 C 
HETATM   19  N4  UNL     1      43.293  51.604   9.992  1.00  0.00    -0.058 NA
HETATM   20  O1  UNL     1      41.675  52.544   8.697  1.00  0.00    -0.272 OA
ENDBRANCH  17  18
ENDBRANCH   1  17
BRANCH   1  21
HETATM   21  N5  UNL     1      43.921  50.043   7.067  1.00  0.00    -0.341 N 
HETATM   22  C9  UNL     1      44.855  49.303   7.884  1.00  0.00     0.286 C 
HETATM   23  O2  UNL     1      45.908  49.919   8.247  1.00  0.00    -0.264 OA
ATOM     24  H5  UNL     1      43.062  49.593   6.751  1.00  0.00     0.164 HD
BRANCH  22  25
HETATM   25  C10 UNL     1      44.680  47.954   8.315  1.00  0.00     0.178 A 
HETATM   26  N6  UNL     1      43.788  47.091   7.680  1.00  0.00    -0.318 N 
HETATM   27  C11 UNL     1      43.785  45.902   8.274  1.00  0.00     0.191 A 
ATOM     28  H6  UNL     1      43.218  47.337   6.872  1.00  0.00     0.169 HD
HETATM   29  C12 UNL     1      44.683  46.001   9.306  1.00  0.00     0.147 A 
HETATM   30  N8  UNL     1      45.221  47.259   9.317  1.00  0.00    -0.339 N 
HETATM   31  C13 UNL     1      46.205  47.717  10.291  1.00  0.00     0.157 C 
BRANCH  27  32
HETATM   32  N7  UNL     1      43.023  44.741   7.932  1.00  0.00    -0.096 N 
HETATM   33  O3  UNL     1      43.390  43.642   8.349  1.00  0.00    -0.530 OA
HETATM   34  O4  UNL     1      41.888  44.867   7.156  1.00  0.00    -0.530 OA
ENDBRANCH  27  32
ENDBRANCH  22  25
ENDBRANCH   1  21
TORSDOF 9
ENDMDL
