MODEL 1
REMARK VINA RESULT: -10.227958566      0.000      0.000
REMARK  5 active torsions:
REMARK  status: ('A' for Active; 'I' for Inactive)
REMARK    1  A    between atoms: C5_5  and  N1_6 
REMARK    2  A    between atoms: N1_6  and  S1_8 
REMARK    3  A    between atoms: S1_8  and  C6_11 
REMARK    4  A    between atoms: C10_15  and  C11_16 
REMARK    5  A    between atoms: C16_24  and  N3_25 
ROOT
HETATM    1  C6  UNL     1      -8.800  -5.706 -15.860  1.00  0.00     0.080 A 
HETATM    2  C7  UNL     1      -8.438  -5.507 -17.175  1.00  0.00     0.025 A 
HETATM    3  C8  UNL     1      -8.991  -4.427 -17.830  1.00  0.00     0.002 A 
HETATM    4  C9  UNL     1      -9.872  -3.586 -17.179  1.00  0.00     0.012 A 
HETATM    5  C10 UNL     1     -10.241  -3.774 -15.866  1.00  0.00    -0.024 A 
HETATM    6  C19 UNL     1      -9.692  -4.852 -15.207  1.00  0.00     0.037 A 
ENDROOT
BRANCH   5   7
HETATM    7  C11 UNL     1     -11.185  -2.856 -15.194  1.00  0.00    -0.024 A 
HETATM    8  C12 UNL     1     -12.137  -2.166 -15.912  1.00  0.00     0.014 A 
HETATM    9  C13 UNL     1     -13.015  -1.310 -15.292  1.00  0.00     0.033 A 
HETATM   10  C14 UNL     1     -12.977  -1.113 -13.930  1.00  0.00     0.062 A 
HETATM   11  N2  UNL     1     -13.837  -0.272 -13.304  1.00  0.00    -0.318 N 
HETATM   12  C17 UNL     1     -12.031  -1.795 -13.187  1.00  0.00     0.061 A 
HETATM   13  C15 UNL     1     -13.797  -0.081 -11.978  1.00  0.00     0.289 A 
ATOM     14  H2  UNL     1     -14.533   0.229 -13.857  1.00  0.00     0.169 HD
HETATM   15  O3  UNL     1     -14.601   0.702 -11.413  1.00  0.00    -0.264 OA
HETATM   16  C16 UNL     1     -12.847  -0.772 -11.266  1.00  0.00     0.169 A 
HETATM   17  N4  UNL     1     -11.981  -1.614 -11.861  1.00  0.00    -0.336 N 
ATOM     18  H4  UNL     1     -11.288  -2.113 -11.302  1.00  0.00     0.168 HD
HETATM   19  C18 UNL     1     -11.145  -2.661 -13.834  1.00  0.00     0.044 A 
BRANCH  16  20
HETATM   20  N3  UNL     1     -12.737  -0.649  -9.982  1.00  0.00    -0.381 N 
ATOM     21  H32 UNL     1     -13.461  -1.099  -9.421  1.00  0.00     0.157 HD
ATOM     22  H31 UNL     1     -11.969  -0.128  -9.558  1.00  0.00     0.157 HD
ENDBRANCH  16  20
ENDBRANCH   5   7
BRANCH   1  23
HETATM   23  S1  UNL     1      -8.114  -7.060 -15.019  1.00  0.00     0.263 S 
HETATM   24  O1  UNL     1      -7.169  -7.783 -15.946  1.00  0.00    -0.200 OA
HETATM   25  O2  UNL     1      -9.159  -8.062 -14.612  1.00  0.00    -0.200 OA
BRANCH  23  26
HETATM   26  N1  UNL     1      -7.263  -6.613 -13.588  1.00  0.00    -0.281 N 
ATOM     27  H1  UNL     1      -6.294  -6.919 -13.498  1.00  0.00     0.179 HD
BRANCH  26  28
HETATM   28  C5  UNL     1      -7.809  -5.858 -12.541  1.00  0.00     0.042 A 
HETATM   29  C4  UNL     1      -9.109  -5.926 -12.117  1.00  0.00     0.030 A 
HETATM   30  C3  UNL     1      -9.588  -5.162 -11.084  1.00  0.00     0.009 A 
HETATM   31  C2  UNL     1      -8.761  -4.278 -10.420  1.00  0.00    -0.062 A 
HETATM   32  C1  UNL     1      -9.298  -3.460  -9.305  1.00  0.00     0.048 C 
HETATM   33  C21 UNL     1      -7.440  -4.194 -10.834  1.00  0.00     0.009 A 
HETATM   34  C20 UNL     1      -6.977  -4.971 -11.874  1.00  0.00     0.030 A 
ENDBRANCH  26  28
ENDBRANCH  23  26
ENDBRANCH   1  23
TORSDOF 5
ENDMDL
MODEL 2
REMARK VINA RESULT: -10.169942249      2.899      4.523
REMARK  5 active torsions:
REMARK  status: ('A' for Active; 'I' for Inactive)
REMARK    1  A    between atoms: C5_5  and  N1_6 
REMARK    2  A    between atoms: N1_6  and  S1_8 
REMARK    3  A    between atoms: S1_8  and  C6_11 
REMARK    4  A    between atoms: C10_15  and  C11_16 
REMARK    5  A    between atoms: C16_24  and  N3_25 
ROOT
HETATM    1  C6  UNL     1      -9.456  -5.125 -13.792  1.00  0.00     0.080 A 
HETATM    2  C7  UNL     1      -9.147  -5.942 -12.726  1.00  0.00     0.025 A 
HETATM    3  C8  UNL     1      -9.405  -5.460 -11.460  1.00  0.00     0.002 A 
HETATM    4  C9  UNL     1      -9.953  -4.205 -11.284  1.00  0.00     0.012 A 
HETATM    5  C10 UNL     1     -10.266  -3.380 -12.341  1.00  0.00    -0.024 A 
HETATM    6  C19 UNL     1     -10.010  -3.856 -13.607  1.00  0.00     0.037 A 
ENDROOT
BRANCH   5   7
HETATM    7  C11 UNL     1     -10.855  -2.041 -12.122  1.00  0.00    -0.024 A 
HETATM    8  C12 UNL     1     -12.086  -1.712 -12.645  1.00  0.00     0.014 A 
HETATM    9  C13 UNL     1     -12.635  -0.469 -12.446  1.00  0.00     0.033 A 
HETATM   10  C14 UNL     1     -11.976   0.493 -11.714  1.00  0.00     0.062 A 
HETATM   11  N2  UNL     1     -12.506   1.725 -11.509  1.00  0.00    -0.318 N 
HETATM   12  C17 UNL     1     -10.738   0.188 -11.178  1.00  0.00     0.061 A 
HETATM   13  C15 UNL     1     -11.861   2.660 -10.797  1.00  0.00     0.289 A 
ATOM     14  H2  UNL     1     -13.419   1.946 -11.906  1.00  0.00     0.169 HD
HETATM   15  O3  UNL     1     -12.365   3.797 -10.616  1.00  0.00    -0.264 OA
HETATM   16  C16 UNL     1     -10.633   2.327 -10.277  1.00  0.00     0.169 A 
HETATM   17  N4  UNL     1     -10.084   1.113 -10.464  1.00  0.00    -0.336 N 
ATOM     18  H4  UNL     1      -9.172   0.898 -10.063  1.00  0.00     0.168 HD
HETATM   19  C18 UNL     1     -10.194  -1.082 -11.391  1.00  0.00     0.044 A 
BRANCH  16  20
HETATM   20  N3  UNL     1      -9.942   3.168  -9.576  1.00  0.00    -0.381 N 
ATOM     21  H32 UNL     1      -8.928   3.115  -9.676  1.00  0.00     0.157 HD
ATOM     22  H31 UNL     1     -10.389   3.845  -8.959  1.00  0.00     0.157 HD
ENDBRANCH  16  20
ENDBRANCH   5   7
BRANCH   1  23
HETATM   23  S1  UNL     1      -9.139  -5.714 -15.393  1.00  0.00     0.263 S 
HETATM   24  O1  UNL     1      -9.935  -4.897 -16.380  1.00  0.00    -0.200 OA
HETATM   25  O2  UNL     1      -9.582  -7.141 -15.568  1.00  0.00    -0.200 OA
BRANCH  23  26
HETATM   26  N1  UNL     1      -7.473  -5.649 -15.826  1.00  0.00    -0.281 N 
ATOM     27  H1  UNL     1      -6.948  -6.524 -15.828  1.00  0.00     0.179 HD
BRANCH  26  28
HETATM   28  C5  UNL     1      -6.788  -4.477 -16.177  1.00  0.00     0.042 A 
HETATM   29  C4  UNL     1      -6.559  -4.052 -17.459  1.00  0.00     0.030 A 
HETATM   30  C3  UNL     1      -5.882  -2.895 -17.742  1.00  0.00     0.009 A 
HETATM   31  C2  UNL     1      -5.394  -2.098 -16.725  1.00  0.00    -0.062 A 
HETATM   32  C1  UNL     1      -4.664  -0.848 -17.052  1.00  0.00     0.048 C 
HETATM   33  C21 UNL     1      -5.615  -2.509 -15.419  1.00  0.00     0.009 A 
HETATM   34  C20 UNL     1      -6.299  -3.677 -15.154  1.00  0.00     0.030 A 
ENDBRANCH  26  28
ENDBRANCH  23  26
ENDBRANCH   1  23
TORSDOF 5
ENDMDL
MODEL 3
REMARK VINA RESULT: -10.162452795      3.168      5.423
REMARK  5 active torsions:
REMARK  status: ('A' for Active; 'I' for Inactive)
REMARK    1  A    between atoms: C5_5  and  N1_6 
REMARK    2  A    between atoms: N1_6  and  S1_8 
REMARK    3  A    between atoms: S1_8  and  C6_11 
REMARK    4  A    between atoms: C10_15  and  C11_16 
REMARK    5  A    between atoms: C16_24  and  N3_25 
ROOT
HETATM    1  C6  UNL     1      -8.682  -7.032 -16.427  1.00  0.00     0.080 A 
HETATM    2  C7  UNL     1      -8.020  -6.747 -17.602  1.00  0.00     0.025 A 
HETATM    3  C8  UNL     1      -8.125  -5.463 -18.095  1.00  0.00     0.002 A 
HETATM    4  C9  UNL     1      -8.868  -4.511 -17.424  1.00  0.00     0.012 A 
HETATM    5  C10 UNL     1      -9.533  -4.784 -16.250  1.00  0.00    -0.024 A 
HETATM    6  C19 UNL     1      -9.431  -6.066 -15.753  1.00  0.00     0.037 A 
ENDROOT
BRANCH   5   7
HETATM    7  C11 UNL     1     -10.319  -3.744 -15.552  1.00  0.00    -0.024 A 
HETATM    8  C12 UNL     1     -10.353  -3.683 -14.176  1.00  0.00     0.014 A 
HETATM    9  C13 UNL     1     -11.083  -2.720 -13.524  1.00  0.00     0.033 A 
HETATM   10  C14 UNL     1     -11.807  -1.779 -14.222  1.00  0.00     0.062 A 
HETATM   11  N2  UNL     1     -12.533  -0.822 -13.592  1.00  0.00    -0.318 N 
HETATM   12  C17 UNL     1     -11.788  -1.819 -15.605  1.00  0.00     0.061 A 
HETATM   13  C15 UNL     1     -13.237   0.092 -14.275  1.00  0.00     0.289 A 
ATOM     14  H2  UNL     1     -12.543  -0.796 -12.572  1.00  0.00     0.169 HD
HETATM   15  O3  UNL     1     -13.905   0.973 -13.677  1.00  0.00    -0.264 OA
HETATM   16  C16 UNL     1     -13.200   0.027 -15.647  1.00  0.00     0.169 A 
HETATM   17  N4  UNL     1     -12.487  -0.911 -16.298  1.00  0.00    -0.336 N 
ATOM     18  H4  UNL     1     -12.480  -0.930 -17.318  1.00  0.00     0.168 HD
HETATM   19  C18 UNL     1     -11.040  -2.806 -16.252  1.00  0.00     0.044 A 
BRANCH  16  20
HETATM   20  N3  UNL     1     -13.849   0.870 -16.384  1.00  0.00    -0.381 N 
ATOM     21  H32 UNL     1     -14.594   0.484 -16.964  1.00  0.00     0.157 HD
ATOM     22  H31 UNL     1     -13.624   1.865 -16.385  1.00  0.00     0.157 HD
ENDBRANCH  16  20
ENDBRANCH   5   7
BRANCH   1  23
HETATM   23  S1  UNL     1      -8.561  -8.642 -15.791  1.00  0.00     0.263 S 
HETATM   24  O1  UNL     1      -9.573  -9.519 -16.486  1.00  0.00    -0.200 OA
HETATM   25  O2  UNL     1      -8.889  -8.697 -14.324  1.00  0.00    -0.200 OA
BRANCH  23  26
HETATM   26  N1  UNL     1      -6.995  -9.335 -15.982  1.00  0.00    -0.281 N 
ATOM     27  H1  UNL     1      -6.499  -9.626 -15.140  1.00  0.00     0.179 HD
BRANCH  26  28
HETATM   28  C5  UNL     1      -6.355  -9.526 -17.215  1.00  0.00     0.042 A 
HETATM   29  C4  UNL     1      -6.873 -10.230 -18.270  1.00  0.00     0.030 A 
HETATM   30  C3  UNL     1      -6.200 -10.384 -19.454  1.00  0.00     0.009 A 
HETATM   31  C2  UNL     1      -4.950  -9.824 -19.631  1.00  0.00    -0.062 A 
HETATM   32  C1  UNL     1      -4.238 -10.002 -20.921  1.00  0.00     0.048 C 
HETATM   33  C21 UNL     1      -4.408  -9.107 -18.575  1.00  0.00     0.009 A 
HETATM   34  C20 UNL     1      -5.100  -8.963 -17.392  1.00  0.00     0.030 A 
ENDBRANCH  26  28
ENDBRANCH  23  26
ENDBRANCH   1  23
TORSDOF 5
ENDMDL
MODEL 4
REMARK VINA RESULT: -10.106091102      2.430      6.708
REMARK  5 active torsions:
REMARK  status: ('A' for Active; 'I' for Inactive)
REMARK    1  A    between atoms: C5_5  and  N1_6 
REMARK    2  A    between atoms: N1_6  and  S1_8 
REMARK    3  A    between atoms: S1_8  and  C6_11 
REMARK    4  A    between atoms: C10_15  and  C11_16 
REMARK    5  A    between atoms: C16_24  and  N3_25 
ROOT
HETATM    1  C6  UNL     1     -12.939  -0.060 -13.419  1.00  0.00     0.080 A 
HETATM    2  C7  UNL     1     -13.659   0.795 -14.226  1.00  0.00     0.025 A 
HETATM    3  C8  UNL     1     -13.542   0.632 -15.590  1.00  0.00     0.002 A 
HETATM    4  C9  UNL     1     -12.729  -0.355 -16.112  1.00  0.00     0.012 A 
HETATM    5  C10 UNL     1     -12.004  -1.215 -15.317  1.00  0.00    -0.024 A 
HETATM    6  C19 UNL     1     -12.118  -1.056 -13.953  1.00  0.00     0.037 A 
ENDROOT
BRANCH   5   7
HETATM    7  C11 UNL     1     -11.144  -2.264 -15.905  1.00  0.00    -0.024 A 
HETATM    8  C12 UNL     1     -10.697  -2.169 -17.205  1.00  0.00     0.014 A 
HETATM    9  C13 UNL     1      -9.899  -3.143 -17.755  1.00  0.00     0.033 A 
HETATM   10  C14 UNL     1      -9.515  -4.246 -17.028  1.00  0.00     0.062 A 
HETATM   11  N2  UNL     1      -8.727  -5.215 -17.557  1.00  0.00    -0.318 N 
HETATM   12  C17 UNL     1      -9.950  -4.363 -15.720  1.00  0.00     0.061 A 
HETATM   13  C15 UNL     1      -8.356  -6.289 -16.846  1.00  0.00     0.289 A 
ATOM     14  H2  UNL     1      -8.409  -5.124 -18.522  1.00  0.00     0.169 HD
HETATM   15  O3  UNL     1      -7.626  -7.178 -17.351  1.00  0.00    -0.264 OA
HETATM   16  C16 UNL     1      -8.803  -6.378 -15.550  1.00  0.00     0.169 A 
HETATM   17  N4  UNL     1      -9.585  -5.431 -14.998  1.00  0.00    -0.336 N 
ATOM     18  H4  UNL     1      -9.899  -5.527 -14.033  1.00  0.00     0.168 HD
HETATM   19  C18 UNL     1     -10.762  -3.364 -15.175  1.00  0.00     0.044 A 
BRANCH  16  20
HETATM   20  N3  UNL     1      -8.493  -7.380 -14.792  1.00  0.00    -0.381 N 
ATOM     21  H32 UNL     1      -8.974  -8.259 -14.983  1.00  0.00     0.157 HD
ATOM     22  H31 UNL     1      -7.805  -7.292 -14.044  1.00  0.00     0.157 HD
ENDBRANCH  16  20
ENDBRANCH   5   7
BRANCH   1  23
HETATM   23  S1  UNL     1     -13.075   0.129 -11.700  1.00  0.00     0.263 S 
HETATM   24  O1  UNL     1     -14.382   0.812 -11.386  1.00  0.00    -0.200 OA
HETATM   25  O2  UNL     1     -11.991   1.010 -11.140  1.00  0.00    -0.200 OA
BRANCH  23  26
HETATM   26  N1  UNL     1     -13.002  -1.363 -10.842  1.00  0.00    -0.281 N 
ATOM     27  H1  UNL     1     -13.882  -1.778 -10.536  1.00  0.00     0.179 HD
BRANCH  26  28
HETATM   28  C5  UNL     1     -11.817  -2.047 -10.535  1.00  0.00     0.042 A 
HETATM   29  C4  UNL     1     -11.185  -2.937 -11.362  1.00  0.00     0.030 A 
HETATM   30  C3  UNL     1     -10.025  -3.577 -11.008  1.00  0.00     0.009 A 
HETATM   31  C2  UNL     1      -9.440  -3.344  -9.779  1.00  0.00    -0.062 A 
HETATM   32  C1  UNL     1      -8.185  -4.046  -9.414  1.00  0.00     0.048 C 
HETATM   33  C21 UNL     1     -10.064  -2.446  -8.926  1.00  0.00     0.009 A 
HETATM   34  C20 UNL     1     -11.230  -1.812  -9.300  1.00  0.00     0.030 A 
ENDBRANCH  26  28
ENDBRANCH  23  26
ENDBRANCH   1  23
TORSDOF 5
ENDMDL
MODEL 5
REMARK VINA RESULT: -10.017986822      1.577      2.538
REMARK  5 active torsions:
REMARK  status: ('A' for Active; 'I' for Inactive)
REMARK    1  A    between atoms: C5_5  and  N1_6 
REMARK    2  A    between atoms: N1_6  and  S1_8 
REMARK    3  A    between atoms: S1_8  and  C6_11 
REMARK    4  A    between atoms: C10_15  and  C11_16 
REMARK    5  A    between atoms: C16_24  and  N3_25 
ROOT
HETATM    1  C6  UNL     1      -8.502  -6.620 -16.459  1.00  0.00     0.080 A 
HETATM    2  C7  UNL     1      -7.987  -6.380 -17.715  1.00  0.00     0.025 A 
HETATM    3  C8  UNL     1      -8.268  -5.160 -18.294  1.00  0.00     0.002 A 
HETATM    4  C9  UNL     1      -9.036  -4.226 -17.627  1.00  0.00     0.012 A 
HETATM    5  C10 UNL     1      -9.556  -4.455 -16.373  1.00  0.00    -0.024 A 
HETATM    6  C19 UNL     1      -9.278  -5.672 -15.791  1.00  0.00     0.037 A 
ENDROOT
BRANCH   5   7
HETATM    7  C11 UNL     1     -10.374  -3.434 -15.683  1.00  0.00    -0.024 A 
HETATM    8  C12 UNL     1     -10.454  -3.401 -14.308  1.00  0.00     0.014 A 
HETATM    9  C13 UNL     1     -11.214  -2.456 -13.662  1.00  0.00     0.033 A 
HETATM   10  C14 UNL     1     -11.922  -1.507 -14.365  1.00  0.00     0.062 A 
HETATM   11  N2  UNL     1     -12.677  -0.568 -13.742  1.00  0.00    -0.318 N 
HETATM   12  C17 UNL     1     -11.857  -1.520 -15.747  1.00  0.00     0.061 A 
HETATM   13  C15 UNL     1     -13.366   0.353 -14.430  1.00  0.00     0.289 A 
ATOM     14  H2  UNL     1     -12.721  -0.563 -12.723  1.00  0.00     0.169 HD
HETATM   15  O3  UNL     1     -14.060   1.216 -13.838  1.00  0.00    -0.264 OA
HETATM   16  C16 UNL     1     -13.282   0.315 -15.801  1.00  0.00     0.169 A 
HETATM   17  N4  UNL     1     -12.540  -0.605 -16.446  1.00  0.00    -0.336 N 
ATOM     18  H4  UNL     1     -12.498  -0.603 -17.465  1.00  0.00     0.168 HD
HETATM   19  C18 UNL     1     -11.079  -2.489 -16.388  1.00  0.00     0.044 A 
BRANCH  16  20
HETATM   20  N3  UNL     1     -13.913   1.167 -16.544  1.00  0.00    -0.381 N 
ATOM     21  H32 UNL     1     -13.400   2.011 -16.802  1.00  0.00     0.157 HD
ATOM     22  H31 UNL     1     -14.871   1.002 -16.852  1.00  0.00     0.157 HD
ENDBRANCH  16  20
ENDBRANCH   5   7
BRANCH   1  23
HETATM   23  S1  UNL     1      -8.159  -8.149 -15.714  1.00  0.00     0.263 S 
HETATM   24  O1  UNL     1      -7.117  -8.869 -16.534  1.00  0.00    -0.200 OA
HETATM   25  O2  UNL     1      -9.366  -9.046 -15.681  1.00  0.00    -0.200 OA
BRANCH  23  26
HETATM   26  N1  UNL     1      -7.594  -8.006 -14.092  1.00  0.00    -0.281 N 
ATOM     27  H1  UNL     1      -7.145  -8.820 -13.673  1.00  0.00     0.179 HD
BRANCH  26  28
HETATM   28  C5  UNL     1      -7.709  -6.848 -13.310  1.00  0.00     0.042 A 
HETATM   29  C4  UNL     1      -6.797  -5.826 -13.277  1.00  0.00     0.030 A 
HETATM   30  C3  UNL     1      -6.963  -4.716 -12.491  1.00  0.00     0.009 A 
HETATM   31  C2  UNL     1      -8.078  -4.584 -11.686  1.00  0.00    -0.062 A 
HETATM   32  C1  UNL     1      -8.239  -3.374 -10.842  1.00  0.00     0.048 C 
HETATM   33  C21 UNL     1      -9.013  -5.607 -11.704  1.00  0.00     0.009 A 
HETATM   34  C20 UNL     1      -8.828  -6.716 -12.502  1.00  0.00     0.030 A 
ENDBRANCH  26  28
ENDBRANCH  23  26
ENDBRANCH   1  23
TORSDOF 5
ENDMDL
