MODEL 1
REMARK VINA RESULT: -11.511811047      0.000      0.000
REMARK  4 active torsions:
REMARK  status: ('A' for Active; 'I' for Inactive)
REMARK       I    between atoms: C1_4  and  N3_6 
REMARK    1  A    between atoms: N3_6  and  N4_8 
REMARK    2  A    between atoms: C2_10  and  C3_11 
REMARK    3  A    between atoms: C5_13  and  C6_14 
REMARK    4  A    between atoms: C8_17  and  C9_18 
ROOT
HETATM    1  C3  UNL     1     -11.177  -2.283 -13.886  1.00  0.00     0.008 A 
HETATM    2  C4  UNL     1     -10.640  -3.413 -14.465  1.00  0.00     0.000 A 
HETATM    3  C5  UNL     1     -10.657  -3.648 -15.806  1.00  0.00     0.014 A 
HETATM    4  C7  UNL     1     -10.083  -4.794 -16.369  1.00  0.00     0.027 A 
HETATM    5  C8  UNL     1      -9.464  -5.734 -15.584  1.00  0.00    -0.024 A 
HETATM    6  C15 UNL     1      -9.425  -5.502 -14.239  1.00  0.00     0.024 A 
HETATM    7  C16 UNL     1      -9.987  -4.378 -13.682  1.00  0.00    -0.021 A 
HETATM    8  C17 UNL     1      -9.854  -4.226 -12.327  1.00  0.00     0.042 A 
HETATM    9  C18 UNL     1     -10.373  -3.096 -11.737  1.00  0.00     0.047 A 
HETATM   10  N5  UNL     1     -10.341  -2.726 -10.436  1.00  0.00    -0.354 N 
ATOM     11  H5  UNL     1      -9.920  -3.263  -9.677  1.00  0.00     0.166 HD
HETATM   12  C19 UNL     1     -10.948  -1.548 -10.308  1.00  0.00     0.060 A 
HETATM   13  C20 UNL     1     -11.171  -0.750  -9.211  1.00  0.00     0.033 A 
HETATM   14  C21 UNL     1     -11.829   0.439  -9.395  1.00  0.00     0.019 A 
HETATM   15  C22 UNL     1     -12.251   0.806 -10.664  1.00  0.00     0.088 A 
HETATM   16  N6  UNL     1     -12.002  -0.015 -11.672  1.00  0.00    -0.363 N 
ATOM     17  H6  UNL     1     -12.321   0.272 -12.597  1.00  0.00     0.165 HD
HETATM   18  C23 UNL     1     -11.376  -1.173 -11.580  1.00  0.00     0.072 A 
HETATM   19  C24 UNL     1     -11.023  -2.139 -12.497  1.00  0.00     0.032 A 
ENDROOT
BRANCH   1  20
HETATM   20  C2  UNL     1     -12.133  -1.476 -14.581  1.00  0.00     0.120 C 
HETATM   21  N4  UNL     1     -13.407  -1.527 -14.615  1.00  0.00    -0.309 N 
ATOM     22  H4  UNL     1     -13.843  -2.264 -14.060  1.00  0.00     0.186 HD
BRANCH  21  23
HETATM   23  N3  UNL     1     -14.255  -0.712 -15.308  1.00  0.00    -0.274 N 
HETATM   24  C1  UNL     1     -13.912   0.660 -15.500  1.00  0.00     0.200 C 
HETATM   25  N1  UNL     1     -13.803   1.478 -14.512  1.00  0.00    -0.372 N 
HETATM   26  N2  UNL     1     -13.671   1.186 -16.815  1.00  0.00    -0.062 NA
ATOM     27  H12 UNL     1     -13.558   2.458 -14.649  1.00  0.00     0.158 HD
ATOM     28  H11 UNL     1     -13.974   1.104 -13.578  1.00  0.00     0.158 HD
ATOM     29  H3  UNL     1     -15.127  -1.080 -15.687  1.00  0.00     0.189 HD
ENDBRANCH  21  23
ENDBRANCH   1  20
BRANCH   3  30
HETATM   30  C6  UNL     1     -10.991  -2.634 -16.768  1.00  0.00     0.271 C 
HETATM   31  O1  UNL     1     -11.927  -2.922 -17.613  1.00  0.00    -0.301 OA
ENDBRANCH   3  30
BRANCH   5  32
HETATM   32  C9  UNL     1      -8.884  -6.929 -16.187  1.00  0.00    -0.026 A 
HETATM   33  C10 UNL     1      -9.248  -8.187 -15.732  1.00  0.00     0.012 A 
HETATM   34  C11 UNL     1      -8.725  -9.341 -16.270  1.00  0.00     0.001 A 
HETATM   35  C12 UNL     1      -7.817  -9.245 -17.287  1.00  0.00     0.000 A 
HETATM   36  C13 UNL     1      -7.427  -8.007 -17.770  1.00  0.00     0.001 A 
HETATM   37  C14 UNL     1      -7.969  -6.855 -17.210  1.00  0.00     0.012 A 
ENDBRANCH   5  32
TORSDOF 4
ENDMDL
MODEL 2
REMARK VINA RESULT: -11.400790898      0.961      1.078
REMARK  4 active torsions:
REMARK  status: ('A' for Active; 'I' for Inactive)
REMARK       I    between atoms: C1_4  and  N3_6 
REMARK    1  A    between atoms: N3_6  and  N4_8 
REMARK    2  A    between atoms: C2_10  and  C3_11 
REMARK    3  A    between atoms: C5_13  and  C6_14 
REMARK    4  A    between atoms: C8_17  and  C9_18 
ROOT
HETATM    1  C3  UNL     1     -10.964  -2.902 -14.299  1.00  0.00     0.008 A 
HETATM    2  C4  UNL     1     -10.274  -3.928 -14.908  1.00  0.00     0.000 A 
HETATM    3  C5  UNL     1     -10.194  -4.079 -16.259  1.00  0.00     0.014 A 
HETATM    4  C7  UNL     1      -9.467  -5.118 -16.851  1.00  0.00     0.027 A 
HETATM    5  C8  UNL     1      -8.788  -6.032 -16.085  1.00  0.00    -0.024 A 
HETATM    6  C15 UNL     1      -8.847  -5.883 -14.729  1.00  0.00     0.024 A 
HETATM    7  C16 UNL     1      -9.560  -4.864 -14.144  1.00  0.00    -0.021 A 
HETATM    8  C17 UNL     1      -9.515  -4.784 -12.777  1.00  0.00     0.042 A 
HETATM    9  C18 UNL     1     -10.188  -3.756 -12.155  1.00  0.00     0.047 A 
HETATM   10  N5  UNL     1     -10.266  -3.467 -10.836  1.00  0.00    -0.354 N 
ATOM     11  H5  UNL     1      -9.828  -4.002 -10.085  1.00  0.00     0.166 HD
HETATM   12  C19 UNL     1     -11.008  -2.372 -10.678  1.00  0.00     0.060 A 
HETATM   13  C20 UNL     1     -11.376  -1.674  -9.552  1.00  0.00     0.033 A 
HETATM   14  C21 UNL     1     -12.153  -0.554  -9.707  1.00  0.00     0.019 A 
HETATM   15  C22 UNL     1     -12.546  -0.156 -10.977  1.00  0.00     0.088 A 
HETATM   16  N6  UNL     1     -12.154  -0.880 -12.012  1.00  0.00    -0.363 N 
ATOM     17  H6  UNL     1     -12.453  -0.572 -12.937  1.00  0.00     0.165 HD
HETATM   18  C23 UNL     1     -11.408  -1.967 -11.950  1.00  0.00     0.072 A 
HETATM   19  C24 UNL     1     -10.901  -2.830 -12.897  1.00  0.00     0.032 A 
ENDROOT
BRANCH   1  20
HETATM   20  C2  UNL     1     -11.968  -2.161 -15.002  1.00  0.00     0.120 C 
HETATM   21  N4  UNL     1     -11.989  -0.951 -15.405  1.00  0.00    -0.309 N 
ATOM     22  H4  UNL     1     -11.158  -0.394 -15.202  1.00  0.00     0.186 HD
BRANCH  21  23
HETATM   23  N3  UNL     1     -12.993  -0.315 -16.076  1.00  0.00    -0.274 N 
HETATM   24  C1  UNL     1     -13.938   0.469 -15.349  1.00  0.00     0.200 C 
HETATM   25  N1  UNL     1     -14.737  -0.055 -14.487  1.00  0.00    -0.372 N 
HETATM   26  N2  UNL     1     -14.035   1.888 -15.553  1.00  0.00    -0.062 NA
ATOM     27  H12 UNL     1     -15.413   0.505 -13.968  1.00  0.00     0.158 HD
ATOM     28  H11 UNL     1     -14.668  -1.063 -14.342  1.00  0.00     0.158 HD
ATOM     29  H3  UNL     1     -13.068  -0.399 -17.089  1.00  0.00     0.189 HD
ENDBRANCH  21  23
ENDBRANCH   1  20
BRANCH   3  30
HETATM   30  C6  UNL     1     -10.589  -3.049 -17.180  1.00  0.00     0.271 C 
HETATM   31  O1  UNL     1     -11.720  -3.215 -17.787  1.00  0.00    -0.301 OA
ENDBRANCH   3  30
BRANCH   5  32
HETATM   32  C9  UNL     1      -8.047  -7.117 -16.719  1.00  0.00    -0.026 A 
HETATM   33  C10 UNL     1      -8.687  -8.303 -17.046  1.00  0.00     0.012 A 
HETATM   34  C11 UNL     1      -8.027  -9.352 -17.643  1.00  0.00     0.001 A 
HETATM   35  C12 UNL     1      -6.696  -9.223 -17.923  1.00  0.00     0.000 A 
HETATM   36  C13 UNL     1      -6.020  -8.055 -17.614  1.00  0.00     0.001 A 
HETATM   37  C14 UNL     1      -6.708  -7.008 -17.010  1.00  0.00     0.012 A 
ENDBRANCH   5  32
TORSDOF 4
ENDMDL
MODEL 3
REMARK VINA RESULT: -10.988981809      2.343      4.853
REMARK  4 active torsions:
REMARK  status: ('A' for Active; 'I' for Inactive)
REMARK       I    between atoms: C1_4  and  N3_6 
REMARK    1  A    between atoms: N3_6  and  N4_8 
REMARK    2  A    between atoms: C2_10  and  C3_11 
REMARK    3  A    between atoms: C5_13  and  C6_14 
REMARK    4  A    between atoms: C8_17  and  C9_18 
ROOT
HETATM    1  C3  UNL     1     -10.389  -3.495 -14.053  1.00  0.00     0.008 A 
HETATM    2  C4  UNL     1      -9.727  -4.497 -14.731  1.00  0.00     0.000 A 
HETATM    3  C5  UNL     1      -9.016  -5.479 -14.110  1.00  0.00     0.014 A 
HETATM    4  C7  UNL     1      -8.373  -6.498 -14.823  1.00  0.00     0.027 A 
HETATM    5  C8  UNL     1      -8.443  -6.555 -16.192  1.00  0.00    -0.024 A 
HETATM    6  C15 UNL     1      -9.166  -5.586 -16.826  1.00  0.00     0.024 A 
HETATM    7  C16 UNL     1      -9.799  -4.584 -16.129  1.00  0.00    -0.021 A 
HETATM    8  C17 UNL     1     -10.532  -3.689 -16.863  1.00  0.00     0.042 A 
HETATM    9  C18 UNL     1     -11.209  -2.691 -16.199  1.00  0.00     0.047 A 
HETATM   10  N5  UNL     1     -12.003  -1.721 -16.706  1.00  0.00    -0.354 N 
ATOM     11  H5  UNL     1     -12.210  -1.580 -17.695  1.00  0.00     0.166 HD
HETATM   12  C19 UNL     1     -12.472  -0.979 -15.703  1.00  0.00     0.060 A 
HETATM   13  C20 UNL     1     -13.314   0.107 -15.687  1.00  0.00     0.033 A 
HETATM   14  C21 UNL     1     -13.631   0.665 -14.475  1.00  0.00     0.019 A 
HETATM   15  C22 UNL     1     -13.103   0.131 -13.308  1.00  0.00     0.088 A 
HETATM   16  N6  UNL     1     -12.298  -0.915 -13.404  1.00  0.00    -0.363 N 
ATOM     17  H6  UNL     1     -11.920  -1.293 -12.535  1.00  0.00     0.165 HD
HETATM   18  C23 UNL     1     -11.944  -1.509 -14.528  1.00  0.00     0.072 A 
HETATM   19  C24 UNL     1     -11.142  -2.591 -14.820  1.00  0.00     0.032 A 
ENDROOT
BRANCH   1  20
HETATM   20  C2  UNL     1     -10.058  -3.172 -12.698  1.00  0.00     0.120 C 
HETATM   21  N4  UNL     1      -9.173  -2.391 -12.214  1.00  0.00    -0.309 N 
ATOM     22  H4  UNL     1      -8.586  -1.902 -12.890  1.00  0.00     0.186 HD
BRANCH  21  23
HETATM   23  N3  UNL     1      -8.920  -2.135 -10.897  1.00  0.00    -0.274 N 
HETATM   24  C1  UNL     1      -7.696  -2.581 -10.316  1.00  0.00     0.200 C 
HETATM   25  N1  UNL     1      -7.410  -3.831 -10.210  1.00  0.00    -0.372 N 
HETATM   26  N2  UNL     1      -6.726  -1.643  -9.821  1.00  0.00    -0.062 NA
ATOM     27  H12 UNL     1      -6.535  -4.150  -9.794  1.00  0.00     0.158 HD
ATOM     28  H11 UNL     1      -8.098  -4.497 -10.561  1.00  0.00     0.158 HD
ATOM     29  H3  UNL     1      -9.602  -1.627 -10.332  1.00  0.00     0.189 HD
ENDBRANCH  21  23
ENDBRANCH   1  20
BRANCH   3  30
HETATM   30  C6  UNL     1      -9.102  -5.725 -12.696  1.00  0.00     0.271 C 
HETATM   31  O1  UNL     1      -8.002  -6.040 -12.094  1.00  0.00    -0.301 OA
ENDBRANCH   3  30
BRANCH   5  32
HETATM   32  C9  UNL     1      -7.754  -7.616 -16.919  1.00  0.00    -0.026 A 
HETATM   33  C10 UNL     1      -6.379  -7.569 -17.087  1.00  0.00     0.012 A 
HETATM   34  C11 UNL     1      -5.689  -8.547 -17.767  1.00  0.00     0.001 A 
HETATM   35  C12 UNL     1      -6.382  -9.599 -18.296  1.00  0.00     0.000 A 
HETATM   36  C13 UNL     1      -7.756  -9.683 -18.151  1.00  0.00     0.001 A 
HETATM   37  C14 UNL     1      -8.432  -8.683 -17.460  1.00  0.00     0.012 A 
ENDBRANCH   5  32
TORSDOF 4
ENDMDL
MODEL 4
REMARK VINA RESULT: -10.973817262      0.902      1.150
REMARK  4 active torsions:
REMARK  status: ('A' for Active; 'I' for Inactive)
REMARK       I    between atoms: C1_4  and  N3_6 
REMARK    1  A    between atoms: N3_6  and  N4_8 
REMARK    2  A    between atoms: C2_10  and  C3_11 
REMARK    3  A    between atoms: C5_13  and  C6_14 
REMARK    4  A    between atoms: C8_17  and  C9_18 
ROOT
HETATM    1  C3  UNL     1     -10.815  -2.913 -13.817  1.00  0.00     0.008 A 
HETATM    2  C4  UNL     1     -10.228  -4.055 -14.318  1.00  0.00     0.000 A 
HETATM    3  C5  UNL     1     -10.166  -4.344 -15.648  1.00  0.00     0.014 A 
HETATM    4  C7  UNL     1      -9.543  -5.501 -16.131  1.00  0.00     0.027 A 
HETATM    5  C8  UNL     1      -8.953  -6.396 -15.275  1.00  0.00    -0.024 A 
HETATM    6  C15 UNL     1      -8.994  -6.111 -13.940  1.00  0.00     0.024 A 
HETATM    7  C16 UNL     1      -9.605  -4.976 -13.462  1.00  0.00    -0.021 A 
HETATM    8  C17 UNL     1      -9.550  -4.767 -12.109  1.00  0.00     0.042 A 
HETATM    9  C18 UNL     1     -10.120  -3.624 -11.595  1.00  0.00     0.047 A 
HETATM   10  N5  UNL     1     -10.166  -3.202 -10.311  1.00  0.00    -0.354 N 
ATOM     11  H5  UNL     1      -9.780  -3.700  -9.509  1.00  0.00     0.166 HD
HETATM   12  C19 UNL     1     -10.799  -2.031 -10.265  1.00  0.00     0.060 A 
HETATM   13  C20 UNL     1     -11.096  -1.194  -9.216  1.00  0.00     0.033 A 
HETATM   14  C21 UNL     1     -11.762  -0.026  -9.484  1.00  0.00     0.019 A 
HETATM   15  C22 UNL     1     -12.119   0.282 -10.789  1.00  0.00     0.088 A 
HETATM   16  N6  UNL     1     -11.800  -0.573 -11.747  1.00  0.00    -0.363 N 
ATOM     17  H6  UNL     1     -12.071  -0.330 -12.700  1.00  0.00     0.165 HD
HETATM   18  C23 UNL     1     -11.162  -1.716 -11.573  1.00  0.00     0.072 A 
HETATM   19  C24 UNL     1     -10.742  -2.711 -12.428  1.00  0.00     0.032 A 
ENDROOT
BRANCH   1  20
HETATM   20  C2  UNL     1     -11.744  -2.152 -14.596  1.00  0.00     0.120 C 
HETATM   21  N4  UNL     1     -13.020  -2.131 -14.596  1.00  0.00    -0.309 N 
ATOM     22  H4  UNL     1     -13.480  -2.757 -13.935  1.00  0.00     0.186 HD
BRANCH  21  23
HETATM   23  N3  UNL     1     -13.839  -1.368 -15.377  1.00  0.00    -0.274 N 
HETATM   24  C1  UNL     1     -13.727   0.053 -15.337  1.00  0.00     0.200 C 
HETATM   25  N1  UNL     1     -13.983   0.727 -14.270  1.00  0.00    -0.372 N 
HETATM   26  N2  UNL     1     -13.317   0.796 -16.497  1.00  0.00    -0.062 NA
ATOM     27  H12 UNL     1     -13.902   1.742 -14.242  1.00  0.00     0.158 HD
ATOM     28  H11 UNL     1     -14.274   0.199 -13.447  1.00  0.00     0.158 HD
ATOM     29  H3  UNL     1     -14.528  -1.811 -15.985  1.00  0.00     0.189 HD
ENDBRANCH  21  23
ENDBRANCH   1  20
BRANCH   3  30
HETATM   30  C6  UNL     1     -10.463  -3.376 -16.668  1.00  0.00     0.271 C 
HETATM   31  O1  UNL     1      -9.921  -3.568 -17.826  1.00  0.00    -0.301 OA
ENDBRANCH   3  30
BRANCH   5  32
HETATM   32  C9  UNL     1      -8.322  -7.604 -15.795  1.00  0.00    -0.026 A 
HETATM   33  C10 UNL     1      -8.260  -7.828 -17.162  1.00  0.00     0.012 A 
HETATM   34  C11 UNL     1      -7.675  -8.953 -17.696  1.00  0.00     0.001 A 
HETATM   35  C12 UNL     1      -7.137  -9.883 -16.850  1.00  0.00     0.000 A 
HETATM   36  C13 UNL     1      -7.178  -9.698 -15.479  1.00  0.00     0.001 A 
HETATM   37  C14 UNL     1      -7.775  -8.552 -14.963  1.00  0.00     0.012 A 
ENDBRANCH   5  32
TORSDOF 4
ENDMDL
MODEL 5
REMARK VINA RESULT: -10.926321199      2.044      4.459
REMARK  4 active torsions:
REMARK  status: ('A' for Active; 'I' for Inactive)
REMARK       I    between atoms: C1_4  and  N3_6 
REMARK    1  A    between atoms: N3_6  and  N4_8 
REMARK    2  A    between atoms: C2_10  and  C3_11 
REMARK    3  A    between atoms: C5_13  and  C6_14 
REMARK    4  A    between atoms: C8_17  and  C9_18 
ROOT
HETATM    1  C3  UNL     1     -10.488  -3.412 -14.085  1.00  0.00     0.008 A 
HETATM    2  C4  UNL     1      -9.806  -4.415 -14.741  1.00  0.00     0.000 A 
HETATM    3  C5  UNL     1      -9.110  -5.393 -14.098  1.00  0.00     0.014 A 
HETATM    4  C7  UNL     1      -8.445  -6.412 -14.790  1.00  0.00     0.027 A 
HETATM    5  C8  UNL     1      -8.478  -6.475 -16.160  1.00  0.00    -0.024 A 
HETATM    6  C15 UNL     1      -9.186  -5.509 -16.817  1.00  0.00     0.024 A 
HETATM    7  C16 UNL     1      -9.839  -4.507 -16.141  1.00  0.00    -0.021 A 
HETATM    8  C17 UNL     1     -10.554  -3.615 -16.898  1.00  0.00     0.042 A 
HETATM    9  C18 UNL     1     -11.251  -2.617 -16.255  1.00  0.00     0.047 A 
HETATM   10  N5  UNL     1     -12.034  -1.650 -16.787  1.00  0.00    -0.354 N 
ATOM     11  H5  UNL     1     -12.214  -1.514 -17.782  1.00  0.00     0.166 HD
HETATM   12  C19 UNL     1     -12.531  -0.906 -15.799  1.00  0.00     0.060 A 
HETATM   13  C20 UNL     1     -13.376   0.178 -15.810  1.00  0.00     0.033 A 
HETATM   14  C21 UNL     1     -13.727   0.739 -14.609  1.00  0.00     0.019 A 
HETATM   15  C22 UNL     1     -13.230   0.211 -13.427  1.00  0.00     0.088 A 
HETATM   16  N6  UNL     1     -12.420  -0.834 -13.497  1.00  0.00    -0.363 N 
ATOM     17  H6  UNL     1     -12.064  -1.208 -12.617  1.00  0.00     0.165 HD
HETATM   18  C23 UNL     1     -12.034  -1.431 -14.608  1.00  0.00     0.072 A 
HETATM   19  C24 UNL     1     -11.222  -2.512 -14.875  1.00  0.00     0.032 A 
ENDROOT
BRANCH   1  20
HETATM   20  C2  UNL     1     -10.195  -3.083 -12.723  1.00  0.00     0.120 C 
HETATM   21  N4  UNL     1      -9.391  -2.230 -12.220  1.00  0.00    -0.309 N 
ATOM     22  H4  UNL     1      -8.851  -1.674 -12.884  1.00  0.00     0.186 HD
BRANCH  21  23
HETATM   23  N3  UNL     1      -9.168  -1.974 -10.898  1.00  0.00    -0.274 N 
HETATM   24  C1  UNL     1     -10.207  -1.396 -10.109  1.00  0.00     0.200 C 
HETATM   25  N1  UNL     1     -10.662  -0.215 -10.343  1.00  0.00    -0.372 N 
HETATM   26  N2  UNL     1     -10.791  -2.117  -9.011  1.00  0.00    -0.062 NA
ATOM     27  H12 UNL     1     -11.404   0.198  -9.779  1.00  0.00     0.158 HD
ATOM     28  H11 UNL     1     -10.247   0.296 -11.122  1.00  0.00     0.158 HD
ATOM     29  H3  UNL     1      -8.266  -2.195 -10.476  1.00  0.00     0.189 HD
ENDBRANCH  21  23
ENDBRANCH   1  20
BRANCH   3  30
HETATM   30  C6  UNL     1      -9.233  -5.634 -12.687  1.00  0.00     0.271 C 
HETATM   31  O1  UNL     1      -8.146  -5.926 -12.050  1.00  0.00    -0.301 OA
ENDBRANCH   3  30
BRANCH   5  32
HETATM   32  C9  UNL     1      -7.767  -7.536 -16.865  1.00  0.00    -0.026 A 
HETATM   33  C10 UNL     1      -6.387  -7.492 -16.987  1.00  0.00     0.012 A 
HETATM   34  C11 UNL     1      -5.677  -8.470 -17.645  1.00  0.00     0.001 A 
HETATM   35  C12 UNL     1      -6.354  -9.521 -18.197  1.00  0.00     0.000 A 
HETATM   36  C13 UNL     1      -7.732  -9.603 -18.097  1.00  0.00     0.001 A 
HETATM   37  C14 UNL     1      -8.429  -8.602 -17.428  1.00  0.00     0.012 A 
ENDBRANCH   5  32
TORSDOF 4
ENDMDL
