MODEL 1
REMARK VINA RESULT: -9.679822979      0.000      0.000
REMARK  5 active torsions:
REMARK  status: ('A' for Active; 'I' for Inactive)
REMARK    1  A    between atoms: N1_1  and  C1_4 
REMARK    2  A    between atoms: C3_8  and  C4_9 
REMARK    3  A    between atoms: C7_12  and  C8_13 
REMARK    4  A    between atoms: N5_27  and  C17_28 
REMARK    5  A    between atoms: C17_28  and  C18_29 
ROOT
HETATM    1  C1  UNL     1      -8.127  -9.854 -17.047  1.00  0.00     0.168 A 
HETATM    2  N2  UNL     1      -9.367  -9.734 -16.537  1.00  0.00    -0.346 N 
ATOM      3  H2  UNL     1     -10.095 -10.409 -16.773  1.00  0.00     0.167 HD
HETATM    4  C2  UNL     1      -9.622  -8.717 -15.719  1.00  0.00     0.120 A 
HETATM    5  C3  UNL     1      -8.670  -7.771 -15.366  1.00  0.00     0.063 A 
HETATM    6  N5  UNL     1      -7.433  -7.889 -15.871  1.00  0.00    -0.305 N 
HETATM    7  C24 UNL     1      -7.175  -8.932 -16.710  1.00  0.00     0.292 A 
HETATM    8  O2  UNL     1      -6.010  -9.090 -17.224  1.00  0.00    -0.264 OA
ENDROOT
BRANCH   5   9
HETATM    9  C4  UNL     1      -9.059  -6.622 -14.562  1.00  0.00    -0.008 A 
HETATM   10  C5  UNL     1      -8.879  -6.579 -13.232  1.00  0.00     0.014 A 
HETATM   11  C6  UNL     1      -9.288  -5.455 -12.529  1.00  0.00     0.014 A 
HETATM   12  C7  UNL     1      -9.876  -4.369 -13.145  1.00  0.00    -0.009 A 
HETATM   13  C15 UNL     1     -10.054  -4.425 -14.502  1.00  0.00     0.014 A 
HETATM   14  C16 UNL     1      -9.654  -5.535 -15.216  1.00  0.00     0.014 A 
BRANCH  12  15
HETATM   15  C8  UNL     1     -10.303  -3.188 -12.389  1.00  0.00     0.044 A 
HETATM   16  C9  UNL     1     -10.552  -3.159 -11.034  1.00  0.00     0.045 A 
HETATM   17  C10 UNL     1     -10.934  -1.894 -10.645  1.00  0.00     0.010 A 
HETATM   18  C11 UNL     1     -11.292  -1.328  -9.429  1.00  0.00     0.021 A 
HETATM   19  C14 UNL     1     -10.914  -1.141 -11.804  1.00  0.00     0.118 A 
HETATM   20  C12 UNL     1     -11.622   0.001  -9.418  1.00  0.00     0.075 A 
HETATM   21  C13 UNL     1     -11.604   0.758 -10.572  1.00  0.00     0.246 A 
HETATM   22  O1  UNL     1     -11.916   1.998 -10.541  1.00  0.00    -0.268 OA
HETATM   23  N3  UNL     1     -11.250   0.159 -11.717  1.00  0.00    -0.309 N 
ATOM     24  H3  UNL     1     -11.236   0.719 -12.570  1.00  0.00     0.170 HD
HETATM   25  N4  UNL     1     -10.531  -1.947 -12.832  1.00  0.00    -0.341 N 
ATOM     26  H4  UNL     1     -10.432  -1.646 -13.802  1.00  0.00     0.167 HD
ENDBRANCH  12  15
ENDBRANCH   5   9
BRANCH   6  27
HETATM   27  C17 UNL     1      -6.322  -7.043 -15.560  1.00  0.00     0.171 C 
BRANCH  27  28
HETATM   28  C18 UNL     1      -6.469  -5.697 -16.166  1.00  0.00    -0.040 A 
HETATM   29  C19 UNL     1      -6.252  -4.562 -15.356  1.00  0.00     0.009 A 
HETATM   30  C20 UNL     1      -6.384  -3.294 -15.832  1.00  0.00     0.001 A 
HETATM   31  C21 UNL     1      -6.744  -3.087 -17.152  1.00  0.00     0.000 A 
HETATM   32  C22 UNL     1      -6.965  -4.160 -17.976  1.00  0.00     0.001 A 
HETATM   33  C23 UNL     1      -6.823  -5.451 -17.464  1.00  0.00     0.009 A 
ENDBRANCH  27  28
ENDBRANCH   6  27
BRANCH   1  34
HETATM   34  N1  UNL     1      -7.808 -10.817 -17.849  1.00  0.00    -0.381 N 
ATOM     35  H12 UNL     1      -8.482 -11.115 -18.554  1.00  0.00     0.157 HD
ATOM     36  H11 UNL     1      -6.902 -11.285 -17.797  1.00  0.00     0.157 HD
ENDBRANCH   1  34
TORSDOF 5
ENDMDL
MODEL 2
REMARK VINA RESULT: -9.575998229      1.018      1.084
REMARK  5 active torsions:
REMARK  status: ('A' for Active; 'I' for Inactive)
REMARK    1  A    between atoms: N1_1  and  C1_4 
REMARK    2  A    between atoms: C3_8  and  C4_9 
REMARK    3  A    between atoms: C7_12  and  C8_13 
REMARK    4  A    between atoms: N5_27  and  C17_28 
REMARK    5  A    between atoms: C17_28  and  C18_29 
ROOT
HETATM    1  C1  UNL     1      -7.972  -9.363 -16.949  1.00  0.00     0.168 A 
HETATM    2  N2  UNL     1      -9.213  -9.309 -16.429  1.00  0.00    -0.346 N 
ATOM      3  H2  UNL     1      -9.927  -9.981 -16.713  1.00  0.00     0.167 HD
HETATM    4  C2  UNL     1      -9.488  -8.361 -15.538  1.00  0.00     0.120 A 
HETATM    5  C3  UNL     1      -8.556  -7.422 -15.117  1.00  0.00     0.063 A 
HETATM    6  N5  UNL     1      -7.319  -7.475 -15.632  1.00  0.00    -0.305 N 
HETATM    7  C24 UNL     1      -7.039  -8.447 -16.547  1.00  0.00     0.292 A 
HETATM    8  O2  UNL     1      -5.873  -8.540 -17.073  1.00  0.00    -0.264 OA
ENDROOT
BRANCH   5   9
HETATM    9  C4  UNL     1      -8.968  -6.345 -14.230  1.00  0.00    -0.008 A 
HETATM   10  C5  UNL     1      -8.735  -6.372 -12.908  1.00  0.00     0.014 A 
HETATM   11  C6  UNL     1      -9.170  -5.315 -12.122  1.00  0.00     0.014 A 
HETATM   12  C7  UNL     1      -9.836  -4.226 -12.647  1.00  0.00    -0.009 A 
HETATM   13  C15 UNL     1     -10.067  -4.210 -13.997  1.00  0.00     0.014 A 
HETATM   14  C16 UNL     1      -9.642  -5.253 -14.793  1.00  0.00     0.014 A 
BRANCH  12  15
HETATM   15  C8  UNL     1     -10.289  -3.116 -11.804  1.00  0.00     0.044 A 
HETATM   16  C9  UNL     1     -11.583  -2.647 -11.736  1.00  0.00     0.045 A 
HETATM   17  C10 UNL     1     -11.665  -1.596 -10.849  1.00  0.00     0.010 A 
HETATM   18  C11 UNL     1     -12.701  -0.781 -10.415  1.00  0.00     0.021 A 
HETATM   19  C14 UNL     1     -10.379  -1.430 -10.370  1.00  0.00     0.118 A 
HETATM   20  C12 UNL     1     -12.406   0.190  -9.497  1.00  0.00     0.075 A 
HETATM   21  C13 UNL     1     -11.124   0.361  -9.015  1.00  0.00     0.246 A 
HETATM   22  O1  UNL     1     -10.868   1.275  -8.157  1.00  0.00    -0.268 OA
HETATM   23  N3  UNL     1     -10.163  -0.455  -9.469  1.00  0.00    -0.309 N 
ATOM     24  H3  UNL     1      -9.216  -0.329  -9.112  1.00  0.00     0.170 HD
HETATM   25  N4  UNL     1      -9.578  -2.357 -10.963  1.00  0.00    -0.341 N 
ATOM     26  H4  UNL     1      -8.578  -2.458 -10.790  1.00  0.00     0.167 HD
ENDBRANCH  12  15
ENDBRANCH   5   9
BRANCH   6  27
HETATM   27  C17 UNL     1      -6.226  -6.629 -15.261  1.00  0.00     0.171 C 
BRANCH  27  28
HETATM   28  C18 UNL     1      -6.372  -5.263 -15.821  1.00  0.00    -0.040 A 
HETATM   29  C19 UNL     1      -6.167  -4.157 -14.970  1.00  0.00     0.009 A 
HETATM   30  C20 UNL     1      -6.300  -2.874 -15.402  1.00  0.00     0.001 A 
HETATM   31  C21 UNL     1      -6.649  -2.621 -16.718  1.00  0.00     0.000 A 
HETATM   32  C22 UNL     1      -6.857  -3.665 -17.581  1.00  0.00     0.001 A 
HETATM   33  C23 UNL     1      -6.714  -4.973 -17.113  1.00  0.00     0.009 A 
ENDBRANCH  27  28
ENDBRANCH   6  27
BRANCH   1  34
HETATM   34  N1  UNL     1      -7.634 -10.256 -17.821  1.00  0.00    -0.381 N 
ATOM     35  H12 UNL     1      -6.767 -10.775 -17.683  1.00  0.00     0.157 HD
ATOM     36  H11 UNL     1      -8.210 -10.457 -18.639  1.00  0.00     0.157 HD
ENDBRANCH   1  34
TORSDOF 5
ENDMDL
MODEL 3
REMARK VINA RESULT: -9.561423923      2.569      3.071
REMARK  5 active torsions:
REMARK  status: ('A' for Active; 'I' for Inactive)
REMARK    1  A    between atoms: N1_1  and  C1_4 
REMARK    2  A    between atoms: C3_8  and  C4_9 
REMARK    3  A    between atoms: C7_12  and  C8_13 
REMARK    4  A    between atoms: N5_27  and  C17_28 
REMARK    5  A    between atoms: C17_28  and  C18_29 
ROOT
HETATM    1  C1  UNL     1      -7.150  -9.848 -15.428  1.00  0.00     0.168 A 
HETATM    2  N2  UNL     1      -8.246  -9.732 -14.654  1.00  0.00    -0.346 N 
ATOM      3  H2  UNL     1      -8.628 -10.543 -14.165  1.00  0.00     0.167 HD
HETATM    4  C2  UNL     1      -8.820  -8.538 -14.541  1.00  0.00     0.120 A 
HETATM    5  C3  UNL     1      -8.343  -7.403 -15.183  1.00  0.00     0.063 A 
HETATM    6  N5  UNL     1      -7.251  -7.516 -15.952  1.00  0.00    -0.305 N 
HETATM    7  C24 UNL     1      -6.665  -8.742 -16.068  1.00  0.00     0.292 A 
HETATM    8  O2  UNL     1      -5.621  -8.906 -16.795  1.00  0.00    -0.264 OA
ENDROOT
BRANCH   5   9
HETATM    9  C4  UNL     1      -9.097  -6.161 -15.105  1.00  0.00    -0.008 A 
HETATM   10  C5  UNL     1      -9.314  -5.523 -13.943  1.00  0.00     0.014 A 
HETATM   11  C6  UNL     1     -10.054  -4.349 -13.943  1.00  0.00     0.014 A 
HETATM   12  C7  UNL     1     -10.578  -3.804 -15.097  1.00  0.00    -0.009 A 
HETATM   13  C15 UNL     1     -10.349  -4.463 -16.275  1.00  0.00     0.014 A 
HETATM   14  C16 UNL     1      -9.616  -5.632 -16.293  1.00  0.00     0.014 A 
BRANCH  12  15
HETATM   15  C8  UNL     1     -11.358  -2.563 -15.082  1.00  0.00     0.044 A 
HETATM   16  C9  UNL     1     -11.767  -1.895 -13.947  1.00  0.00     0.045 A 
HETATM   17  C10 UNL     1     -12.479  -0.767 -14.288  1.00  0.00     0.010 A 
HETATM   18  C11 UNL     1     -13.102   0.236 -13.557  1.00  0.00     0.021 A 
HETATM   19  C14 UNL     1     -12.498  -0.757 -15.671  1.00  0.00     0.118 A 
HETATM   20  C12 UNL     1     -13.734   1.232 -14.252  1.00  0.00     0.075 A 
HETATM   21  C13 UNL     1     -13.757   1.246 -15.632  1.00  0.00     0.246 A 
HETATM   22  O1  UNL     1     -14.353   2.186 -16.262  1.00  0.00    -0.268 OA
HETATM   23  N3  UNL     1     -13.138   0.253 -16.285  1.00  0.00    -0.309 N 
ATOM     24  H3  UNL     1     -13.154   0.265 -17.305  1.00  0.00     0.170 HD
HETATM   25  N4  UNL     1     -11.817  -1.848 -16.116  1.00  0.00    -0.341 N 
ATOM     26  H4  UNL     1     -11.677  -2.087 -17.097  1.00  0.00     0.167 HD
ENDBRANCH  12  15
ENDBRANCH   5   9
BRANCH   6  27
HETATM   27  C17 UNL     1      -6.594  -6.440 -16.629  1.00  0.00     0.171 C 
BRANCH  27  28
HETATM   28  C18 UNL     1      -6.268  -5.326 -15.705  1.00  0.00    -0.040 A 
HETATM   29  C19 UNL     1      -6.492  -4.001 -16.136  1.00  0.00     0.009 A 
HETATM   30  C20 UNL     1      -6.202  -2.925 -15.355  1.00  0.00     0.001 A 
HETATM   31  C21 UNL     1      -5.668  -3.113 -14.092  1.00  0.00     0.000 A 
HETATM   32  C22 UNL     1      -5.435  -4.382 -13.631  1.00  0.00     0.001 A 
HETATM   33  C23 UNL     1      -5.741  -5.470 -14.452  1.00  0.00     0.009 A 
ENDBRANCH  27  28
ENDBRANCH   6  27
BRANCH   1  34
HETATM   34  N1  UNL     1      -6.541 -10.978 -15.584  1.00  0.00    -0.381 N 
ATOM     35  H12 UNL     1      -6.901 -11.641 -16.271  1.00  0.00     0.157 HD
ATOM     36  H11 UNL     1      -5.712 -11.224 -15.042  1.00  0.00     0.157 HD
ENDBRANCH   1  34
TORSDOF 5
ENDMDL
MODEL 4
REMARK VINA RESULT: -9.339243400      2.297      9.427
REMARK  5 active torsions:
REMARK  status: ('A' for Active; 'I' for Inactive)
REMARK    1  A    between atoms: N1_1  and  C1_4 
REMARK    2  A    between atoms: C3_8  and  C4_9 
REMARK    3  A    between atoms: C7_12  and  C8_13 
REMARK    4  A    between atoms: N5_27  and  C17_28 
REMARK    5  A    between atoms: C17_28  and  C18_29 
ROOT
HETATM    1  C1  UNL     1     -11.423   1.985  -9.556  1.00  0.00     0.168 A 
HETATM    2  N2  UNL     1     -10.152   1.540  -9.558  1.00  0.00    -0.346 N 
ATOM      3  H2  UNL     1      -9.415   2.064  -9.085  1.00  0.00     0.167 HD
HETATM    4  C2  UNL     1      -9.879   0.401 -10.189  1.00  0.00     0.120 A 
HETATM    5  C3  UNL     1     -10.842  -0.351 -10.847  1.00  0.00     0.063 A 
HETATM    6  N5  UNL     1     -12.109   0.089 -10.844  1.00  0.00    -0.305 N 
HETATM    7  C24 UNL     1     -12.386   1.257 -10.197  1.00  0.00     0.292 A 
HETATM    8  O2  UNL     1     -13.580   1.725 -10.168  1.00  0.00    -0.264 OA
ENDROOT
BRANCH   5   9
HETATM    9  C4  UNL     1     -10.442  -1.520 -11.614  1.00  0.00    -0.008 A 
HETATM   10  C5  UNL     1      -9.872  -1.425 -12.827  1.00  0.00     0.014 A 
HETATM   11  C6  UNL     1      -9.529  -2.584 -13.507  1.00  0.00     0.014 A 
HETATM   12  C7  UNL     1      -9.750  -3.842 -12.985  1.00  0.00    -0.009 A 
HETATM   13  C15 UNL     1     -10.332  -3.927 -11.748  1.00  0.00     0.014 A 
HETATM   14  C16 UNL     1     -10.680  -2.784 -11.058  1.00  0.00     0.014 A 
BRANCH  12  15
HETATM   15  C8  UNL     1      -9.383  -5.059 -13.715  1.00  0.00     0.044 A 
HETATM   16  C9  UNL     1      -8.834  -6.191 -13.150  1.00  0.00     0.045 A 
HETATM   17  C10 UNL     1      -8.610  -7.146 -14.116  1.00  0.00     0.010 A 
HETATM   18  C11 UNL     1      -8.089  -8.433 -14.094  1.00  0.00     0.021 A 
HETATM   19  C14 UNL     1      -9.037  -6.570 -15.298  1.00  0.00     0.118 A 
HETATM   20  C12 UNL     1      -8.014  -9.110 -15.281  1.00  0.00     0.075 A 
HETATM   21  C13 UNL     1      -8.438  -8.540 -16.465  1.00  0.00     0.246 A 
HETATM   22  O1  UNL     1      -8.359  -9.189 -17.564  1.00  0.00    -0.268 OA
HETATM   23  N3  UNL     1      -8.932  -7.296 -16.426  1.00  0.00    -0.309 N 
ATOM     24  H3  UNL     1      -9.248  -6.875 -17.300  1.00  0.00     0.170 HD
HETATM   25  N4  UNL     1      -9.494  -5.318 -15.023  1.00  0.00    -0.341 N 
ATOM     26  H4  UNL     1      -9.869  -4.670 -15.716  1.00  0.00     0.167 HD
ENDBRANCH  12  15
ENDBRANCH   5   9
BRANCH   6  27
HETATM   27  C17 UNL     1     -13.229  -0.594 -11.416  1.00  0.00     0.171 C 
BRANCH  27  28
HETATM   28  C18 UNL     1     -13.286  -0.422 -12.888  1.00  0.00    -0.040 A 
HETATM   29  C19 UNL     1     -13.124  -1.558 -13.709  1.00  0.00     0.009 A 
HETATM   30  C20 UNL     1     -13.146  -1.482 -15.067  1.00  0.00     0.001 A 
HETATM   31  C21 UNL     1     -13.329  -0.257 -15.687  1.00  0.00     0.000 A 
HETATM   32  C22 UNL     1     -13.491   0.873 -14.929  1.00  0.00     0.001 A 
HETATM   33  C23 UNL     1     -13.465   0.768 -13.537  1.00  0.00     0.009 A 
ENDBRANCH  27  28
ENDBRANCH   6  27
BRANCH   1  34
HETATM   34  N1  UNL     1     -11.761   3.084  -8.963  1.00  0.00    -0.381 N 
ATOM     35  H12 UNL     1     -11.718   3.127  -7.945  1.00  0.00     0.157 HD
ATOM     36  H11 UNL     1     -12.069   3.905  -9.484  1.00  0.00     0.157 HD
ENDBRANCH   1  34
TORSDOF 5
ENDMDL
MODEL 5
REMARK VINA RESULT: -9.254842157      2.184      3.528
REMARK  5 active torsions:
REMARK  status: ('A' for Active; 'I' for Inactive)
REMARK    1  A    between atoms: N1_1  and  C1_4 
REMARK    2  A    between atoms: C3_8  and  C4_9 
REMARK    3  A    between atoms: C7_12  and  C8_13 
REMARK    4  A    between atoms: N5_27  and  C17_28 
REMARK    5  A    between atoms: C17_28  and  C18_29 
ROOT
HETATM    1  C1  UNL     1      -8.455  -6.584 -16.636  1.00  0.00     0.168 A 
HETATM    2  N2  UNL     1      -8.889  -6.780 -15.376  1.00  0.00    -0.346 N 
ATOM      3  H2  UNL     1      -8.967  -7.722 -14.992  1.00  0.00     0.167 HD
HETATM    4  C2  UNL     1      -9.213  -5.718 -14.644  1.00  0.00     0.120 A 
HETATM    5  C3  UNL     1      -9.125  -4.416 -15.117  1.00  0.00     0.063 A 
HETATM    6  N5  UNL     1      -8.691  -4.218 -16.370  1.00  0.00    -0.305 N 
HETATM    7  C24 UNL     1      -8.360  -5.309 -17.119  1.00  0.00     0.292 A 
HETATM    8  O2  UNL     1      -7.944  -5.177 -18.325  1.00  0.00    -0.264 OA
ENDROOT
BRANCH   5   9
HETATM    9  C4  UNL     1      -9.612  -3.317 -14.296  1.00  0.00    -0.008 A 
HETATM   10  C5  UNL     1     -10.827  -2.772 -14.471  1.00  0.00     0.014 A 
HETATM   11  C6  UNL     1     -11.219  -1.717 -13.659  1.00  0.00     0.014 A 
HETATM   12  C7  UNL     1     -10.406  -1.202 -12.670  1.00  0.00    -0.009 A 
HETATM   13  C15 UNL     1      -9.170  -1.766 -12.501  1.00  0.00     0.014 A 
HETATM   14  C16 UNL     1      -8.764  -2.816 -13.300  1.00  0.00     0.014 A 
BRANCH  12  15
HETATM   15  C8  UNL     1     -10.833  -0.087 -11.820  1.00  0.00     0.044 A 
HETATM   16  C9  UNL     1     -10.133   0.401 -10.737  1.00  0.00     0.045 A 
HETATM   17  C10 UNL     1     -10.815   1.449 -10.160  1.00  0.00     0.010 A 
HETATM   18  C11 UNL     1     -10.567   2.278  -9.074  1.00  0.00     0.021 A 
HETATM   19  C14 UNL     1     -11.960   1.595 -10.921  1.00  0.00     0.118 A 
HETATM   20  C12 UNL     1     -11.493   3.243  -8.784  1.00  0.00     0.075 A 
HETATM   21  C13 UNL     1     -12.639   3.393  -9.540  1.00  0.00     0.246 A 
HETATM   22  O1  UNL     1     -13.492   4.301  -9.252  1.00  0.00    -0.268 OA
HETATM   23  N3  UNL     1     -12.826   2.566 -10.577  1.00  0.00    -0.309 N 
ATOM     24  H3  UNL     1     -13.671   2.678 -11.136  1.00  0.00     0.170 HD
HETATM   25  N4  UNL     1     -11.941   0.659 -11.908  1.00  0.00    -0.341 N 
ATOM     26  H4  UNL     1     -12.667   0.542 -12.615  1.00  0.00     0.167 HD
ENDBRANCH  12  15
ENDBRANCH   5   9
BRANCH   6  27
HETATM   27  C17 UNL     1      -8.480  -2.945 -16.988  1.00  0.00     0.171 C 
BRANCH  27  28
HETATM   28  C18 UNL     1      -7.113  -2.428 -16.732  1.00  0.00    -0.040 A 
HETATM   29  C19 UNL     1      -6.564  -1.493 -17.634  1.00  0.00     0.009 A 
HETATM   30  C20 UNL     1      -5.311  -0.985 -17.478  1.00  0.00     0.001 A 
HETATM   31  C21 UNL     1      -4.531  -1.386 -16.407  1.00  0.00     0.000 A 
HETATM   32  C22 UNL     1      -5.025  -2.292 -15.506  1.00  0.00     0.001 A 
HETATM   33  C23 UNL     1      -6.313  -2.799 -15.687  1.00  0.00     0.009 A 
ENDBRANCH  27  28
ENDBRANCH   6  27
BRANCH   1  34
HETATM   34  N1  UNL     1      -8.123  -7.570 -17.405  1.00  0.00    -0.381 N 
ATOM     35  H12 UNL     1      -7.807  -8.442 -16.980  1.00  0.00     0.157 HD
ATOM     36  H11 UNL     1      -8.169  -7.500 -18.422  1.00  0.00     0.157 HD
ENDBRANCH   1  34
TORSDOF 5
ENDMDL
