MODEL 1
REMARK VINA RESULT: -10.074042992      0.000      0.000
REMARK  5 active torsions:
REMARK  status: ('A' for Active; 'I' for Inactive)
REMARK    1  A    between atoms: C7_7  and  N1_8 
REMARK    2  A    between atoms: N1_8  and  S1_10 
REMARK    3  A    between atoms: S1_10  and  C8_13 
REMARK    4  A    between atoms: C12_17  and  C13_18 
REMARK    5  A    between atoms: C17_24  and  N3_25 
ROOT
HETATM    1  C13 UNL     1     -11.186  -2.581 -13.025  1.00  0.00     0.043 A 
HETATM    2  C14 UNL     1     -11.743  -1.789 -12.070  1.00  0.00     0.033 A 
HETATM    3  C15 UNL     1     -12.514  -0.683 -12.421  1.00  0.00     0.035 A 
HETATM    4  C16 UNL     1     -12.716  -0.389 -13.752  1.00  0.00     0.079 A 
HETATM    5  N2  UNL     1     -13.442   0.651 -14.193  1.00  0.00    -0.190 N 
ATOM      6  H2  UNL     1     -13.874   1.265 -13.502  1.00  0.00     0.184 HD
HETATM    7  C17 UNL     1     -13.632   0.927 -15.489  1.00  0.00     0.678 A 
HETATM    8  N4  UNL     1     -13.068   0.124 -16.421  1.00  0.00    -0.175 N 
ATOM      9  H4  UNL     1     -13.205   0.325 -17.411  1.00  0.00     0.186 HD
HETATM   10  C18 UNL     1     -12.331  -0.932 -16.056  1.00  0.00     0.144 A 
HETATM   11  N5  UNL     1     -11.809  -1.676 -16.965  1.00  0.00    -0.383 N 
ATOM     12  H51 UNL     1     -11.248  -2.481 -16.687  1.00  0.00     0.157 HD
ATOM     13  H52 UNL     1     -11.953  -1.467 -17.953  1.00  0.00     0.157 HD
HETATM   14  C19 UNL     1     -12.137  -1.215 -14.716  1.00  0.00     0.105 A 
HETATM   15  N6  UNL     1     -11.404  -2.265 -14.311  1.00  0.00    -0.351 N 
ATOM     16  H6  UNL     1     -10.986  -2.860 -15.026  1.00  0.00     0.166 HD
ENDROOT
BRANCH   1  17
HETATM   17  C12 UNL     1     -10.366  -3.757 -12.687  1.00  0.00    -0.008 A 
HETATM   18  C11 UNL     1     -10.118  -4.028 -11.355  1.00  0.00     0.014 A 
HETATM   19  C10 UNL     1      -9.370  -5.094 -10.955  1.00  0.00     0.002 A 
HETATM   20  C9  UNL     1      -8.842  -5.931 -11.944  1.00  0.00     0.025 A 
HETATM   21  C8  UNL     1      -9.057  -5.707 -13.276  1.00  0.00     0.080 A 
HETATM   22  C20 UNL     1      -9.836  -4.593 -13.611  1.00  0.00     0.039 A 
BRANCH  21  23
HETATM   23  S1  UNL     1      -8.401  -6.754 -14.499  1.00  0.00     0.263 S 
HETATM   24  O1  UNL     1      -8.291  -8.184 -13.981  1.00  0.00    -0.200 OA
HETATM   25  O2  UNL     1      -9.340  -6.864 -15.688  1.00  0.00    -0.200 OA
BRANCH  23  26
HETATM   26  N1  UNL     1      -6.873  -6.263 -15.088  1.00  0.00    -0.280 N 
ATOM     27  H1  UNL     1      -6.116  -6.945 -15.056  1.00  0.00     0.179 HD
BRANCH  26  28
HETATM   28  C7  UNL     1      -6.574  -4.990 -15.616  1.00  0.00     0.048 A 
HETATM   29  C2  UNL     1      -6.050  -3.984 -14.805  1.00  0.00    -0.035 A 
HETATM   30  C1  UNL     1      -5.809  -4.253 -13.343  1.00  0.00     0.050 C 
HETATM   31  C3  UNL     1      -5.749  -2.746 -15.325  1.00  0.00     0.009 A 
HETATM   32  C4  UNL     1      -5.948  -2.447 -16.646  1.00  0.00     0.001 A 
HETATM   33  C5  UNL     1      -6.460  -3.415 -17.463  1.00  0.00     0.002 A 
HETATM   34  C6  UNL     1      -6.768  -4.675 -16.939  1.00  0.00     0.030 A 
ENDBRANCH  26  28
ENDBRANCH  23  26
ENDBRANCH  21  23
ENDBRANCH   1  17
BRANCH   7  35
HETATM   35  N3  UNL     1     -14.333   1.932 -15.905  1.00  0.00    -0.234 N 
ATOM     36  H32 UNL     1     -15.048   2.303 -15.280  1.00  0.00     0.174 HD
ATOM     37  H31 UNL     1     -14.203   2.363 -16.820  1.00  0.00     0.174 HD
ENDBRANCH   7  35
TORSDOF 5
ENDMDL
MODEL 2
REMARK VINA RESULT: -10.013132347      0.341      1.273
REMARK  5 active torsions:
REMARK  status: ('A' for Active; 'I' for Inactive)
REMARK    1  A    between atoms: C7_7  and  N1_8 
REMARK    2  A    between atoms: N1_8  and  S1_10 
REMARK    3  A    between atoms: S1_10  and  C8_13 
REMARK    4  A    between atoms: C12_17  and  C13_18 
REMARK    5  A    between atoms: C17_24  and  N3_25 
ROOT
HETATM    1  C13 UNL     1     -11.168  -2.606 -13.079  1.00  0.00     0.043 A 
HETATM    2  C14 UNL     1     -11.732  -1.828 -12.117  1.00  0.00     0.033 A 
HETATM    3  C15 UNL     1     -12.512  -0.725 -12.458  1.00  0.00     0.035 A 
HETATM    4  C16 UNL     1     -12.714  -0.419 -13.786  1.00  0.00     0.079 A 
HETATM    5  N2  UNL     1     -13.448   0.620 -14.218  1.00  0.00    -0.190 N 
ATOM      6  H2  UNL     1     -13.885   1.223 -13.522  1.00  0.00     0.184 HD
HETATM    7  C17 UNL     1     -13.637   0.908 -15.511  1.00  0.00     0.678 A 
HETATM    8  N4  UNL     1     -13.065   0.118 -16.450  1.00  0.00    -0.175 N 
ATOM      9  H4  UNL     1     -13.203   0.328 -17.438  1.00  0.00     0.186 HD
HETATM   10  C18 UNL     1     -12.320  -0.936 -16.095  1.00  0.00     0.144 A 
HETATM   11  N5  UNL     1     -11.792  -1.666 -17.010  1.00  0.00    -0.383 N 
ATOM     12  H51 UNL     1     -11.224  -2.469 -16.739  1.00  0.00     0.157 HD
ATOM     13  H52 UNL     1     -11.935  -1.448 -17.996  1.00  0.00     0.157 HD
HETATM   14  C19 UNL     1     -12.127  -1.231 -14.758  1.00  0.00     0.105 A 
HETATM   15  N6  UNL     1     -11.387  -2.279 -14.361  1.00  0.00    -0.351 N 
ATOM     16  H6  UNL     1     -10.962  -2.863 -15.082  1.00  0.00     0.166 HD
ENDROOT
BRANCH   1  17
HETATM   17  C12 UNL     1     -10.339  -3.779 -12.751  1.00  0.00    -0.008 A 
HETATM   18  C11 UNL     1     -10.040  -4.026 -11.425  1.00  0.00     0.014 A 
HETATM   19  C10 UNL     1      -9.280  -5.087 -11.034  1.00  0.00     0.002 A 
HETATM   20  C9  UNL     1      -8.794  -5.945 -12.027  1.00  0.00     0.025 A 
HETATM   21  C8  UNL     1      -9.060  -5.745 -13.354  1.00  0.00     0.080 A 
HETATM   22  C20 UNL     1      -9.848  -4.634 -13.679  1.00  0.00     0.039 A 
BRANCH  21  23
HETATM   23  S1  UNL     1      -8.457  -6.817 -14.582  1.00  0.00     0.263 S 
HETATM   24  O1  UNL     1      -8.321  -8.236 -14.039  1.00  0.00    -0.200 OA
HETATM   25  O2  UNL     1      -9.447  -6.954 -15.726  1.00  0.00    -0.200 OA
BRANCH  23  26
HETATM   26  N1  UNL     1      -6.957  -6.337 -15.248  1.00  0.00    -0.280 N 
ATOM     27  H1  UNL     1      -6.313  -7.075 -15.534  1.00  0.00     0.179 HD
BRANCH  26  28
HETATM   28  C7  UNL     1      -6.538  -5.004 -15.434  1.00  0.00     0.048 A 
HETATM   29  C2  UNL     1      -6.673  -4.378 -16.674  1.00  0.00    -0.035 A 
HETATM   30  C1  UNL     1      -7.262  -5.138 -17.833  1.00  0.00     0.050 C 
HETATM   31  C3  UNL     1      -6.273  -3.073 -16.850  1.00  0.00     0.009 A 
HETATM   32  C4  UNL     1      -5.732  -2.338 -15.830  1.00  0.00     0.001 A 
HETATM   33  C5  UNL     1      -5.589  -2.926 -14.606  1.00  0.00     0.002 A 
HETATM   34  C6  UNL     1      -5.994  -4.253 -14.421  1.00  0.00     0.030 A 
ENDBRANCH  26  28
ENDBRANCH  23  26
ENDBRANCH  21  23
ENDBRANCH   1  17
BRANCH   7  35
HETATM   35  N3  UNL     1     -14.345   1.911 -15.919  1.00  0.00    -0.234 N 
ATOM     36  H32 UNL     1     -14.617   2.611 -15.229  1.00  0.00     0.174 HD
ATOM     37  H31 UNL     1     -14.640   2.030 -16.888  1.00  0.00     0.174 HD
ENDBRANCH   7  35
TORSDOF 5
ENDMDL
MODEL 3
REMARK VINA RESULT: -9.868334671      0.996      1.849
REMARK  5 active torsions:
REMARK  status: ('A' for Active; 'I' for Inactive)
REMARK    1  A    between atoms: C7_7  and  N1_8 
REMARK    2  A    between atoms: N1_8  and  S1_10 
REMARK    3  A    between atoms: S1_10  and  C8_13 
REMARK    4  A    between atoms: C12_17  and  C13_18 
REMARK    5  A    between atoms: C17_24  and  N3_25 
ROOT
HETATM    1  C13 UNL     1     -10.916  -2.959 -14.424  1.00  0.00     0.043 A 
HETATM    2  C14 UNL     1     -10.814  -2.889 -15.778  1.00  0.00     0.033 A 
HETATM    3  C15 UNL     1     -11.487  -1.902 -16.494  1.00  0.00     0.035 A 
HETATM    4  C16 UNL     1     -12.266  -0.986 -15.824  1.00  0.00     0.079 A 
HETATM    5  N2  UNL     1     -12.953   0.002 -16.421  1.00  0.00    -0.190 N 
ATOM      6  H2  UNL     1     -12.897   0.082 -17.436  1.00  0.00     0.184 HD
HETATM    7  C17 UNL     1     -13.708   0.886 -15.759  1.00  0.00     0.678 A 
HETATM    8  N4  UNL     1     -13.795   0.796 -14.411  1.00  0.00    -0.175 N 
ATOM      9  H4  UNL     1     -14.367   1.465 -13.896  1.00  0.00     0.186 HD
HETATM   10  C18 UNL     1     -13.137  -0.162 -13.747  1.00  0.00     0.144 A 
HETATM   11  N5  UNL     1     -13.240  -0.220 -12.467  1.00  0.00    -0.383 N 
ATOM     12  H51 UNL     1     -12.739  -0.950 -11.961  1.00  0.00     0.157 HD
ATOM     13  H52 UNL     1     -13.815   0.453 -11.961  1.00  0.00     0.157 HD
HETATM   14  C19 UNL     1     -12.358  -1.075 -14.434  1.00  0.00     0.105 A 
HETATM   15  N6  UNL     1     -11.684  -2.050 -13.804  1.00  0.00    -0.351 N 
ATOM     16  H6  UNL     1     -11.761  -2.104 -12.788  1.00  0.00     0.166 HD
ENDROOT
BRANCH   1  17
HETATM   17  C12 UNL     1     -10.218  -3.990 -13.637  1.00  0.00    -0.008 A 
HETATM   18  C11 UNL     1     -10.206  -3.875 -12.261  1.00  0.00     0.014 A 
HETATM   19  C10 UNL     1      -9.583  -4.784 -11.458  1.00  0.00     0.002 A 
HETATM   20  C9  UNL     1      -8.939  -5.865 -12.071  1.00  0.00     0.025 A 
HETATM   21  C8  UNL     1      -8.920  -6.025 -13.429  1.00  0.00     0.080 A 
HETATM   22  C20 UNL     1      -9.581  -5.051 -14.188  1.00  0.00     0.039 A 
BRANCH  21  23
HETATM   23  S1  UNL     1      -8.121  -7.371 -14.183  1.00  0.00     0.263 S 
HETATM   24  O1  UNL     1      -7.553  -8.318 -13.131  1.00  0.00    -0.200 OA
HETATM   25  O2  UNL     1      -9.105  -8.230 -14.959  1.00  0.00    -0.200 OA
BRANCH  23  26
HETATM   26  N1  UNL     1      -6.866  -6.924 -15.255  1.00  0.00    -0.280 N 
ATOM     27  H1  UNL     1      -6.115  -7.598 -15.406  1.00  0.00     0.179 HD
BRANCH  26  28
HETATM   28  C7  UNL     1      -6.784  -5.698 -15.946  1.00  0.00     0.048 A 
HETATM   29  C2  UNL     1      -6.208  -4.576 -15.349  1.00  0.00    -0.035 A 
HETATM   30  C1  UNL     1      -5.677  -4.669 -13.943  1.00  0.00     0.050 C 
HETATM   31  C3  UNL     1      -6.120  -3.384 -16.030  1.00  0.00     0.009 A 
HETATM   32  C4  UNL     1      -6.586  -3.244 -17.310  1.00  0.00     0.001 A 
HETATM   33  C5  UNL     1      -7.154  -4.327 -17.918  1.00  0.00     0.002 A 
HETATM   34  C6  UNL     1      -7.247  -5.542 -17.230  1.00  0.00     0.030 A 
ENDBRANCH  26  28
ENDBRANCH  23  26
ENDBRANCH  21  23
ENDBRANCH   1  17
BRANCH   7  35
HETATM   35  N3  UNL     1     -14.366   1.835 -16.342  1.00  0.00    -0.234 N 
ATOM     36  H32 UNL     1     -15.373   1.881 -16.183  1.00  0.00     0.174 HD
ATOM     37  H31 UNL     1     -13.929   2.529 -16.947  1.00  0.00     0.174 HD
ENDBRANCH   7  35
TORSDOF 5
ENDMDL
MODEL 4
REMARK VINA RESULT: -9.770956436      3.683      4.989
REMARK  5 active torsions:
REMARK  status: ('A' for Active; 'I' for Inactive)
REMARK    1  A    between atoms: C7_7  and  N1_8 
REMARK    2  A    between atoms: N1_8  and  S1_10 
REMARK    3  A    between atoms: S1_10  and  C8_13 
REMARK    4  A    between atoms: C12_17  and  C13_18 
REMARK    5  A    between atoms: C17_24  and  N3_25 
ROOT
HETATM    1  C13 UNL     1     -11.123  -1.066  -9.706  1.00  0.00     0.043 A 
HETATM    2  C14 UNL     1     -12.436  -1.111 -10.056  1.00  0.00     0.033 A 
HETATM    3  C15 UNL     1     -13.208   0.048 -10.080  1.00  0.00     0.035 A 
HETATM    4  C16 UNL     1     -12.635   1.255  -9.746  1.00  0.00     0.079 A 
HETATM    5  N2  UNL     1     -13.292   2.427  -9.738  1.00  0.00    -0.190 N 
ATOM      6  H2  UNL     1     -14.279   2.427  -9.997  1.00  0.00     0.184 HD
HETATM    7  C17 UNL     1     -12.724   3.593  -9.411  1.00  0.00     0.678 A 
HETATM    8  N4  UNL     1     -11.415   3.613  -9.066  1.00  0.00    -0.175 N 
ATOM      9  H4  UNL     1     -10.973   4.496  -8.814  1.00  0.00     0.186 HD
HETATM   10  C18 UNL     1     -10.696   2.484  -9.051  1.00  0.00     0.144 A 
HETATM   11  N5  UNL     1      -9.456   2.536  -8.719  1.00  0.00    -0.383 N 
ATOM     12  H51 UNL     1      -8.908   1.676  -8.708  1.00  0.00     0.157 HD
ATOM     13  H52 UNL     1      -9.022   3.425  -8.470  1.00  0.00     0.157 HD
HETATM   14  C19 UNL     1     -11.286   1.280  -9.390  1.00  0.00     0.105 A 
HETATM   15  N6  UNL     1     -10.598   0.127  -9.387  1.00  0.00    -0.351 N 
ATOM     16  H6  UNL     1      -9.613   0.159  -9.124  1.00  0.00     0.166 HD
ENDROOT
BRANCH   1  17
HETATM   17  C12 UNL     1     -10.280  -2.273  -9.671  1.00  0.00    -0.008 A 
HETATM   18  C11 UNL     1      -9.962  -2.821  -8.443  1.00  0.00     0.014 A 
HETATM   19  C10 UNL     1      -9.188  -3.936  -8.320  1.00  0.00     0.002 A 
HETATM   20  C9  UNL     1      -8.709  -4.532  -9.492  1.00  0.00     0.025 A 
HETATM   21  C8  UNL     1      -8.994  -4.030 -10.732  1.00  0.00     0.080 A 
HETATM   22  C20 UNL     1      -9.795  -2.883 -10.779  1.00  0.00     0.039 A 
BRANCH  21  23
HETATM   23  S1  UNL     1      -8.398  -4.778 -12.183  1.00  0.00     0.263 S 
HETATM   24  O1  UNL     1      -7.389  -3.871 -12.881  1.00  0.00    -0.200 OA
HETATM   25  O2  UNL     1      -7.606  -6.035 -11.868  1.00  0.00    -0.200 OA
BRANCH  23  26
HETATM   26  N1  UNL     1      -9.621  -5.201 -13.300  1.00  0.00    -0.280 N 
ATOM     27  H1  UNL     1     -10.094  -6.094 -13.163  1.00  0.00     0.179 HD
BRANCH  26  28
HETATM   28  C7  UNL     1     -10.029  -4.415 -14.397  1.00  0.00     0.048 A 
HETATM   29  C2  UNL     1      -9.879  -4.877 -15.705  1.00  0.00    -0.035 A 
HETATM   30  C1  UNL     1      -9.262  -6.228 -15.952  1.00  0.00     0.050 C 
HETATM   31  C3  UNL     1     -10.289  -4.112 -16.772  1.00  0.00     0.009 A 
HETATM   32  C4  UNL     1     -10.855  -2.877 -16.604  1.00  0.00     0.001 A 
HETATM   33  C5  UNL     1     -11.015  -2.401 -15.334  1.00  0.00     0.002 A 
HETATM   34  C6  UNL     1     -10.600  -3.175 -14.244  1.00  0.00     0.030 A 
ENDBRANCH  26  28
ENDBRANCH  23  26
ENDBRANCH  21  23
ENDBRANCH   1  17
BRANCH   7  35
HETATM   35  N3  UNL     1     -13.365   4.717  -9.406  1.00  0.00    -0.234 N 
ATOM     36  H32 UNL     1     -13.799   5.012  -8.532  1.00  0.00     0.174 HD
ATOM     37  H31 UNL     1     -13.453   5.314 -10.228  1.00  0.00     0.174 HD
ENDBRANCH   7  35
TORSDOF 5
ENDMDL
MODEL 5
REMARK VINA RESULT: -9.661060153      4.081      8.028
REMARK  5 active torsions:
REMARK  status: ('A' for Active; 'I' for Inactive)
REMARK    1  A    between atoms: C7_7  and  N1_8 
REMARK    2  A    between atoms: N1_8  and  S1_10 
REMARK    3  A    between atoms: S1_10  and  C8_13 
REMARK    4  A    between atoms: C12_17  and  C13_18 
REMARK    5  A    between atoms: C17_24  and  N3_25 
ROOT
HETATM    1  C13 UNL     1     -10.914  -3.135 -14.958  1.00  0.00     0.043 A 
HETATM    2  C14 UNL     1     -10.612  -3.612 -16.195  1.00  0.00     0.033 A 
HETATM    3  C15 UNL     1      -9.824  -4.750 -16.348  1.00  0.00     0.035 A 
HETATM    4  C16 UNL     1      -9.344  -5.401 -15.233  1.00  0.00     0.079 A 
HETATM    5  N2  UNL     1      -8.578  -6.504 -15.273  1.00  0.00    -0.190 N 
ATOM      6  H2  UNL     1      -8.335  -6.888 -16.187  1.00  0.00     0.184 HD
HETATM    7  C17 UNL     1      -8.117  -7.128 -14.183  1.00  0.00     0.678 A 
HETATM    8  N4  UNL     1      -8.431  -6.633 -12.962  1.00  0.00    -0.175 N 
ATOM      9  H4  UNL     1      -8.085  -7.101 -12.125  1.00  0.00     0.186 HD
HETATM   10  C18 UNL     1      -9.190  -5.538 -12.844  1.00  0.00     0.144 A 
HETATM   11  N5  UNL     1      -9.470  -5.094 -11.671  1.00  0.00    -0.383 N 
ATOM     12  H51 UNL     1     -10.049  -4.259 -11.580  1.00  0.00     0.157 HD
ATOM     13  H52 UNL     1      -9.119  -5.568 -10.839  1.00  0.00     0.157 HD
HETATM   14  C19 UNL     1      -9.665  -4.895 -13.972  1.00  0.00     0.105 A 
HETATM   15  N6  UNL     1     -10.429  -3.794 -13.894  1.00  0.00    -0.351 N 
ATOM     16  H6  UNL     1     -10.655  -3.435 -12.967  1.00  0.00     0.166 HD
ENDROOT
BRANCH   1  17
HETATM   17  C12 UNL     1     -11.744  -1.934 -14.762  1.00  0.00    -0.008 A 
HETATM   18  C11 UNL     1     -12.189  -1.251 -15.877  1.00  0.00     0.014 A 
HETATM   19  C10 UNL     1     -12.961  -0.131 -15.786  1.00  0.00     0.002 A 
HETATM   20  C9  UNL     1     -13.304   0.325 -14.509  1.00  0.00     0.025 A 
HETATM   21  C8  UNL     1     -12.888  -0.313 -13.373  1.00  0.00     0.080 A 
HETATM   22  C20 UNL     1     -12.099  -1.457 -13.545  1.00  0.00     0.039 A 
BRANCH  21  23
HETATM   23  S1  UNL     1     -13.320   0.258 -11.790  1.00  0.00     0.263 S 
HETATM   24  O1  UNL     1     -14.808   0.587 -11.723  1.00  0.00    -0.200 OA
HETATM   25  O2  UNL     1     -13.137  -0.830 -10.745  1.00  0.00    -0.200 OA
BRANCH  23  26
HETATM   26  N1  UNL     1     -12.431   1.625 -11.277  1.00  0.00    -0.280 N 
ATOM     27  H1  UNL     1     -12.782   2.543 -11.548  1.00  0.00     0.179 HD
BRANCH  26  28
HETATM   28  C7  UNL     1     -11.250   1.586 -10.508  1.00  0.00     0.048 A 
HETATM   29  C2  UNL     1     -11.103   2.393  -9.379  1.00  0.00    -0.035 A 
HETATM   30  C1  UNL     1     -12.215   3.327  -8.981  1.00  0.00     0.050 C 
HETATM   31  C3  UNL     1      -9.954   2.345  -8.624  1.00  0.00     0.009 A 
HETATM   32  C4  UNL     1      -8.913   1.514  -8.941  1.00  0.00     0.001 A 
HETATM   33  C5  UNL     1      -9.031   0.713 -10.041  1.00  0.00     0.002 A 
HETATM   34  C6  UNL     1     -10.197   0.758 -10.812  1.00  0.00     0.030 A 
ENDBRANCH  26  28
ENDBRANCH  23  26
ENDBRANCH  21  23
ENDBRANCH   1  17
BRANCH   7  35
HETATM   35  N3  UNL     1      -7.380  -8.190 -14.231  1.00  0.00    -0.234 N 
ATOM     36  H32 UNL     1      -6.893  -8.390 -15.105  1.00  0.00     0.174 HD
ATOM     37  H31 UNL     1      -7.266  -8.827 -13.444  1.00  0.00     0.174 HD
ENDBRANCH   7  35
TORSDOF 5
ENDMDL
