MODEL 1
REMARK VINA RESULT: -10.895242657      0.000      0.000
REMARK  8 active torsions:
REMARK  status: ('A' for Active; 'I' for Inactive)
REMARK    1  A    between atoms: N1_1  and  N2_4 
REMARK       I    between atoms: N2_4  and  C1_6 
REMARK       I    between atoms: C1_6  and  N3_8 
REMARK    2  A    between atoms: N3_8  and  C2_10 
REMARK    3  A    between atoms: C5_13  and  C6_14 
REMARK       I    between atoms: C6_14  and  N4_16 
REMARK    4  A    between atoms: N4_16  and  C7_18 
REMARK    5  A    between atoms: C9_20  and  C10_21 
REMARK       I    between atoms: C10_21  and  N5_23 
REMARK    6  A    between atoms: N5_23  and  C11_25 
REMARK    7  A    between atoms: C20_37  and  S1_38 
REMARK    8  A    between atoms: S1_38  and  C21_39 
ROOT
HETATM    1  C2  UNL     1      -8.938 -25.785 -14.765  1.00  0.00     0.053 A 
HETATM    2  C3  UNL     1      -8.634 -26.205 -13.489  1.00  0.00     0.032 A 
HETATM    3  C4  UNL     1      -8.593 -25.295 -12.443  1.00  0.00     0.019 A 
HETATM    4  C5  UNL     1      -8.851 -23.966 -12.632  1.00  0.00     0.033 A 
HETATM    5  C19 UNL     1      -9.154 -23.579 -13.923  1.00  0.00     0.038 A 
HETATM    6  C20 UNL     1      -9.210 -24.422 -14.998  1.00  0.00     0.033 A 
ENDROOT
BRANCH   4   7
HETATM    7  C6  UNL     1      -8.810 -22.968 -11.537  1.00  0.00     0.256 C 
HETATM    8  O2  UNL     1      -9.531 -23.223 -10.563  1.00  0.00    -0.267 OA
HETATM    9  N4  UNL     1      -8.017 -21.820 -11.597  1.00  0.00    -0.318 N 
ATOM     10  H4  UNL     1      -7.472 -21.724 -12.454  1.00  0.00     0.169 HD
BRANCH   9  11
HETATM   11  C7  UNL     1      -7.848 -20.788 -10.684  1.00  0.00     0.104 A 
HETATM   12  C8  UNL     1      -8.609 -19.653 -10.665  1.00  0.00     0.053 A 
HETATM   13  C9  UNL     1      -8.341 -18.691  -9.698  1.00  0.00     0.050 A 
HETATM   14  C17 UNL     1      -7.354 -18.829  -8.769  1.00  0.00     0.108 A 
HETATM   15  N6  UNL     1      -6.618 -19.938  -8.793  1.00  0.00    -0.331 N 
HETATM   16  C18 UNL     1      -6.850 -20.885  -9.713  1.00  0.00     0.272 A 
ATOM     17  H6  UNL     1      -5.873 -20.068  -8.109  1.00  0.00     0.168 HD
HETATM   18  O4  UNL     1      -6.101 -21.897  -9.656  1.00  0.00    -0.266 OA
BRANCH  13  19
HETATM   19  C10 UNL     1      -9.176 -17.448  -9.690  1.00  0.00     0.257 C 
HETATM   20  O3  UNL     1      -8.564 -16.431  -9.321  1.00  0.00    -0.267 OA
HETATM   21  N5  UNL     1     -10.503 -17.530 -10.078  1.00  0.00    -0.323 N 
ATOM     22  H5  UNL     1     -10.853 -18.446 -10.358  1.00  0.00     0.169 HD
BRANCH  21  23
HETATM   23  C11 UNL     1     -11.409 -16.450 -10.117  1.00  0.00     0.035 A 
HETATM   24  C12 UNL     1     -12.160 -16.219  -8.942  1.00  0.00     0.029 A 
HETATM   25  C13 UNL     1     -13.052 -15.209  -8.863  1.00  0.00     0.002 A 
HETATM   26  C14 UNL     1     -13.245 -14.370  -9.954  1.00  0.00     0.000 A 
HETATM   27  C15 UNL     1     -12.535 -14.570 -11.097  1.00  0.00     0.002 A 
HETATM   28  C16 UNL     1     -11.615 -15.609 -11.183  1.00  0.00     0.029 A 
ENDBRANCH  21  23
ENDBRANCH  13  19
ENDBRANCH   9  11
ENDBRANCH   4   7
BRANCH   6  29
HETATM   29  S1  UNL     1      -9.609 -23.805 -16.623  1.00  0.00    -0.086 SA
BRANCH  29  30
HETATM   30  C21 UNL     1      -8.263 -22.782 -17.198  1.00  0.00     0.029 A 
HETATM   31  C22 UNL     1      -7.053 -23.296 -17.612  1.00  0.00     0.021 A 
HETATM   32  C23 UNL     1      -6.026 -22.495 -18.053  1.00  0.00     0.001 A 
HETATM   33  C24 UNL     1      -6.169 -21.127 -18.098  1.00  0.00     0.002 A 
HETATM   34  C25 UNL     1      -7.370 -20.590 -17.690  1.00  0.00     0.028 A 
HETATM   35  C26 UNL     1      -8.405 -21.412 -17.244  1.00  0.00     0.063 A 
HETATM   36  N7  UNL     1      -9.632 -20.836 -16.829  1.00  0.00    -0.101 NA
ENDBRANCH  29  30
ENDBRANCH   6  29
BRANCH   1  37
HETATM   37  N3  UNL     1      -9.009 -26.612 -15.908  1.00  0.00    -0.306 N 
HETATM   38  C1  UNL     1      -7.963 -27.332 -16.523  1.00  0.00     0.339 C 
HETATM   39  N2  UNL     1      -8.249 -28.117 -17.683  1.00  0.00    -0.258 N 
HETATM   40  O1  UNL     1      -6.778 -27.346 -16.135  1.00  0.00    -0.245 OA
ATOM     41  H2  UNL     1      -9.198 -28.153 -18.057  1.00  0.00     0.191 HD
ATOM     42  H3  UNL     1      -9.929 -26.700 -16.341  1.00  0.00     0.171 HD
BRANCH  39  43
HETATM   43  N1  UNL     1      -7.232 -28.827 -18.296  1.00  0.00    -0.341 N 
ATOM     44  H12 UNL     1      -6.274 -28.706 -17.970  1.00  0.00     0.177 HD
ATOM     45  H11 UNL     1      -7.452 -29.461 -19.065  1.00  0.00     0.177 HD
ENDBRANCH  39  43
ENDBRANCH   1  37
TORSDOF 8
ENDMDL
MODEL 2
REMARK VINA RESULT: -10.672770949      1.336      1.459
REMARK  8 active torsions:
REMARK  status: ('A' for Active; 'I' for Inactive)
REMARK    1  A    between atoms: N1_1  and  N2_4 
REMARK       I    between atoms: N2_4  and  C1_6 
REMARK       I    between atoms: C1_6  and  N3_8 
REMARK    2  A    between atoms: N3_8  and  C2_10 
REMARK    3  A    between atoms: C5_13  and  C6_14 
REMARK       I    between atoms: C6_14  and  N4_16 
REMARK    4  A    between atoms: N4_16  and  C7_18 
REMARK    5  A    between atoms: C9_20  and  C10_21 
REMARK       I    between atoms: C10_21  and  N5_23 
REMARK    6  A    between atoms: N5_23  and  C11_25 
REMARK    7  A    between atoms: C20_37  and  S1_38 
REMARK    8  A    between atoms: S1_38  and  C21_39 
ROOT
HETATM    1  C2  UNL     1      -7.701 -26.593 -15.459  1.00  0.00     0.053 A 
HETATM    2  C3  UNL     1      -7.616 -26.974 -14.138  1.00  0.00     0.032 A 
HETATM    3  C4  UNL     1      -7.898 -26.066 -13.127  1.00  0.00     0.019 A 
HETATM    4  C5  UNL     1      -8.268 -24.778 -13.398  1.00  0.00     0.033 A 
HETATM    5  C19 UNL     1      -8.344 -24.430 -14.732  1.00  0.00     0.038 A 
HETATM    6  C20 UNL     1      -8.079 -25.273 -15.775  1.00  0.00     0.033 A 
ENDROOT
BRANCH   4   7
HETATM    7  C6  UNL     1      -8.569 -23.782 -12.341  1.00  0.00     0.256 C 
HETATM    8  O2  UNL     1      -9.353 -24.167 -11.462  1.00  0.00    -0.267 OA
HETATM    9  N4  UNL     1      -8.013 -22.502 -12.335  1.00  0.00    -0.318 N 
ATOM     10  H4  UNL     1      -7.385 -22.308 -13.116  1.00  0.00     0.169 HD
BRANCH   9  11
HETATM   11  C7  UNL     1      -8.172 -21.450 -11.444  1.00  0.00     0.104 A 
HETATM   12  C8  UNL     1      -9.194 -20.545 -11.506  1.00  0.00     0.053 A 
HETATM   13  C9  UNL     1      -9.244 -19.534 -10.552  1.00  0.00     0.050 A 
HETATM   14  C17 UNL     1      -8.320 -19.407  -9.559  1.00  0.00     0.108 A 
HETATM   15  N6  UNL     1      -7.328 -20.293  -9.505  1.00  0.00    -0.331 N 
HETATM   16  C18 UNL     1      -7.251 -21.279 -10.410  1.00  0.00     0.272 A 
ATOM     17  H6  UNL     1      -6.623 -20.222  -8.771  1.00  0.00     0.168 HD
HETATM   18  O4  UNL     1      -6.276 -22.067 -10.276  1.00  0.00    -0.266 OA
BRANCH  13  19
HETATM   19  C10 UNL     1     -10.364 -18.543 -10.633  1.00  0.00     0.257 C 
HETATM   20  O3  UNL     1     -11.083 -18.675 -11.639  1.00  0.00    -0.267 OA
HETATM   21  N5  UNL     1     -10.500 -17.604  -9.625  1.00  0.00    -0.323 N 
ATOM     22  H5  UNL     1      -9.825 -17.634  -8.861  1.00  0.00     0.169 HD
BRANCH  21  23
HETATM   23  C11 UNL     1     -11.499 -16.608  -9.568  1.00  0.00     0.035 A 
HETATM   24  C12 UNL     1     -12.474 -16.756  -8.556  1.00  0.00     0.029 A 
HETATM   25  C13 UNL     1     -13.472 -15.860  -8.403  1.00  0.00     0.002 A 
HETATM   26  C14 UNL     1     -13.553 -14.765  -9.253  1.00  0.00     0.000 A 
HETATM   27  C15 UNL     1     -12.627 -14.598 -10.236  1.00  0.00     0.002 A 
HETATM   28  C16 UNL     1     -11.597 -15.518 -10.397  1.00  0.00     0.029 A 
ENDBRANCH  21  23
ENDBRANCH  13  19
ENDBRANCH   9  11
ENDBRANCH   4   7
BRANCH   6  29
HETATM   29  S1  UNL     1      -8.208 -24.708 -17.462  1.00  0.00    -0.086 SA
BRANCH  29  30
HETATM   30  C21 UNL     1      -7.561 -23.047 -17.565  1.00  0.00     0.029 A 
HETATM   31  C22 UNL     1      -6.212 -22.764 -17.555  1.00  0.00     0.021 A 
HETATM   32  C23 UNL     1      -5.729 -21.479 -17.635  1.00  0.00     0.001 A 
HETATM   33  C24 UNL     1      -6.588 -20.408 -17.730  1.00  0.00     0.002 A 
HETATM   34  C25 UNL     1      -7.941 -20.666 -17.742  1.00  0.00     0.028 A 
HETATM   35  C26 UNL     1      -8.420 -21.973 -17.660  1.00  0.00     0.063 A 
HETATM   36  N7  UNL     1      -9.818 -22.213 -17.674  1.00  0.00    -0.101 NA
ENDBRANCH  29  30
ENDBRANCH   6  29
BRANCH   1  37
HETATM   37  N3  UNL     1      -7.439 -27.423 -16.572  1.00  0.00    -0.306 N 
HETATM   38  C1  UNL     1      -8.245 -28.459 -17.089  1.00  0.00     0.339 C 
HETATM   39  N2  UNL     1      -7.792 -29.185 -18.235  1.00  0.00    -0.258 N 
HETATM   40  O1  UNL     1      -9.347 -28.810 -16.623  1.00  0.00    -0.245 OA
ATOM     41  H2  UNL     1      -6.899 -28.952 -18.669  1.00  0.00     0.191 HD
ATOM     42  H3  UNL     1      -6.561 -27.250 -17.062  1.00  0.00     0.171 HD
BRANCH  39  43
HETATM   43  N1  UNL     1      -8.572 -30.205 -18.751  1.00  0.00    -0.341 N 
ATOM     44  H12 UNL     1      -8.517 -31.133 -18.333  1.00  0.00     0.177 HD
ATOM     45  H11 UNL     1      -9.189 -30.017 -19.541  1.00  0.00     0.177 HD
ENDBRANCH  39  43
ENDBRANCH   1  37
TORSDOF 8
ENDMDL
MODEL 3
REMARK VINA RESULT: -10.514863816      1.436      1.766
REMARK  8 active torsions:
REMARK  status: ('A' for Active; 'I' for Inactive)
REMARK    1  A    between atoms: N1_1  and  N2_4 
REMARK       I    between atoms: N2_4  and  C1_6 
REMARK       I    between atoms: C1_6  and  N3_8 
REMARK    2  A    between atoms: N3_8  and  C2_10 
REMARK    3  A    between atoms: C5_13  and  C6_14 
REMARK       I    between atoms: C6_14  and  N4_16 
REMARK    4  A    between atoms: N4_16  and  C7_18 
REMARK    5  A    between atoms: C9_20  and  C10_21 
REMARK       I    between atoms: C10_21  and  N5_23 
REMARK    6  A    between atoms: N5_23  and  C11_25 
REMARK    7  A    between atoms: C20_37  and  S1_38 
REMARK    8  A    between atoms: S1_38  and  C21_39 
ROOT
HETATM    1  C2  UNL     1      -7.527 -26.706 -15.191  1.00  0.00     0.053 A 
HETATM    2  C3  UNL     1      -7.720 -27.132 -13.895  1.00  0.00     0.032 A 
HETATM    3  C4  UNL     1      -7.921 -26.211 -12.877  1.00  0.00     0.019 A 
HETATM    4  C5  UNL     1      -7.938 -24.865 -13.116  1.00  0.00     0.033 A 
HETATM    5  C19 UNL     1      -7.743 -24.472 -14.426  1.00  0.00     0.038 A 
HETATM    6  C20 UNL     1      -7.538 -25.326 -15.473  1.00  0.00     0.033 A 
ENDROOT
BRANCH   4   7
HETATM    7  C6  UNL     1      -8.144 -23.854 -12.050  1.00  0.00     0.256 C 
HETATM    8  O2  UNL     1      -9.050 -24.113 -11.246  1.00  0.00    -0.267 OA
HETATM    9  N4  UNL     1      -7.374 -22.694 -11.957  1.00  0.00    -0.318 N 
ATOM     10  H4  UNL     1      -6.662 -22.597 -12.681  1.00  0.00     0.169 HD
BRANCH   9  11
HETATM   11  C7  UNL     1      -7.417 -21.650 -11.043  1.00  0.00     0.104 A 
HETATM   12  C8  UNL     1      -8.121 -20.494 -11.236  1.00  0.00     0.053 A 
HETATM   13  C9  UNL     1      -8.086 -19.522 -10.243  1.00  0.00     0.050 A 
HETATM   14  C17 UNL     1      -7.381 -19.669  -9.087  1.00  0.00     0.108 A 
HETATM   15  N6  UNL     1      -6.698 -20.798  -8.906  1.00  0.00    -0.331 N 
HETATM   16  C18 UNL     1      -6.712 -21.755  -9.844  1.00  0.00     0.272 A 
ATOM     17  H6  UNL     1      -6.162 -20.935  -8.049  1.00  0.00     0.168 HD
HETATM   18  O4  UNL     1      -6.034 -22.786  -9.582  1.00  0.00    -0.266 OA
BRANCH  13  19
HETATM   19  C10 UNL     1      -8.855 -18.256 -10.468  1.00  0.00     0.257 C 
HETATM   20  O3  UNL     1      -8.175 -17.330 -10.940  1.00  0.00    -0.267 OA
HETATM   21  N5  UNL     1     -10.201 -18.226 -10.146  1.00  0.00    -0.323 N 
ATOM     22  H5  UNL     1     -10.613 -19.079  -9.769  1.00  0.00     0.169 HD
BRANCH  21  23
HETATM   23  C11 UNL     1     -11.050 -17.109 -10.297  1.00  0.00     0.035 A 
HETATM   24  C12 UNL     1     -11.324 -16.366  -9.126  1.00  0.00     0.029 A 
HETATM   25  C13 UNL     1     -12.117 -15.275  -9.153  1.00  0.00     0.002 A 
HETATM   26  C14 UNL     1     -12.682 -14.861 -10.353  1.00  0.00     0.000 A 
HETATM   27  C15 UNL     1     -12.435 -15.557 -11.495  1.00  0.00     0.002 A 
HETATM   28  C16 UNL     1     -11.618 -16.682 -11.472  1.00  0.00     0.029 A 
ENDBRANCH  21  23
ENDBRANCH  13  19
ENDBRANCH   9  11
ENDBRANCH   4   7
BRANCH   6  29
HETATM   29  S1  UNL     1      -7.293 -24.701 -17.126  1.00  0.00    -0.086 SA
BRANCH  29  30
HETATM   30  C21 UNL     1      -8.300 -23.243 -17.346  1.00  0.00     0.029 A 
HETATM   31  C22 UNL     1      -9.678 -23.273 -17.335  1.00  0.00     0.021 A 
HETATM   32  C23 UNL     1     -10.440 -22.140 -17.506  1.00  0.00     0.001 A 
HETATM   33  C24 UNL     1      -9.846 -20.914 -17.697  1.00  0.00     0.002 A 
HETATM   34  C25 UNL     1      -8.469 -20.858 -17.711  1.00  0.00     0.028 A 
HETATM   35  C26 UNL     1      -7.706 -22.013 -17.537  1.00  0.00     0.063 A 
HETATM   36  N7  UNL     1      -6.291 -21.931 -17.555  1.00  0.00    -0.101 NA
ENDBRANCH  29  30
ENDBRANCH   6  29
BRANCH   1  37
HETATM   37  N3  UNL     1      -7.312 -27.543 -16.308  1.00  0.00    -0.306 N 
HETATM   38  C1  UNL     1      -8.220 -28.445 -16.902  1.00  0.00     0.339 C 
HETATM   39  N2  UNL     1      -7.800 -29.207 -18.037  1.00  0.00    -0.258 N 
HETATM   40  O1  UNL     1      -9.389 -28.644 -16.515  1.00  0.00    -0.245 OA
ATOM     41  H2  UNL     1      -6.857 -29.095 -18.409  1.00  0.00     0.191 HD
ATOM     42  H3  UNL     1      -6.388 -27.489 -16.737  1.00  0.00     0.171 HD
BRANCH  39  43
HETATM   43  N1  UNL     1      -8.680 -30.095 -18.629  1.00  0.00    -0.341 N 
ATOM     44  H12 UNL     1      -9.277 -29.773 -19.390  1.00  0.00     0.177 HD
ATOM     45  H11 UNL     1      -8.723 -31.059 -18.297  1.00  0.00     0.177 HD
ENDBRANCH  39  43
ENDBRANCH   1  37
TORSDOF 8
ENDMDL
MODEL 4
REMARK VINA RESULT: -10.395187900      3.222      4.255
REMARK  8 active torsions:
REMARK  status: ('A' for Active; 'I' for Inactive)
REMARK    1  A    between atoms: N1_1  and  N2_4 
REMARK       I    between atoms: N2_4  and  C1_6 
REMARK       I    between atoms: C1_6  and  N3_8 
REMARK    2  A    between atoms: N3_8  and  C2_10 
REMARK    3  A    between atoms: C5_13  and  C6_14 
REMARK       I    between atoms: C6_14  and  N4_16 
REMARK    4  A    between atoms: N4_16  and  C7_18 
REMARK    5  A    between atoms: C9_20  and  C10_21 
REMARK       I    between atoms: C10_21  and  N5_23 
REMARK    6  A    between atoms: N5_23  and  C11_25 
REMARK    7  A    between atoms: C20_37  and  S1_38 
REMARK    8  A    between atoms: S1_38  and  C21_39 
ROOT
HETATM    1  C2  UNL     1      -7.973 -25.900 -13.439  1.00  0.00     0.053 A 
HETATM    2  C3  UNL     1      -8.338 -25.409 -12.205  1.00  0.00     0.032 A 
HETATM    3  C4  UNL     1      -9.165 -24.300 -12.109  1.00  0.00     0.019 A 
HETATM    4  C5  UNL     1      -9.646 -23.660 -13.218  1.00  0.00     0.033 A 
HETATM    5  C19 UNL     1      -9.262 -24.179 -14.439  1.00  0.00     0.038 A 
HETATM    6  C20 UNL     1      -8.450 -25.267 -14.604  1.00  0.00     0.033 A 
ENDROOT
BRANCH   4   7
HETATM    7  C6  UNL     1     -10.526 -22.469 -13.150  1.00  0.00     0.256 C 
HETATM    8  O2  UNL     1     -10.719 -22.020 -12.011  1.00  0.00    -0.267 OA
HETATM    9  N4  UNL     1     -11.099 -21.893 -14.284  1.00  0.00    -0.318 N 
ATOM     10  H4  UNL     1     -10.865 -22.358 -15.162  1.00  0.00     0.169 HD
BRANCH   9  11
HETATM   11  C7  UNL     1     -11.935 -20.792 -14.417  1.00  0.00     0.104 A 
HETATM   12  C8  UNL     1     -12.319 -19.995 -13.375  1.00  0.00     0.053 A 
HETATM   13  C9  UNL     1     -13.160 -18.919 -13.638  1.00  0.00     0.050 A 
HETATM   14  C17 UNL     1     -13.617 -18.625 -14.887  1.00  0.00     0.108 A 
HETATM   15  N6  UNL     1     -13.238 -19.405 -15.897  1.00  0.00    -0.331 N 
HETATM   16  C18 UNL     1     -12.428 -20.450 -15.677  1.00  0.00     0.272 A 
ATOM     17  H6  UNL     1     -13.565 -19.207 -16.842  1.00  0.00     0.168 HD
HETATM   18  O4  UNL     1     -12.125 -21.130 -16.695  1.00  0.00    -0.266 OA
BRANCH  13  19
HETATM   19  C10 UNL     1     -13.581 -18.057 -12.488  1.00  0.00     0.257 C 
HETATM   20  O3  UNL     1     -14.807 -18.053 -12.283  1.00  0.00    -0.267 OA
HETATM   21  N5  UNL     1     -12.612 -17.367 -11.779  1.00  0.00    -0.323 N 
ATOM     22  H5  UNL     1     -11.643 -17.482 -12.075  1.00  0.00     0.169 HD
BRANCH  21  23
HETATM   23  C11 UNL     1     -12.858 -16.516 -10.681  1.00  0.00     0.035 A 
HETATM   24  C12 UNL     1     -12.751 -15.128 -10.927  1.00  0.00     0.029 A 
HETATM   25  C13 UNL     1     -12.971 -14.221  -9.952  1.00  0.00     0.002 A 
HETATM   26  C14 UNL     1     -13.311 -14.648  -8.675  1.00  0.00     0.000 A 
HETATM   27  C15 UNL     1     -13.420 -15.978  -8.410  1.00  0.00     0.002 A 
HETATM   28  C16 UNL     1     -13.195 -16.917  -9.411  1.00  0.00     0.029 A 
ENDBRANCH  21  23
ENDBRANCH  13  19
ENDBRANCH   9  11
ENDBRANCH   4   7
BRANCH   6  29
HETATM   29  S1  UNL     1      -8.018 -25.845 -16.235  1.00  0.00    -0.086 SA
BRANCH  29  30
HETATM   30  C21 UNL     1      -7.551 -24.444 -17.239  1.00  0.00     0.029 A 
HETATM   31  C22 UNL     1      -8.144 -24.155 -18.448  1.00  0.00     0.021 A 
HETATM   32  C23 UNL     1      -7.773 -23.071 -19.210  1.00  0.00     0.001 A 
HETATM   33  C24 UNL     1      -6.778 -22.220 -18.786  1.00  0.00     0.002 A 
HETATM   34  C25 UNL     1      -6.170 -22.488 -17.579  1.00  0.00     0.028 A 
HETATM   35  C26 UNL     1      -6.554 -23.590 -16.815  1.00  0.00     0.063 A 
HETATM   36  N7  UNL     1      -5.914 -23.846 -15.576  1.00  0.00    -0.101 NA
ENDBRANCH  29  30
ENDBRANCH   6  29
BRANCH   1  37
HETATM   37  N3  UNL     1      -7.139 -27.018 -13.666  1.00  0.00    -0.306 N 
HETATM   38  C1  UNL     1      -7.525 -28.354 -13.898  1.00  0.00     0.339 C 
HETATM   39  N2  UNL     1      -6.514 -29.344 -14.105  1.00  0.00    -0.258 N 
HETATM   40  O1  UNL     1      -8.703 -28.763 -13.939  1.00  0.00    -0.245 OA
ATOM     41  H2  UNL     1      -5.528 -29.081 -14.085  1.00  0.00     0.191 HD
ATOM     42  H3  UNL     1      -6.135 -26.835 -13.661  1.00  0.00     0.171 HD
BRANCH  39  43
HETATM   43  N1  UNL     1      -6.879 -30.659 -14.333  1.00  0.00    -0.341 N 
ATOM     44  H12 UNL     1      -7.312 -30.908 -15.222  1.00  0.00     0.177 HD
ATOM     45  H11 UNL     1      -6.713 -31.360 -13.611  1.00  0.00     0.177 HD
ENDBRANCH  39  43
ENDBRANCH   1  37
TORSDOF 8
ENDMDL
MODEL 5
REMARK VINA RESULT: -10.395043163      3.339     11.199
REMARK  8 active torsions:
REMARK  status: ('A' for Active; 'I' for Inactive)
REMARK    1  A    between atoms: N1_1  and  N2_4 
REMARK       I    between atoms: N2_4  and  C1_6 
REMARK       I    between atoms: C1_6  and  N3_8 
REMARK    2  A    between atoms: N3_8  and  C2_10 
REMARK    3  A    between atoms: C5_13  and  C6_14 
REMARK       I    between atoms: C6_14  and  N4_16 
REMARK    4  A    between atoms: N4_16  and  C7_18 
REMARK    5  A    between atoms: C9_20  and  C10_21 
REMARK       I    between atoms: C10_21  and  N5_23 
REMARK    6  A    between atoms: N5_23  and  C11_25 
REMARK    7  A    between atoms: C20_37  and  S1_38 
REMARK    8  A    between atoms: S1_38  and  C21_39 
ROOT
HETATM    1  C2  UNL     1     -12.909 -18.385 -12.442  1.00  0.00     0.053 A 
HETATM    2  C3  UNL     1     -13.186 -18.135 -13.768  1.00  0.00     0.032 A 
HETATM    3  C4  UNL     1     -12.725 -18.995 -14.754  1.00  0.00     0.019 A 
HETATM    4  C5  UNL     1     -11.990 -20.108 -14.454  1.00  0.00     0.033 A 
HETATM    5  C19 UNL     1     -11.731 -20.330 -13.115  1.00  0.00     0.038 A 
HETATM    6  C20 UNL     1     -12.154 -19.523 -12.096  1.00  0.00     0.033 A 
ENDROOT
BRANCH   4   7
HETATM    7  C6  UNL     1     -11.477 -21.043 -15.485  1.00  0.00     0.256 C 
HETATM    8  O2  UNL     1     -12.288 -21.350 -16.369  1.00  0.00    -0.267 OA
HETATM    9  N4  UNL     1     -10.174 -21.544 -15.462  1.00  0.00    -0.318 N 
ATOM     10  H4  UNL     1      -9.606 -21.216 -14.680  1.00  0.00     0.169 HD
BRANCH   9  11
HETATM   11  C7  UNL     1      -9.523 -22.413 -16.326  1.00  0.00     0.104 A 
HETATM   12  C8  UNL     1      -9.343 -23.745 -16.077  1.00  0.00     0.053 A 
HETATM   13  C9  UNL     1      -8.674 -24.512 -17.024  1.00  0.00     0.050 A 
HETATM   14  C17 UNL     1      -8.191 -23.996 -18.189  1.00  0.00     0.108 A 
HETATM   15  N6  UNL     1      -8.371 -22.698 -18.425  1.00  0.00    -0.331 N 
HETATM   16  C18 UNL     1      -9.012 -21.931 -17.532  1.00  0.00     0.272 A 
ATOM     17  H6  UNL     1      -8.020 -22.286 -19.289  1.00  0.00     0.168 HD
HETATM   18  O4  UNL     1      -9.132 -20.715 -17.844  1.00  0.00    -0.266 OA
BRANCH  13  19
HETATM   19  C10 UNL     1      -8.475 -25.969 -16.739  1.00  0.00     0.257 C 
HETATM   20  O3  UNL     1      -9.108 -26.380 -15.751  1.00  0.00    -0.267 OA
HETATM   21  N5  UNL     1      -7.641 -26.705 -17.564  1.00  0.00    -0.323 N 
ATOM     22  H5  UNL     1      -7.198 -26.215 -18.340  1.00  0.00     0.169 HD
BRANCH  21  23
HETATM   23  C11 UNL     1      -7.355 -28.079 -17.416  1.00  0.00     0.035 A 
HETATM   24  C12 UNL     1      -8.018 -28.956 -18.304  1.00  0.00     0.029 A 
HETATM   25  C13 UNL     1      -7.816 -30.290 -18.259  1.00  0.00     0.002 A 
HETATM   26  C14 UNL     1      -6.938 -30.824 -17.325  1.00  0.00     0.000 A 
HETATM   27  C15 UNL     1      -6.285 -30.002 -16.459  1.00  0.00     0.002 A 
HETATM   28  C16 UNL     1      -6.491 -28.628 -16.501  1.00  0.00     0.029 A 
ENDBRANCH  21  23
ENDBRANCH  13  19
ENDBRANCH   9  11
ENDBRANCH   4   7
BRANCH   6  29
HETATM   29  S1  UNL     1     -11.755 -19.909 -10.401  1.00  0.00    -0.086 SA
BRANCH  29  30
HETATM   30  C21 UNL     1     -10.343 -18.936  -9.904  1.00  0.00     0.029 A 
HETATM   31  C22 UNL     1      -9.082 -19.119 -10.430  1.00  0.00     0.021 A 
HETATM   32  C23 UNL     1      -8.004 -18.361 -10.037  1.00  0.00     0.001 A 
HETATM   33  C24 UNL     1      -8.146 -17.373  -9.089  1.00  0.00     0.002 A 
HETATM   34  C25 UNL     1      -9.397 -17.170  -8.550  1.00  0.00     0.028 A 
HETATM   35  C26 UNL     1     -10.483 -17.946  -8.955  1.00  0.00     0.063 A 
HETATM   36  N7  UNL     1     -11.762 -17.719  -8.385  1.00  0.00    -0.101 NA
ENDBRANCH  29  30
ENDBRANCH   6  29
BRANCH   1  37
HETATM   37  N3  UNL     1     -13.321 -17.586 -11.351  1.00  0.00    -0.306 N 
HETATM   38  C1  UNL     1     -12.917 -16.271 -11.040  1.00  0.00     0.339 C 
HETATM   39  N2  UNL     1     -13.458 -15.636  -9.879  1.00  0.00    -0.258 N 
HETATM   40  O1  UNL     1     -12.108 -15.593 -11.705  1.00  0.00    -0.245 OA
ATOM     41  H2  UNL     1     -14.126 -16.130  -9.288  1.00  0.00     0.191 HD
ATOM     42  H3  UNL     1     -13.992 -18.013 -10.712  1.00  0.00     0.171 HD
BRANCH  39  43
HETATM   43  N1  UNL     1     -13.070 -14.346  -9.561  1.00  0.00    -0.341 N 
ATOM     44  H12 UNL     1     -12.202 -14.200  -9.048  1.00  0.00     0.177 HD
ATOM     45  H11 UNL     1     -13.655 -13.559  -9.843  1.00  0.00     0.177 HD
ENDBRANCH  39  43
ENDBRANCH   1  37
TORSDOF 8
ENDMDL
