MODEL 1
REMARK VINA RESULT: -10.965629456      0.000      0.000
REMARK  10 active torsions:
REMARK  status: ('A' for Active; 'I' for Inactive)
REMARK    1  A    between atoms: N1_1  and  C1_4 
REMARK    2  A    between atoms: C3_6  and  C4_7 
REMARK    3  A    between atoms: C8_11  and  C9_12 
REMARK    4  A    between atoms: C11_14  and  C12_15 
REMARK    5  A    between atoms: C16_19  and  O1_20 
REMARK    6  A    between atoms: O1_20  and  C17_21 
REMARK    7  A    between atoms: C21_25  and  N2_26 
REMARK    8  A    between atoms: N2_26  and  S1_28 
REMARK    9  A    between atoms: S1_28  and  N3_29 
REMARK   10  A    between atoms: C25_42  and  N6_43 
ROOT
HETATM    1  C9  UNL     1     -10.109 -23.044 -15.227  1.00  0.00     0.111 A 
HETATM    2  C10 UNL     1     -10.691 -22.043 -14.480  1.00  0.00     0.072 A 
HETATM    3  C11 UNL     1     -11.270 -21.134 -15.342  1.00  0.00     0.068 A 
HETATM    4  N4  UNL     1     -11.014 -21.622 -16.570  1.00  0.00    -0.260 N 
ATOM      5  H4  UNL     1     -11.307 -21.185 -17.444  1.00  0.00     0.195 HD
HETATM    6  O4  UNL     1     -10.344 -22.723 -16.483  1.00  0.00    -0.237 OA
ENDROOT
BRANCH   3   7
HETATM    7  C12 UNL     1     -12.002 -19.910 -15.004  1.00  0.00    -0.005 A 
HETATM    8  C13 UNL     1     -12.610 -19.145 -15.973  1.00  0.00     0.014 A 
HETATM    9  C14 UNL     1     -13.303 -17.992 -15.676  1.00  0.00     0.004 A 
HETATM   10  C15 UNL     1     -13.393 -17.581 -14.340  1.00  0.00     0.037 A 
HETATM   11  C16 UNL     1     -12.793 -18.331 -13.360  1.00  0.00     0.076 A 
HETATM   12  C23 UNL     1     -12.109 -19.476 -13.688  1.00  0.00     0.051 A 
BRANCH  11  13
HETATM   13  O1  UNL     1     -12.879 -17.933 -12.053  1.00  0.00    -0.311 OA
BRANCH  13  14
HETATM   14  C17 UNL     1     -11.932 -17.219 -11.362  1.00  0.00     0.078 A 
HETATM   15  C18 UNL     1     -11.937 -15.844 -11.462  1.00  0.00     0.037 A 
HETATM   16  C19 UNL     1     -10.995 -15.101 -10.778  1.00  0.00     0.005 A 
HETATM   17  C20 UNL     1     -10.068 -15.753 -10.007  1.00  0.00     0.030 A 
HETATM   18  C21 UNL     1     -10.023 -17.147  -9.874  1.00  0.00     0.046 A 
HETATM   19  C22 UNL     1     -10.994 -17.838 -10.585  1.00  0.00     0.067 A 
BRANCH  18  20
HETATM   20  N2  UNL     1      -9.056 -17.787  -9.074  1.00  0.00    -0.268 N 
ATOM     21  H2  UNL     1      -9.269 -17.900  -8.083  1.00  0.00     0.180 HD
BRANCH  20  22
HETATM   22  S1  UNL     1      -7.547 -18.392  -9.632  1.00  0.00     0.317 S 
HETATM   23  O2  UNL     1      -6.371 -17.846  -8.890  1.00  0.00    -0.183 OA
HETATM   24  O3  UNL     1      -7.370 -17.968 -11.081  1.00  0.00    -0.183 OA
BRANCH  22  25
HETATM   25  N3  UNL     1      -7.533 -20.132  -9.634  1.00  0.00    -0.311 N 
ATOM     26  H32 UNL     1      -7.311 -20.696  -8.813  1.00  0.00     0.170 HD
ATOM     27  H31 UNL     1      -7.774 -20.500 -10.554  1.00  0.00     0.170 HD
ENDBRANCH  22  25
ENDBRANCH  20  22
ENDBRANCH  18  20
ENDBRANCH  13  14
ENDBRANCH  11  13
ENDBRANCH   3   7
BRANCH   1  28
HETATM   28  C8  UNL     1      -9.382 -24.218 -14.780  1.00  0.00     0.001 A 
HETATM   29  C7  UNL     1      -9.185 -24.495 -13.449  1.00  0.00     0.014 A 
HETATM   30  C6  UNL     1      -8.486 -25.625 -13.044  1.00  0.00     0.002 A 
HETATM   31  C5  UNL     1      -7.974 -26.498 -14.000  1.00  0.00     0.014 A 
HETATM   32  C4  UNL     1      -8.151 -26.252 -15.336  1.00  0.00    -0.008 A 
HETATM   33  C24 UNL     1      -8.849 -25.122 -15.697  1.00  0.00     0.028 A 
BRANCH  32  34
HETATM   34  C3  UNL     1      -7.619 -27.158 -16.349  1.00  0.00     0.063 A 
HETATM   35  C2  UNL     1      -6.316 -27.101 -16.787  1.00  0.00     0.079 A 
HETATM   36  C1  UNL     1      -5.841 -27.990 -17.763  1.00  0.00     0.116 A 
HETATM   37  N7  UNL     1      -6.685 -28.901 -18.262  1.00  0.00    -0.177 N 
HETATM   38  C25 UNL     1      -7.961 -28.978 -17.851  1.00  0.00     0.677 A 
ATOM     39  H7  UNL     1      -6.350 -29.553 -18.973  1.00  0.00     0.185 HD
HETATM   40  N5  UNL     1      -8.404 -28.111 -16.908  1.00  0.00    -0.191 N 
ATOM     41  H5  UNL     1      -9.375 -28.179 -16.603  1.00  0.00     0.184 HD
BRANCH  36  42
HETATM   42  N1  UNL     1      -4.639 -27.909 -18.142  1.00  0.00    -0.385 N 
ATOM     43  H12 UNL     1      -4.213 -27.021 -18.407  1.00  0.00     0.157 HD
ATOM     44  H11 UNL     1      -4.071 -28.756 -18.188  1.00  0.00     0.157 HD
ENDBRANCH  36  42
BRANCH  38  45
HETATM   45  N6  UNL     1      -8.723 -29.879 -18.371  1.00  0.00    -0.234 N 
ATOM     46  H62 UNL     1      -8.842 -29.892 -19.384  1.00  0.00     0.174 HD
ATOM     47  H61 UNL     1      -9.209 -30.577 -17.806  1.00  0.00     0.174 HD
ENDBRANCH  38  45
ENDBRANCH  32  34
ENDBRANCH   1  28
TORSDOF 10
ENDMDL
MODEL 2
REMARK VINA RESULT: -10.964784615      3.290      9.091
REMARK  10 active torsions:
REMARK  status: ('A' for Active; 'I' for Inactive)
REMARK    1  A    between atoms: N1_1  and  C1_4 
REMARK    2  A    between atoms: C3_6  and  C4_7 
REMARK    3  A    between atoms: C8_11  and  C9_12 
REMARK    4  A    between atoms: C11_14  and  C12_15 
REMARK    5  A    between atoms: C16_19  and  O1_20 
REMARK    6  A    between atoms: O1_20  and  C17_21 
REMARK    7  A    between atoms: C21_25  and  N2_26 
REMARK    8  A    between atoms: N2_26  and  S1_28 
REMARK    9  A    between atoms: S1_28  and  N3_29 
REMARK   10  A    between atoms: C25_42  and  N6_43 
ROOT
HETATM    1  C9  UNL     1     -11.739 -20.550 -15.592  1.00  0.00     0.111 A 
HETATM    2  C10 UNL     1     -11.006 -21.453 -14.853  1.00  0.00     0.072 A 
HETATM    3  C11 UNL     1     -10.618 -22.485 -15.682  1.00  0.00     0.068 A 
HETATM    4  N4  UNL     1     -11.131 -22.164 -16.884  1.00  0.00    -0.260 N 
ATOM      5  H4  UNL     1     -11.027 -22.724 -17.730  1.00  0.00     0.195 HD
HETATM    6  O4  UNL     1     -11.774 -21.046 -16.813  1.00  0.00    -0.237 OA
ENDROOT
BRANCH   3   7
HETATM    7  C12 UNL     1      -9.824 -23.668 -15.339  1.00  0.00    -0.005 A 
HETATM    8  C13 UNL     1      -9.476 -24.601 -16.288  1.00  0.00     0.014 A 
HETATM    9  C14 UNL     1      -8.729 -25.719 -15.987  1.00  0.00     0.004 A 
HETATM   10  C15 UNL     1      -8.309 -25.916 -14.665  1.00  0.00     0.037 A 
HETATM   11  C16 UNL     1      -8.646 -24.996 -13.704  1.00  0.00     0.076 A 
HETATM   12  C23 UNL     1      -9.392 -23.891 -14.037  1.00  0.00     0.051 A 
BRANCH  11  13
HETATM   13  O1  UNL     1      -8.238 -25.185 -12.411  1.00  0.00    -0.311 OA
BRANCH  13  14
HETATM   14  C17 UNL     1      -8.014 -24.200 -11.483  1.00  0.00     0.078 A 
HETATM   15  C18 UNL     1      -6.716 -23.941 -11.094  1.00  0.00     0.037 A 
HETATM   16  C19 UNL     1      -6.461 -22.955 -10.161  1.00  0.00     0.005 A 
HETATM   17  C20 UNL     1      -7.513 -22.249  -9.638  1.00  0.00     0.030 A 
HETATM   18  C21 UNL     1      -8.848 -22.476 -10.002  1.00  0.00     0.046 A 
HETATM   19  C22 UNL     1      -9.039 -23.478 -10.942  1.00  0.00     0.067 A 
BRANCH  18  20
HETATM   20  N2  UNL     1      -9.907 -21.733  -9.445  1.00  0.00    -0.268 N 
ATOM     21  H2  UNL     1     -10.337 -22.096  -8.595  1.00  0.00     0.180 HD
BRANCH  20  22
HETATM   22  S1  UNL     1     -10.532 -20.262 -10.079  1.00  0.00     0.317 S 
HETATM   23  O2  UNL     1     -10.636 -19.169  -9.067  1.00  0.00    -0.183 OA
HETATM   24  O3  UNL     1     -11.946 -20.521 -10.574  1.00  0.00    -0.183 OA
BRANCH  22  25
HETATM   25  N3  UNL     1      -9.622 -19.744 -11.469  1.00  0.00    -0.311 N 
ATOM     26  H32 UNL     1      -9.485 -20.319 -12.301  1.00  0.00     0.170 HD
ATOM     27  H31 UNL     1      -9.253 -18.803 -11.335  1.00  0.00     0.170 HD
ENDBRANCH  22  25
ENDBRANCH  20  22
ENDBRANCH  18  20
ENDBRANCH  13  14
ENDBRANCH  11  13
ENDBRANCH   3   7
BRANCH   1  28
HETATM   28  C8  UNL     1     -12.362 -19.308 -15.171  1.00  0.00     0.001 A 
HETATM   29  C7  UNL     1     -13.049 -18.500 -16.044  1.00  0.00     0.014 A 
HETATM   30  C6  UNL     1     -13.637 -17.315 -15.618  1.00  0.00     0.002 A 
HETATM   31  C5  UNL     1     -13.531 -16.935 -14.283  1.00  0.00     0.014 A 
HETATM   32  C4  UNL     1     -12.853 -17.717 -13.386  1.00  0.00    -0.008 A 
HETATM   33  C24 UNL     1     -12.285 -18.883 -13.846  1.00  0.00     0.028 A 
BRANCH  32  34
HETATM   34  C3  UNL     1     -12.735 -17.330 -11.984  1.00  0.00     0.063 A 
HETATM   35  C2  UNL     1     -11.784 -16.441 -11.535  1.00  0.00     0.079 A 
HETATM   36  C1  UNL     1     -11.703 -16.094 -10.179  1.00  0.00     0.116 A 
HETATM   37  N7  UNL     1     -12.572 -16.645  -9.323  1.00  0.00    -0.177 N 
HETATM   38  C25 UNL     1     -13.510 -17.515  -9.736  1.00  0.00     0.677 A 
ATOM     39  H7  UNL     1     -12.522 -16.400  -8.334  1.00  0.00     0.185 HD
HETATM   40  N5  UNL     1     -13.574 -17.840 -11.051  1.00  0.00    -0.191 N 
ATOM     41  H5  UNL     1     -14.290 -18.501 -11.352  1.00  0.00     0.184 HD
BRANCH  36  42
HETATM   42  N1  UNL     1     -10.818 -15.275  -9.801  1.00  0.00    -0.385 N 
ATOM     43  H12 UNL     1     -10.395 -14.602 -10.440  1.00  0.00     0.157 HD
ATOM     44  H11 UNL     1     -10.513 -15.282  -8.828  1.00  0.00     0.157 HD
ENDBRANCH  36  42
BRANCH  38  45
HETATM   45  N6  UNL     1     -14.318 -18.011  -8.862  1.00  0.00    -0.234 N 
ATOM     46  H62 UNL     1     -15.221 -18.365  -9.179  1.00  0.00     0.174 HD
ATOM     47  H61 UNL     1     -14.086 -18.060  -7.870  1.00  0.00     0.174 HD
ENDBRANCH  38  45
ENDBRANCH  32  34
ENDBRANCH   1  28
TORSDOF 10
ENDMDL
MODEL 3
REMARK VINA RESULT: -10.940978726      1.344      1.882
REMARK  10 active torsions:
REMARK  status: ('A' for Active; 'I' for Inactive)
REMARK    1  A    between atoms: N1_1  and  C1_4 
REMARK    2  A    between atoms: C3_6  and  C4_7 
REMARK    3  A    between atoms: C8_11  and  C9_12 
REMARK    4  A    between atoms: C11_14  and  C12_15 
REMARK    5  A    between atoms: C16_19  and  O1_20 
REMARK    6  A    between atoms: O1_20  and  C17_21 
REMARK    7  A    between atoms: C21_25  and  N2_26 
REMARK    8  A    between atoms: N2_26  and  S1_28 
REMARK    9  A    between atoms: S1_28  and  N3_29 
REMARK   10  A    between atoms: C25_42  and  N6_43 
ROOT
HETATM    1  C9  UNL     1     -10.456 -22.331 -14.469  1.00  0.00     0.111 A 
HETATM    2  C10 UNL     1     -11.103 -21.219 -13.974  1.00  0.00     0.072 A 
HETATM    3  C11 UNL     1     -11.579 -20.479 -15.036  1.00  0.00     0.068 A 
HETATM    4  N4  UNL     1     -11.201 -21.172 -16.127  1.00  0.00    -0.260 N 
ATOM      5  H4  UNL     1     -11.397 -20.897 -17.089  1.00  0.00     0.195 HD
HETATM    6  O4  UNL     1     -10.555 -22.236 -15.780  1.00  0.00    -0.237 OA
ENDROOT
BRANCH   3   7
HETATM    7  C12 UNL     1     -12.330 -19.222 -14.997  1.00  0.00    -0.005 A 
HETATM    8  C13 UNL     1     -12.985 -18.739 -16.106  1.00  0.00     0.014 A 
HETATM    9  C14 UNL     1     -13.697 -17.559 -16.089  1.00  0.00     0.004 A 
HETATM   10  C15 UNL     1     -13.756 -16.822 -14.899  1.00  0.00     0.037 A 
HETATM   11  C16 UNL     1     -13.109 -17.287 -13.782  1.00  0.00     0.076 A 
HETATM   12  C23 UNL     1     -12.407 -18.468 -13.832  1.00  0.00     0.051 A 
BRANCH  11  13
HETATM   13  O1  UNL     1     -13.164 -16.569 -12.617  1.00  0.00    -0.311 OA
BRANCH  13  14
HETATM   14  C17 UNL     1     -12.738 -16.996 -11.385  1.00  0.00     0.078 A 
HETATM   15  C18 UNL     1     -13.632 -17.654 -10.567  1.00  0.00     0.037 A 
HETATM   16  C19 UNL     1     -13.230 -18.095  -9.322  1.00  0.00     0.005 A 
HETATM   17  C20 UNL     1     -11.939 -17.865  -8.922  1.00  0.00     0.030 A 
HETATM   18  C21 UNL     1     -10.995 -17.202  -9.717  1.00  0.00     0.046 A 
HETATM   19  C22 UNL     1     -11.458 -16.784 -10.956  1.00  0.00     0.067 A 
BRANCH  18  20
HETATM   20  N2  UNL     1      -9.675 -16.981  -9.276  1.00  0.00    -0.268 N 
ATOM     21  H2  UNL     1      -9.515 -16.186  -8.658  1.00  0.00     0.180 HD
BRANCH  20  22
HETATM   22  S1  UNL     1      -8.314 -17.944  -9.693  1.00  0.00     0.317 S 
HETATM   23  O2  UNL     1      -7.116 -17.691  -8.837  1.00  0.00    -0.183 OA
HETATM   24  O3  UNL     1      -7.902 -17.594 -11.114  1.00  0.00    -0.183 OA
BRANCH  22  25
HETATM   25  N3  UNL     1      -8.725 -19.634  -9.712  1.00  0.00    -0.311 N 
ATOM     26  H32 UNL     1      -9.682 -19.984  -9.661  1.00  0.00     0.170 HD
ATOM     27  H31 UNL     1      -7.888 -20.214  -9.780  1.00  0.00     0.170 HD
ENDBRANCH  22  25
ENDBRANCH  20  22
ENDBRANCH  18  20
ENDBRANCH  13  14
ENDBRANCH  11  13
ENDBRANCH   3   7
BRANCH   1  28
HETATM   28  C8  UNL     1      -9.792 -23.403 -13.751  1.00  0.00     0.001 A 
HETATM   29  C7  UNL     1      -9.611 -23.370 -12.389  1.00  0.00     0.014 A 
HETATM   30  C6  UNL     1      -8.973 -24.408 -11.721  1.00  0.00     0.002 A 
HETATM   31  C5  UNL     1      -8.505 -25.505 -12.441  1.00  0.00     0.014 A 
HETATM   32  C4  UNL     1      -8.669 -25.570 -13.799  1.00  0.00    -0.008 A 
HETATM   33  C24 UNL     1      -9.306 -24.522 -14.424  1.00  0.00     0.028 A 
BRANCH  32  34
HETATM   34  C3  UNL     1      -8.184 -26.714 -14.565  1.00  0.00     0.063 A 
HETATM   35  C2  UNL     1      -7.533 -27.777 -13.981  1.00  0.00     0.079 A 
HETATM   36  C1  UNL     1      -7.081 -28.859 -14.751  1.00  0.00     0.116 A 
HETATM   37  N7  UNL     1      -7.296 -28.838 -16.072  1.00  0.00    -0.177 N 
HETATM   38  C25 UNL     1      -7.929 -27.813 -16.666  1.00  0.00     0.677 A 
ATOM     39  H7  UNL     1      -6.972 -29.620 -16.642  1.00  0.00     0.185 HD
HETATM   40  N5  UNL     1      -8.359 -26.775 -15.907  1.00  0.00    -0.191 N 
ATOM     41  H5  UNL     1      -8.838 -26.002 -16.369  1.00  0.00     0.184 HD
BRANCH  36  42
HETATM   42  N1  UNL     1      -6.488 -29.818 -14.183  1.00  0.00    -0.385 N 
ATOM     43  H12 UNL     1      -6.963 -30.693 -13.959  1.00  0.00     0.157 HD
ATOM     44  H11 UNL     1      -5.502 -29.722 -13.937  1.00  0.00     0.157 HD
ENDBRANCH  36  42
BRANCH  38  45
HETATM   45  N6  UNL     1      -8.106 -27.853 -17.943  1.00  0.00    -0.234 N 
ATOM     46  H62 UNL     1      -8.305 -28.754 -18.379  1.00  0.00     0.174 HD
ATOM     47  H61 UNL     1      -8.054 -27.019 -18.528  1.00  0.00     0.174 HD
ENDBRANCH  38  45
ENDBRANCH  32  34
ENDBRANCH   1  28
TORSDOF 10
ENDMDL
MODEL 4
REMARK VINA RESULT: -10.924809585      1.407      1.962
REMARK  10 active torsions:
REMARK  status: ('A' for Active; 'I' for Inactive)
REMARK    1  A    between atoms: N1_1  and  C1_4 
REMARK    2  A    between atoms: C3_6  and  C4_7 
REMARK    3  A    between atoms: C8_11  and  C9_12 
REMARK    4  A    between atoms: C11_14  and  C12_15 
REMARK    5  A    between atoms: C16_19  and  O1_20 
REMARK    6  A    between atoms: O1_20  and  C17_21 
REMARK    7  A    between atoms: C21_25  and  N2_26 
REMARK    8  A    between atoms: N2_26  and  S1_28 
REMARK    9  A    between atoms: S1_28  and  N3_29 
REMARK   10  A    between atoms: C25_42  and  N6_43 
ROOT
HETATM    1  C9  UNL     1     -10.418 -22.299 -14.502  1.00  0.00     0.111 A 
HETATM    2  C10 UNL     1     -11.123 -21.225 -14.003  1.00  0.00     0.072 A 
HETATM    3  C11 UNL     1     -11.538 -20.443 -15.061  1.00  0.00     0.068 A 
HETATM    4  N4  UNL     1     -11.068 -21.075 -16.153  1.00  0.00    -0.260 N 
ATOM      5  H4  UNL     1     -11.200 -20.756 -17.113  1.00  0.00     0.195 HD
HETATM    6  O4  UNL     1     -10.425 -22.142 -15.811  1.00  0.00    -0.237 OA
ENDROOT
BRANCH   3   7
HETATM    7  C12 UNL     1     -12.317 -19.203 -15.016  1.00  0.00    -0.005 A 
HETATM    8  C13 UNL     1     -13.004 -18.744 -16.116  1.00  0.00     0.014 A 
HETATM    9  C14 UNL     1     -13.743 -17.581 -16.094  1.00  0.00     0.004 A 
HETATM   10  C15 UNL     1     -13.796 -16.836 -14.908  1.00  0.00     0.037 A 
HETATM   11  C16 UNL     1     -13.117 -17.277 -13.801  1.00  0.00     0.076 A 
HETATM   12  C23 UNL     1     -12.390 -18.441 -13.855  1.00  0.00     0.051 A 
BRANCH  11  13
HETATM   13  O1  UNL     1     -13.167 -16.552 -12.641  1.00  0.00    -0.311 OA
BRANCH  13  14
HETATM   14  C17 UNL     1     -12.750 -16.976 -11.404  1.00  0.00     0.078 A 
HETATM   15  C18 UNL     1     -13.652 -17.626 -10.590  1.00  0.00     0.037 A 
HETATM   16  C19 UNL     1     -13.260 -18.064  -9.340  1.00  0.00     0.005 A 
HETATM   17  C20 UNL     1     -11.970 -17.841  -8.934  1.00  0.00     0.030 A 
HETATM   18  C21 UNL     1     -11.018 -17.186  -9.727  1.00  0.00     0.046 A 
HETATM   19  C22 UNL     1     -11.472 -16.770 -10.969  1.00  0.00     0.067 A 
BRANCH  18  20
HETATM   20  N2  UNL     1      -9.699 -16.972  -9.279  1.00  0.00    -0.268 N 
ATOM     21  H2  UNL     1      -9.538 -16.179  -8.658  1.00  0.00     0.180 HD
BRANCH  20  22
HETATM   22  S1  UNL     1      -8.339 -17.938  -9.694  1.00  0.00     0.317 S 
HETATM   23  O2  UNL     1      -7.144 -17.691  -8.833  1.00  0.00    -0.183 OA
HETATM   24  O3  UNL     1      -7.921 -17.587 -11.112  1.00  0.00    -0.183 OA
BRANCH  22  25
HETATM   25  N3  UNL     1      -8.756 -19.627  -9.717  1.00  0.00    -0.311 N 
ATOM     26  H32 UNL     1      -9.244 -20.078 -10.492  1.00  0.00     0.170 HD
ATOM     27  H31 UNL     1      -8.449 -20.092  -8.863  1.00  0.00     0.170 HD
ENDBRANCH  22  25
ENDBRANCH  20  22
ENDBRANCH  18  20
ENDBRANCH  13  14
ENDBRANCH  11  13
ENDBRANCH   3   7
BRANCH   1  28
HETATM   28  C8  UNL     1      -9.784 -23.393 -13.789  1.00  0.00     0.001 A 
HETATM   29  C7  UNL     1      -9.621 -23.381 -12.425  1.00  0.00     0.014 A 
HETATM   30  C6  UNL     1      -9.011 -24.439 -11.763  1.00  0.00     0.002 A 
HETATM   31  C5  UNL     1      -8.554 -25.534 -12.490  1.00  0.00     0.014 A 
HETATM   32  C4  UNL     1      -8.700 -25.579 -13.852  1.00  0.00    -0.008 A 
HETATM   33  C24 UNL     1      -9.309 -24.511 -14.470  1.00  0.00     0.028 A 
BRANCH  32  34
HETATM   34  C3  UNL     1      -8.226 -26.722 -14.625  1.00  0.00     0.063 A 
HETATM   35  C2  UNL     1      -8.399 -26.821 -15.988  1.00  0.00     0.079 A 
HETATM   36  C1  UNL     1      -7.929 -27.936 -16.697  1.00  0.00     0.116 A 
HETATM   37  N7  UNL     1      -7.304 -28.908 -16.020  1.00  0.00    -0.177 N 
HETATM   38  C25 UNL     1      -7.122 -28.835 -14.691  1.00  0.00     0.677 A 
ATOM     39  H7  UNL     1      -6.958 -29.724 -16.526  1.00  0.00     0.185 HD
HETATM   40  N5  UNL     1      -7.584 -27.750 -14.021  1.00  0.00    -0.191 N 
ATOM     41  H5  UNL     1      -7.440 -27.706 -13.012  1.00  0.00     0.184 HD
BRANCH  36  42
HETATM   42  N1  UNL     1      -8.105 -27.995 -17.946  1.00  0.00    -0.385 N 
ATOM     43  H12 UNL     1      -7.618 -27.372 -18.592  1.00  0.00     0.157 HD
ATOM     44  H11 UNL     1      -8.753 -28.684 -18.328  1.00  0.00     0.157 HD
ENDBRANCH  36  42
BRANCH  38  45
HETATM   45  N6  UNL     1      -6.512 -29.804 -14.098  1.00  0.00    -0.234 N 
ATOM     46  H62 UNL     1      -5.509 -29.913 -14.249  1.00  0.00     0.174 HD
ATOM     47  H61 UNL     1      -6.997 -30.462 -13.487  1.00  0.00     0.174 HD
ENDBRANCH  38  45
ENDBRANCH  32  34
ENDBRANCH   1  28
TORSDOF 10
ENDMDL
MODEL 5
REMARK VINA RESULT: -10.915543210      0.435      1.305
REMARK  10 active torsions:
REMARK  status: ('A' for Active; 'I' for Inactive)
REMARK    1  A    between atoms: N1_1  and  C1_4 
REMARK    2  A    between atoms: C3_6  and  C4_7 
REMARK    3  A    between atoms: C8_11  and  C9_12 
REMARK    4  A    between atoms: C11_14  and  C12_15 
REMARK    5  A    between atoms: C16_19  and  O1_20 
REMARK    6  A    between atoms: O1_20  and  C17_21 
REMARK    7  A    between atoms: C21_25  and  N2_26 
REMARK    8  A    between atoms: N2_26  and  S1_28 
REMARK    9  A    between atoms: S1_28  and  N3_29 
REMARK   10  A    between atoms: C25_42  and  N6_43 
ROOT
HETATM    1  C9  UNL     1     -10.105 -23.037 -15.228  1.00  0.00     0.111 A 
HETATM    2  C10 UNL     1     -10.690 -22.033 -14.486  1.00  0.00     0.072 A 
HETATM    3  C11 UNL     1     -11.268 -21.128 -15.352  1.00  0.00     0.068 A 
HETATM    4  N4  UNL     1     -11.009 -21.621 -16.578  1.00  0.00    -0.260 N 
ATOM      5  H4  UNL     1     -11.300 -21.188 -17.454  1.00  0.00     0.195 HD
HETATM    6  O4  UNL     1     -10.338 -22.721 -16.486  1.00  0.00    -0.237 OA
ENDROOT
BRANCH   3   7
HETATM    7  C12 UNL     1     -12.002 -19.904 -15.022  1.00  0.00    -0.005 A 
HETATM    8  C13 UNL     1     -12.609 -19.144 -15.994  1.00  0.00     0.014 A 
HETATM    9  C14 UNL     1     -13.304 -17.990 -15.704  1.00  0.00     0.004 A 
HETATM   10  C15 UNL     1     -13.397 -17.573 -14.369  1.00  0.00     0.037 A 
HETATM   11  C16 UNL     1     -12.798 -18.319 -13.385  1.00  0.00     0.076 A 
HETATM   12  C23 UNL     1     -12.112 -19.465 -13.707  1.00  0.00     0.051 A 
BRANCH  11  13
HETATM   13  O1  UNL     1     -12.886 -17.915 -12.080  1.00  0.00    -0.311 OA
BRANCH  13  14
HETATM   14  C17 UNL     1     -11.944 -17.192 -11.393  1.00  0.00     0.078 A 
HETATM   15  C18 UNL     1     -11.949 -15.818 -11.512  1.00  0.00     0.037 A 
HETATM   16  C19 UNL     1     -11.013 -15.065 -10.832  1.00  0.00     0.005 A 
HETATM   17  C20 UNL     1     -10.091 -15.705 -10.046  1.00  0.00     0.030 A 
HETATM   18  C21 UNL     1     -10.046 -17.098  -9.893  1.00  0.00     0.046 A 
HETATM   19  C22 UNL     1     -11.011 -17.798 -10.600  1.00  0.00     0.067 A 
BRANCH  18  20
HETATM   20  N2  UNL     1      -9.085 -17.726  -9.077  1.00  0.00    -0.268 N 
ATOM     21  H2  UNL     1      -9.291 -17.798  -8.081  1.00  0.00     0.180 HD
BRANCH  20  22
HETATM   22  S1  UNL     1      -7.592 -18.380  -9.623  1.00  0.00     0.317 S 
HETATM   23  O2  UNL     1      -6.403 -17.858  -8.885  1.00  0.00    -0.183 OA
HETATM   24  O3  UNL     1      -7.400 -17.978 -11.076  1.00  0.00    -0.183 OA
BRANCH  22  25
HETATM   25  N3  UNL     1      -7.627 -20.119  -9.603  1.00  0.00    -0.311 N 
ATOM     26  H32 UNL     1      -6.891 -20.695  -9.193  1.00  0.00     0.170 HD
ATOM     27  H31 UNL     1      -8.471 -20.474 -10.053  1.00  0.00     0.170 HD
ENDBRANCH  22  25
ENDBRANCH  20  22
ENDBRANCH  18  20
ENDBRANCH  13  14
ENDBRANCH  11  13
ENDBRANCH   3   7
BRANCH   1  28
HETATM   28  C8  UNL     1      -9.378 -24.209 -14.775  1.00  0.00     0.001 A 
HETATM   29  C7  UNL     1      -9.158 -24.465 -13.442  1.00  0.00     0.014 A 
HETATM   30  C6  UNL     1      -8.460 -25.593 -13.031  1.00  0.00     0.002 A 
HETATM   31  C5  UNL     1      -7.971 -26.485 -13.982  1.00  0.00     0.014 A 
HETATM   32  C4  UNL     1      -8.173 -26.260 -15.319  1.00  0.00    -0.008 A 
HETATM   33  C24 UNL     1      -8.869 -25.132 -15.686  1.00  0.00     0.028 A 
BRANCH  32  34
HETATM   34  C3  UNL     1      -7.666 -27.188 -16.326  1.00  0.00     0.063 A 
HETATM   35  C2  UNL     1      -8.456 -28.147 -16.917  1.00  0.00     0.079 A 
HETATM   36  C1  UNL     1      -7.932 -29.021 -17.882  1.00  0.00     0.116 A 
HETATM   37  N7  UNL     1      -6.642 -28.903 -18.218  1.00  0.00    -0.177 N 
HETATM   38  C25 UNL     1      -5.850 -27.975 -17.656  1.00  0.00     0.677 A 
ATOM     39  H7  UNL     1      -6.251 -29.534 -18.919  1.00  0.00     0.185 HD
HETATM   40  N5  UNL     1      -6.373 -27.139 -16.725  1.00  0.00    -0.191 N 
ATOM     41  H5  UNL     1      -5.762 -26.438 -16.305  1.00  0.00     0.184 HD
BRANCH  36  42
HETATM   42  N1  UNL     1      -8.686 -29.890 -18.404  1.00  0.00    -0.385 N 
ATOM     43  H12 UNL     1      -9.625 -30.075 -18.053  1.00  0.00     0.157 HD
ATOM     44  H11 UNL     1      -8.349 -30.427 -19.204  1.00  0.00     0.157 HD
ENDBRANCH  36  42
BRANCH  38  45
HETATM   45  N6  UNL     1      -4.616 -27.912 -18.024  1.00  0.00    -0.234 N 
ATOM     46  H62 UNL     1      -4.218 -26.999 -18.243  1.00  0.00     0.174 HD
ATOM     47  H61 UNL     1      -4.027 -28.742 -18.104  1.00  0.00     0.174 HD
ENDBRANCH  38  45
ENDBRANCH  32  34
ENDBRANCH   1  28
TORSDOF 10
ENDMDL
