MODEL 1
REMARK VINA RESULT: -10.994472638      0.000      0.000
REMARK  9 active torsions:
REMARK  status: ('A' for Active; 'I' for Inactive)
REMARK    1  A    between atoms: N1_1  and  C1_4 
REMARK    2  A    between atoms: C4_7  and  C5_8 
REMARK    3  A    between atoms: C6_9  and  C7_10 
REMARK    4  A    between atoms: C7_10  and  N2_11 
REMARK    5  A    between atoms: N2_11  and  C8_13 
REMARK    6  A    between atoms: C11_16  and  C12_17 
REMARK    7  A    between atoms: C16_21  and  C17_22 
REMARK    8  A    between atoms: C27_38  and  C28_39 
REMARK    9  A    between atoms: C28_39  and  O1_40 
ROOT
HETATM    1  C7  UNL     1     -13.445 -18.204 -10.769  1.00  0.00     0.177 C 
ENDROOT
BRANCH   1   2
HETATM    2  C6  UNL     1     -12.840 -17.006 -10.143  1.00  0.00     0.044 A 
HETATM    3  C5  UNL     1     -11.527 -17.031  -9.781  1.00  0.00     0.060 A 
HETATM    4  C29 UNL     1     -10.995 -15.897  -9.197  1.00  0.00     0.114 A 
HETATM    5  N6  UNL     1     -11.789 -14.810  -9.006  1.00  0.00    -0.330 N 
HETATM    6  N7  UNL     1      -9.757 -15.896  -8.848  1.00  0.00    -0.385 N 
HETATM    7  C27 UNL     1     -13.080 -14.803  -9.369  1.00  0.00     0.107 A 
ATOM      8  H6  UNL     1     -11.391 -13.976  -8.575  1.00  0.00     0.168 HD
HETATM    9  N5  UNL     1     -13.587 -15.911  -9.936  1.00  0.00    -0.345 N 
ATOM     10  H5  UNL     1     -14.567 -15.920 -10.217  1.00  0.00     0.167 HD
ATOM     11  H72 UNL     1      -9.162 -16.712  -8.991  1.00  0.00     0.157 HD
ATOM     12  H71 UNL     1      -9.364 -15.059  -8.417  1.00  0.00     0.157 HD
BRANCH   3  13
HETATM   13  C4  UNL     1     -10.761 -18.245 -10.031  1.00  0.00     0.064 A 
HETATM   14  C3  UNL     1     -10.841 -19.379  -9.247  1.00  0.00     0.036 A 
HETATM   15  C2  UNL     1     -10.083 -20.512  -9.536  1.00  0.00     0.051 A 
HETATM   16  C1  UNL     1      -9.239 -20.498 -10.628  1.00  0.00     0.113 A 
HETATM   17  N9  UNL     1      -9.196 -19.370 -11.361  1.00  0.00    -0.285 N 
HETATM   18  N8  UNL     1      -9.920 -18.293 -11.080  1.00  0.00    -0.298 N 
ATOM     19  H9  UNL     1      -8.578 -19.341 -12.171  1.00  0.00     0.188 HD
ATOM     20  H8  UNL     1      -9.834 -17.473 -11.680  1.00  0.00     0.187 HD
BRANCH  16  21
HETATM   21  N1  UNL     1      -8.516 -21.536 -10.931  1.00  0.00    -0.384 N 
ATOM     22  H12 UNL     1      -8.913 -22.475 -10.958  1.00  0.00     0.157 HD
ATOM     23  H11 UNL     1      -7.524 -21.441 -11.152  1.00  0.00     0.157 HD
ENDBRANCH  16  21
ENDBRANCH   3  13
BRANCH   7  24
HETATM   24  C28 UNL     1     -13.917 -13.582  -9.140  1.00  0.00     0.240 C 
BRANCH  24  25
HETATM   25  O1  UNL     1     -13.617 -12.645 -10.096  1.00  0.00    -0.393 OA
ATOM     26  H1  UNL     1     -14.267 -11.953 -10.069  1.00  0.00     0.209 HD
ENDBRANCH  24  25
ENDBRANCH   7  24
ENDBRANCH   1   2
BRANCH   1  27
HETATM   27  N2  UNL     1     -13.681 -18.037 -12.169  1.00  0.00    -0.384 N 
ATOM     28  H2  UNL     1     -14.350 -17.339 -12.494  1.00  0.00     0.160 HD
BRANCH  27  29
HETATM   29  C8  UNL     1     -12.983 -18.842 -13.102  1.00  0.00     0.028 A 
HETATM   30  C9  UNL     1     -12.792 -18.465 -14.422  1.00  0.00     0.030 A 
HETATM   31  C10 UNL     1     -12.106 -19.273 -15.312  1.00  0.00     0.014 A 
HETATM   32  C11 UNL     1     -11.594 -20.482 -14.901  1.00  0.00    -0.026 A 
HETATM   33  C25 UNL     1     -11.771 -20.874 -13.603  1.00  0.00     0.014 A 
HETATM   34  C26 UNL     1     -12.457 -20.054 -12.731  1.00  0.00     0.030 A 
BRANCH  32  35
HETATM   35  C12 UNL     1     -10.882 -21.289 -15.877  1.00  0.00    -0.025 A 
HETATM   36  C13 UNL     1     -10.755 -20.878 -17.187  1.00  0.00     0.012 A 
HETATM   37  C14 UNL     1     -10.073 -21.667 -18.092  1.00  0.00     0.002 A 
HETATM   38  C15 UNL     1      -9.525 -22.864 -17.671  1.00  0.00     0.015 A 
HETATM   39  C16 UNL     1      -9.636 -23.301 -16.370  1.00  0.00     0.009 A 
HETATM   40  C24 UNL     1     -10.318 -22.495 -15.494  1.00  0.00     0.027 A 
BRANCH  39  41
HETATM   41  C17 UNL     1      -9.061 -24.564 -15.915  1.00  0.00     0.116 A 
HETATM   42  N3  UNL     1      -8.504 -25.500 -16.701  1.00  0.00    -0.340 N 
HETATM   43  C18 UNL     1      -8.074 -26.538 -15.961  1.00  0.00     0.060 A 
ATOM     44  H3  UNL     1      -8.419 -25.433 -17.715  1.00  0.00     0.167 HD
HETATM   45  C19 UNL     1      -7.444 -27.735 -16.248  1.00  0.00     0.032 A 
HETATM   46  C23 UNL     1      -8.380 -26.230 -14.643  1.00  0.00     0.060 A 
HETATM   47  C20 UNL     1      -7.109 -28.640 -15.264  1.00  0.00     0.002 A 
HETATM   48  C21 UNL     1      -7.411 -28.345 -13.933  1.00  0.00     0.002 A 
HETATM   49  C22 UNL     1      -8.037 -27.147 -13.672  1.00  0.00     0.032 A 
HETATM   50  N4  UNL     1      -8.979 -25.026 -14.652  1.00  0.00    -0.340 N 
ATOM     51  H4  UNL     1      -9.320 -24.535 -13.825  1.00  0.00     0.167 HD
ENDBRANCH  39  41
ENDBRANCH  32  35
ENDBRANCH  27  29
ENDBRANCH   1  27
TORSDOF 9
ENDMDL
MODEL 2
REMARK VINA RESULT: -10.708708103      2.418      4.651
REMARK  9 active torsions:
REMARK  status: ('A' for Active; 'I' for Inactive)
REMARK    1  A    between atoms: N1_1  and  C1_4 
REMARK    2  A    between atoms: C4_7  and  C5_8 
REMARK    3  A    between atoms: C6_9  and  C7_10 
REMARK    4  A    between atoms: C7_10  and  N2_11 
REMARK    5  A    between atoms: N2_11  and  C8_13 
REMARK    6  A    between atoms: C11_16  and  C12_17 
REMARK    7  A    between atoms: C16_21  and  C17_22 
REMARK    8  A    between atoms: C27_38  and  C28_39 
REMARK    9  A    between atoms: C28_39  and  O1_40 
ROOT
HETATM    1  C7  UNL     1     -11.988 -20.392 -11.051  1.00  0.00     0.177 C 
ENDROOT
BRANCH   1   2
HETATM    2  C6  UNL     1     -11.664 -18.962 -10.844  1.00  0.00     0.044 A 
HETATM    3  C5  UNL     1     -12.190 -18.027 -11.684  1.00  0.00     0.060 A 
HETATM    4  C29 UNL     1     -11.865 -16.703 -11.463  1.00  0.00     0.114 A 
HETATM    5  N6  UNL     1     -11.042 -16.381 -10.430  1.00  0.00    -0.330 N 
HETATM    6  N7  UNL     1     -12.351 -15.802 -12.243  1.00  0.00    -0.385 N 
HETATM    7  C27 UNL     1     -10.533 -17.314  -9.612  1.00  0.00     0.107 A 
ATOM      8  H6  UNL     1     -10.805 -15.402 -10.272  1.00  0.00     0.168 HD
HETATM    9  N5  UNL     1     -10.856 -18.600  -9.836  1.00  0.00    -0.345 N 
ATOM     10  H5  UNL     1     -10.476 -19.320  -9.222  1.00  0.00     0.167 HD
ATOM     11  H72 UNL     1     -12.969 -16.045 -13.018  1.00  0.00     0.157 HD
ATOM     12  H71 UNL     1     -12.111 -14.824 -12.080  1.00  0.00     0.157 HD
BRANCH   3  13
HETATM   13  C4  UNL     1     -13.064 -18.476 -12.760  1.00  0.00     0.064 A 
HETATM   14  C3  UNL     1     -12.612 -18.855 -14.008  1.00  0.00     0.036 A 
HETATM   15  C2  UNL     1     -13.498 -19.276 -15.000  1.00  0.00     0.051 A 
HETATM   16  C1  UNL     1     -14.850 -19.315 -14.724  1.00  0.00     0.113 A 
HETATM   17  N9  UNL     1     -15.240 -18.936 -13.493  1.00  0.00    -0.285 N 
HETATM   18  N8  UNL     1     -14.392 -18.535 -12.554  1.00  0.00    -0.298 N 
ATOM     19  H9  UNL     1     -16.235 -18.958 -13.272  1.00  0.00     0.188 HD
ATOM     20  H8  UNL     1     -14.762 -18.262 -11.643  1.00  0.00     0.187 HD
BRANCH  16  21
HETATM   21  N1  UNL     1     -15.707 -19.702 -15.623  1.00  0.00    -0.384 N 
ATOM     22  H12 UNL     1     -15.472 -19.717 -16.615  1.00  0.00     0.157 HD
ATOM     23  H11 UNL     1     -16.645 -20.005 -15.359  1.00  0.00     0.157 HD
ENDBRANCH  16  21
ENDBRANCH   3  13
BRANCH   7  24
HETATM   24  C28 UNL     1      -9.631 -16.914  -8.486  1.00  0.00     0.240 C 
BRANCH  24  25
HETATM   25  O1  UNL     1      -8.949 -15.777  -8.838  1.00  0.00    -0.393 OA
ATOM     26  H1  UNL     1      -8.795 -15.252  -8.062  1.00  0.00     0.209 HD
ENDBRANCH  24  25
ENDBRANCH   7  24
ENDBRANCH   1   2
BRANCH   1  27
HETATM   27  N2  UNL     1     -10.887 -21.256 -10.764  1.00  0.00    -0.384 N 
ATOM     28  H2  UNL     1     -10.454 -21.242  -9.840  1.00  0.00     0.160 HD
BRANCH  27  29
HETATM   29  C8  UNL     1     -10.398 -22.131 -11.765  1.00  0.00     0.028 A 
HETATM   30  C9  UNL     1      -9.733 -23.311 -11.470  1.00  0.00     0.030 A 
HETATM   31  C10 UNL     1      -9.266 -24.146 -12.469  1.00  0.00     0.014 A 
HETATM   32  C11 UNL     1      -9.453 -23.819 -13.793  1.00  0.00    -0.026 A 
HETATM   33  C25 UNL     1     -10.106 -22.660 -14.106  1.00  0.00     0.014 A 
HETATM   34  C26 UNL     1     -10.564 -21.841 -13.095  1.00  0.00     0.030 A 
BRANCH  32  35
HETATM   35  C12 UNL     1      -8.942 -24.733 -14.801  1.00  0.00    -0.025 A 
HETATM   36  C13 UNL     1      -8.995 -24.419 -16.142  1.00  0.00     0.012 A 
HETATM   37  C14 UNL     1      -8.501 -25.308 -17.076  1.00  0.00     0.002 A 
HETATM   38  C15 UNL     1      -7.958 -26.506 -16.652  1.00  0.00     0.015 A 
HETATM   39  C16 UNL     1      -7.892 -26.848 -15.319  1.00  0.00     0.009 A 
HETATM   40  C24 UNL     1      -8.390 -25.944 -14.415  1.00  0.00     0.027 A 
BRANCH  39  41
HETATM   41  C17 UNL     1      -7.321 -28.111 -14.861  1.00  0.00     0.116 A 
HETATM   42  N3  UNL     1      -7.258 -28.526 -13.584  1.00  0.00    -0.340 N 
HETATM   43  C18 UNL     1      -6.671 -29.734 -13.512  1.00  0.00     0.060 A 
ATOM     44  H3  UNL     1      -7.606 -27.999 -12.784  1.00  0.00     0.167 HD
HETATM   45  C19 UNL     1      -6.361 -30.598 -12.479  1.00  0.00     0.032 A 
HETATM   46  C23 UNL     1      -6.351 -30.090 -14.815  1.00  0.00     0.060 A 
HETATM   47  C20 UNL     1      -5.740 -31.809 -12.699  1.00  0.00     0.002 A 
HETATM   48  C21 UNL     1      -5.411 -32.181 -14.004  1.00  0.00     0.002 A 
HETATM   49  C22 UNL     1      -5.731 -31.304 -15.016  1.00  0.00     0.032 A 
HETATM   50  N4  UNL     1      -6.759 -29.082 -15.607  1.00  0.00    -0.340 N 
ATOM     51  H4  UNL     1      -6.658 -29.057 -16.622  1.00  0.00     0.167 HD
ENDBRANCH  39  41
ENDBRANCH  32  35
ENDBRANCH  27  29
ENDBRANCH   1  27
TORSDOF 9
ENDMDL
MODEL 3
REMARK VINA RESULT: -10.488316726      2.249      4.180
REMARK  9 active torsions:
REMARK  status: ('A' for Active; 'I' for Inactive)
REMARK    1  A    between atoms: N1_1  and  C1_4 
REMARK    2  A    between atoms: C4_7  and  C5_8 
REMARK    3  A    between atoms: C6_9  and  C7_10 
REMARK    4  A    between atoms: C7_10  and  N2_11 
REMARK    5  A    between atoms: N2_11  and  C8_13 
REMARK    6  A    between atoms: C11_16  and  C12_17 
REMARK    7  A    between atoms: C16_21  and  C17_22 
REMARK    8  A    between atoms: C27_38  and  C28_39 
REMARK    9  A    between atoms: C28_39  and  O1_40 
ROOT
HETATM    1  C7  UNL     1     -12.257 -20.389 -11.212  1.00  0.00     0.177 C 
ENDROOT
BRANCH   1   2
HETATM    2  C6  UNL     1     -11.858 -18.981 -10.985  1.00  0.00     0.044 A 
HETATM    3  C5  UNL     1     -12.324 -18.010 -11.818  1.00  0.00     0.060 A 
HETATM    4  C29 UNL     1     -11.930 -16.708 -11.579  1.00  0.00     0.114 A 
HETATM    5  N6  UNL     1     -11.102 -16.442 -10.534  1.00  0.00    -0.330 N 
HETATM    6  N7  UNL     1     -12.359 -15.774 -12.353  1.00  0.00    -0.385 N 
HETATM    7  C27 UNL     1     -10.652 -17.411  -9.723  1.00  0.00     0.107 A 
ATOM      8  H6  UNL     1     -10.814 -15.479 -10.363  1.00  0.00     0.168 HD
HETATM    9  N5  UNL     1     -11.042 -18.675  -9.965  1.00  0.00    -0.345 N 
ATOM     10  H5  UNL     1     -10.708 -19.421  -9.356  1.00  0.00     0.167 HD
ATOM     11  H72 UNL     1     -12.981 -15.973 -13.136  1.00  0.00     0.157 HD
ATOM     12  H71 UNL     1     -12.068 -14.812 -12.176  1.00  0.00     0.157 HD
BRANCH   3  13
HETATM   13  C4  UNL     1     -13.210 -18.399 -12.908  1.00  0.00     0.064 A 
HETATM   14  C3  UNL     1     -12.789 -18.588 -14.209  1.00  0.00     0.036 A 
HETATM   15  C2  UNL     1     -13.684 -18.961 -15.211  1.00  0.00     0.051 A 
HETATM   16  C1  UNL     1     -15.015 -19.144 -14.893  1.00  0.00     0.113 A 
HETATM   17  N9  UNL     1     -15.375 -18.948 -13.611  1.00  0.00    -0.285 N 
HETATM   18  N8  UNL     1     -14.518 -18.592 -12.661  1.00  0.00    -0.298 N 
ATOM     19  H9  UNL     1     -16.354 -19.078 -13.357  1.00  0.00     0.188 HD
ATOM     20  H8  UNL     1     -14.865 -18.460 -11.711  1.00  0.00     0.187 HD
BRANCH  16  21
HETATM   21  N1  UNL     1     -15.880 -19.492 -15.799  1.00  0.00    -0.384 N 
ATOM     22  H12 UNL     1     -15.843 -19.116 -16.747  1.00  0.00     0.157 HD
ATOM     23  H11 UNL     1     -16.626 -20.155 -15.587  1.00  0.00     0.157 HD
ENDBRANCH  16  21
ENDBRANCH   3  13
BRANCH   7  24
HETATM   24  C28 UNL     1      -9.742 -17.072  -8.583  1.00  0.00     0.240 C 
BRANCH  24  25
HETATM   25  O1  UNL     1      -9.306 -15.779  -8.724  1.00  0.00    -0.393 OA
ATOM     26  H1  UNL     1      -9.042 -15.635  -9.626  1.00  0.00     0.209 HD
ENDBRANCH  24  25
ENDBRANCH   7  24
ENDBRANCH   1   2
BRANCH   1  27
HETATM   27  N2  UNL     1     -11.154 -21.295 -11.134  1.00  0.00    -0.384 N 
ATOM     28  H2  UNL     1     -10.750 -21.533 -10.228  1.00  0.00     0.160 HD
BRANCH  27  29
HETATM   29  C8  UNL     1     -10.624 -21.863 -12.318  1.00  0.00     0.028 A 
HETATM   30  C9  UNL     1     -10.923 -21.378 -13.582  1.00  0.00     0.030 A 
HETATM   31  C10 UNL     1     -10.391 -21.953 -14.722  1.00  0.00     0.014 A 
HETATM   32  C11 UNL     1      -9.542 -23.032 -14.624  1.00  0.00    -0.026 A 
HETATM   33  C25 UNL     1      -9.233 -23.527 -13.388  1.00  0.00     0.014 A 
HETATM   34  C26 UNL     1      -9.775 -22.939 -12.264  1.00  0.00     0.030 A 
BRANCH  32  35
HETATM   35  C12 UNL     1      -9.011 -23.597 -15.854  1.00  0.00    -0.025 A 
HETATM   36  C13 UNL     1      -9.183 -22.959 -17.065  1.00  0.00     0.012 A 
HETATM   37  C14 UNL     1      -8.667 -23.520 -18.216  1.00  0.00     0.002 A 
HETATM   38  C15 UNL     1      -7.983 -24.718 -18.140  1.00  0.00     0.015 A 
HETATM   39  C16 UNL     1      -7.796 -25.379 -16.946  1.00  0.00     0.009 A 
HETATM   40  C24 UNL     1      -8.320 -24.796 -15.819  1.00  0.00     0.027 A 
BRANCH  39  41
HETATM   41  C17 UNL     1      -7.076 -26.646 -16.854  1.00  0.00     0.116 A 
HETATM   42  N3  UNL     1      -5.978 -26.975 -17.555  1.00  0.00    -0.340 N 
HETATM   43  C18 UNL     1      -5.569 -28.215 -17.229  1.00  0.00     0.060 A 
ATOM     44  H3  UNL     1      -5.520 -26.371 -18.237  1.00  0.00     0.167 HD
HETATM   45  C19 UNL     1      -4.525 -29.026 -17.633  1.00  0.00     0.032 A 
HETATM   46  C23 UNL     1      -6.461 -28.681 -16.275  1.00  0.00     0.060 A 
HETATM   47  C20 UNL     1      -4.339 -30.291 -17.118  1.00  0.00     0.002 A 
HETATM   48  C21 UNL     1      -5.229 -30.774 -16.157  1.00  0.00     0.002 A 
HETATM   49  C22 UNL     1      -6.260 -29.948 -15.770  1.00  0.00     0.032 A 
HETATM   50  N4  UNL     1      -7.363 -27.704 -16.071  1.00  0.00    -0.340 N 
ATOM     51  H4  UNL     1      -8.147 -27.756 -15.421  1.00  0.00     0.167 HD
ENDBRANCH  39  41
ENDBRANCH  32  35
ENDBRANCH  27  29
ENDBRANCH   1  27
TORSDOF 9
ENDMDL
MODEL 4
REMARK VINA RESULT: -10.441082513      2.976      5.315
REMARK  9 active torsions:
REMARK  status: ('A' for Active; 'I' for Inactive)
REMARK    1  A    between atoms: N1_1  and  C1_4 
REMARK    2  A    between atoms: C4_7  and  C5_8 
REMARK    3  A    between atoms: C6_9  and  C7_10 
REMARK    4  A    between atoms: C7_10  and  N2_11 
REMARK    5  A    between atoms: N2_11  and  C8_13 
REMARK    6  A    between atoms: C11_16  and  C12_17 
REMARK    7  A    between atoms: C16_21  and  C17_22 
REMARK    8  A    between atoms: C27_38  and  C28_39 
REMARK    9  A    between atoms: C28_39  and  O1_40 
ROOT
HETATM    1  C7  UNL     1     -11.380 -19.611 -14.349  1.00  0.00     0.177 C 
ENDROOT
BRANCH   1   2
HETATM    2  C6  UNL     1     -12.793 -19.328 -14.006  1.00  0.00     0.044 A 
HETATM    3  C5  UNL     1     -13.095 -18.818 -12.779  1.00  0.00     0.060 A 
HETATM    4  C29 UNL     1     -14.423 -18.568 -12.492  1.00  0.00     0.114 A 
HETATM    5  N6  UNL     1     -15.371 -18.837 -13.428  1.00  0.00    -0.330 N 
HETATM    6  N7  UNL     1     -14.732 -18.085 -11.340  1.00  0.00    -0.385 N 
HETATM    7  C27 UNL     1     -15.055 -19.339 -14.631  1.00  0.00     0.107 A 
ATOM      8  H6  UNL     1     -16.349 -18.652 -13.210  1.00  0.00     0.168 HD
HETATM    9  N5  UNL     1     -13.761 -19.578 -14.901  1.00  0.00    -0.345 N 
ATOM     10  H5  UNL     1     -13.506 -19.960 -15.812  1.00  0.00     0.167 HD
ATOM     11  H72 UNL     1     -14.020 -17.884 -10.638  1.00  0.00     0.157 HD
ATOM     12  H71 UNL     1     -15.713 -17.901 -11.127  1.00  0.00     0.157 HD
BRANCH   3  13
HETATM   13  C4  UNL     1     -12.005 -18.563 -11.847  1.00  0.00     0.064 A 
HETATM   14  C3  UNL     1     -11.386 -19.546 -11.101  1.00  0.00     0.036 A 
HETATM   15  C2  UNL     1     -10.346 -19.241 -10.224  1.00  0.00     0.051 A 
HETATM   16  C1  UNL     1      -9.929 -17.931 -10.102  1.00  0.00     0.113 A 
HETATM   17  N9  UNL     1     -10.563 -17.010 -10.851  1.00  0.00    -0.285 N 
HETATM   18  N8  UNL     1     -11.554 -17.306 -11.684  1.00  0.00    -0.298 N 
ATOM     19  H9  UNL     1     -10.268 -16.036 -10.774  1.00  0.00     0.188 HD
ATOM     20  H8  UNL     1     -11.987 -16.553 -12.218  1.00  0.00     0.187 HD
BRANCH  16  21
HETATM   21  N1  UNL     1      -8.962 -17.607  -9.295  1.00  0.00    -0.384 N 
ATOM     22  H12 UNL     1      -9.039 -17.742  -8.287  1.00  0.00     0.157 HD
ATOM     23  H11 UNL     1      -8.094 -17.205  -9.649  1.00  0.00     0.157 HD
ENDBRANCH  16  21
ENDBRANCH   3  13
BRANCH   7  24
HETATM   24  C28 UNL     1     -16.133 -19.620 -15.633  1.00  0.00     0.240 C 
BRANCH  24  25
HETATM   25  O1  UNL     1     -16.556 -20.917 -15.488  1.00  0.00    -0.393 OA
ATOM     26  H1  UNL     1     -16.251 -21.429 -16.228  1.00  0.00     0.209 HD
ENDBRANCH  24  25
ENDBRANCH   7  24
ENDBRANCH   1   2
BRANCH   1  27
HETATM   27  N2  UNL     1     -11.248 -20.497 -15.462  1.00  0.00    -0.384 N 
ATOM     28  H2  UNL     1     -11.618 -20.230 -16.375  1.00  0.00     0.160 HD
BRANCH  27  29
HETATM   29  C8  UNL     1     -10.605 -21.748 -15.295  1.00  0.00     0.028 A 
HETATM   30  C9  UNL     1     -10.210 -22.537 -16.363  1.00  0.00     0.030 A 
HETATM   31  C10 UNL     1      -9.584 -23.755 -16.169  1.00  0.00     0.014 A 
HETATM   32  C11 UNL     1      -9.336 -24.215 -14.896  1.00  0.00    -0.026 A 
HETATM   33  C25 UNL     1      -9.717 -23.452 -13.827  1.00  0.00     0.014 A 
HETATM   34  C26 UNL     1     -10.341 -22.241 -14.042  1.00  0.00     0.030 A 
BRANCH  32  35
HETATM   35  C12 UNL     1      -8.675 -25.501 -14.751  1.00  0.00    -0.025 A 
HETATM   36  C13 UNL     1      -8.588 -26.125 -13.524  1.00  0.00     0.012 A 
HETATM   37  C14 UNL     1      -7.953 -27.346 -13.418  1.00  0.00     0.002 A 
HETATM   38  C15 UNL     1      -7.411 -27.930 -14.547  1.00  0.00     0.015 A 
HETATM   39  C16 UNL     1      -7.481 -27.331 -15.785  1.00  0.00     0.009 A 
HETATM   40  C24 UNL     1      -8.119 -26.118 -15.859  1.00  0.00     0.027 A 
BRANCH  39  41
HETATM   41  C17 UNL     1      -6.911 -27.938 -16.985  1.00  0.00     0.116 A 
HETATM   42  N3  UNL     1      -5.683 -27.703 -17.475  1.00  0.00    -0.340 N 
HETATM   43  C18 UNL     1      -5.477 -28.426 -18.590  1.00  0.00     0.060 A 
ATOM     44  H3  UNL     1      -5.003 -27.067 -17.060  1.00  0.00     0.167 HD
HETATM   45  C19 UNL     1      -4.421 -28.565 -19.472  1.00  0.00     0.032 A 
HETATM   46  C23 UNL     1      -6.641 -29.150 -18.806  1.00  0.00     0.060 A 
HETATM   47  C20 UNL     1      -4.486 -29.401 -20.565  1.00  0.00     0.002 A 
HETATM   48  C21 UNL     1      -5.651 -30.136 -20.796  1.00  0.00     0.002 A 
HETATM   49  C22 UNL     1      -6.687 -29.982 -19.904  1.00  0.00     0.032 A 
HETATM   50  N4  UNL     1      -7.490 -28.829 -17.813  1.00  0.00    -0.340 N 
ATOM     51  H4  UNL     1      -8.433 -29.205 -17.704  1.00  0.00     0.167 HD
ENDBRANCH  39  41
ENDBRANCH  32  35
ENDBRANCH  27  29
ENDBRANCH   1  27
TORSDOF 9
ENDMDL
MODEL 5
REMARK VINA RESULT: -10.419177503      2.988      5.337
REMARK  9 active torsions:
REMARK  status: ('A' for Active; 'I' for Inactive)
REMARK    1  A    between atoms: N1_1  and  C1_4 
REMARK    2  A    between atoms: C4_7  and  C5_8 
REMARK    3  A    between atoms: C6_9  and  C7_10 
REMARK    4  A    between atoms: C7_10  and  N2_11 
REMARK    5  A    between atoms: N2_11  and  C8_13 
REMARK    6  A    between atoms: C11_16  and  C12_17 
REMARK    7  A    between atoms: C16_21  and  C17_22 
REMARK    8  A    between atoms: C27_38  and  C28_39 
REMARK    9  A    between atoms: C28_39  and  O1_40 
ROOT
HETATM    1  C7  UNL     1     -11.385 -19.611 -14.339  1.00  0.00     0.177 C 
ENDROOT
BRANCH   1   2
HETATM    2  C6  UNL     1     -12.800 -19.329 -14.003  1.00  0.00     0.044 A 
HETATM    3  C5  UNL     1     -13.106 -18.794 -12.788  1.00  0.00     0.060 A 
HETATM    4  C29 UNL     1     -14.435 -18.546 -12.507  1.00  0.00     0.114 A 
HETATM    5  N6  UNL     1     -15.381 -18.839 -13.438  1.00  0.00    -0.330 N 
HETATM    6  N7  UNL     1     -14.748 -18.040 -11.366  1.00  0.00    -0.385 N 
HETATM    7  C27 UNL     1     -15.062 -19.365 -14.630  1.00  0.00     0.107 A 
ATOM      8  H6  UNL     1     -16.361 -18.655 -13.225  1.00  0.00     0.168 HD
HETATM    9  N5  UNL     1     -13.765 -19.603 -14.894  1.00  0.00    -0.345 N 
ATOM     10  H5  UNL     1     -13.508 -20.002 -15.795  1.00  0.00     0.167 HD
ATOM     11  H72 UNL     1     -14.038 -17.820 -10.667  1.00  0.00     0.157 HD
ATOM     12  H71 UNL     1     -15.730 -17.857 -11.157  1.00  0.00     0.157 HD
BRANCH   3  13
HETATM   13  C4  UNL     1     -12.018 -18.514 -11.861  1.00  0.00     0.064 A 
HETATM   14  C3  UNL     1     -11.508 -17.251 -11.633  1.00  0.00     0.036 A 
HETATM   15  C2  UNL     1     -10.464 -17.044 -10.732  1.00  0.00     0.051 A 
HETATM   16  C1  UNL     1      -9.934 -18.124 -10.056  1.00  0.00     0.113 A 
HETATM   17  N9  UNL     1     -10.464 -19.334 -10.312  1.00  0.00    -0.285 N 
HETATM   18  N8  UNL     1     -11.458 -19.525 -11.172  1.00  0.00    -0.298 N 
ATOM     19  H9  UNL     1     -10.085 -20.143  -9.821  1.00  0.00     0.188 HD
ATOM     20  H8  UNL     1     -11.808 -20.472 -11.315  1.00  0.00     0.187 HD
BRANCH  16  21
HETATM   21  N1  UNL     1      -8.960 -17.972  -9.207  1.00  0.00    -0.384 N 
ATOM     22  H12 UNL     1      -8.555 -17.055  -9.016  1.00  0.00     0.157 HD
ATOM     23  H11 UNL     1      -8.570 -18.770  -8.704  1.00  0.00     0.157 HD
ENDBRANCH  16  21
ENDBRANCH   3  13
BRANCH   7  24
HETATM   24  C28 UNL     1     -16.137 -19.673 -15.626  1.00  0.00     0.240 C 
BRANCH  24  25
HETATM   25  O1  UNL     1     -16.492 -20.993 -15.513  1.00  0.00    -0.393 OA
ATOM     26  H1  UNL     1     -16.784 -21.311 -16.359  1.00  0.00     0.209 HD
ENDBRANCH  24  25
ENDBRANCH   7  24
ENDBRANCH   1   2
BRANCH   1  27
HETATM   27  N2  UNL     1     -11.248 -20.494 -15.454  1.00  0.00    -0.384 N 
ATOM     28  H2  UNL     1     -11.612 -20.224 -16.368  1.00  0.00     0.160 HD
BRANCH  27  29
HETATM   29  C8  UNL     1     -10.605 -21.745 -15.287  1.00  0.00     0.028 A 
HETATM   30  C9  UNL     1     -10.204 -22.531 -16.356  1.00  0.00     0.030 A 
HETATM   31  C10 UNL     1      -9.578 -23.749 -16.162  1.00  0.00     0.014 A 
HETATM   32  C11 UNL     1      -9.337 -24.213 -14.889  1.00  0.00    -0.026 A 
HETATM   33  C25 UNL     1      -9.724 -23.453 -13.820  1.00  0.00     0.014 A 
HETATM   34  C26 UNL     1     -10.346 -22.241 -14.034  1.00  0.00     0.030 A 
BRANCH  32  35
HETATM   35  C12 UNL     1      -8.676 -25.499 -14.744  1.00  0.00    -0.025 A 
HETATM   36  C13 UNL     1      -8.617 -26.138 -13.524  1.00  0.00     0.012 A 
HETATM   37  C14 UNL     1      -7.981 -27.360 -13.418  1.00  0.00     0.002 A 
HETATM   38  C15 UNL     1      -7.411 -27.927 -14.541  1.00  0.00     0.015 A 
HETATM   39  C16 UNL     1      -7.453 -27.312 -15.773  1.00  0.00     0.009 A 
HETATM   40  C24 UNL     1      -8.092 -26.100 -15.847  1.00  0.00     0.027 A 
BRANCH  39  41
HETATM   41  C17 UNL     1      -6.852 -27.903 -16.965  1.00  0.00     0.116 A 
HETATM   42  N3  UNL     1      -7.433 -28.811 -17.768  1.00  0.00    -0.340 N 
HETATM   43  C18 UNL     1      -6.606 -29.144 -18.774  1.00  0.00     0.060 A 
ATOM     44  H3  UNL     1      -8.369 -29.193 -17.632  1.00  0.00     0.167 HD
HETATM   45  C19 UNL     1      -6.692 -30.004 -19.854  1.00  0.00     0.032 A 
HETATM   46  C23 UNL     1      -5.447 -28.403 -18.588  1.00  0.00     0.060 A 
HETATM   47  C20 UNL     1      -5.661 -30.153 -20.755  1.00  0.00     0.002 A 
HETATM   48  C21 UNL     1      -4.488 -29.415 -20.581  1.00  0.00     0.002 A 
HETATM   49  C22 UNL     1      -4.426 -28.565 -19.500  1.00  0.00     0.032 A 
HETATM   50  N4  UNL     1      -5.631 -27.662 -17.481  1.00  0.00    -0.340 N 
ATOM     51  H4  UNL     1      -4.947 -27.013 -17.089  1.00  0.00     0.167 HD
ENDBRANCH  39  41
ENDBRANCH  32  35
ENDBRANCH  27  29
ENDBRANCH   1  27
TORSDOF 9
ENDMDL
